# generated using pymatgen
data_LiMn4O8
_symmetry_space_group_name_H-M   'P 1'
_cell_length_a   5.91744193
_cell_length_b   9.61648640
_cell_length_c   10.31347971
_cell_angle_alpha   91.56916972
_cell_angle_beta   89.99997012
_cell_angle_gamma   90.00014082
_symmetry_Int_Tables_number   1
_chemical_formula_structural   LiMn4O8
_chemical_formula_sum   'Li4 Mn16 O32'
_cell_volume   586.66847496
_cell_formula_units_Z   4
loop_
 _symmetry_equiv_pos_site_id
 _symmetry_equiv_pos_as_xyz
  1  'x, y, z'
loop_
 _atom_site_type_symbol
 _atom_site_label
 _atom_site_symmetry_multiplicity
 _atom_site_fract_x
 _atom_site_fract_y
 _atom_site_fract_z
 _atom_site_occupancy
  Li  Li0  1  0.50606719  0.52539970  0.35587941  1
  Li  Li1  1  0.00601462  0.47460687  0.64411276  1
  Li  Li2  1  0.74399106  0.02541959  0.85590040  1
  Li  Li3  1  0.24405254  0.97456091  0.14410677  1
  Mn  Mn4  1  0.49892127  0.83144380  0.35244347  1
  Mn  Mn5  1  0.00157543  0.82192278  0.35746755  1
  Mn  Mn6  1  0.50071140  0.65452301  0.83866226  1
  Mn  Mn7  1  0.99991515  0.66212592  0.84429692  1
  Mn  Mn8  1  0.00071327  0.34547282  0.16132999  1
  Mn  Mn9  1  0.49991109  0.33785936  0.15569847  1
  Mn  Mn10  1  0.99891316  0.16856297  0.64756970  1
  Mn  Mn11  1  0.50154587  0.17809858  0.64253024  1
  Mn  Mn12  1  0.24843506  0.32190503  0.85745712  1
  Mn  Mn13  1  0.75109465  0.33144988  0.85239755  1
  Mn  Mn14  1  0.25005788  0.16212039  0.34426640  1
  Mn  Mn15  1  0.74924974  0.15452394  0.33865083  1
  Mn  Mn16  1  0.24925408  0.84548569  0.66136311  1
  Mn  Mn17  1  0.75006197  0.83789284  0.65573413  1
  Mn  Mn18  1  0.25113471  0.66854754  0.14760543  1
  Mn  Mn19  1  0.74845815  0.67808322  0.14253617  1
  O  O20  1  0.24730610  0.04161558  0.64296780  1
  O  O21  1  0.75176448  0.03870843  0.64850736  1
  O  O22  1  0.24766084  0.30580619  0.04234044  1
  O  O23  1  0.75257747  0.31018846  0.04040305  1
  O  O24  1  0.25258758  0.68979610  0.95959665  1
  O  O25  1  0.74766843  0.69418180  0.95765654  1
  O  O26  1  0.25178762  0.96129607  0.35149217  1
  O  O27  1  0.74730645  0.95838563  0.35703434  1
  O  O28  1  0.00268492  0.54162543  0.14297607  1
  O  O29  1  0.49823190  0.53868490  0.14850310  1
  O  O30  1  0.00229049  0.80583091  0.54235700  1
  O  O31  1  0.49741638  0.81021487  0.54044374  1
  O  O32  1  0.50227953  0.19418658  0.45764023  1
  O  O33  1  0.99742165  0.18979806  0.45956127  1
  O  O34  1  0.50265858  0.45837968  0.85702336  1
  O  O35  1  0.99822230  0.46130667  0.85149698  1
  O  O36  1  0.51632559  0.19087693  0.83239138  1
  O  O37  1  0.98102569  0.18504502  0.83700017  1
  O  O38  1  0.00664215  0.14522840  0.21597709  1
  O  O39  1  0.49282909  0.14262878  0.21330845  1
  O  O40  1  0.01636331  0.80912849  0.16760588  1
  O  O41  1  0.48106093  0.81495362  0.16300355  1
  O  O42  1  0.50664888  0.85477784  0.78402673  1
  O  O43  1  0.99282723  0.85736729  0.78669447  1
  O  O44  1  0.26905266  0.68502991  0.33703448  1
  O  O45  1  0.73375195  0.69088180  0.33241190  1
  O  O46  1  0.24328875  0.64524022  0.71600399  1
  O  O47  1  0.75711433  0.64265861  0.71333518  1
  O  O48  1  0.23371485  0.30912780  0.66758942  1
  O  O49  1  0.76902295  0.31496245  0.66297328  1
  O  O50  1  0.25710538  0.35733887  0.28665754  1
  O  O51  1  0.74328421  0.35476272  0.28399072  1
