# generated using pymatgen
data_CaMnO2
_symmetry_space_group_name_H-M   'P 1'
_cell_length_a   3.32057375
_cell_length_b   3.32082957
_cell_length_c   5.66566767
_cell_angle_alpha   90.00988797
_cell_angle_beta   107.01539585
_cell_angle_gamma   120.01973938
_symmetry_Int_Tables_number   1
_chemical_formula_structural   CaMnO2
_chemical_formula_sum   'Ca1 Mn1 O2'
_cell_volume   50.90978058
_cell_formula_units_Z   1
loop_
 _symmetry_equiv_pos_site_id
 _symmetry_equiv_pos_as_xyz
  1  'x, y, z'
loop_
 _atom_site_type_symbol
 _atom_site_label
 _atom_site_symmetry_multiplicity
 _atom_site_fract_x
 _atom_site_fract_y
 _atom_site_fract_z
 _atom_site_occupancy
  Ca  Ca0  1  0.00000013  0.50001238  0.49999609  1
  Mn  Mn1  1  0.99999264  0.99997726  0.99999313  1
  O  O2  1  0.50800971  0.25431192  0.76251070  1
  O  O3  1  0.49199852  0.74571045  0.23750208  1
