# generated using pymatgen
data_CaMnO2
_symmetry_space_group_name_H-M   'P 1'
_cell_length_a   6.59821665
_cell_length_b   6.59852302
_cell_length_c   6.60390408
_cell_angle_alpha   119.96919345
_cell_angle_beta   119.96597148
_cell_angle_gamma   90.00715597
_symmetry_Int_Tables_number   1
_chemical_formula_structural   CaMnO2
_chemical_formula_sum   'Ca4 Mn4 O8'
_cell_volume   203.49656750
_cell_formula_units_Z   4
loop_
 _symmetry_equiv_pos_site_id
 _symmetry_equiv_pos_as_xyz
  1  'x, y, z'
loop_
 _atom_site_type_symbol
 _atom_site_label
 _atom_site_symmetry_multiplicity
 _atom_site_fract_x
 _atom_site_fract_y
 _atom_site_fract_z
 _atom_site_occupancy
  Ca  Ca0  1  0.99958317  0.00026706  0.99998673  1
  Ca  Ca1  1  0.49969097  0.50025591  0.50005237  1
  Ca  Ca2  1  0.49971609  0.00017396  0.49981141  1
  Ca  Ca3  1  0.49956655  0.00037332  0.99987736  1
  Mn  Mn4  1  0.99963585  0.00006808  0.49980527  1
  Mn  Mn5  1  0.99977010  0.50023292  0.50010962  1
  Mn  Mn6  1  0.99978402  0.50015211  0.99991474  1
  Mn  Mn7  1  0.49980139  0.50023609  0.99999062  1
  O  O8  1  0.23789434  0.74665900  0.49282256  1
  O  O9  1  0.75417322  0.74665282  0.49277613  1
  O  O10  1  0.75321475  0.74565232  0.00722872  1
  O  O11  1  0.75329262  0.26213477  0.00712762  1
  O  O12  1  0.24516921  0.25371488  0.50712190  1
  O  O13  1  0.76149862  0.25383037  0.50697282  1
  O  O14  1  0.24594330  0.73842045  0.99260546  1
  O  O15  1  0.24595480  0.25491496  0.99272968  1
