# generated using pymatgen
data_LiMn3O6
_symmetry_space_group_name_H-M   'P 1'
_cell_length_a   2.91835604
_cell_length_b   5.02775071
_cell_length_c   7.11734401
_cell_angle_alpha   90.47882272
_cell_angle_beta   101.83184335
_cell_angle_gamma   89.99802103
_symmetry_Int_Tables_number   1
_chemical_formula_structural   LiMn3O6
_chemical_formula_sum   'Li1 Mn3 O6'
_cell_volume   102.20862104
_cell_formula_units_Z   1
loop_
 _symmetry_equiv_pos_site_id
 _symmetry_equiv_pos_as_xyz
  1  'x, y, z'
loop_
 _atom_site_type_symbol
 _atom_site_label
 _atom_site_symmetry_multiplicity
 _atom_site_fract_x
 _atom_site_fract_y
 _atom_site_fract_z
 _atom_site_occupancy
  Li  Li0  1  0.79375219  0.92835147  0.58724496  1
  Mn  Mn1  1  0.00306280  0.99704576  0.00596858  1
  Mn  Mn2  1  0.34254374  0.45483640  0.68555322  1
  Mn  Mn3  1  0.65426654  0.53001232  0.30822236  1
  O  O4  1  0.57422489  0.84050998  0.14840725  1
  O  O5  1  0.42294543  0.13939935  0.84602152  1
  O  O6  1  0.09475507  0.35409250  0.18910389  1
  O  O7  1  0.89952120  0.64577591  0.79943017  1
  O  O8  1  0.23372633  0.70289035  0.46739733  1
  O  O9  1  0.76716281  0.29342596  0.53439773  1
