# generated using pymatgen
data_MgMo2(PO5)2
_symmetry_space_group_name_H-M   'P 1'
_cell_length_a   7.10256219
_cell_length_b   7.10256156
_cell_length_c   8.74146806
_cell_angle_alpha   103.25949902
_cell_angle_beta   103.25950166
_cell_angle_gamma   115.81244640
_symmetry_Int_Tables_number   1
_chemical_formula_structural   MgMo2(PO5)2
_chemical_formula_sum   'Mg2 Mo4 P4 O20'
_cell_volume   358.08107307
_cell_formula_units_Z   2
loop_
 _symmetry_equiv_pos_site_id
 _symmetry_equiv_pos_as_xyz
  1  'x, y, z'
loop_
 _atom_site_type_symbol
 _atom_site_label
 _atom_site_symmetry_multiplicity
 _atom_site_fract_x
 _atom_site_fract_y
 _atom_site_fract_z
 _atom_site_occupancy
  Mg  Mg0  1  0.50102154  0.00102154  0.50000000  1
  Mg  Mg1  1  0.25102154  0.25102154  0.00000000  1
  Mo  Mo2  1  0.87192847  0.61987472  0.25145990  1
  Mo  Mo3  1  0.36841582  0.62046857  0.74854010  1
  Mo  Mo4  1  0.87046857  0.11841582  0.24854010  1
  Mo  Mo5  1  0.86987472  0.62192847  0.75145990  1
  P  P6  1  0.04151187  0.04346536  0.59664958  1
  P  P7  1  0.69486329  0.19681578  0.90335042  1
  P  P8  1  0.44681578  0.44486329  0.40335042  1
  P  P9  1  0.29346536  0.79151187  0.09664958  1
  O  O10  1  0.56294706  0.53155432  0.28446071  1
  O  O11  1  0.66192814  0.66433125  0.83756366  1
  O  O12  1  0.30671682  0.59687280  0.98208991  1
  O  O13  1  0.78155432  0.31294706  0.78446071  1
  O  O14  1  0.21354875  0.24146242  0.27853102  1
  O  O15  1  0.43040607  0.63663074  0.51764655  1
  O  O16  1  0.07436448  0.57676760  0.66243634  1
  O  O17  1  0.82676760  0.82436448  0.16243634  1
  O  O18  1  0.91433125  0.41192814  0.33756366  1
  O  O19  1  0.18501773  0.71293139  0.22146898  1
  O  O20  1  0.24709361  0.27848735  0.71553929  1
  O  O21  1  0.49146242  0.96354875  0.77853102  1
  O  O22  1  0.96293139  0.93501773  0.72146898  1
  O  O23  1  0.16275953  0.86898519  0.98235345  1
  O  O24  1  0.11898519  0.91275953  0.48235345  1
  O  O25  1  0.88663074  0.18040608  0.01764655  1
  O  O26  1  0.84687280  0.05671682  0.48208991  1
  O  O27  1  0.61478188  0.32462691  0.01791009  1
  O  O28  1  0.52848735  0.99709361  0.21553929  1
  O  O29  1  0.57462691  0.36478188  0.51791009  1
