# generated using pymatgen
data_RbB3O5
_symmetry_space_group_name_H-M   'P 1'
_cell_length_a   6.70474730
_cell_length_b   6.70474730
_cell_length_c   9.30837227
_cell_angle_alpha   80.19793526
_cell_angle_beta   80.19793526
_cell_angle_gamma   83.91830279
_symmetry_Int_Tables_number   1
_chemical_formula_structural   RbB3O5
_chemical_formula_sum   'Rb4 B12 O20'
_cell_volume   405.03894076
_cell_formula_units_Z   4
loop_
 _symmetry_equiv_pos_site_id
 _symmetry_equiv_pos_as_xyz
  1  'x, y, z'
loop_
 _atom_site_type_symbol
 _atom_site_label
 _atom_site_symmetry_multiplicity
 _atom_site_fract_x
 _atom_site_fract_y
 _atom_site_fract_z
 _atom_site_occupancy
  Rb  Rb0  1  0.73402445  0.42284631  0.05439135  1
  Rb  Rb1  1  0.57715369  0.26597555  0.44560865  1
  Rb  Rb2  1  0.26597555  0.57715369  0.94560865  1
  Rb  Rb3  1  0.42284631  0.73402445  0.55439135  1
  B  B4  1  0.19269390  0.20944028  0.26516586  1
  B  B5  1  0.79055972  0.80730610  0.23483414  1
  B  B6  1  0.80730610  0.79055972  0.73483414  1
  B  B7  1  0.20944028  0.19269390  0.76516586  1
  B  B8  1  0.06790653  0.57142658  0.31991149  1
  B  B9  1  0.42857342  0.93209347  0.18008851  1
  B  B10  1  0.93209347  0.42857342  0.68008851  1
  B  B11  1  0.57142658  0.06790653  0.81991149  1
  B  B12  1  0.96590734  0.88747207  0.43216992  1
  B  B13  1  0.11252793  0.03409266  0.06783008  1
  B  B14  1  0.03409266  0.11252793  0.56783008  1
  B  B15  1  0.88747207  0.96590734  0.93216992  1
  O  O16  1  0.07329264  0.08942970  0.40404869  1
  O  O17  1  0.91057030  0.92670736  0.09595131  1
  O  O18  1  0.92670736  0.91057030  0.59595131  1
  O  O19  1  0.08942970  0.07329264  0.90404869  1
  O  O20  1  0.09566540  0.21062428  0.13682965  1
  O  O21  1  0.78937572  0.90433460  0.36317035  1
  O  O22  1  0.90433460  0.78937572  0.86317035  1
  O  O23  1  0.21062428  0.09566540  0.63682965  1
  O  O24  1  0.89491063  0.59908084  0.25481868  1
  O  O25  1  0.40091916  0.10508937  0.24518132  1
  O  O26  1  0.10508937  0.40091916  0.74518132  1
  O  O27  1  0.59908084  0.89491063  0.75481868  1
  O  O28  1  0.21122217  0.41113581  0.30010192  1
  O  O29  1  0.58886419  0.78877783  0.19989808  1
  O  O30  1  0.78877783  0.58886419  0.69989808  1
  O  O31  1  0.41113581  0.21122217  0.80010192  1
  O  O32  1  0.10584793  0.71191035  0.40395316  1
  O  O33  1  0.28808965  0.89415207  0.09604684  1
  O  O34  1  0.89415207  0.28808965  0.59604684  1
  O  O35  1  0.71191035  0.10584793  0.90395316  1
