# generated using pymatgen
data_Mg14CdSn
_symmetry_space_group_name_H-M   'P 1'
_cell_length_a   6.35071086
_cell_length_b   6.35071034
_cell_length_c   10.48992130
_cell_angle_alpha   90.00000000
_cell_angle_beta   90.00000000
_cell_angle_gamma   120.00000269
_symmetry_Int_Tables_number   1
_chemical_formula_structural   Mg14CdSn
_chemical_formula_sum   'Mg14 Cd1 Sn1'
_cell_volume   366.39327612
_cell_formula_units_Z   1
loop_
 _symmetry_equiv_pos_site_id
 _symmetry_equiv_pos_as_xyz
  1  'x, y, z'
loop_
 _atom_site_type_symbol
 _atom_site_label
 _atom_site_symmetry_multiplicity
 _atom_site_fract_x
 _atom_site_fract_y
 _atom_site_fract_z
 _atom_site_occupancy
  Mg  Mg0  1  0.16628679  0.83314290  0.12500000  1
  Mg  Mg1  1  0.16726207  0.83363054  0.62500000  1
  Mg  Mg2  1  0.66685710  0.33371321  0.12500000  1
  Mg  Mg3  1  0.66636946  0.33273793  0.62500000  1
  Mg  Mg4  1  0.66685710  0.83314290  0.12500000  1
  Mg  Mg5  1  0.66636946  0.83363054  0.62500000  1
  Mg  Mg6  1  0.33376622  0.16623378  0.37776481  1
  Mg  Mg7  1  0.33376622  0.16623378  0.87223519  1
  Mg  Mg8  1  0.33376622  0.66753344  0.37776481  1
  Mg  Mg9  1  0.33376622  0.66753344  0.87223519  1
  Mg  Mg10  1  0.83246656  0.16623378  0.37776481  1
  Mg  Mg11  1  0.83246656  0.16623378  0.87223519  1
  Mg  Mg12  1  0.83333300  0.66666700  0.37641829  1
  Mg  Mg13  1  0.83333300  0.66666700  0.87358171  1
  Cd  Cd14  1  0.16666700  0.33333300  0.62500000  1
  Sn  Sn15  1  0.16666700  0.33333300  0.12500000  1
