# generated using pymatgen
data_ZnCuP2O7
_symmetry_space_group_name_H-M   'P 1'
_cell_length_a   5.60466813
_cell_length_b   6.34643818
_cell_length_c   7.49858699
_cell_angle_alpha   83.80028839
_cell_angle_beta   90.24775259
_cell_angle_gamma   70.50299800
_symmetry_Int_Tables_number   1
_chemical_formula_structural   ZnCuP2O7
_chemical_formula_sum   'Zn2 Cu2 P4 O14'
_cell_volume   249.72571920
_cell_formula_units_Z   2
loop_
 _symmetry_equiv_pos_site_id
 _symmetry_equiv_pos_as_xyz
  1  'x, y, z'
loop_
 _atom_site_type_symbol
 _atom_site_label
 _atom_site_symmetry_multiplicity
 _atom_site_fract_x
 _atom_site_fract_y
 _atom_site_fract_z
 _atom_site_occupancy
  Zn  Zn0  1  0.32623848  0.67637651  0.64380302  1
  Zn  Zn1  1  0.67376252  0.32362449  0.35619698  1
  Cu  Cu2  1  0.27200260  0.14045802  0.18154228  1
  Cu  Cu3  1  0.72799940  0.85954098  0.81845772  1
  P  P4  1  0.17202333  0.67130392  0.10862607  1
  P  P5  1  0.82797467  0.32869608  0.89137393  1
  P  P6  1  0.21982719  0.21597809  0.61157756  1
  P  P7  1  0.78017381  0.78402091  0.38842144  1
  O  O8  1  0.07986250  0.72055488  0.90944443  1
  O  O9  1  0.92013850  0.27944512  0.09055557  1
  O  O10  1  0.28424243  0.83602776  0.17419434  1
  O  O11  1  0.71575657  0.16397124  0.82580566  1
  O  O12  1  0.35645376  0.42572232  0.15469628  1
  O  O13  1  0.64354824  0.57427668  0.84530472  1
  O  O14  1  0.62565061  0.63039505  0.44311841  1
  O  O15  1  0.37434839  0.36960495  0.55688259  1
  O  O16  1  0.03796187  0.20963222  0.46336142  1
  O  O17  1  0.96203713  0.79036778  0.53663858  1
  O  O18  1  0.07861470  0.32033846  0.78369497  1
  O  O19  1  0.60975197  0.02901410  0.31704739  1
  O  O20  1  0.39025003  0.97098490  0.68295361  1
  O  O21  1  0.92138430  0.67966254  0.21630403  1
