# generated using pymatgen
data_ZnCuAs2O7
_symmetry_space_group_name_H-M   'P 1'
_cell_length_a   7.23213896
_cell_length_b   8.48367418
_cell_length_c   9.77148117
_cell_angle_alpha   90.00000000
_cell_angle_beta   111.25795845
_cell_angle_gamma   90.00000000
_symmetry_Int_Tables_number   1
_chemical_formula_structural   ZnCuAs2O7
_chemical_formula_sum   'Zn4 Cu4 As8 O28'
_cell_volume   558.73677737
_cell_formula_units_Z   4
loop_
 _symmetry_equiv_pos_site_id
 _symmetry_equiv_pos_as_xyz
  1  'x, y, z'
loop_
 _atom_site_type_symbol
 _atom_site_label
 _atom_site_symmetry_multiplicity
 _atom_site_fract_x
 _atom_site_fract_y
 _atom_site_fract_z
 _atom_site_occupancy
  Zn  Zn0  1  0.26770580  0.92995788  0.90048402  1
  Zn  Zn1  1  0.73229420  0.42995788  0.59951598  1
  Zn  Zn2  1  0.73229420  0.07004212  0.09951598  1
  Zn  Zn3  1  0.26770580  0.57004212  0.40048402  1
  Cu  Cu4  1  0.79883811  0.05984803  0.67036132  1
  Cu  Cu5  1  0.20116189  0.55984803  0.82963868  1
  Cu  Cu6  1  0.20116189  0.94015197  0.32963868  1
  Cu  Cu7  1  0.79883811  0.44015197  0.17036132  1
  As  As8  1  0.43767219  0.22867911  0.75244573  1
  As  As9  1  0.56232781  0.72867911  0.74755427  1
  As  As10  1  0.56232781  0.77132089  0.24755427  1
  As  As11  1  0.43767219  0.27132089  0.25244473  1
  As  As12  1  0.03800068  0.27707885  0.96631108  1
  As  As13  1  0.96199932  0.77707885  0.53368892  1
  As  As14  1  0.96199932  0.72292115  0.03368892  1
  As  As15  1  0.03800068  0.22292115  0.46631108  1
  O  O16  1  0.86100826  0.27344874  0.04731068  1
  O  O17  1  0.13899174  0.77344874  0.45268932  1
  O  O18  1  0.13899174  0.72655126  0.95268932  1
  O  O19  1  0.86100826  0.22655126  0.54731068  1
  O  O20  1  0.36152361  0.41425296  0.76648706  1
  O  O21  1  0.63847639  0.91425296  0.73351294  1
  O  O22  1  0.63847639  0.58574704  0.23351294  1
  O  O23  1  0.36152361  0.08574704  0.26648706  1
  O  O24  1  0.46543752  0.10382371  0.89591224  1
  O  O25  1  0.53456248  0.60382371  0.60408776  1
  O  O26  1  0.53456248  0.89617629  0.10408776  1
  O  O27  1  0.46543752  0.39617629  0.39591224  1
  O  O28  1  0.26069714  0.13876032  0.59313655  1
  O  O29  1  0.73930286  0.63876032  0.90686345  1
  O  O30  1  0.73930286  0.86123968  0.40686345  1
  O  O31  1  0.26069714  0.36123968  0.09313655  1
  O  O32  1  0.99241611  0.08129089  0.33278144  1
  O  O33  1  0.00758389  0.58129089  0.16721856  1
  O  O34  1  0.00758389  0.91870911  0.66721856  1
  O  O35  1  0.99241611  0.41870911  0.83278144  1
  O  O36  1  0.64604113  0.26164559  0.20536404  1
  O  O37  1  0.35395887  0.76164559  0.29463596  1
  O  O38  1  0.35395887  0.73835441  0.79463596  1
  O  O39  1  0.64604113  0.23835441  0.70536404  1
  O  O40  1  0.06341956  0.40437662  0.40336540  1
  O  O41  1  0.93658044  0.90437662  0.09663460  1
  O  O42  1  0.93658044  0.59562338  0.59663460  1
  O  O43  1  0.06341956  0.09562338  0.90336540  1
