# generated using pymatgen
data_LiMg30WO32
_symmetry_space_group_name_H-M   'P 1'
_cell_length_a   8.53558808
_cell_length_b   8.54168446
_cell_length_c   8.54168446
_cell_angle_alpha   90.00000000
_cell_angle_beta   90.00000000
_cell_angle_gamma   90.00000000
_symmetry_Int_Tables_number   1
_chemical_formula_structural   LiMg30WO32
_chemical_formula_sum   'Li1 Mg30 W1 O32'
_cell_volume   622.75969363
_cell_formula_units_Z   1
loop_
 _symmetry_equiv_pos_site_id
 _symmetry_equiv_pos_as_xyz
  1  'x, y, z'
loop_
 _atom_site_type_symbol
 _atom_site_label
 _atom_site_symmetry_multiplicity
 _atom_site_fract_x
 _atom_site_fract_y
 _atom_site_fract_z
 _atom_site_occupancy
  Li  Li0  1  0.00000000  0.00000000  0.00000000  1
  Mg  Mg1  1  0.00000000  0.00000000  0.50000000  1
  Mg  Mg2  1  0.00000000  0.50000000  0.00000000  1
  Mg  Mg3  1  0.50000000  0.00000000  0.00000000  1
  Mg  Mg4  1  0.50000000  0.00000000  0.50000000  1
  Mg  Mg5  1  0.50000000  0.50000000  0.00000000  1
  Mg  Mg6  1  0.50000000  0.50000000  0.50000000  1
  Mg  Mg7  1  0.00000000  0.24202360  0.24202360  1
  Mg  Mg8  1  0.00000000  0.24202360  0.75797640  1
  Mg  Mg9  1  0.00000000  0.75797640  0.24202360  1
  Mg  Mg10  1  0.00000000  0.75797640  0.75797640  1
  Mg  Mg11  1  0.50000000  0.24861340  0.24861340  1
  Mg  Mg12  1  0.50000000  0.24861340  0.75138660  1
  Mg  Mg13  1  0.50000000  0.75138660  0.24861340  1
  Mg  Mg14  1  0.50000000  0.75138660  0.75138660  1
  Mg  Mg15  1  0.24730446  0.00000000  0.24612628  1
  Mg  Mg16  1  0.24730446  0.00000000  0.75387372  1
  Mg  Mg17  1  0.25362750  0.50000000  0.24463227  1
  Mg  Mg18  1  0.25362750  0.50000000  0.75536773  1
  Mg  Mg19  1  0.75269554  0.00000000  0.24612628  1
  Mg  Mg20  1  0.75269554  0.00000000  0.75387372  1
  Mg  Mg21  1  0.74637250  0.50000000  0.24463227  1
  Mg  Mg22  1  0.74637250  0.50000000  0.75536773  1
  Mg  Mg23  1  0.24730446  0.24612628  0.00000000  1
  Mg  Mg24  1  0.25362750  0.24463227  0.50000000  1
  Mg  Mg25  1  0.24730446  0.75387372  0.00000000  1
  Mg  Mg26  1  0.25362750  0.75536773  0.50000000  1
  Mg  Mg27  1  0.75269554  0.24612628  0.00000000  1
  Mg  Mg28  1  0.74637250  0.24463227  0.50000000  1
  Mg  Mg29  1  0.75269554  0.75387372  0.00000000  1
  Mg  Mg30  1  0.74637250  0.75536773  0.50000000  1
  W  W31  1  0.00000000  0.50000000  0.50000000  1
  O  O32  1  0.25642585  0.00000000  0.00000000  1
  O  O33  1  0.25118035  0.00000000  0.50000000  1
  O  O34  1  0.25118035  0.50000000  0.00000000  1
  O  O35  1  0.25436454  0.50000000  0.50000000  1
  O  O36  1  0.74357415  0.00000000  0.00000000  1
  O  O37  1  0.74881965  0.00000000  0.50000000  1
  O  O38  1  0.74881965  0.50000000  0.00000000  1
  O  O39  1  0.74563546  0.50000000  0.50000000  1
  O  O40  1  0.24930067  0.25123937  0.25123937  1
  O  O41  1  0.24930067  0.25123937  0.74876063  1
  O  O42  1  0.24930067  0.74876063  0.25123937  1
  O  O43  1  0.24930067  0.74876063  0.74876063  1
  O  O44  1  0.75069933  0.25123937  0.25123937  1
  O  O45  1  0.75069933  0.25123937  0.74876063  1
  O  O46  1  0.75069933  0.74876063  0.25123937  1
  O  O47  1  0.75069933  0.74876063  0.74876063  1
  O  O48  1  0.00000000  0.00000000  0.25712158  1
  O  O49  1  0.00000000  0.00000000  0.74287842  1
  O  O50  1  0.00000000  0.50000000  0.24662742  1
  O  O51  1  0.00000000  0.50000000  0.75337258  1
  O  O52  1  0.50000000  0.00000000  0.25164817  1
  O  O53  1  0.50000000  0.00000000  0.74835183  1
  O  O54  1  0.50000000  0.50000000  0.25093071  1
  O  O55  1  0.50000000  0.50000000  0.74906929  1
  O  O56  1  0.00000000  0.25712158  0.00000000  1
  O  O57  1  0.00000000  0.24662742  0.50000000  1
  O  O58  1  0.00000000  0.74287842  0.00000000  1
  O  O59  1  0.00000000  0.75337258  0.50000000  1
  O  O60  1  0.50000000  0.25164817  0.00000000  1
  O  O61  1  0.50000000  0.25093071  0.50000000  1
  O  O62  1  0.50000000  0.74835183  0.00000000  1
  O  O63  1  0.50000000  0.74906929  0.50000000  1
