# generated using pymatgen
data_CaHo(NiO3)2
_symmetry_space_group_name_H-M   'P 1'
_cell_length_a   5.27592087
_cell_length_b   5.48135199
_cell_length_c   7.43643650
_cell_angle_alpha   90.00564701
_cell_angle_beta   90.00010133
_cell_angle_gamma   90.00125865
_symmetry_Int_Tables_number   1
_chemical_formula_structural   CaHo(NiO3)2
_chemical_formula_sum   'Ca2 Ho2 Ni4 O12'
_cell_volume   215.05563971
_cell_formula_units_Z   2
loop_
 _symmetry_equiv_pos_site_id
 _symmetry_equiv_pos_as_xyz
  1  'x, y, z'
loop_
 _atom_site_type_symbol
 _atom_site_label
 _atom_site_symmetry_multiplicity
 _atom_site_fract_x
 _atom_site_fract_y
 _atom_site_fract_z
 _atom_site_occupancy
  Ca  Ca0  1  0.48727661  0.44142190  0.74974279  1
  Ca  Ca1  1  0.98749920  0.05862010  0.25021152  1
  Ho  Ho2  1  0.01869259  0.93295619  0.74984146  1
  Ho  Ho3  1  0.51862417  0.56710148  0.25011289  1
  Ni  Ni4  1  0.00083210  0.49518300  0.00032410  1
  Ni  Ni5  1  0.00084161  0.49508405  0.49970190  1
  Ni  Ni6  1  0.50091234  0.00480749  0.50033360  1
  Ni  Ni7  1  0.50089598  0.00484603  0.99964229  1
  O  O8  1  0.10246296  0.47668171  0.24998777  1
  O  O9  1  0.19532983  0.19826388  0.95104752  1
  O  O10  1  0.19533498  0.19822301  0.54892501  1
  O  O11  1  0.29210510  0.71206573  0.95337602  1
  O  O12  1  0.29202482  0.71199230  0.54648344  1
  O  O13  1  0.41490747  0.96801700  0.24995622  1
  O  O14  1  0.60257807  0.02333149  0.75003368  1
  O  O15  1  0.69536379  0.30163685  0.45112160  1
  O  O16  1  0.69534844  0.30168182  0.04894391  1
  O  O17  1  0.79205994  0.78800379  0.04674177  1
  O  O18  1  0.79207892  0.78797019  0.45342451  1
  O  O19  1  0.91482906  0.53211100  0.75004798  1
