# generated using pymatgen
data_Mg30FeCuO32
_symmetry_space_group_name_H-M   'P 1'
_cell_length_a   8.52484129
_cell_length_b   8.53452905
_cell_length_c   8.53452905
_cell_angle_alpha   90.00000000
_cell_angle_beta   90.00000000
_cell_angle_gamma   90.00000000
_symmetry_Int_Tables_number   1
_chemical_formula_structural   Mg30FeCuO32
_chemical_formula_sum   'Mg30 Fe1 Cu1 O32'
_cell_volume   620.93397640
_cell_formula_units_Z   1
loop_
 _symmetry_equiv_pos_site_id
 _symmetry_equiv_pos_as_xyz
  1  'x, y, z'
loop_
 _atom_site_type_symbol
 _atom_site_label
 _atom_site_symmetry_multiplicity
 _atom_site_fract_x
 _atom_site_fract_y
 _atom_site_fract_z
 _atom_site_occupancy
  Mg  Mg0  1  -0.00000000  0.00000000  0.50000000  1
  Mg  Mg1  1  -0.00000000  0.50000000  0.00000000  1
  Mg  Mg2  1  0.50000000  0.00000000  0.00000000  1
  Mg  Mg3  1  0.50000000  0.00000000  0.50000000  1
  Mg  Mg4  1  0.50000000  0.50000000  0.00000000  1
  Mg  Mg5  1  0.50000000  0.50000000  0.50000000  1
  Mg  Mg6  1  -0.00000000  0.25467492  0.25467492  1
  Mg  Mg7  1  -0.00000000  0.25467492  0.74532508  1
  Mg  Mg8  1  -0.00000000  0.74532508  0.25467492  1
  Mg  Mg9  1  -0.00000000  0.74532508  0.74532508  1
  Mg  Mg10  1  0.50000000  0.25095122  0.25095122  1
  Mg  Mg11  1  0.50000000  0.25095122  0.74904878  1
  Mg  Mg12  1  0.50000000  0.74904878  0.25095122  1
  Mg  Mg13  1  0.50000000  0.74904878  0.74904878  1
  Mg  Mg14  1  0.25131752  0.00000000  0.25256433  1
  Mg  Mg15  1  0.25131752  0.00000000  0.74743567  1
  Mg  Mg16  1  0.24816189  0.50000000  0.25276469  1
  Mg  Mg17  1  0.24816189  0.50000000  0.74723531  1
  Mg  Mg18  1  0.74868248  0.00000000  0.25256433  1
  Mg  Mg19  1  0.74868248  0.00000000  0.74743567  1
  Mg  Mg20  1  0.75183811  0.50000000  0.25276469  1
  Mg  Mg21  1  0.75183811  0.50000000  0.74723531  1
  Mg  Mg22  1  0.25131752  0.25256433  0.00000000  1
  Mg  Mg23  1  0.24816189  0.25276469  0.50000000  1
  Mg  Mg24  1  0.25131752  0.74743567  0.00000000  1
  Mg  Mg25  1  0.24816189  0.74723531  0.50000000  1
  Mg  Mg26  1  0.74868248  0.25256433  0.00000000  1
  Mg  Mg27  1  0.75183811  0.25276469  0.50000000  1
  Mg  Mg28  1  0.74868248  0.74743567  0.00000000  1
  Mg  Mg29  1  0.75183811  0.74723531  0.50000000  1
  Fe  Fe30  1  -0.00000000  0.00000000  0.00000000  1
  Cu  Cu31  1  -0.00000000  0.50000000  0.50000000  1
  O  O32  1  0.24578390  0.00000000  0.00000000  1
  O  O33  1  0.25059164  0.00000000  0.50000000  1
  O  O34  1  0.25059164  0.50000000  0.00000000  1
  O  O35  1  0.26171237  0.50000000  0.50000000  1
  O  O36  1  0.75421610  0.00000000  0.00000000  1
  O  O37  1  0.74940836  0.00000000  0.50000000  1
  O  O38  1  0.74940836  0.50000000  0.00000000  1
  O  O39  1  0.73828763  0.50000000  0.50000000  1
  O  O40  1  0.24934887  0.24910412  0.24910412  1
  O  O41  1  0.24934887  0.24910412  0.75089588  1
  O  O42  1  0.24934887  0.75089588  0.24910412  1
  O  O43  1  0.24934887  0.75089588  0.75089588  1
  O  O44  1  0.75065113  0.24910412  0.24910412  1
  O  O45  1  0.75065113  0.24910412  0.75089588  1
  O  O46  1  0.75065113  0.75089588  0.24910412  1
  O  O47  1  0.75065113  0.75089588  0.75089588  1
  O  O48  1  -0.00000000  0.00000000  0.24336236  1
  O  O49  1  -0.00000000  0.00000000  0.75663764  1
  O  O50  1  -0.00000000  0.50000000  0.23652749  1
  O  O51  1  -0.00000000  0.50000000  0.76347251  1
  O  O52  1  0.50000000  0.00000000  0.24807007  1
  O  O53  1  0.50000000  0.00000000  0.75192993  1
  O  O54  1  0.50000000  0.50000000  0.24779055  1
  O  O55  1  0.50000000  0.50000000  0.75220945  1
  O  O56  1  -0.00000000  0.24336236  0.00000000  1
  O  O57  1  -0.00000000  0.23652749  0.50000000  1
  O  O58  1  -0.00000000  0.75663764  0.00000000  1
  O  O59  1  -0.00000000  0.76347251  0.50000000  1
  O  O60  1  0.50000000  0.24807007  0.00000000  1
  O  O61  1  0.50000000  0.24779055  0.50000000  1
  O  O62  1  0.50000000  0.75192993  0.00000000  1
  O  O63  1  0.50000000  0.75220945  0.50000000  1
