# generated using pymatgen
data_ZnBiMoO5
_symmetry_space_group_name_H-M   'P 1'
_cell_length_a   5.39060537
_cell_length_b   8.05024908
_cell_length_c   11.92917882
_cell_angle_alpha   90.00000000
_cell_angle_beta   90.00000000
_cell_angle_gamma   104.64984838
_symmetry_Int_Tables_number   1
_chemical_formula_structural   ZnBiMoO5
_chemical_formula_sum   'Zn4 Bi4 Mo4 O20'
_cell_volume   500.84537314
_cell_formula_units_Z   4
loop_
 _symmetry_equiv_pos_site_id
 _symmetry_equiv_pos_as_xyz
  1  'x, y, z'
loop_
 _atom_site_type_symbol
 _atom_site_label
 _atom_site_symmetry_multiplicity
 _atom_site_fract_x
 _atom_site_fract_y
 _atom_site_fract_z
 _atom_site_occupancy
  Zn  Zn0  1  0.60670453  0.16331709  0.91612139  1
  Zn  Zn1  1  0.39329547  0.83668291  0.08387861  1
  Zn  Zn2  1  0.89329547  0.33668291  0.41612139  1
  Zn  Zn3  1  0.10670453  0.66331709  0.58387861  1
  Bi  Bi4  1  0.09843544  0.16015486  0.10274525  1
  Bi  Bi5  1  0.90156456  0.83984514  0.89725475  1
  Bi  Bi6  1  0.59843544  0.66015486  0.39725475  1
  Bi  Bi7  1  0.40156456  0.33984514  0.60274525  1
  Mo  Mo8  1  0.77795425  0.96942534  0.63648208  1
  Mo  Mo9  1  0.22204575  0.03057466  0.36351792  1
  Mo  Mo10  1  0.72204575  0.53057466  0.13648208  1
  Mo  Mo11  1  0.27795425  0.46942534  0.86351792  1
  O  O12  1  0.53448291  0.33089778  0.06944747  1
  O  O13  1  0.99986452  0.32689687  0.93136144  1
  O  O14  1  0.50313942  0.66620773  0.18493957  1
  O  O15  1  0.75611805  0.51406536  0.52467597  1
  O  O16  1  0.78118424  0.48639991  0.29144851  1
  O  O17  1  0.28118424  0.98639991  0.20855149  1
  O  O18  1  0.49986452  0.82689687  0.56863856  1
  O  O19  1  0.50013548  0.17310313  0.43136144  1
  O  O20  1  0.24388195  0.48593464  0.47532403  1
  O  O21  1  0.96551709  0.16910222  0.56944747  1
  O  O22  1  0.21881576  0.51360009  0.70855149  1
  O  O23  1  0.46551709  0.66910222  0.93055253  1
  O  O24  1  0.03448291  0.83089778  0.43055253  1
  O  O25  1  0.71881576  0.01360009  0.79144851  1
  O  O26  1  0.74388195  0.98593464  0.02467597  1
  O  O27  1  0.25611805  0.01406536  0.97532403  1
  O  O28  1  0.49686058  0.33379227  0.81506043  1
  O  O29  1  0.00013548  0.67310313  0.06863856  1
  O  O30  1  0.99686058  0.83379227  0.68493957  1
  O  O31  1  0.00313942  0.16620773  0.31506043  1
