# generated using pymatgen
data_PrZn(AgO3)2
_symmetry_space_group_name_H-M   'P 1'
_cell_length_a   5.41488804
_cell_length_b   5.77007611
_cell_length_c   8.17108099
_cell_angle_alpha   89.96335089
_cell_angle_beta   90.02691645
_cell_angle_gamma   89.85276281
_symmetry_Int_Tables_number   1
_chemical_formula_structural   PrZn(AgO3)2
_chemical_formula_sum   'Pr2 Zn2 Ag4 O12'
_cell_volume   255.29891400
_cell_formula_units_Z   2
loop_
 _symmetry_equiv_pos_site_id
 _symmetry_equiv_pos_as_xyz
  1  'x, y, z'
loop_
 _atom_site_type_symbol
 _atom_site_label
 _atom_site_symmetry_multiplicity
 _atom_site_fract_x
 _atom_site_fract_y
 _atom_site_fract_z
 _atom_site_occupancy
  Pr  Pr0  1  0.02091976  0.92958869  0.75004261  1
  Pr  Pr1  1  0.52166866  0.57145548  0.24998169  1
  Zn  Zn2  1  0.46920773  0.43680734  0.75008483  1
  Zn  Zn3  1  0.96971407  0.06265382  0.24986026  1
  Ag  Ag4  1  0.99958403  0.49389145  0.99754003  1
  Ag  Ag5  1  0.99999003  0.49347179  0.50233344  1
  Ag  Ag6  1  0.49999110  0.00581530  0.49770980  1
  Ag  Ag7  1  0.49977296  0.00582177  0.00241409  1
  O  O8  1  0.11194108  0.42450844  0.24955092  1
  O  O9  1  0.22104224  0.22487047  0.91542445  1
  O  O10  1  0.22119646  0.22493034  0.58419097  1
  O  O11  1  0.31376578  0.68836131  0.57273326  1
  O  O12  1  0.31350697  0.68852014  0.92724357  1
  O  O13  1  0.32659670  0.94942458  0.24990361  1
  O  O14  1  0.61276312  0.07492858  0.75005443  1
  O  O15  1  0.72154656  0.27576345  0.08438918  1
  O  O16  1  0.72187490  0.27605591  0.41595223  1
  O  O17  1  0.81385952  0.81114959  0.07280045  1
  O  O18  1  0.81388734  0.81126956  0.42724904  1
  O  O19  1  0.82716699  0.55071398  0.75054114  1
