# generated using pymatgen
data_Al2NiO4
_symmetry_space_group_name_H-M   'P 1'
_cell_length_a   5.75649659
_cell_length_b   5.75006949
_cell_length_c   5.75158017
_cell_angle_alpha   60.08894490
_cell_angle_beta   61.51850830
_cell_angle_gamma   59.96898360
_symmetry_Int_Tables_number   1
_chemical_formula_structural   Al2NiO4
_chemical_formula_sum   'Al4 Ni2 O8'
_cell_volume   136.15524168
_cell_formula_units_Z   2
loop_
 _symmetry_equiv_pos_site_id
 _symmetry_equiv_pos_as_xyz
  1  'x, y, z'
loop_
 _atom_site_type_symbol
 _atom_site_label
 _atom_site_symmetry_multiplicity
 _atom_site_fract_x
 _atom_site_fract_y
 _atom_site_fract_z
 _atom_site_occupancy
  Al  Al0  1  0.50000051  0.00010837  0.49989758  1
  Al  Al1  1  0.99982192  0.50005486  0.50000574  1
  Al  Al2  1  0.50005715  0.49992731  0.49993304  1
  Al  Al3  1  0.49999865  0.49984866  0.00023142  1
  Ni  Ni4  1  0.88158671  0.86873571  0.88097126  1
  Ni  Ni5  1  0.11931232  0.13113418  0.11836349  1
  O  O6  1  0.29631040  0.73814864  0.72817638  1
  O  O7  1  0.70452502  0.26141883  0.27184247  1
  O  O8  1  0.73963081  0.28905118  0.73918644  1
  O  O9  1  0.25969986  0.71093267  0.26150437  1
  O  O10  1  0.73849554  0.73222262  0.74025652  1
  O  O11  1  0.72802290  0.73773633  0.29566851  1
  O  O12  1  0.27179483  0.26277130  0.70354111  1
  O  O13  1  0.26074340  0.26791035  0.26042067  1
