# generated using pymatgen
data_V3Zn2O8
_symmetry_space_group_name_H-M   'P 1'
_cell_length_a   5.91441312
_cell_length_b   5.91441226
_cell_length_c   9.57730330
_cell_angle_alpha   90.00000000
_cell_angle_beta   90.00000000
_cell_angle_gamma   119.99999974
_symmetry_Int_Tables_number   1
_chemical_formula_structural   V3Zn2O8
_chemical_formula_sum   'V6 Zn4 O16'
_cell_volume   290.13299694
_cell_formula_units_Z   2
loop_
 _symmetry_equiv_pos_site_id
 _symmetry_equiv_pos_as_xyz
  1  'x, y, z'
loop_
 _atom_site_type_symbol
 _atom_site_label
 _atom_site_symmetry_multiplicity
 _atom_site_fract_x
 _atom_site_fract_y
 _atom_site_fract_z
 _atom_site_occupancy
  V  V0  1  0.67580246  0.83790123  0.24332551  1
  V  V1  1  0.83790223  0.16209977  0.74332551  1
  V  V2  1  0.16209977  0.32419854  0.24332551  1
  V  V3  1  0.83790023  0.67580246  0.74332551  1
  V  V4  1  0.32419854  0.16209977  0.74332551  1
  V  V5  1  0.16209977  0.83790123  0.24332551  1
  Zn  Zn6  1  0.66666700  0.33333400  0.02604009  1
  Zn  Zn7  1  0.33333300  0.66666600  0.52604109  1
  Zn  Zn8  1  0.66666700  0.33333400  0.42444607  1
  Zn  Zn9  1  0.33333300  0.66666600  0.92444707  1
  O  O10  1  0.83672587  0.16327513  0.14662963  1
  O  O11  1  0.67344973  0.83672587  0.64662863  1
  O  O12  1  0.16327513  0.32655127  0.64662863  1
  O  O13  1  0.83672487  0.67344973  0.14662963  1
  O  O14  1  0.32655027  0.16327513  0.14662963  1
  O  O15  1  0.16327513  0.83672587  0.64662863  1
  O  O16  1  0.51694242  0.48305658  0.86218386  1
  O  O17  1  0.03388483  0.51694242  0.36218286  1
  O  O18  1  0.48305758  0.96611617  0.36218286  1
  O  O19  1  0.51694242  0.03388483  0.86218386  1
  O  O20  1  -0.00000000  -0.00000000  0.35317879  1
  O  O21  1  -0.00000000  -0.00000000  0.85317879  1
  O  O22  1  0.33333300  0.66666600  0.13342207  1
  O  O23  1  0.96611417  0.48305658  0.86218386  1
  O  O24  1  0.48305658  0.51694242  0.36218286  1
  O  O25  1  0.66666700  0.33333400  0.63342207  1
