# generated using pymatgen
data_ZnCuP2O7
_symmetry_space_group_name_H-M   'P 1'
_cell_length_a   6.99091802
_cell_length_b   8.29382028
_cell_length_c   9.61293076
_cell_angle_alpha   90.00000000
_cell_angle_beta   113.70883831
_cell_angle_gamma   90.00000000
_symmetry_Int_Tables_number   1
_chemical_formula_structural   ZnCuP2O7
_chemical_formula_sum   'Zn4 Cu4 P8 O28'
_cell_volume   510.32953333
_cell_formula_units_Z   4
loop_
 _symmetry_equiv_pos_site_id
 _symmetry_equiv_pos_as_xyz
  1  'x, y, z'
loop_
 _atom_site_type_symbol
 _atom_site_label
 _atom_site_symmetry_multiplicity
 _atom_site_fract_x
 _atom_site_fract_y
 _atom_site_fract_z
 _atom_site_occupancy
  Zn  Zn0  1  0.12528493  0.94009975  0.81421129  1
  Zn  Zn1  1  0.37471507  0.44009975  0.68578871  1
  Zn  Zn2  1  0.62528493  0.55990025  0.31421129  1
  Zn  Zn3  1  0.87471507  0.05990025  0.18578871  1
  Cu  Cu4  1  0.37544207  0.06810999  0.60981855  1
  Cu  Cu5  1  0.62455793  0.93189001  0.39018145  1
  Cu  Cu6  1  0.12455793  0.56810999  0.89018145  1
  Cu  Cu7  1  0.87544207  0.43189001  0.10981855  1
  P  P8  1  0.17528094  0.73341607  0.24573581  1
  P  P9  1  0.43628202  0.23167252  0.97353131  1
  P  P10  1  0.67528094  0.76658393  0.74573581  1
  P  P11  1  0.93628202  0.26832748  0.47353131  1
  P  P12  1  0.32471906  0.23341607  0.25426419  1
  P  P13  1  0.06371798  0.73167252  0.52646869  1
  P  P14  1  0.56371798  0.76832748  0.02646869  1
  P  P15  1  0.82471906  0.26658393  0.75426419  1
  O  O16  1  0.35413443  0.18684709  0.10106217  1
  O  O17  1  0.56964988  0.60899013  0.68494713  1
  O  O18  1  0.06964988  0.89100987  0.18494713  1
  O  O19  1  0.34325535  0.39392680  0.89635193  1
  O  O20  1  0.64586557  0.81315291  0.89893783  1
  O  O21  1  0.41091510  0.09079596  0.36426706  1
  O  O22  1  0.65674465  0.60607320  0.10364807  1
  O  O23  1  0.36688704  0.09188670  0.86276098  1
  O  O24  1  0.17843457  0.25524416  0.55301195  1
  O  O25  1  0.58908490  0.90920404  0.63573294  1
  O  O26  1  0.91091510  0.40920404  0.86426706  1
  O  O27  1  0.91559484  0.75830208  0.79631581  1
  O  O28  1  0.58440516  0.25830208  0.70368419  1
  O  O29  1  0.85413443  0.31315291  0.60106217  1
  O  O30  1  0.08908490  0.59079596  0.13573294  1
  O  O31  1  0.93035012  0.10899013  0.81505287  1
  O  O32  1  0.08440516  0.24169792  0.20368419  1
  O  O33  1  0.63311296  0.90811330  0.13723902  1
  O  O34  1  0.67843457  0.24475584  0.05301195  1
  O  O35  1  0.32156543  0.75524416  0.94698805  1
  O  O36  1  0.15674465  0.89392680  0.60364807  1
  O  O37  1  0.86688704  0.40811330  0.36276098  1
  O  O38  1  0.13311296  0.59188670  0.63723902  1
  O  O39  1  0.43035012  0.39100987  0.31505287  1
  O  O40  1  0.41559484  0.74169792  0.29631581  1
  O  O41  1  0.84325535  0.10607320  0.39635193  1
  O  O42  1  0.82156543  0.74475584  0.44698805  1
  O  O43  1  0.14586557  0.68684709  0.39893783  1
