# generated using pymatgen
data_CaLaFeWO6
_symmetry_space_group_name_H-M   'P 1'
_cell_length_a   5.82295636
_cell_length_b   5.59043380
_cell_length_c   7.99094873
_cell_angle_alpha   89.71120974
_cell_angle_beta   90.00000000
_cell_angle_gamma   90.00000000
_symmetry_Int_Tables_number   1
_chemical_formula_structural   CaLaFeWO6
_chemical_formula_sum   'Ca2 La2 Fe2 W2 O12'
_cell_volume   260.12486759
_cell_formula_units_Z   2
loop_
 _symmetry_equiv_pos_site_id
 _symmetry_equiv_pos_as_xyz
  1  'x, y, z'
loop_
 _atom_site_type_symbol
 _atom_site_label
 _atom_site_symmetry_multiplicity
 _atom_site_fract_x
 _atom_site_fract_y
 _atom_site_fract_z
 _atom_site_occupancy
  Ca  Ca0  1  0.55076333  0.52328289  0.25061183  1
  Ca  Ca1  1  0.94923667  0.02328289  0.75061183  1
  La  La2  1  0.04689615  0.97773682  0.24910461  1
  La  La3  1  0.45310385  0.47773682  0.74910461  1
  Fe  Fe4  1  0.50030105  0.99786358  0.99928556  1
  Fe  Fe5  1  0.99969895  0.49786358  0.49928556  1
  W  W6  1  0.50277934  0.00055669  0.49858229  1
  W  W7  1  0.99722066  0.50055669  0.99858229  1
  O  O8  1  0.03088629  0.60691356  0.76718189  1
  O  O9  1  0.19844119  0.20747066  0.95062706  1
  O  O10  1  0.21772919  0.19638523  0.56044948  1
  O  O11  1  0.28227081  0.69638523  0.06044948  1
  O  O12  1  0.30155881  0.70747066  0.45062706  1
  O  O13  1  0.46911371  0.10691356  0.26718089  1
  O  O14  1  0.53720404  0.89963325  0.73304962  1
  O  O15  1  0.70597505  0.29018055  0.55007308  1
  O  O16  1  0.71634733  0.29997477  0.94103556  1
  O  O17  1  0.78365267  0.79997477  0.44103556  1
  O  O18  1  0.79402495  0.79018055  0.05007308  1
  O  O19  1  0.96279596  0.39963325  0.23304962  1
