# generated using pymatgen
data_Ta2Zn2CoO8
_symmetry_space_group_name_H-M   'P 1'
_cell_length_a   5.28640444
_cell_length_b   5.93468080
_cell_length_c   10.14306329
_cell_angle_alpha   106.97457794
_cell_angle_beta   90.08320297
_cell_angle_gamma   90.00255756
_symmetry_Int_Tables_number   1
_chemical_formula_structural   Ta2Zn2CoO8
_chemical_formula_sum   'Ta4 Zn4 Co2 O16'
_cell_volume   304.35578327
_cell_formula_units_Z   2
loop_
 _symmetry_equiv_pos_site_id
 _symmetry_equiv_pos_as_xyz
  1  'x, y, z'
loop_
 _atom_site_type_symbol
 _atom_site_label
 _atom_site_symmetry_multiplicity
 _atom_site_fract_x
 _atom_site_fract_y
 _atom_site_fract_z
 _atom_site_occupancy
  Ta  Ta0  1  0.73167558  0.26956744  0.22847571  1
  Ta  Ta1  1  0.76645691  0.04161338  0.77067661  1
  Ta  Ta2  1  0.26612817  0.72865763  0.77065507  1
  Ta  Ta3  1  0.23150892  0.95670734  0.22791363  1
  Zn  Zn4  1  0.76906021  0.43599465  0.56389737  1
  Zn  Zn5  1  0.72840420  0.87079093  0.43553840  1
  Zn  Zn6  1  0.22914492  0.56327610  0.43524720  1
  Zn  Zn7  1  0.26937026  0.12786390  0.56318690  1
  Co  Co8  1  0.74796613  0.63794760  0.99934347  1
  Co  Co9  1  0.24949247  0.36024745  0.99932608  1
  O  O10  1  0.06804465  0.18456889  0.13857604  1
  O  O11  1  0.43047719  0.04519314  0.86060191  1
  O  O12  1  0.92950033  0.81267582  0.85991183  1
  O  O13  1  0.56845540  0.95183061  0.13875203  1
  O  O14  1  0.58681978  0.42984393  0.11483130  1
  O  O15  1  0.91131990  0.31494380  0.88451308  1
  O  O16  1  0.41116877  0.56709865  0.88363988  1
  O  O17  1  0.08721891  0.68278731  0.11448626  1
  O  O18  1  0.42952777  0.27918918  0.35284320  1
  O  O19  1  0.06877148  0.92724289  0.64643279  1
  O  O20  1  0.35685119  0.84234261  0.38657281  1
  O  O21  1  0.14087050  0.45560896  0.61227501  1
  O  O22  1  0.64098283  0.15709738  0.61269746  1
  O  O23  1  0.85723017  0.54303218  0.38646023  1
  O  O24  1  0.92945255  0.07149688  0.35274717  1
  O  O25  1  0.56767979  0.71959133  0.64546557  1
