# generated using pymatgen
data_Mg2MoWO6
_symmetry_space_group_name_H-M   'P 1'
_cell_length_a   5.30903970
_cell_length_b   5.66760023
_cell_length_c   7.81573441
_cell_angle_alpha   95.28680099
_cell_angle_beta   133.56434510
_cell_angle_gamma   117.62366224
_symmetry_Int_Tables_number   1
_chemical_formula_structural   Mg2MoWO6
_chemical_formula_sum   'Mg2 Mo1 W1 O6'
_cell_volume   115.85352293
_cell_formula_units_Z   1
loop_
 _symmetry_equiv_pos_site_id
 _symmetry_equiv_pos_as_xyz
  1  'x, y, z'
loop_
 _atom_site_type_symbol
 _atom_site_label
 _atom_site_symmetry_multiplicity
 _atom_site_fract_x
 _atom_site_fract_y
 _atom_site_fract_z
 _atom_site_occupancy
  Mg  Mg0  1  0.99464244  0.55993021  0.20752371  1
  Mg  Mg1  1  0.00156199  0.56569629  0.71273408  1
  Mo  Mo2  1  0.99819338  0.97499354  0.50179346  1
  W  W3  1  0.99779042  0.97085833  0.00304167  1
  O  O4  1  0.71261250  0.79157051  0.10106929  1
  O  O5  1  0.28560788  0.08373511  0.90537555  1
  O  O6  1  0.36799300  0.45679760  0.27539948  1
  O  O7  1  0.36439356  0.81264533  0.62915388  1
  O  O8  1  0.58616569  0.08466294  0.38614903  1
  O  O9  1  0.70450913  0.49403415  0.80010785  1
