# generated using pymatgen
data_VZnPO5
_symmetry_space_group_name_H-M   'P 1'
_cell_length_a   5.47058692
_cell_length_b   7.20872610
_cell_length_c   8.20510701
_cell_angle_alpha   89.96511360
_cell_angle_beta   41.41587537
_cell_angle_gamma   107.49997340
_symmetry_Int_Tables_number   1
_chemical_formula_structural   VZnPO5
_chemical_formula_sum   'V2 Zn2 P2 O10'
_cell_volume   190.58330268
_cell_formula_units_Z   2
loop_
 _symmetry_equiv_pos_site_id
 _symmetry_equiv_pos_as_xyz
  1  'x, y, z'
loop_
 _atom_site_type_symbol
 _atom_site_label
 _atom_site_symmetry_multiplicity
 _atom_site_fract_x
 _atom_site_fract_y
 _atom_site_fract_z
 _atom_site_occupancy
  V  V0  1  0.49991904  0.50206366  0.49897600  1
  V  V1  1  0.49980710  0.00202163  0.49913936  1
  Zn  Zn2  1  0.50221191  0.25074547  0.17950386  1
  Zn  Zn3  1  0.50163675  0.75743868  0.81656881  1
  P  P4  1  0.49907912  0.25105826  0.85001420  1
  P  P5  1  0.49931765  0.75261973  0.14880441  1
  O  O6  1  0.59196428  0.09895773  0.69959623  1
  O  O7  1  0.40581852  0.40099216  0.79093473  1
  O  O8  1  0.40579547  0.90384372  0.30023763  1
  O  O9  1  0.59193376  0.60176436  0.20743662  1
  O  O10  1  0.14002143  0.63418430  0.20256858  1
  O  O11  1  0.86053248  0.87254098  0.84317838  1
  O  O12  1  0.85974127  0.37050458  0.79490852  1
  O  O13  1  0.13919175  0.13214742  0.15560953  1
  O  O14  1  0.49832381  0.75159021  0.59036866  1
  O  O15  1  0.50121865  0.25244413  0.40786047  1
