# generated using pymatgen
data_Ba2Sb2F11
_symmetry_space_group_name_H-M   'P 1'
_cell_length_a   8.06355684
_cell_length_b   8.06355674
_cell_length_c   14.82370635
_cell_angle_alpha   90.00000000
_cell_angle_beta   90.00000000
_cell_angle_gamma   119.99999645
_symmetry_Int_Tables_number   1
_chemical_formula_structural   Ba2Sb2F11
_chemical_formula_sum   'Ba6 Sb6 F33'
_cell_volume   834.71986393
_cell_formula_units_Z   3
loop_
 _symmetry_equiv_pos_site_id
 _symmetry_equiv_pos_as_xyz
  1  'x, y, z'
loop_
 _atom_site_type_symbol
 _atom_site_label
 _atom_site_symmetry_multiplicity
 _atom_site_fract_x
 _atom_site_fract_y
 _atom_site_fract_z
 _atom_site_occupancy
  Ba  Ba0  1  0.54458431  0.17336328  0.65664201  1
  Ba  Ba1  1  0.12194842  0.39734021  0.80425042  1
  Ba  Ba2  1  0.62877897  0.45541569  0.98997501  1
  Ba  Ba3  1  0.60265979  0.72460721  0.47091642  1
  Ba  Ba4  1  0.27539279  0.87805158  0.13758342  1
  Ba  Ba5  1  0.82663672  0.37122103  0.32330801  1
  Sb  Sb6  1  0.53384859  0.93899970  0.89509447  1
  Sb  Sb7  1  0.84670449  0.79896470  0.73275608  1
  Sb  Sb8  1  0.20103530  0.04773978  0.39942208  1
  Sb  Sb9  1  0.40515211  0.46615141  0.22842747  1
  Sb  Sb10  1  0.95226022  0.15329551  0.06608908  1
  Sb  Sb11  1  0.06100030  0.59484789  0.56176047  1
  F  F12  1  0.65658810  0.01620564  0.06258889  1
  F  F13  1  0.29803058  0.68991205  0.94379097  1
  F  F14  1  0.35961854  0.34341190  0.39592189  1
  F  F15  1  0.12010451  0.48832932  0.45267650  1
  F  F16  1  0.55362025  0.32228245  0.17885741  1
  F  F17  1  0.00385320  0.58395000  0.19408340  1
  F  F18  1  0.51167068  0.63177519  0.11934350  1
  F  F19  1  0.41605000  0.41990420  0.86075040  1
  F  F20  1  0.76866120  0.44637975  0.51219041  1
  F  F21  1  0.24739622  0.25450476  0.07320712  1
  F  F22  1  0.36822481  0.87989549  0.78601050  1
  F  F23  1  0.98379436  0.64038146  0.72925589  1
  F  F24  1  0.39849826  0.05276607  0.96416829  1
  F  F25  1  0.93150359  0.38870731  0.01913412  1
  F  F26  1  0.65426781  0.60150174  0.29750129  1
  F  F27  1  0.31008795  0.60812053  0.61045697  1
  F  F28  1  0.96495024  0.12319497  0.93011086  1
  F  F29  1  0.00710754  0.75260378  0.40654012  1
  F  F30  1  0.95979998  0.06746964  0.40927543  1
  F  F31  1  0.94723393  0.34573219  0.63083429  1
  F  F32  1  0.10766967  0.04020002  0.74260943  1
  F  F33  1  0.61129269  0.54279629  0.68580112  1
  F  F34  1  0.45720371  0.06849641  0.35246712  1
  F  F35  1  0.15824473  0.03504976  0.26344386  1
  F  F36  1  0.74549524  0.99289246  0.73987412  1
  F  F37  1  0.67771655  0.23133880  0.84552441  1
  F  F38  1  0.39187947  0.70196942  0.27712397  1
  F  F39  1  0.81638758  0.73885845  0.86943003  1
  F  F40  1  0.92247087  0.18361242  0.20276303  1
  F  F41  1  0.93253036  0.89233033  0.07594243  1
  F  F42  1  0.58009580  0.99614680  0.52741640  1
  F  F43  1  0.87680503  0.84175527  0.59677686  1
  F  F44  1  0.26114155  0.07752913  0.53609603  1
