# generated using pymatgen
data_CrAu4
_symmetry_space_group_name_H-M   'P 1'
_cell_length_a   4.10929991
_cell_length_b   5.05404807
_cell_length_c   5.05404807
_cell_angle_alpha   80.48700980
_cell_angle_beta   66.01260687
_cell_angle_gamma   66.01260687
_symmetry_Int_Tables_number   1
_chemical_formula_structural   CrAu4
_chemical_formula_sum   'Cr1 Au4'
_cell_volume   87.61772355
_cell_formula_units_Z   1
loop_
 _symmetry_equiv_pos_site_id
 _symmetry_equiv_pos_as_xyz
  1  'x, y, z'
loop_
 _atom_site_type_symbol
 _atom_site_label
 _atom_site_symmetry_multiplicity
 _atom_site_fract_x
 _atom_site_fract_y
 _atom_site_fract_z
 _atom_site_occupancy
  Cr  Cr0  1  0.00000000  -0.00000000  -0.00000000  1
  Au  Au1  1  0.60258487  0.60086784  0.19396241  1
  Au  Au2  1  0.39741513  0.39913216  0.80603759  1
  Au  Au3  1  0.20345271  0.19396241  0.39913216  1
  Au  Au4  1  0.79654729  0.80603759  0.60086784  1
