# generated using pymatgen
data_Sr6Ca2Fe7CoO24
_symmetry_space_group_name_H-M   'P 1'
_cell_length_a   7.78396016
_cell_length_b   7.74663250
_cell_length_c   7.78396016
_cell_angle_alpha   90.00000000
_cell_angle_beta   90.02191413
_cell_angle_gamma   90.00000000
_symmetry_Int_Tables_number   1
_chemical_formula_structural   Sr6Ca2Fe7CoO24
_chemical_formula_sum   'Sr6 Ca2 Fe7 Co1 O24'
_cell_volume   469.36870624
_cell_formula_units_Z   1
loop_
 _symmetry_equiv_pos_site_id
 _symmetry_equiv_pos_as_xyz
  1  'x, y, z'
loop_
 _atom_site_type_symbol
 _atom_site_label
 _atom_site_symmetry_multiplicity
 _atom_site_fract_x
 _atom_site_fract_y
 _atom_site_fract_z
 _atom_site_occupancy
  Sr  Sr0  1  0.24994566  0.25194961  0.25005434  1
  Sr  Sr1  1  0.24994492  0.25193723  0.74994492  1
  Sr  Sr2  1  0.24990755  0.74818712  0.74990755  1
  Sr  Sr3  1  0.75005508  0.25193723  0.25005508  1
  Sr  Sr4  1  0.75005434  0.25194961  0.74994566  1
  Sr  Sr5  1  0.75009245  0.74818712  0.25009245  1
  Ca  Ca6  1  0.25026078  0.74758096  0.24973922  1
  Ca  Ca7  1  0.74973922  0.74758096  0.75026078  1
  Fe  Fe8  1  -0.00000000  0.99875132  0.00000000  1
  Fe  Fe9  1  -0.00000000  0.99770744  0.50000000  1
  Fe  Fe10  1  -0.00000000  0.50117230  0.00000000  1
  Fe  Fe11  1  0.50000000  0.99879155  0.00000000  1
  Fe  Fe12  1  0.50000000  0.99875132  0.50000000  1
  Fe  Fe13  1  0.50000000  0.50141613  0.00000000  1
  Fe  Fe14  1  0.50000000  0.50117230  0.50000000  1
  Co  Co15  1  -0.00000000  0.50113305  0.50000000  1
  O  O16  1  0.25041879  0.99671079  0.00193201  1
  O  O17  1  0.24682054  0.99670876  0.49822884  1
  O  O18  1  0.25061944  0.50334653  0.00190680  1
  O  O19  1  0.24855604  0.50353069  0.49749446  1
  O  O20  1  0.74958121  0.99671079  0.99806799  1
  O  O21  1  0.75317946  0.99670876  0.50177116  1
  O  O22  1  0.74938056  0.50334653  0.99809320  1
  O  O23  1  0.75144396  0.50353069  0.50250554  1
  O  O24  1  -0.00000000  0.25011687  0.00000000  1
  O  O25  1  -0.00000000  0.26343767  0.50000000  1
  O  O26  1  -0.00000000  0.74989693  0.00000000  1
  O  O27  1  -0.00000000  0.73722016  0.50000000  1
  O  O28  1  0.50000000  0.24900848  0.00000000  1
  O  O29  1  0.50000000  0.25011687  0.50000000  1
  O  O30  1  0.50000000  0.75091382  0.00000000  1
  O  O31  1  0.50000000  0.74989693  0.50000000  1
  O  O32  1  0.00177116  0.99670876  0.25317946  1
  O  O33  1  0.99822884  0.99670876  0.74682054  1
  O  O34  1  0.00250554  0.50353069  0.25144396  1
  O  O35  1  0.99749446  0.50353069  0.74855604  1
  O  O36  1  0.49806799  0.99671079  0.24958121  1
  O  O37  1  0.50193201  0.99671079  0.75041879  1
  O  O38  1  0.49809320  0.50334653  0.24938056  1
  O  O39  1  0.50190680  0.50334653  0.75061944  1
