# generated using pymatgen
data_Sr3Ca5FeCo7O20
_symmetry_space_group_name_H-M   'P 1'
_cell_length_a   10.73718292
_cell_length_b   11.16969621
_cell_length_c   17.30544730
_cell_angle_alpha   108.94160640
_cell_angle_beta   108.18169550
_cell_angle_gamma   89.70349697
_symmetry_Int_Tables_number   1
_chemical_formula_structural   Sr3Ca5FeCo7O20
_chemical_formula_sum   'Sr12 Ca20 Fe4 Co28 O80'
_cell_volume   1854.36349975
_cell_formula_units_Z   4
loop_
 _symmetry_equiv_pos_site_id
 _symmetry_equiv_pos_as_xyz
  1  'x, y, z'
loop_
 _atom_site_type_symbol
 _atom_site_label
 _atom_site_symmetry_multiplicity
 _atom_site_fract_x
 _atom_site_fract_y
 _atom_site_fract_z
 _atom_site_occupancy
  Sr  Sr0  1  0.30879953  0.56370283  0.60780536  1
  Sr  Sr1  1  0.80485062  0.05802154  0.60817386  1
  Sr  Sr2  1  0.80543825  0.56070612  0.60933085  1
  Sr  Sr3  1  0.19448132  0.43717046  0.38352337  1
  Sr  Sr4  1  0.19892236  0.43552115  0.89376328  1
  Sr  Sr5  1  0.69430967  0.93380659  0.38487811  1
  Sr  Sr6  1  0.05814954  0.29131459  0.60862509  1
  Sr  Sr7  1  0.05600973  0.79856933  0.60935310  1
  Sr  Sr8  1  0.55871444  0.29965196  0.61016054  1
  Sr  Sr9  1  0.44875693  0.20104673  0.89033421  1
  Sr  Sr10  1  0.94303763  0.19517662  0.38456213  1
  Sr  Sr11  1  0.94481383  0.19742600  0.89068684  1
  Ca  Ca12  1  0.30300873  0.06668678  0.11103267  1
  Ca  Ca13  1  0.30427567  0.06367071  0.60458549  1
  Ca  Ca14  1  0.30828541  0.57032757  0.11350432  1
  Ca  Ca15  1  0.80025664  0.06940854  0.10847972  1
  Ca  Ca16  1  0.80767428  0.56739082  0.11281870  1
  Ca  Ca17  1  0.19659675  0.93057739  0.38889690  1
  Ca  Ca18  1  0.19013743  0.93685486  0.89499619  1
  Ca  Ca19  1  0.69523277  0.43341459  0.38949748  1
  Ca  Ca20  1  0.70066987  0.43144698  0.89483776  1
  Ca  Ca21  1  0.69710954  0.93940640  0.89200753  1
  Ca  Ca22  1  0.05088773  0.29022850  0.10972656  1
  Ca  Ca23  1  0.05650228  0.79562294  0.11103884  1
  Ca  Ca24  1  0.55298171  0.29454480  0.11153214  1
  Ca  Ca25  1  0.55500966  0.79232906  0.11041297  1
  Ca  Ca26  1  0.55601090  0.79322946  0.60634469  1
  Ca  Ca27  1  0.45174327  0.20941964  0.38920191  1
  Ca  Ca28  1  0.44529158  0.70692199  0.39052887  1
  Ca  Ca29  1  0.44694175  0.71594064  0.89524769  1
  Ca  Ca30  1  0.94586651  0.70572518  0.39043798  1
  Ca  Ca31  1  0.94537468  0.71451068  0.89553660  1
  Fe  Fe32  1  0.10799400  0.59633275  0.75346571  1
  Fe  Fe33  1  0.61176461  0.60052312  0.75611952  1
  Fe  Fe34  1  0.36438807  0.41277762  0.75402728  1
  Fe  Fe35  1  0.36170346  0.90860198  0.75095868  1
  Co  Co36  1  0.00611415  0.00327537  0.00615529  1
  Co  Co37  1  0.00357823  0.99481705  0.49579498  1
  Co  Co38  1  0.00730294  0.50180668  0.00705501  1
  Co  Co39  1  0.00045293  0.49803331  0.49548264  1
  Co  Co40  1  0.50704788  0.00305524  0.00334805  1
  Co  Co41  1  0.50065528  0.99855143  0.49530581  1
  Co  Co42  1  0.50871751  0.50047675  0.00384493  1
  Co  Co43  1  0.50211770  0.49993977  0.49424359  1
  Co  Co44  1  0.25745516  0.25266191  0.00742558  1
  Co  Co45  1  0.25331365  0.24556854  0.49326485  1
  Co  Co46  1  0.25683432  0.75414506  0.00333574  1
  Co  Co47  1  0.25508798  0.75106853  0.49892477  1
  Co  Co48  1  0.75783876  0.25428778  0.00823741  1
  Co  Co49  1  0.75130817  0.24745923  0.49531803  1
  Co  Co50  1  0.75753888  0.75236898  0.00192001  1
  Co  Co51  1  0.74836916  0.74382234  0.49236162  1
  Co  Co52  1  0.10871711  0.08820377  0.24642743  1
  Co  Co53  1  0.11343117  0.08934626  0.75333934  1
  Co  Co54  1  0.10764182  0.59653355  0.24751859  1
  Co  Co55  1  0.60421625  0.09407330  0.24675426  1
  Co  Co56  1  0.60642519  0.09272468  0.74783302  1
  Co  Co57  1  0.60760007  0.59092773  0.24816969  1
  Co  Co58  1  0.35975815  0.40621393  0.24644875  1
  Co  Co59  1  0.35709177  0.90578696  0.24982801  1
  Co  Co60  1  0.85541777  0.40865012  0.24997273  1
  Co  Co61  1  0.85925493  0.41015338  0.75516604  1
  Co  Co62  1  0.85974911  0.90091740  0.24343743  1
  Co  Co63  1  0.85526572  0.90122664  0.75114350  1
  O  O64  1  0.12757740  0.11161298  0.48839210  1
  O  O65  1  0.12866495  0.12648087  0.99670082  1
  O  O66  1  0.12004039  0.61976904  0.48654028  1
  O  O67  1  0.13382244  0.63284661  0.99377891  1
  O  O68  1  0.61778452  0.11921318  0.48701524  1
  O  O69  1  0.62793853  0.12906035  0.99494621  1
  O  O70  1  0.61915782  0.61525093  0.48189977  1
  O  O71  1  0.63346043  0.62889490  0.98933961  1
  O  O72  1  0.13437321  0.38944206  0.01805309  1
  O  O73  1  0.13483498  0.36709833  0.50353892  1
  O  O74  1  0.13425161  0.88495879  0.01607127  1
  O  O75  1  0.13233192  0.87568944  0.50278680  1
  O  O76  1  0.63732082  0.38884282  0.01597029  1
  O  O77  1  0.62848436  0.37596115  0.50133706  1
  O  O78  1  0.63072707  0.88718387  0.01675141  1
  O  O79  1  0.62558674  0.86934012  0.50656691  1
  O  O80  1  0.36935083  0.12308225  0.48526547  1
  O  O81  1  0.37470952  0.10813968  0.99271989  1
  O  O82  1  0.37690934  0.62565881  0.48645656  1
  O  O83  1  0.38739073  0.61789437  0.99391450  1
  O  O84  1  0.87452108  0.11619303  0.49145921  1
  O  O85  1  0.86961923  0.11372459  0.99326268  1
  O  O86  1  0.86808259  0.61621061  0.48279826  1
  O  O87  1  0.88255859  0.61170140  0.98827896  1
  O  O88  1  0.38567516  0.38154738  0.01854451  1
  O  O89  1  0.38227491  0.38011115  0.50238422  1
  O  O90  1  0.38250543  0.87635509  0.01579511  1
  O  O91  1  0.37974294  0.88841233  0.50698703  1
  O  O92  1  0.88235479  0.38123749  0.01680809  1
  O  O93  1  0.87997185  0.37774528  0.50320252  1
  O  O94  1  0.88335567  0.87817281  0.01558427  1
  O  O95  1  0.88080576  0.87449702  0.50207852  1
  O  O96  1  0.09142588  0.10238961  0.14181511  1
  O  O97  1  0.09237989  0.08651766  0.64469450  1
  O  O98  1  0.08633119  0.60713458  0.14028893  1
  O  O99  1  0.07566065  0.59192887  0.63926520  1
  O  O100  1  0.58640789  0.10656294  0.14144260  1
  O  O101  1  0.58212636  0.09329621  0.63978494  1
  O  O102  1  0.59196786  0.60318435  0.14201495  1
  O  O103  1  0.58071348  0.60225663  0.64296805  1
  O  O104  1  0.43955365  0.39759984  0.35264741  1
  O  O105  1  0.45233382  0.40426435  0.86466264  1
  O  O106  1  0.43671090  0.89809093  0.35686788  1
  O  O107  1  0.45911201  0.90307247  0.86255544  1
  O  O108  1  0.93636694  0.40407090  0.35722065  1
  O  O109  1  0.94383724  0.39929605  0.86070665  1
  O  O110  1  0.94141937  0.89813027  0.35137924  1
  O  O111  1  0.94458158  0.90464845  0.86213084  1
  O  O112  1  0.34396184  0.28646153  0.14243555  1
  O  O113  1  0.33685427  0.29216923  0.64301148  1
  O  O114  1  0.34316432  0.78908313  0.14408992  1
  O  O115  1  0.33389037  0.79517522  0.63833290  1
  O  O116  1  0.84195020  0.29087060  0.14541015  1
  O  O117  1  0.82958514  0.30634999  0.64482987  1
  O  O118  1  0.84164735  0.78229513  0.13804013  1
  O  O119  1  0.82457495  0.79675499  0.64143687  1
  O  O120  1  0.18964368  0.20029191  0.35421240  1
  O  O121  1  0.19065687  0.20312859  0.86180350  1
  O  O122  1  0.19455058  0.70573731  0.35453294  1
  O  O123  1  0.20440675  0.71748223  0.86230364  1
  O  O124  1  0.68341014  0.20360577  0.35546537  1
  O  O125  1  0.68672204  0.20782411  0.85575188  1
  O  O126  1  0.69424421  0.70051530  0.35432429  1
  O  O127  1  0.70603005  0.72241676  0.86418945  1
  O  O128  1  0.42468127  0.06544214  0.24851225  1
  O  O129  1  0.42296856  0.06459837  0.74327326  1
  O  O130  1  0.42683219  0.56884874  0.24877805  1
  O  O131  1  0.43300551  0.57639043  0.75943246  1
  O  O132  1  0.92623494  0.05717279  0.23822946  1
  O  O133  1  0.93386660  0.05609267  0.75001087  1
  O  O134  1  0.92777845  0.56821870  0.24971463  1
  O  O135  1  0.93353046  0.57470283  0.76163923  1
  O  O136  1  0.17638036  0.43406517  0.23887363  1
  O  O137  1  0.18458717  0.43903306  0.75266229  1
  O  O138  1  0.17555746  0.92802624  0.24797848  1
  O  O139  1  0.18686369  0.93178443  0.76045870  1
  O  O140  1  0.67308575  0.42915579  0.24780209  1
  O  O141  1  0.68034775  0.44209625  0.76039642  1
  O  O142  1  0.67874922  0.93380629  0.24034930  1
  O  O143  1  0.67483063  0.93152887  0.75155499  1
