# generated using pymatgen
data_Sr7CaFe6(CoO12)2
_symmetry_space_group_name_H-M   'P 1'
_cell_length_a   7.82267393
_cell_length_b   7.77973164
_cell_length_c   7.77973164
_cell_angle_alpha   89.88448034
_cell_angle_beta   90.00000000
_cell_angle_gamma   90.00000000
_symmetry_Int_Tables_number   1
_chemical_formula_structural   Sr7CaFe6(CoO12)2
_chemical_formula_sum   'Sr7 Ca1 Fe6 Co2 O24'
_cell_volume   473.46031033
_cell_formula_units_Z   1
loop_
 _symmetry_equiv_pos_site_id
 _symmetry_equiv_pos_as_xyz
  1  'x, y, z'
loop_
 _atom_site_type_symbol
 _atom_site_label
 _atom_site_symmetry_multiplicity
 _atom_site_fract_x
 _atom_site_fract_y
 _atom_site_fract_z
 _atom_site_occupancy
  Sr  Sr0  1  0.25000000  0.25197192  0.25182346  1
  Sr  Sr1  1  0.25000000  0.25188027  0.74811973  1
  Sr  Sr2  1  0.25000000  0.74817654  0.74802808  1
  Sr  Sr3  1  0.75000000  0.25190967  0.25188192  1
  Sr  Sr4  1  0.75000000  0.25183920  0.74816080  1
  Sr  Sr5  1  0.75000000  0.74812907  0.25187093  1
  Sr  Sr6  1  0.75000000  0.74811808  0.74809033  1
  Ca  Ca7  1  0.25000000  0.74807198  0.25192802  1
  Fe  Fe8  1  0.00053329  0.99948160  0.00051840  1
  Fe  Fe9  1  0.00053021  0.99918958  0.49950199  1
  Fe  Fe10  1  0.00053021  0.50049801  0.00081042  1
  Fe  Fe11  1  0.49946671  0.99948160  0.00051840  1
  Fe  Fe12  1  0.49946979  0.99918958  0.49950199  1
  Fe  Fe13  1  0.49946979  0.50049801  0.00081042  1
  Co  Co14  1  0.00074506  0.50029273  0.49970727  1
  Co  Co15  1  0.49925494  0.50029273  0.49970727  1
  O  O16  1  0.25000000  0.99767404  0.00232596  1
  O  O17  1  0.25000000  0.99757096  0.49769765  1
  O  O18  1  0.25000000  0.50230235  0.00242904  1
  O  O19  1  0.25000000  0.50358648  0.49641352  1
  O  O20  1  0.75000000  0.99949415  0.00050585  1
  O  O21  1  0.75000000  0.99951107  0.49947424  1
  O  O22  1  0.75000000  0.50052576  0.00048893  1
  O  O23  1  0.75000000  0.50030026  0.49969974  1
  O  O24  1  0.00052423  0.25113314  0.00029725  1
  O  O25  1  0.00045129  0.25737483  0.49866692  1
  O  O26  1  0.00225813  0.74886377  0.00252047  1
  O  O27  1  0.00242775  0.74268505  0.49856496  1
  O  O28  1  0.49947577  0.25113314  0.00029725  1
  O  O29  1  0.49954871  0.25737483  0.49866692  1
  O  O30  1  0.49774187  0.74886377  0.00252047  1
  O  O31  1  0.49757225  0.74268505  0.49856496  1
  O  O32  1  0.00225813  0.99747953  0.25113623  1
  O  O33  1  0.00052423  0.99970275  0.74886686  1
  O  O34  1  0.00242775  0.50143504  0.25731495  1
  O  O35  1  0.00045129  0.50133308  0.74262517  1
  O  O36  1  0.49774187  0.99747953  0.25113623  1
  O  O37  1  0.49947577  0.99970275  0.74886686  1
  O  O38  1  0.49757225  0.50143504  0.25731495  1
  O  O39  1  0.49954871  0.50133308  0.74262517  1
