# generated using pymatgen
data_Sr7CaMn2(Fe3O10)2
_symmetry_space_group_name_H-M   'P 1'
_cell_length_a   11.17406388
_cell_length_b   11.39844759
_cell_length_c   17.68784584
_cell_angle_alpha   108.81592504
_cell_angle_beta   108.60787096
_cell_angle_gamma   89.78457307
_symmetry_Int_Tables_number   1
_chemical_formula_structural   Sr7CaMn2(Fe3O10)2
_chemical_formula_sum   'Sr28 Ca4 Mn8 Fe24 O80'
_cell_volume   2008.59624619
_cell_formula_units_Z   4
loop_
 _symmetry_equiv_pos_site_id
 _symmetry_equiv_pos_as_xyz
  1  'x, y, z'
loop_
 _atom_site_type_symbol
 _atom_site_label
 _atom_site_symmetry_multiplicity
 _atom_site_fract_x
 _atom_site_fract_y
 _atom_site_fract_z
 _atom_site_occupancy
  Sr  Sr0  1  0.30721006  0.05981245  0.60862677  1
  Sr  Sr1  1  0.30704388  0.55928734  0.60793092  1
  Sr  Sr2  1  0.80621736  0.06107853  0.60868691  1
  Sr  Sr3  1  0.80596600  0.56462779  0.10941283  1
  Sr  Sr4  1  0.80722848  0.55948332  0.60817653  1
  Sr  Sr5  1  0.19600865  0.43510136  0.38972078  1
  Sr  Sr6  1  0.19899865  0.44109112  0.89280070  1
  Sr  Sr7  1  0.19633321  0.93704327  0.38930041  1
  Sr  Sr8  1  0.19908595  0.94081823  0.89311732  1
  Sr  Sr9  1  0.69657592  0.43636100  0.39052227  1
  Sr  Sr10  1  0.69983894  0.44062794  0.89205864  1
  Sr  Sr11  1  0.69827431  0.93801978  0.39090110  1
  Sr  Sr12  1  0.70038131  0.93876309  0.89390049  1
  Sr  Sr13  1  0.05719968  0.29479199  0.11032127  1
  Sr  Sr14  1  0.05703558  0.29824190  0.60788571  1
  Sr  Sr15  1  0.05697639  0.79855076  0.60820696  1
  Sr  Sr16  1  0.55615261  0.29492000  0.10986403  1
  Sr  Sr17  1  0.55784100  0.29846462  0.60855076  1
  Sr  Sr18  1  0.55626270  0.79710996  0.10947211  1
  Sr  Sr19  1  0.55641131  0.79611363  0.60716471  1
  Sr  Sr20  1  0.44535274  0.20040570  0.38729884  1
  Sr  Sr21  1  0.44835164  0.20106670  0.89201787  1
  Sr  Sr22  1  0.44538089  0.70306131  0.38932424  1
  Sr  Sr23  1  0.44898566  0.70222689  0.89287929  1
  Sr  Sr24  1  0.94599999  0.20235541  0.38857763  1
  Sr  Sr25  1  0.94837503  0.20227551  0.89252327  1
  Sr  Sr26  1  0.94630705  0.70400218  0.38980134  1
  Sr  Sr27  1  0.95010867  0.70266171  0.89325048  1
  Ca  Ca28  1  0.30302639  0.06439567  0.10624765  1
  Ca  Ca29  1  0.30223393  0.56566148  0.10414800  1
  Ca  Ca30  1  0.80334662  0.06575520  0.10570732  1
  Ca  Ca31  1  0.05565804  0.78932049  0.10608126  1
  Mn  Mn32  1  0.11242362  0.09591261  0.75069403  1
  Mn  Mn33  1  0.11148629  0.59730308  0.75069234  1
  Mn  Mn34  1  0.61187703  0.59765137  0.75073141  1
  Mn  Mn35  1  0.36122435  0.40399790  0.75055383  1
  Mn  Mn36  1  0.35450555  0.90128607  0.24644060  1
  Mn  Mn37  1  0.36142361  0.90063975  0.75063801  1
  Mn  Mn38  1  0.86218666  0.40397243  0.75068608  1
  Mn  Mn39  1  0.86130169  0.90458927  0.75075181  1
  Fe  Fe40  1  0.00719401  0.00177496  0.00536649  1
  Fe  Fe41  1  0.00437647  0.00064348  0.50022831  1
  Fe  Fe42  1  0.00656765  0.50205325  0.00301600  1
  Fe  Fe43  1  0.00393044  0.49999458  0.49983671  1
  Fe  Fe44  1  0.50617470  0.00174199  0.00320787  1
  Fe  Fe45  1  0.50331496  0.00118418  0.49899317  1
  Fe  Fe46  1  0.50455374  0.50107891  0.00201402  1
  Fe  Fe47  1  0.50372811  0.49935379  0.49957554  1
  Fe  Fe48  1  0.25540376  0.25126414  0.00256174  1
  Fe  Fe49  1  0.25409966  0.24958938  0.50023094  1
  Fe  Fe50  1  0.25511117  0.75300613  0.00376938  1
  Fe  Fe51  1  0.25398945  0.75012738  0.49998945  1
  Fe  Fe52  1  0.75558261  0.25082578  0.00181440  1
  Fe  Fe53  1  0.75382687  0.25001943  0.49987624  1
  Fe  Fe54  1  0.75749214  0.75285856  0.00417807  1
  Fe  Fe55  1  0.75356867  0.75022548  0.50005371  1
  Fe  Fe56  1  0.10428557  0.08292287  0.24584252  1
  Fe  Fe57  1  0.10892936  0.59267691  0.24912326  1
  Fe  Fe58  1  0.60653963  0.08922901  0.24762360  1
  Fe  Fe59  1  0.61043097  0.08844546  0.75040463  1
  Fe  Fe60  1  0.60352896  0.59016436  0.24801813  1
  Fe  Fe61  1  0.35635650  0.40939474  0.24748872  1
  Fe  Fe62  1  0.85734688  0.40739035  0.24929554  1
  Fe  Fe63  1  0.85777887  0.91133132  0.24772007  1
  O  O64  1  0.12368516  0.12190749  0.49147640  1
  O  O65  1  0.12709166  0.12263836  0.99499314  1
  O  O66  1  0.12349805  0.62151841  0.49122538  1
  O  O67  1  0.12656541  0.62393047  0.99572358  1
  O  O68  1  0.62396433  0.12253618  0.49133568  1
  O  O69  1  0.62704441  0.12259781  0.99336272  1
  O  O70  1  0.62328024  0.62201536  0.49139968  1
  O  O71  1  0.62508675  0.62396254  0.99366631  1
  O  O72  1  0.13740317  0.38322280  0.01356388  1
  O  O73  1  0.13155727  0.37674666  0.50610700  1
  O  O74  1  0.13454708  0.88060241  0.01356361  1
  O  O75  1  0.13141886  0.87711907  0.50621429  1
  O  O76  1  0.63219492  0.37730297  0.00849709  1
  O  O77  1  0.63136453  0.37734151  0.50627553  1
  O  O78  1  0.63670667  0.88209217  0.01166722  1
  O  O79  1  0.63019597  0.87775558  0.50577627  1
  O  O80  1  0.37435217  0.12134619  0.49318273  1
  O  O81  1  0.37597592  0.12125762  0.99520976  1
  O  O82  1  0.37360398  0.61963966  0.49096067  1
  O  O83  1  0.37475595  0.62118264  0.99581835  1
  O  O84  1  0.87380987  0.12010799  0.49129244  1
  O  O85  1  0.87486639  0.11999303  0.99476914  1
  O  O86  1  0.87334813  0.62010983  0.49131124  1
  O  O87  1  0.87836779  0.62335946  0.99530893  1
  O  O88  1  0.38215095  0.38450191  0.01270278  1
  O  O89  1  0.38062279  0.37845065  0.50503620  1
  O  O90  1  0.38225559  0.88459415  0.01178067  1
  O  O91  1  0.38286648  0.88044379  0.50765831  1
  O  O92  1  0.88427780  0.38149706  0.01092669  1
  O  O93  1  0.88137991  0.37913854  0.50608612  1
  O  O94  1  0.88655319  0.88349582  0.01479880  1
  O  O95  1  0.88097039  0.87912744  0.50583836  1
  O  O96  1  0.08860981  0.09659398  0.13991833  1
  O  O97  1  0.07569588  0.08588534  0.63540775  1
  O  O98  1  0.08633224  0.60370130  0.14118572  1
  O  O99  1  0.07540912  0.58581679  0.63572142  1
  O  O100  1  0.58917411  0.09498118  0.13933163  1
  O  O101  1  0.58397977  0.09534397  0.64067055  1
  O  O102  1  0.58371019  0.59663413  0.13980533  1
  O  O103  1  0.57516558  0.58559258  0.63557798  1
  O  O104  1  0.44144640  0.40632035  0.35762961  1
  O  O105  1  0.43917595  0.41439464  0.86572670  1
  O  O106  1  0.43508672  0.91728669  0.36176244  1
  O  O107  1  0.44034060  0.91363636  0.86602914  1
  O  O108  1  0.94085291  0.40457330  0.35931745  1
  O  O109  1  0.94201290  0.41492862  0.86594843  1
  O  O110  1  0.94124960  0.90700826  0.35786921  1
  O  O111  1  0.93963206  0.91408692  0.86565160  1
  O  O112  1  0.33276386  0.28401405  0.14200566  1
  O  O113  1  0.32533098  0.30027036  0.63585578  1
  O  O114  1  0.32564886  0.79003993  0.13607414  1
  O  O115  1  0.32482404  0.79866880  0.63525709  1
  O  O116  1  0.83160317  0.28706655  0.14107882  1
  O  O117  1  0.82661912  0.30052799  0.63584438  1
  O  O118  1  0.83494026  0.79269189  0.14016051  1
  O  O119  1  0.82444055  0.80047969  0.63574891  1
  O  O120  1  0.18870408  0.19773506  0.35603957  1
  O  O121  1  0.19093172  0.20207213  0.86640233  1
  O  O122  1  0.19194645  0.70507191  0.35949633  1
  O  O123  1  0.19000841  0.70111904  0.86590327  1
  O  O124  1  0.68790995  0.20313460  0.35794273  1
  O  O125  1  0.69438338  0.20543238  0.86046307  1
  O  O126  1  0.68594494  0.70399559  0.35791487  1
  O  O127  1  0.69161581  0.70166851  0.86572586  1
  O  O128  1  0.43290310  0.05208331  0.24047288  1
  O  O129  1  0.44169540  0.05956826  0.75062434  1
  O  O130  1  0.42642734  0.56056556  0.24083876  1
  O  O131  1  0.44199402  0.56222850  0.75087179  1
  O  O132  1  0.92762898  0.06221825  0.24154074  1
  O  O133  1  0.94004617  0.05974157  0.75073947  1
  O  O134  1  0.93750098  0.55731958  0.24854357  1
  O  O135  1  0.94215916  0.56238749  0.75079442  1
  O  O136  1  0.18589926  0.44056854  0.24923731  1
  O  O137  1  0.19166330  0.43878940  0.75046348  1
  O  O138  1  0.17306738  0.92553205  0.24183220  1
  O  O139  1  0.19034832  0.93651536  0.75073528  1
  O  O140  1  0.68575258  0.44062299  0.24959599  1
  O  O141  1  0.69301292  0.44075844  0.75052583  1
  O  O142  1  0.68622759  0.93871887  0.24973416  1
  O  O143  1  0.68371371  0.93392808  0.75055919  1
