# generated using pymatgen
data_Sr6Ca2Fe5Co3O20
_symmetry_space_group_name_H-M   'P 1'
_cell_length_a   10.88671744
_cell_length_b   11.34116095
_cell_length_c   17.62152745
_cell_angle_alpha   108.63910654
_cell_angle_beta   108.01925698
_cell_angle_gamma   90.14138828
_symmetry_Int_Tables_number   1
_chemical_formula_structural   Sr6Ca2Fe5Co3O20
_chemical_formula_sum   'Sr24 Ca8 Fe20 Co12 O80'
_cell_volume   1948.02933587
_cell_formula_units_Z   4
loop_
 _symmetry_equiv_pos_site_id
 _symmetry_equiv_pos_as_xyz
  1  'x, y, z'
loop_
 _atom_site_type_symbol
 _atom_site_label
 _atom_site_symmetry_multiplicity
 _atom_site_fract_x
 _atom_site_fract_y
 _atom_site_fract_z
 _atom_site_occupancy
  Sr  Sr0  1  0.30869611  0.06174888  0.60865750  1
  Sr  Sr1  1  0.31078664  0.56428861  0.61028680  1
  Sr  Sr2  1  0.80527754  0.06258836  0.61020104  1
  Sr  Sr3  1  0.80601982  0.56743660  0.61159811  1
  Sr  Sr4  1  0.20018146  0.43383934  0.38813380  1
  Sr  Sr5  1  0.19749816  0.43711829  0.89290500  1
  Sr  Sr6  1  0.19832299  0.93478275  0.38797406  1
  Sr  Sr7  1  0.69257328  0.43707285  0.38749789  1
  Sr  Sr8  1  0.70023312  0.43936004  0.89358137  1
  Sr  Sr9  1  0.69473858  0.93363943  0.38977699  1
  Sr  Sr10  1  0.70012078  0.93673824  0.89434527  1
  Sr  Sr11  1  0.05158351  0.29209919  0.10861668  1
  Sr  Sr12  1  0.05531258  0.29438016  0.61050398  1
  Sr  Sr13  1  0.05610589  0.79898994  0.61100148  1
  Sr  Sr14  1  0.55670463  0.29447133  0.60894546  1
  Sr  Sr15  1  0.55713727  0.79676463  0.10941233  1
  Sr  Sr16  1  0.56146214  0.79740266  0.60944742  1
  Sr  Sr17  1  0.44522599  0.20200550  0.38586062  1
  Sr  Sr18  1  0.45101920  0.20579624  0.89271762  1
  Sr  Sr19  1  0.45008704  0.70323815  0.38762018  1
  Sr  Sr20  1  0.45049920  0.70756625  0.89434538  1
  Sr  Sr21  1  0.94285585  0.20084168  0.38649918  1
  Sr  Sr22  1  0.94539033  0.20663983  0.89382214  1
  Sr  Sr23  1  0.94457692  0.70246953  0.38682292  1
  Ca  Ca24  1  0.30107044  0.06297593  0.10396260  1
  Ca  Ca25  1  0.29763421  0.56784225  0.10500326  1
  Ca  Ca26  1  0.80115651  0.06587445  0.10376931  1
  Ca  Ca27  1  0.80669561  0.57085737  0.10493981  1
  Ca  Ca28  1  0.19912717  0.93226712  0.89762044  1
  Ca  Ca29  1  0.05378132  0.78762275  0.10408627  1
  Ca  Ca30  1  0.55634797  0.28367036  0.10567131  1
  Ca  Ca31  1  0.95183431  0.71359909  0.89809697  1
  Fe  Fe32  1  0.00310759  0.99819359  0.49860577  1
  Fe  Fe33  1  0.00333474  0.50061869  0.49981287  1
  Fe  Fe34  1  0.25787009  0.25062753  0.00456346  1
  Fe  Fe35  1  0.25494242  0.24817280  0.49963344  1
  Fe  Fe36  1  0.10423628  0.08469621  0.24491230  1
  Fe  Fe37  1  0.11042203  0.09019032  0.75481051  1
  Fe  Fe38  1  0.10528386  0.59153109  0.24655938  1
  Fe  Fe39  1  0.10668898  0.59629929  0.75191347  1
  Fe  Fe40  1  0.60437821  0.09133183  0.24732148  1
  Fe  Fe41  1  0.60705120  0.08938438  0.74906745  1
  Fe  Fe42  1  0.60222411  0.58387004  0.24262526  1
  Fe  Fe43  1  0.61214309  0.59272489  0.75269416  1
  Fe  Fe44  1  0.35505468  0.40722208  0.24325670  1
  Fe  Fe45  1  0.35760819  0.41007745  0.75031942  1
  Fe  Fe46  1  0.35231295  0.90731488  0.24649275  1
  Fe  Fe47  1  0.35626692  0.90880860  0.75212935  1
  Fe  Fe48  1  0.85208555  0.40812410  0.24611982  1
  Fe  Fe49  1  0.85931593  0.41412712  0.75247640  1
  Fe  Fe50  1  0.85785696  0.90923048  0.24662229  1
  Fe  Fe51  1  0.86300611  0.90763233  0.75338045  1
  Co  Co52  1  0.00810869  0.99981131  0.00395894  1
  Co  Co53  1  0.00695783  0.50400638  0.00361033  1
  Co  Co54  1  0.50714364  0.00181692  0.00308992  1
  Co  Co55  1  0.50348633  0.99981024  0.49864563  1
  Co  Co56  1  0.51158030  0.50431337  0.00986495  1
  Co  Co57  1  0.50628296  0.50163111  0.50083289  1
  Co  Co58  1  0.25691329  0.75262215  0.00382637  1
  Co  Co59  1  0.25559984  0.75226494  0.49981689  1
  Co  Co60  1  0.75726205  0.25383334  0.00585253  1
  Co  Co61  1  0.75235838  0.24764932  0.49894955  1
  Co  Co62  1  0.76041985  0.75349285  0.00421820  1
  Co  Co63  1  0.75402899  0.75004595  0.49951736  1
  O  O64  1  0.12367785  0.12203267  0.49193361  1
  O  O65  1  0.12708661  0.11676232  0.99006934  1
  O  O66  1  0.13276529  0.62674528  0.49195720  1
  O  O67  1  0.12570531  0.62496936  0.99150353  1
  O  O68  1  0.62536739  0.12848950  0.49278105  1
  O  O69  1  0.62503325  0.12678452  0.99571874  1
  O  O70  1  0.62529445  0.62162378  0.49015884  1
  O  O71  1  0.62951068  0.62360829  0.99372581  1
  O  O72  1  0.13650734  0.38171219  0.01354145  1
  O  O73  1  0.12890979  0.37718170  0.50598884  1
  O  O74  1  0.13594067  0.87990271  0.01335342  1
  O  O75  1  0.13117903  0.87956663  0.50750657  1
  O  O76  1  0.63115501  0.38696195  0.01417455  1
  O  O77  1  0.62406680  0.38610744  0.50687879  1
  O  O78  1  0.63911452  0.88527831  0.01460347  1
  O  O79  1  0.62970630  0.88225194  0.50727857  1
  O  O80  1  0.37581529  0.11630863  0.49106590  1
  O  O81  1  0.37531640  0.11691956  0.99250286  1
  O  O82  1  0.38301504  0.61183189  0.49181859  1
  O  O83  1  0.38173461  0.61210510  0.99600609  1
  O  O84  1  0.87425258  0.11681280  0.49161285  1
  O  O85  1  0.87559249  0.11675443  0.99374836  1
  O  O86  1  0.87699910  0.61880657  0.49182654  1
  O  O87  1  0.88082814  0.62432257  0.99239585  1
  O  O88  1  0.38904066  0.38258502  0.01831169  1
  O  O89  1  0.38024003  0.37781867  0.50621134  1
  O  O90  1  0.38234198  0.88522844  0.01200391  1
  O  O91  1  0.38031472  0.87297773  0.50494756  1
  O  O92  1  0.88212208  0.38946399  0.01459831  1
  O  O93  1  0.87375804  0.37434812  0.50612451  1
  O  O94  1  0.89097050  0.88304491  0.01650977  1
  O  O95  1  0.88165809  0.87901973  0.50579027  1
  O  O96  1  0.09713521  0.09942975  0.14183729  1
  O  O97  1  0.08428875  0.09122730  0.64300403  1
  O  O98  1  0.09196676  0.60742579  0.14198118  1
  O  O99  1  0.07660359  0.59040745  0.63742160  1
  O  O100  1  0.59097419  0.10535648  0.14266602  1
  O  O101  1  0.57459693  0.08616488  0.63470840  1
  O  O102  1  0.59517373  0.59987964  0.13926692  1
  O  O103  1  0.58413813  0.59777009  0.64255995  1
  O  O104  1  0.43911522  0.40329114  0.35315917  1
  O  O105  1  0.44126016  0.40098820  0.85771183  1
  O  O106  1  0.43784392  0.91579471  0.36199526  1
  O  O107  1  0.44754887  0.90227504  0.85917305  1
  O  O108  1  0.93865306  0.41214672  0.36000935  1
  O  O109  1  0.94292517  0.40034371  0.85848119  1
  O  O110  1  0.94250217  0.90922793  0.35855379  1
  O  O111  1  0.94837504  0.89394126  0.85979364  1
  O  O112  1  0.33473289  0.28254259  0.13769943  1
  O  O113  1  0.32972513  0.29647870  0.63849796  1
  O  O114  1  0.33929025  0.78351777  0.14412018  1
  O  O115  1  0.33057482  0.79743981  0.64050364  1
  O  O116  1  0.83536301  0.28371391  0.14330321  1
  O  O117  1  0.83173129  0.29926654  0.64129445  1
  O  O118  1  0.84090908  0.78618520  0.14269160  1
  O  O119  1  0.83457700  0.79703812  0.64282076  1
  O  O120  1  0.18809050  0.19636934  0.35801974  1
  O  O121  1  0.19511199  0.20814139  0.86347047  1
  O  O122  1  0.18920859  0.70152799  0.35830056  1
  O  O123  1  0.19635233  0.71323390  0.85855996  1
  O  O124  1  0.68439858  0.20359755  0.35922876  1
  O  O125  1  0.68956102  0.20642543  0.85656421  1
  O  O126  1  0.68570465  0.69831169  0.35251797  1
  O  O127  1  0.70110122  0.70548345  0.86155668  1
  O  O128  1  0.42284353  0.05850029  0.23948649  1
  O  O129  1  0.43117680  0.06241645  0.75028034  1
  O  O130  1  0.42210902  0.56159126  0.23868317  1
  O  O131  1  0.43513725  0.56471875  0.75225356  1
  O  O132  1  0.92365978  0.06265941  0.23976030  1
  O  O133  1  0.93313338  0.06409093  0.75282456  1
  O  O134  1  0.92376650  0.55976977  0.23971301  1
  O  O135  1  0.93300267  0.57414546  0.75900660  1
  O  O136  1  0.18056083  0.43747567  0.24686130  1
  O  O137  1  0.18149576  0.44155519  0.75110932  1
  O  O138  1  0.17205032  0.92596149  0.24113706  1
  O  O139  1  0.18191149  0.93581758  0.75947551  1
  O  O140  1  0.67111460  0.42613460  0.24051728  1
  O  O141  1  0.68131338  0.43605619  0.75019333  1
  O  O142  1  0.68286365  0.93945463  0.24935714  1
  O  O143  1  0.68591910  0.93891871  0.75199714  1
