# generated using pymatgen
data_V3AsN
_symmetry_space_group_name_H-M   'P 1'
_cell_length_a   3.11614448
_cell_length_b   5.34599956
_cell_length_c   7.55141587
_cell_angle_alpha   90.00000000
_cell_angle_beta   90.00000000
_cell_angle_gamma   106.94456876
_symmetry_Int_Tables_number   1
_chemical_formula_structural   V3AsN
_chemical_formula_sum   'V6 As2 N2'
_cell_volume   120.33707265
_cell_formula_units_Z   2
loop_
 _symmetry_equiv_pos_site_id
 _symmetry_equiv_pos_as_xyz
  1  'x, y, z'
loop_
 _atom_site_type_symbol
 _atom_site_label
 _atom_site_symmetry_multiplicity
 _atom_site_fract_x
 _atom_site_fract_y
 _atom_site_fract_z
 _atom_site_occupancy
  V  V0  1  0.04347951  0.08695903  0.25000000  1
  V  V1  1  0.95652049  0.91304097  0.75000000  1
  V  V2  1  0.37559856  0.75119712  0.45174419  1
  V  V3  1  0.62440144  0.24880288  0.54825581  1
  V  V4  1  0.37559856  0.75119712  0.04825581  1
  V  V5  1  0.62440144  0.24880288  0.95174419  1
  As  As6  1  0.74224753  0.48449507  0.25000000  1
  As  As7  1  0.25775247  0.51550493  0.75000000  1
  N  N8  1  -0.00000000  -0.00000000  0.50000000  1
  N  N9  1  -0.00000000  -0.00000000  0.00000000  1
