# generated using pymatgen
data_Fe(GeO3)2
_symmetry_space_group_name_H-M   'P 1'
_cell_length_a   5.42657554
_cell_length_b   8.84647892
_cell_length_c   10.27945445
_cell_angle_alpha   90.00000000
_cell_angle_beta   104.28670711
_cell_angle_gamma   90.00000000
_symmetry_Int_Tables_number   1
_chemical_formula_structural   Fe(GeO3)2
_chemical_formula_sum   'Fe4 Ge8 O24'
_cell_volume   478.21463685
_cell_formula_units_Z   4
loop_
 _symmetry_equiv_pos_site_id
 _symmetry_equiv_pos_as_xyz
  1  'x, y, z'
loop_
 _atom_site_type_symbol
 _atom_site_label
 _atom_site_symmetry_multiplicity
 _atom_site_fract_x
 _atom_site_fract_y
 _atom_site_fract_z
 _atom_site_occupancy
  Fe  Fe0  1  0.97123420  0.65687597  0.23103596  1
  Fe  Fe1  1  0.52876580  0.15687597  0.76896404  1
  Fe  Fe2  1  0.02876580  0.34312403  0.76896404  1
  Fe  Fe3  1  0.47123420  0.84312403  0.23103596  1
  Ge  Ge4  1  0.84168224  0.33739692  0.05515322  1
  Ge  Ge5  1  0.65831776  0.83739692  0.94484678  1
  Ge  Ge6  1  0.15831776  0.66260308  0.94484678  1
  Ge  Ge7  1  0.34168224  0.16260308  0.05515322  1
  Ge  Ge8  1  0.13131023  0.34761940  0.48712523  1
  Ge  Ge9  1  0.36868977  0.84761940  0.51287477  1
  Ge  Ge10  1  0.86868977  0.65238060  0.51287477  1
  Ge  Ge11  1  0.63131023  0.15238060  0.48712523  1
  O  O12  1  0.39921894  0.29277557  0.42322029  1
  O  O13  1  0.10078106  0.79277557  0.57677971  1
  O  O14  1  0.60078106  0.70722443  0.57677971  1
  O  O15  1  0.89921894  0.20722443  0.42322029  1
  O  O16  1  0.16375998  0.29446120  0.12127122  1
  O  O17  1  0.33624002  0.79446120  0.87872878  1
  O  O18  1  0.83624002  0.70553880  0.87872978  1
  O  O19  1  0.66375998  0.20553880  0.12127022  1
  O  O20  1  0.57931452  0.96696415  0.40307850  1
  O  O21  1  0.92068548  0.46696415  0.59692150  1
  O  O22  1  0.42068548  0.03303585  0.59692150  1
  O  O23  1  0.07931452  0.53303585  0.40307850  1
  O  O24  1  0.28375342  0.98305025  0.11238850  1
  O  O25  1  0.21624658  0.48305025  0.88761150  1
  O  O26  1  0.71624658  0.01694975  0.88761150  1
  O  O27  1  0.78375342  0.51694975  0.11238850  1
  O  O28  1  0.76972061  0.32474766  0.87495567  1
  O  O29  1  0.73027939  0.82474766  0.12504433  1
  O  O30  1  0.23027939  0.67525234  0.12504433  1
  O  O31  1  0.26972061  0.17525234  0.87495567  1
  O  O32  1  0.29071959  0.30934799  0.66697344  1
  O  O33  1  0.20928041  0.80934799  0.33302656  1
  O  O34  1  0.70928041  0.69065201  0.33302656  1
  O  O35  1  0.79071959  0.19065201  0.66697344  1
