# generated using pymatgen
data_LiCaH3
_symmetry_space_group_name_H-M   'P 1'
_cell_length_a   5.11973991
_cell_length_b   5.11973991
_cell_length_c   5.11973961
_cell_angle_alpha   61.18454846
_cell_angle_beta   61.18454846
_cell_angle_gamma   61.18455788
_symmetry_Int_Tables_number   1
_chemical_formula_structural   LiCaH3
_chemical_formula_sum   'Li2 Ca2 H6'
_cell_volume   97.42050739
_cell_formula_units_Z   2
loop_
 _symmetry_equiv_pos_site_id
 _symmetry_equiv_pos_as_xyz
  1  'x, y, z'
loop_
 _atom_site_type_symbol
 _atom_site_label
 _atom_site_symmetry_multiplicity
 _atom_site_fract_x
 _atom_site_fract_y
 _atom_site_fract_z
 _atom_site_occupancy
  Li  Li0  1  0.00000635  0.00000635  0.00000635  1
  Li  Li1  1  0.50000635  0.50000635  0.50000635  1
  Ca  Ca2  1  0.25000148  0.25000148  0.25000148  1
  Ca  Ca3  1  0.75000148  0.75000148  0.75000148  1
  H  H4  1  0.80157751  0.69844049  0.25000817  1
  H  H5  1  0.69844049  0.25000817  0.80157751  1
  H  H6  1  0.25000817  0.80157751  0.69844049  1
  H  H7  1  0.30157751  0.75000817  0.19844049  1
  H  H8  1  0.75000817  0.19844049  0.30157751  1
  H  H9  1  0.19844049  0.30157751  0.75000817  1
