# generated using pymatgen
data_La2Mg
_symmetry_space_group_name_H-M   'P 1'
_cell_length_a   13.23200058
_cell_length_b   3.93346726
_cell_length_c   7.96828836
_cell_angle_alpha   90.00000000
_cell_angle_beta   106.58354262
_cell_angle_gamma   90.00000000
_symmetry_Int_Tables_number   1
_chemical_formula_structural   La2Mg
_chemical_formula_sum   'La8 Mg4'
_cell_volume   397.47972469
_cell_formula_units_Z   4
loop_
 _symmetry_equiv_pos_site_id
 _symmetry_equiv_pos_as_xyz
  1  'x, y, z'
loop_
 _atom_site_type_symbol
 _atom_site_label
 _atom_site_symmetry_multiplicity
 _atom_site_fract_x
 _atom_site_fract_y
 _atom_site_fract_z
 _atom_site_occupancy
  La  La0  1  0.14570265  -0.00000000  0.55657789  1
  La  La1  1  0.85429735  0.00000000  0.44342211  1
  La  La2  1  0.16706808  0.00000000  0.09728991  1
  La  La3  1  0.83293192  -0.00000000  0.90271009  1
  La  La4  1  0.64570265  0.50000000  0.55657789  1
  La  La5  1  0.35429735  0.50000000  0.44342211  1
  La  La6  1  0.66706808  0.50000000  0.09728991  1
  La  La7  1  0.33293192  0.50000000  0.90271009  1
  Mg  Mg8  1  0.01195739  0.50000000  0.77611982  1
  Mg  Mg9  1  0.98804261  0.50000000  0.22388018  1
  Mg  Mg10  1  0.51195739  0.00000000  0.77611982  1
  Mg  Mg11  1  0.48804261  -0.00000000  0.22388018  1
