# generated using pymatgen
data_MgMnO2
_symmetry_space_group_name_H-M   'P 1'
_cell_length_a   3.09642646
_cell_length_b   3.09654373
_cell_length_c   5.39288538
_cell_angle_alpha   73.30987336
_cell_angle_beta   73.30530284
_cell_angle_gamma   60.06798166
_symmetry_Int_Tables_number   1
_chemical_formula_structural   MgMnO2
_chemical_formula_sum   'Mg1 Mn1 O2'
_cell_volume   42.27294135
_cell_formula_units_Z   1
loop_
 _symmetry_equiv_pos_site_id
 _symmetry_equiv_pos_as_xyz
  1  'x, y, z'
loop_
 _atom_site_type_symbol
 _atom_site_label
 _atom_site_symmetry_multiplicity
 _atom_site_fract_x
 _atom_site_fract_y
 _atom_site_fract_z
 _atom_site_occupancy
  Mg  Mg0  1  0.50000419  0.50000176  0.50000313  1
  Mn  Mn1  1  0.99999803  -0.00000075  0.99999168  1
  O  O2  1  0.24506869  0.24502776  0.26581498  1
  O  O3  1  0.75492910  0.75498623  0.73418821  1
