# generated using pymatgen
data_CaTi2O4
_symmetry_space_group_name_H-M   'P 1'
_cell_length_a   6.26237854
_cell_length_b   6.26175403
_cell_length_c   18.98745230
_cell_angle_alpha   60.19341768
_cell_angle_beta   60.19074460
_cell_angle_gamma   59.84220998
_symmetry_Int_Tables_number   1
_chemical_formula_structural   CaTi2O4
_chemical_formula_sum   'Ca6 Ti12 O24'
_cell_volume   527.37346763
_cell_formula_units_Z   6
loop_
 _symmetry_equiv_pos_site_id
 _symmetry_equiv_pos_as_xyz
  1  'x, y, z'
loop_
 _atom_site_type_symbol
 _atom_site_label
 _atom_site_symmetry_multiplicity
 _atom_site_fract_x
 _atom_site_fract_y
 _atom_site_fract_z
 _atom_site_occupancy
  Ca  Ca0  1  0.12434607  0.12399355  0.04267754  1
  Ca  Ca1  1  0.12675295  0.12650425  0.37388608  1
  Ca  Ca2  1  0.49858441  0.49831071  0.00157116  1
  Ca  Ca3  1  0.12538613  0.12504476  0.70831664  1
  Ca  Ca4  1  0.87768205  0.87813891  0.28879793  1
  Ca  Ca5  1  0.87244228  0.87273565  0.62754443  1
  Ti  Ti6  1  0.98625715  0.50407194  0.16859111  1
  Ti  Ti7  1  0.50422451  0.50426911  0.16841836  1
  Ti  Ti8  1  0.99770070  0.50076568  0.50021030  1
  Ti  Ti9  1  0.50416154  0.98620830  0.16853473  1
  Ti  Ti10  1  0.49235842  0.49285503  0.34060517  1
  Ti  Ti11  1  0.50031961  0.50014002  0.49996249  1
  Ti  Ti12  1  0.01800378  0.49821890  0.82852132  1
  Ti  Ti13  1  0.50077377  0.99768495  0.50026766  1
  Ti  Ti14  1  0.49818228  0.01808377  0.82853896  1
  Ti  Ti15  1  0.50737049  0.50731008  0.65973894  1
  Ti  Ti16  1  0.49824107  0.49819755  0.82856293  1
  Ti  Ti17  1  0.88188659  0.88217612  0.95116746  1
  O  O18  1  0.24334315  0.24317531  0.10448647  1
  O  O19  1  0.26542299  0.26534158  0.23448781  1
  O  O20  1  0.24313616  0.70017421  0.10446532  1
  O  O21  1  0.70009138  0.24300101  0.10452788  1
  O  O22  1  0.30370377  0.72413491  0.24926053  1
  O  O23  1  0.26512187  0.26445337  0.42367831  1
  O  O24  1  0.72400983  0.30382411  0.24930857  1
  O  O25  1  0.75339965  0.75351099  0.07988131  1
  O  O26  1  0.26419077  0.70031381  0.42354537  1
  O  O27  1  0.26742278  0.26723039  0.56595784  1
  O  O28  1  0.72409915  0.72407088  0.24943994  1
  O  O29  1  0.70016558  0.26397269  0.42350150  1
  O  O30  1  0.29848180  0.73541985  0.57681883  1
  O  O31  1  0.27331654  0.27307919  0.75065560  1
  O  O32  1  0.73502307  0.29848478  0.57684640  1
  O  O33  1  0.73353210  0.73380139  0.43261105  1
  O  O34  1  0.26603312  0.26615675  0.90054139  1
  O  O35  1  0.27315574  0.70154190  0.75070249  1
  O  O36  1  0.73576236  0.73639967  0.57690920  1
  O  O37  1  0.70161266  0.27304653  0.75067095  1
  O  O38  1  0.25322374  0.76516862  0.90543771  1
  O  O39  1  0.73055113  0.73060321  0.76943078  1
  O  O40  1  0.76523764  0.25294779  0.90544669  1
  O  O41  1  0.76528626  0.76543579  0.90546986  1
