# generated using pymatgen
data_Li9Mn7O16
_symmetry_space_group_name_H-M   'P 1'
_cell_length_a   5.10037782
_cell_length_b   10.12392532
_cell_length_c   6.07592630
_cell_angle_alpha   76.77260031
_cell_angle_beta   91.83553595
_cell_angle_gamma   78.98491868
_symmetry_Int_Tables_number   1
_chemical_formula_structural   Li9Mn7O16
_chemical_formula_sum   'Li9 Mn7 O16'
_cell_volume   298.84193280
_cell_formula_units_Z   1
loop_
 _symmetry_equiv_pos_site_id
 _symmetry_equiv_pos_as_xyz
  1  'x, y, z'
loop_
 _atom_site_type_symbol
 _atom_site_label
 _atom_site_symmetry_multiplicity
 _atom_site_fract_x
 _atom_site_fract_y
 _atom_site_fract_z
 _atom_site_occupancy
  Li  Li0  1  0.48975995  0.99875935  0.73956059  1
  Li  Li1  1  0.25234383  0.24978729  0.37018091  1
  Li  Li2  1  0.51024005  0.00124065  0.26043941  1
  Li  Li3  1  0.24309827  0.24664556  0.88122077  1
  Li  Li4  1  0.75690173  0.75335444  0.11877923  1
  Li  Li5  1  0.74765617  0.75021271  0.62981909  1
  Li  Li6  1  -0.00000000  0.50000000  0.50000000  1
  Li  Li7  1  -0.00000000  0.50000000  -0.00000000  1
  Li  Li8  1  -0.00000000  0.00000000  0.50000000  1
  Mn  Mn9  1  -0.00000000  0.00000000  -0.00000000  1
  Mn  Mn10  1  0.74778544  0.24462326  0.63089835  1
  Mn  Mn11  1  0.50327342  0.50038230  0.24958277  1
  Mn  Mn12  1  0.24993592  0.75564716  0.86172780  1
  Mn  Mn13  1  0.75006408  0.24435284  0.13827220  1
  Mn  Mn14  1  0.49672658  0.49961770  0.75041723  1
  Mn  Mn15  1  0.25221456  0.75537674  0.36910165  1
  O  O16  1  0.35378750  0.88094165  0.03830185  1
  O  O17  1  0.09180962  0.11854728  0.71946840  1
  O  O18  1  0.36873922  0.86366390  0.56157783  1
  O  O19  1  0.09968877  0.12585405  0.17398777  1
  O  O20  1  0.60934875  0.62595425  0.41957406  1
  O  O21  1  0.60193162  0.62812666  0.91863999  1
  O  O22  1  0.84662489  0.37091393  0.81464786  1
  O  O23  1  0.86042169  0.37592572  0.30124162  1
  O  O24  1  0.63126078  0.13633610  0.43842217  1
  O  O25  1  0.39806838  0.37187334  0.08135901  1
  O  O26  1  0.64621250  0.11905835  0.96169915  1
  O  O27  1  0.39065125  0.37404575  0.58042594  1
  O  O28  1  0.90031123  0.87414595  0.82601223  1
  O  O29  1  0.90819038  0.88145272  0.28053260  1
  O  O30  1  0.15337511  0.62908607  0.18535314  1
  O  O31  1  0.13957831  0.62407428  0.69875938  1
