# generated using pymatgen
data_Li9Mn7O16
_symmetry_space_group_name_H-M   'P 1'
_cell_length_a   6.06103370
_cell_length_b   6.51865420
_cell_length_c   8.01914557
_cell_angle_alpha   87.64487858
_cell_angle_beta   74.73965303
_cell_angle_gamma   76.38978687
_symmetry_Int_Tables_number   1
_chemical_formula_structural   Li9Mn7O16
_chemical_formula_sum   'Li9 Mn7 O16'
_cell_volume   297.00633615
_cell_formula_units_Z   1
loop_
 _symmetry_equiv_pos_site_id
 _symmetry_equiv_pos_as_xyz
  1  'x, y, z'
loop_
 _atom_site_type_symbol
 _atom_site_label
 _atom_site_symmetry_multiplicity
 _atom_site_fract_x
 _atom_site_fract_y
 _atom_site_fract_z
 _atom_site_occupancy
  Li  Li0  1  0.86981505  0.12402532  0.37539311  1
  Li  Li1  1  0.87198273  0.62336100  0.87625206  1
  Li  Li2  1  0.12384870  0.87096827  0.61985731  1
  Li  Li3  1  0.11411567  0.38645156  0.12776480  1
  Li  Li4  1  0.37615130  0.62903173  0.88014269  1
  Li  Li5  1  0.38588433  0.11354844  0.37223520  1
  Li  Li6  1  0.63018495  0.37597468  0.12460689  1
  Li  Li7  1  0.62801727  0.87663900  0.62374794  1
  Li  Li8  1  0.75000000  0.75000000  0.25000000  1
  Mn  Mn9  1  0.99917768  0.99888519  0.00582162  1
  Mn  Mn10  1  0.25000000  0.75000000  0.25000000  1
  Mn  Mn11  1  0.99246017  0.50169429  0.49347201  1
  Mn  Mn12  1  0.25000000  0.25000000  0.75000000  1
  Mn  Mn13  1  0.50082232  0.50111481  0.49417838  1
  Mn  Mn14  1  0.50753983  0.99830571  0.00652799  1
  Mn  Mn15  1  0.75000000  0.25000000  0.75000000  1
  O  O16  1  0.69632169  0.05942856  0.16933587  1
  O  O17  1  0.70445698  0.55077454  0.68387251  1
  O  O18  1  0.95699269  0.79545852  0.43278666  1
  O  O19  1  0.95825935  0.30017813  0.93546710  1
  O  O20  1  0.19781130  0.54490429  0.67760014  1
  O  O21  1  0.21108980  0.04437399  0.18878373  1
  O  O22  1  0.45773468  0.29480975  0.93273792  1
  O  O23  1  0.41946589  0.79083514  0.42135267  1
  O  O24  1  0.04226532  0.20519025  0.56726208  1
  O  O25  1  0.08053411  0.70916486  0.07864733  1
  O  O26  1  0.30218870  0.95509571  0.82239986  1
  O  O27  1  0.28891020  0.45562601  0.31121627  1
  O  O28  1  0.54300731  0.70454148  0.06721334  1
  O  O29  1  0.54174065  0.19982187  0.56453290  1
  O  O30  1  0.80367831  0.44057144  0.33066413  1
  O  O31  1  0.79554302  0.94922546  0.81612749  1
