# generated using pymatgen
data_LiMg2
_symmetry_space_group_name_H-M   'P 1'
_cell_length_a   11.39624098
_cell_length_b   3.19402979
_cell_length_c   7.43610259
_cell_angle_alpha   90.00000000
_cell_angle_beta   104.99958902
_cell_angle_gamma   90.00000000
_symmetry_Int_Tables_number   1
_chemical_formula_structural   LiMg2
_chemical_formula_sum   'Li4 Mg8'
_cell_volume   261.45115933
_cell_formula_units_Z   4
loop_
 _symmetry_equiv_pos_site_id
 _symmetry_equiv_pos_as_xyz
  1  'x, y, z'
loop_
 _atom_site_type_symbol
 _atom_site_label
 _atom_site_symmetry_multiplicity
 _atom_site_fract_x
 _atom_site_fract_y
 _atom_site_fract_z
 _atom_site_occupancy
  Li  Li0  1  0.38888400  0.00000000  0.27749141  1
  Li  Li1  1  0.05533984  0.00000000  0.61095193  1
  Li  Li2  1  0.88888400  0.50000000  0.27749141  1
  Li  Li3  1  0.55533984  0.50000000  0.61095193  1
  Mg  Mg4  1  0.99994769  0.00000000  0.00127280  1
  Mg  Mg5  1  0.16696936  0.50000000  0.33514059  1
  Mg  Mg6  1  0.33389098  -0.00000000  0.66512329  1
  Mg  Mg7  1  0.22163514  0.50000000  0.94335299  1
  Mg  Mg8  1  0.49994769  0.50000000  0.00127280  1
  Mg  Mg9  1  0.66696936  0.00000000  0.33514059  1
  Mg  Mg10  1  0.83389098  0.50000000  0.66512329  1
  Mg  Mg11  1  0.72163514  0.00000000  0.94335299  1
