# generated using pymatgen
data_Li9Mn7O16
_symmetry_space_group_name_H-M   'P 1'
_cell_length_a   6.07234500
_cell_length_b   6.52273033
_cell_length_c   8.71069056
_cell_angle_alpha   97.23227364
_cell_angle_beta   70.38951845
_cell_angle_gamma   113.15459964
_symmetry_Int_Tables_number   1
_chemical_formula_structural   Li9Mn7O16
_chemical_formula_sum   'Li9 Mn7 O16'
_cell_volume   298.81585382
_cell_formula_units_Z   1
loop_
 _symmetry_equiv_pos_site_id
 _symmetry_equiv_pos_as_xyz
  1  'x, y, z'
loop_
 _atom_site_type_symbol
 _atom_site_label
 _atom_site_symmetry_multiplicity
 _atom_site_fract_x
 _atom_site_fract_y
 _atom_site_fract_z
 _atom_site_occupancy
  Li  Li0  1  0.25404310  0.23929181  0.24023022  1
  Li  Li1  1  0.74752745  0.00137866  0.50311971  1
  Li  Li2  1  0.74805123  0.25143145  0.24629197  1
  Li  Li3  1  0.25247255  0.99862134  0.49688029  1
  Li  Li4  1  0.25194877  0.74856855  0.75370803  1
  Li  Li5  1  0.74595690  0.76070819  0.75976978  1
  Li  Li6  1  0.76462715  0.50881021  0.00132654  1
  Li  Li7  1  0.23537285  0.49118979  0.99867346  1
  Li  Li8  1  0.50000000  0.00000000  -0.00000000  1
  Mn  Mn9  1  0.00000000  0.00000000  -0.00000000  1
  Mn  Mn10  1  0.50649322  0.75606729  0.24685966  1
  Mn  Mn11  1  0.00000000  0.50000000  0.50000000  1
  Mn  Mn12  1  0.49350678  0.24393271  0.75314034  1
  Mn  Mn13  1  0.01607695  0.75830937  0.24724495  1
  Mn  Mn14  1  0.50000000  0.50000000  0.50000000  1
  Mn  Mn15  1  0.98392305  0.24169063  0.75275505  1
  O  O16  1  0.90150488  0.99926065  0.23678711  1
  O  O17  1  0.39466179  0.74326555  0.48969082  1
  O  O18  1  0.36804551  0.97790829  0.24997557  1
  O  O19  1  0.89248487  0.74193406  0.48759332  1
  O  O20  1  0.88757937  0.49245452  0.74201426  1
  O  O21  1  0.37264731  0.48354543  0.74130759  1
  O  O22  1  0.33770420  0.22402453  0.98802149  1
  O  O23  1  0.88751312  0.23948935  0.98876302  1
  O  O24  1  0.62735269  0.51645457  0.25869241  1
  O  O25  1  0.10751513  0.25806594  0.51240668  1
  O  O26  1  0.11242063  0.50754548  0.25798574  1
  O  O27  1  0.60533821  0.25673445  0.51030918  1
  O  O28  1  0.63195449  0.02209171  0.75002443  1
  O  O29  1  0.09849512  0.00073935  0.76321289  1
  O  O30  1  0.11248688  0.76051065  0.01123698  1
  O  O31  1  0.66229580  0.77597547  0.01197851  1
