# generated using pymatgen
data_Li9Mn7O16
_symmetry_space_group_name_H-M   'P 1'
_cell_length_a   5.10215603
_cell_length_b   6.06805399
_cell_length_c   9.85681476
_cell_angle_alpha   85.67393940
_cell_angle_beta   78.09797152
_cell_angle_gamma   88.17936430
_symmetry_Int_Tables_number   1
_chemical_formula_structural   Li9Mn7O16
_chemical_formula_sum   'Li9 Mn7 O16'
_cell_volume   297.71606607
_cell_formula_units_Z   1
loop_
 _symmetry_equiv_pos_site_id
 _symmetry_equiv_pos_as_xyz
  1  'x, y, z'
loop_
 _atom_site_type_symbol
 _atom_site_label
 _atom_site_symmetry_multiplicity
 _atom_site_fract_x
 _atom_site_fract_y
 _atom_site_fract_z
 _atom_site_occupancy
  Li  Li0  1  0.49158917  0.26088052  0.99913216  1
  Li  Li1  1  0.25305344  0.50208461  0.24802423  1
  Li  Li2  1  0.50841083  0.73911948  0.00086784  1
  Li  Li3  1  0.24442641  0.99906911  0.24811762  1
  Li  Li4  1  0.75557359  0.00093089  0.75188238  1
  Li  Li5  1  0.74694656  0.49791539  0.75197577  1
  Li  Li6  1  0.99612185  0.74849604  0.49894397  1
  Li  Li7  1  0.00387815  0.25150396  0.50105603  1
  Li  Li8  1  -0.00000000  0.50000000  0.00000000  1
  Mn  Mn9  1  -0.00000000  0.00000000  0.00000000  1
  Mn  Mn10  1  0.75039829  0.24875124  0.24490385  1
  Mn  Mn11  1  0.50000000  0.50000000  0.50000000  1
  Mn  Mn12  1  0.24960171  0.75124876  0.75509615  1
  Mn  Mn13  1  0.75075159  0.74186581  0.24446458  1
  Mn  Mn14  1  0.50000000  0.00000000  0.50000000  1
  Mn  Mn15  1  0.24924841  0.25813419  0.75553542  1
  O  O16  1  0.35294692  0.01869556  0.88034123  1
  O  O17  1  0.09301566  0.22170742  0.11762983  1
  O  O18  1  0.36718960  0.50376643  0.86318054  1
  O  O19  1  0.10088436  0.76420387  0.12612273  1
  O  O20  1  0.60607665  0.76660619  0.62696813  1
  O  O21  1  0.60218794  0.26481299  0.62653921  1
  O  O22  1  0.85947414  0.51320755  0.37535551  1
  O  O23  1  0.84978001  0.00239702  0.37176452  1
  O  O24  1  0.63281040  0.49623357  0.13681946  1
  O  O25  1  0.39781206  0.73518701  0.37346079  1
  O  O26  1  0.64705308  0.98130444  0.11965877  1
  O  O27  1  0.39392335  0.23339381  0.37303187  1
  O  O28  1  0.89911564  0.23579613  0.87387727  1
  O  O29  1  0.90698434  0.77829258  0.88237017  1
  O  O30  1  0.15021999  0.99760298  0.62823548  1
  O  O31  1  0.14052586  0.48679245  0.62464449  1
