# generated using pymatgen
data_U3Fe2Ge7
_symmetry_space_group_name_H-M   'P 1'
_cell_length_a   4.22355932
_cell_length_b   4.16806173
_cell_length_c   12.52456262
_cell_angle_alpha   99.57831150
_cell_angle_beta   90.00000000
_cell_angle_gamma   90.00000000
_symmetry_Int_Tables_number   1
_chemical_formula_structural   U3Fe2Ge7
_chemical_formula_sum   'U3 Fe2 Ge7'
_cell_volume   217.40936713
_cell_formula_units_Z   1
loop_
 _symmetry_equiv_pos_site_id
 _symmetry_equiv_pos_as_xyz
  1  'x, y, z'
loop_
 _atom_site_type_symbol
 _atom_site_label
 _atom_site_symmetry_multiplicity
 _atom_site_fract_x
 _atom_site_fract_y
 _atom_site_fract_z
 _atom_site_occupancy
  U  U0  1  0.00000000  -0.00000000  -0.00000000  1
  U  U1  1  0.50000000  0.68532336  0.37064671  1
  U  U2  1  0.50000000  0.31467664  0.62935329  1
  Fe  Fe3  1  0.00000000  0.87438175  0.74876351  1
  Fe  Fe4  1  0.00000000  0.12561825  0.25123649  1
  Ge  Ge5  1  0.50000000  0.50000000  -0.00000000  1
  Ge  Ge6  1  -0.00000000  0.77995743  0.55991486  1
  Ge  Ge7  1  -0.00000000  0.22004257  0.44008514  1
  Ge  Ge8  1  -0.00000000  0.58651767  0.17303534  1
  Ge  Ge9  1  -0.00000000  0.41348233  0.82696466  1
  Ge  Ge10  1  0.50000000  0.91261255  0.82522509  1
  Ge  Ge11  1  0.50000000  0.08738745  0.17477491  1
