# generated using pymatgen
data_SrMgF4
_symmetry_space_group_name_H-M   'P 1'
_cell_length_a   3.99356289
_cell_length_b   5.68746996
_cell_length_c   7.57076447
_cell_angle_alpha   90.00000000
_cell_angle_beta   105.29262581
_cell_angle_gamma   90.00000000
_symmetry_Int_Tables_number   1
_chemical_formula_structural   SrMgF4
_chemical_formula_sum   'Sr2 Mg2 F8'
_cell_volume   165.86805507
_cell_formula_units_Z   2
loop_
 _symmetry_equiv_pos_site_id
 _symmetry_equiv_pos_as_xyz
  1  'x, y, z'
loop_
 _atom_site_type_symbol
 _atom_site_label
 _atom_site_symmetry_multiplicity
 _atom_site_fract_x
 _atom_site_fract_y
 _atom_site_fract_z
 _atom_site_occupancy
  Sr  Sr0  1  0.34254501  0.45539821  0.68509002  1
  Sr  Sr1  1  0.65745499  0.95539821  0.31490998  1
  Mg  Mg2  1  0.91550696  0.90464015  0.83101392  1
  Mg  Mg3  1  0.08449304  0.40464015  0.16898608  1
  F  F4  1  0.83827447  0.18984524  0.67654893  1
  F  F5  1  0.16172553  0.68984524  0.32345107  1
  F  F6  1  0.03426024  0.06948216  0.06852048  1
  F  F7  1  0.96573976  0.56948216  0.93147952  1
  F  F8  1  0.79801700  0.71093318  0.59603401  1
  F  F9  1  0.20198300  0.21093318  0.40396599  1
  F  F10  1  0.41611635  0.88672106  0.83223270  1
  F  F11  1  0.58388365  0.38672106  0.16776730  1
