# generated using pymatgen
data_TiAl2O5
_symmetry_space_group_name_H-M   'P 1'
_cell_length_a   3.65988510
_cell_length_b   5.10566662
_cell_length_c   9.62724992
_cell_angle_alpha   90.00000000
_cell_angle_beta   90.00000000
_cell_angle_gamma   111.06422169
_symmetry_Int_Tables_number   1
_chemical_formula_structural   TiAl2O5
_chemical_formula_sum   'Ti2 Al4 O10'
_cell_volume   167.87526599
_cell_formula_units_Z   2
loop_
 _symmetry_equiv_pos_site_id
 _symmetry_equiv_pos_as_xyz
  1  'x, y, z'
loop_
 _atom_site_type_symbol
 _atom_site_label
 _atom_site_symmetry_multiplicity
 _atom_site_fract_x
 _atom_site_fract_y
 _atom_site_fract_z
 _atom_site_occupancy
  Ti  Ti0  1  0.12890472  0.25478036  0.06211583  1
  Ti  Ti1  1  0.87109528  0.74521964  0.56211583  1
  Al  Al2  1  0.14144609  0.28415670  0.43139523  1
  Al  Al3  1  0.18800524  0.37936301  0.75464764  1
  Al  Al4  1  0.81199476  0.62063699  0.25464764  1
  Al  Al5  1  0.85855391  0.71584330  0.93139523  1
  O  O6  1  0.05613054  0.11676424  0.61243692  1
  O  O7  1  0.04406236  0.08807412  0.88051347  1
  O  O8  1  0.24724735  0.49232303  0.25446402  1
  O  O9  1  0.31544295  0.63338705  0.57909524  1
  O  O10  1  0.30810023  0.61561304  0.92533165  1
  O  O11  1  0.68455705  0.36661295  0.07909524  1
  O  O12  1  0.69189977  0.38438696  0.42533165  1
  O  O13  1  0.75275265  0.50767697  0.75446402  1
  O  O14  1  0.94386946  0.88323576  0.11243692  1
  O  O15  1  0.95593764  0.91192588  0.38051347  1
