# generated using pymatgen
data_Li9Mn7O16
_symmetry_space_group_name_H-M   'P 1'
_cell_length_a   5.04986954
_cell_length_b   6.06008165
_cell_length_c   9.79691280
_cell_angle_alpha   84.05038704
_cell_angle_beta   86.24725279
_cell_angle_gamma   86.97309753
_symmetry_Int_Tables_number   1
_chemical_formula_structural   Li9Mn7O16
_chemical_formula_sum   'Li9 Mn7 O16'
_cell_volume   297.23680567
_cell_formula_units_Z   1
loop_
 _symmetry_equiv_pos_site_id
 _symmetry_equiv_pos_as_xyz
  1  'x, y, z'
loop_
 _atom_site_type_symbol
 _atom_site_label
 _atom_site_symmetry_multiplicity
 _atom_site_fract_x
 _atom_site_fract_y
 _atom_site_fract_z
 _atom_site_occupancy
  Li  Li0  1  0.62183645  0.94237737  0.24663982  1
  Li  Li1  1  0.37816355  0.55762263  0.75336018  1
  Li  Li2  1  0.12906058  0.18395438  0.24800023  1
  Li  Li3  1  0.12996378  0.69081709  0.24664189  1
  Li  Li4  1  0.87093942  0.31604562  0.75199977  1
  Li  Li5  1  0.62123530  0.43247800  0.24447591  1
  Li  Li6  1  0.37876470  0.06752200  0.75552409  1
  Li  Li7  1  0.87003622  0.80918291  0.75335811  1
  Li  Li8  1  0.50000000  0.25000000  -0.00000000  1
  Mn  Mn9  1  0.00068319  0.00883304  0.99934834  1
  Mn  Mn10  1  0.99931681  0.49116696  0.00065166  1
  Mn  Mn11  1  0.75004128  0.62535799  0.49963729  1
  Mn  Mn12  1  0.24995872  0.87464201  0.50036271  1
  Mn  Mn13  1  0.75016273  0.12487445  0.49998080  1
  Mn  Mn14  1  0.50000000  0.75000000  -0.00000000  1
  Mn  Mn15  1  0.24983727  0.37512555  0.50001920  1
  O  O16  1  0.83837155  0.22100523  0.11558272  1
  O  O17  1  0.55262970  0.82961188  0.61670127  1
  O  O18  1  0.31612483  0.50027852  0.10518684  1
  O  O19  1  0.30738010  0.95742091  0.11319704  1
  O  O20  1  0.05362463  0.57981914  0.61677154  1
  O  O21  1  0.80712554  0.71550100  0.11105532  1
  O  O22  1  0.55286296  0.32827671  0.61853465  1
  O  O23  1  0.05230221  0.07937238  0.61694908  1
  O  O24  1  0.44737030  0.67038812  0.38329873  1
  O  O25  1  0.16162845  0.27899477  0.88441728  1
  O  O26  1  0.94637537  0.92018086  0.38322846  1
  O  O27  1  0.94769779  0.42062762  0.38305092  1
  O  O28  1  0.68387517  0.99972148  0.89481316  1
  O  O29  1  0.44713704  0.17172329  0.38146535  1
  O  O30  1  0.19287446  0.78449900  0.88894468  1
  O  O31  1  0.69261990  0.54257909  0.88680296  1
