# generated using pymatgen
data_Li9Mn7O16
_symmetry_space_group_name_H-M   'P 1'
_cell_length_a   6.01000251
_cell_length_b   8.70899857
_cell_length_c   6.07553071
_cell_angle_alpha   70.53345740
_cell_angle_beta   85.75381153
_cell_angle_gamma   88.10108402
_symmetry_Int_Tables_number   1
_chemical_formula_structural   Li9Mn7O16
_chemical_formula_sum   'Li9 Mn7 O16'
_cell_volume   298.98682628
_cell_formula_units_Z   1
loop_
 _symmetry_equiv_pos_site_id
 _symmetry_equiv_pos_as_xyz
  1  'x, y, z'
loop_
 _atom_site_type_symbol
 _atom_site_label
 _atom_site_symmetry_multiplicity
 _atom_site_fract_x
 _atom_site_fract_y
 _atom_site_fract_z
 _atom_site_occupancy
  Li  Li0  1  0.25000000  0.25000000  0.12500000  1
  Li  Li1  1  0.99559327  0.49599211  0.24405000  1
  Li  Li2  1  0.25000000  0.25000000  0.62500000  1
  Li  Li3  1  0.99419875  0.49035560  0.76100845  1
  Li  Li4  1  0.74762725  0.74695594  0.87605524  1
  Li  Li5  1  0.75237275  0.75304406  0.37394476  1
  Li  Li6  1  0.50580125  0.00964440  0.48899155  1
  Li  Li7  1  0.50440673  0.00400789  0.00595000  1
  Li  Li8  1  0.75000000  0.25000000  0.12500000  1
  Mn  Mn9  1  0.99286454  0.00202721  0.99667941  1
  Mn  Mn10  1  0.75000000  0.25000000  0.62500000  1
  Mn  Mn11  1  0.50713546  0.49797279  0.25332059  1
  Mn  Mn12  1  0.25211530  0.75264212  0.37470355  1
  Mn  Mn13  1  0.99298085  0.00336196  0.48928348  1
  Mn  Mn14  1  0.50701915  0.49663804  0.76071652  1
  Mn  Mn15  1  0.24788470  0.74735788  0.87529645  1
  O  O16  1  0.97327797  0.23700426  0.85200077  1
  O  O17  1  0.72519036  0.50048272  0.00374274  1
  O  O18  1  0.99073459  0.23857266  0.39467095  1
  O  O19  1  0.75156406  0.48628382  0.52488586  1
  O  O20  1  0.49185517  0.73503431  0.64997265  1
  O  O21  1  0.49150864  0.74124670  0.14484109  1
  O  O22  1  0.24730178  0.99490111  0.26402131  1
  O  O23  1  0.22695560  0.98831546  0.75513005  1
  O  O24  1  0.52672203  0.26299574  0.39799923  1
  O  O25  1  0.27304440  0.51168454  0.49486995  1
  O  O26  1  0.50926541  0.26142734  0.85533005  1
  O  O27  1  0.25269822  0.50509889  0.98597869  1
  O  O28  1  0.00849136  0.75875330  0.10515791  1
  O  O29  1  0.00814483  0.76496569  0.60002635  1
  O  O30  1  0.74843594  0.01371618  0.72511414  1
  O  O31  1  0.77480964  -0.00048272  0.24625626  1
