# generated using pymatgen
data_Li9Mn7O16
_symmetry_space_group_name_H-M   'P 1'
_cell_length_a   5.04784358
_cell_length_b   9.94246217
_cell_length_c   6.05670994
_cell_angle_alpha   78.33555537
_cell_angle_beta   86.98245832
_cell_angle_gamma   92.77532746
_symmetry_Int_Tables_number   1
_chemical_formula_structural   Li9Mn7O16
_chemical_formula_sum   'Li9 Mn7 O16'
_cell_volume   296.74120160
_cell_formula_units_Z   1
loop_
 _symmetry_equiv_pos_site_id
 _symmetry_equiv_pos_as_xyz
  1  'x, y, z'
loop_
 _atom_site_type_symbol
 _atom_site_label
 _atom_site_symmetry_multiplicity
 _atom_site_fract_x
 _atom_site_fract_y
 _atom_site_fract_z
 _atom_site_occupancy
  Li  Li0  1  0.87097209  0.24793684  0.19197992  1
  Li  Li1  1  0.12902791  0.75206316  0.30802008  1
  Li  Li2  1  0.37820833  0.24669663  0.43412914  1
  Li  Li3  1  0.87017499  0.24670349  0.68591554  1
  Li  Li4  1  0.12982501  0.75329651  0.81408446  1
  Li  Li5  1  0.37866735  0.24450040  0.94547847  1
  Li  Li6  1  0.62179167  0.75330337  0.06587086  1
  Li  Li7  1  0.62133265  0.75549960  0.55452153  1
  Li  Li8  1  0.50000000  -0.00000000  0.25000000  1
  Mn  Mn9  1  0.00066181  0.00066281  0.00826434  1
  Mn  Mn10  1  0.99933819  0.99933719  0.49173566  1
  Mn  Mn11  1  0.24992229  0.49938273  0.12480109  1
  Mn  Mn12  1  0.75007771  0.50061727  0.37519891  1
  Mn  Mn13  1  0.24984505  0.50007481  0.62510237  1
  Mn  Mn14  1  0.50000000  -0.00000000  0.75000000  1
  Mn  Mn15  1  0.75015495  0.49992519  0.87489763  1
  O  O16  1  0.68387618  0.10533048  0.94703543  1
  O  O17  1  0.94611741  0.61656300  0.11154984  1
  O  O18  1  0.16156723  0.11547341  0.22145975  1
  O  O19  1  0.69270127  0.11325621  0.48609251  1
  O  O20  1  0.94780725  0.61721476  0.61201478  1
  O  O21  1  0.19307825  0.11130682  0.72864611  1
  O  O22  1  0.44727999  0.61633663  0.86279479  1
  O  O23  1  0.44707084  0.61900543  0.36132276  1
  O  O24  1  0.05388259  0.38343700  0.38845016  1
  O  O25  1  0.31612382  0.89466952  0.55296457  1
  O  O26  1  0.55272001  0.38366337  0.63720521  1
  O  O27  1  0.05219275  0.38278524  0.88798522  1
  O  O28  1  0.30729873  0.88674379  0.01390749  1
  O  O29  1  0.55292916  0.38099457  0.13867724  1
  O  O30  1  0.83843277  0.88452659  0.27854025  1
  O  O31  1  0.80692175  0.88869318  0.77135389  1
