# generated using pymatgen
data_PrV2ZnO6
_symmetry_space_group_name_H-M   'P 1'
_cell_length_a   5.38430831
_cell_length_b   5.56871005
_cell_length_c   7.70849617
_cell_angle_alpha   89.99995009
_cell_angle_beta   90.07356708
_cell_angle_gamma   90.00195686
_symmetry_Int_Tables_number   1
_chemical_formula_structural   PrV2ZnO6
_chemical_formula_sum   'Pr2 V4 Zn2 O12'
_cell_volume   231.12867470
_cell_formula_units_Z   2
loop_
 _symmetry_equiv_pos_site_id
 _symmetry_equiv_pos_as_xyz
  1  'x, y, z'
loop_
 _atom_site_type_symbol
 _atom_site_label
 _atom_site_symmetry_multiplicity
 _atom_site_fract_x
 _atom_site_fract_y
 _atom_site_fract_z
 _atom_site_occupancy
  Pr  Pr0  1  0.01179306  0.94578968  0.74935212  1
  Pr  Pr1  1  0.51184178  0.55421441  0.24936689  1
  V  V2  1  0.00037509  0.48413318  0.00160274  1
  V  V3  1  0.99821920  0.47627015  0.49963019  1
  V  V4  1  0.50039438  0.01584833  0.50159409  1
  V  V5  1  0.49817606  0.02369630  0.99963092  1
  Zn  Zn6  1  0.50281201  0.53695112  0.74915000  1
  Zn  Zn7  1  0.00278528  0.96310868  0.24913589  1
  O  O8  1  0.08544014  0.48032576  0.25155269  1
  O  O9  1  0.20748993  0.20834740  0.94805110  1
  O  O10  1  0.19745165  0.22565414  0.54917765  1
  O  O11  1  0.30712766  0.69764297  0.55618952  1
  O  O12  1  0.31866926  0.70449135  0.94610569  1
  O  O13  1  0.37063674  0.97748666  0.24917262  1
  O  O14  1  0.58541091  0.01964271  0.75154776  1
  O  O15  1  0.69743213  0.27430577  0.04919123  1
  O  O16  1  0.70745527  0.29167442  0.44810043  1
  O  O17  1  0.80714252  0.80236325  0.05617739  1
  O  O18  1  0.81868711  0.79554009  0.44609327  1
  O  O19  1  0.87065482  0.52251362  0.74917879  1
