# generated using pymatgen
data_Li9Mn7O16
_symmetry_space_group_name_H-M   'P 1'
_cell_length_a   5.04743293
_cell_length_b   6.05686909
_cell_length_c   10.19922025
_cell_angle_alpha   103.59750493
_cell_angle_beta   79.83443026
_cell_angle_gamma   86.97141876
_symmetry_Int_Tables_number   1
_chemical_formula_structural   Li9Mn7O16
_chemical_formula_sum   'Li9 Mn7 O16'
_cell_volume   296.85624880
_cell_formula_units_Z   1
loop_
 _symmetry_equiv_pos_site_id
 _symmetry_equiv_pos_as_xyz
  1  'x, y, z'
loop_
 _atom_site_type_symbol
 _atom_site_label
 _atom_site_symmetry_multiplicity
 _atom_site_fract_x
 _atom_site_fract_y
 _atom_site_fract_z
 _atom_site_occupancy
  Li  Li0  1  0.25478674  0.11922568  0.24665865  1
  Li  Li1  1  0.25306642  0.62189373  0.75200032  1
  Li  Li2  1  0.74689348  0.37083911  0.24670312  1
  Li  Li3  1  0.74348006  0.87126579  0.75553972  1
  Li  Li4  1  0.25651994  0.62873421  0.24446028  1
  Li  Li5  1  0.25310652  0.12916089  0.75329688  1
  Li  Li6  1  0.74693358  0.87810627  0.24799968  1
  Li  Li7  1  0.74521326  0.38077432  0.75334135  1
  Li  Li8  1  0.50000000  0.75000000  0.00000000  1
  Mn  Mn9  1  0.99968859  0.99116613  0.99942729  1
  Mn  Mn10  1  0.00031141  0.50883387  0.00057271  1
  Mn  Mn11  1  -0.00017120  0.50008767  0.50019426  1
  Mn  Mn12  1  0.50000000  0.25000000  0.00000000  1
  Mn  Mn13  1  0.50000000  0.75000000  0.50000000  1
  Mn  Mn14  1  0.00017120  -0.00008767  0.49980574  1
  Mn  Mn15  1  0.50000000  0.25000000  0.50000000  1
  O  O16  1  0.10367283  0.80781281  0.11554735  1
  O  O17  1  0.13812693  0.32405901  0.61675040  1
  O  O18  1  0.63599147  0.07078383  0.11321292  1
  O  O19  1  0.63750143  0.57603794  0.61916098  1
  O  O20  1  0.13726910  0.31215335  0.11117773  1
  O  O21  1  0.13968907  0.82543776  0.61671720  1
  O  O22  1  0.63119280  0.52583890  0.10513873  1
  O  O23  1  0.63876662  0.07457942  0.61659922  1
  O  O24  1  0.36123338  0.42542058  0.38340078  1
  O  O25  1  0.36880720  0.97416110  0.89486127  1
  O  O26  1  0.86031093  0.67456224  0.38328280  1
  O  O27  1  0.86273090  0.18784665  0.88882227  1
  O  O28  1  0.36249857  0.92396206  0.38083902  1
  O  O29  1  0.36400853  0.42921617  0.88678708  1
  O  O30  1  0.86187307  0.17594099  0.38324960  1
  O  O31  1  0.89632717  0.69218719  0.88445265  1
