# generated using pymatgen
data_RbFe3O5
_symmetry_space_group_name_H-M   'P 1'
_cell_length_a   9.60613773
_cell_length_b   3.11707540
_cell_length_c   15.60788232
_cell_angle_alpha   89.99994965
_cell_angle_beta   89.99137504
_cell_angle_gamma   90.00020882
_symmetry_Int_Tables_number   1
_chemical_formula_structural   RbFe3O5
_chemical_formula_sum   'Rb4 Fe12 O20'
_cell_volume   467.34768287
_cell_formula_units_Z   4
loop_
 _symmetry_equiv_pos_site_id
 _symmetry_equiv_pos_as_xyz
  1  'x, y, z'
loop_
 _atom_site_type_symbol
 _atom_site_label
 _atom_site_symmetry_multiplicity
 _atom_site_fract_x
 _atom_site_fract_y
 _atom_site_fract_z
 _atom_site_occupancy
  Rb  Rb0  1  0.02928375  0.74999140  0.62219251  1
  Rb  Rb1  1  0.47085319  0.24999823  0.12127999  1
  Rb  Rb2  1  0.53064204  0.74999501  0.87933279  1
  Rb  Rb3  1  0.97063170  0.25000133  0.37755133  1
  Fe  Fe4  1  0.10947523  0.75000841  0.16451563  1
  Fe  Fe5  1  0.14475607  0.25000286  0.98959180  1
  Fe  Fe6  1  0.17809038  0.75001003  0.82059490  1
  Fe  Fe7  1  0.32190537  0.24999419  0.32056654  1
  Fe  Fe8  1  0.35493848  0.75000679  0.48952899  1
  Fe  Fe9  1  0.39104854  0.24999426  0.66402614  1
  Fe  Fe10  1  0.60971996  0.74998801  0.33547490  1
  Fe  Fe11  1  0.64555026  0.24999985  0.51049441  1
  Fe  Fe12  1  0.67891464  0.75000178  0.68006415  1
  Fe  Fe13  1  0.82069928  0.24998516  0.17816830  1
  Fe  Fe14  1  0.85692953  0.75000092  0.01062626  1
  Fe  Fe15  1  0.89002340  0.25000018  0.83694812  1
  O  O16  1  0.02266207  0.74999965  0.92259055  1
  O  O17  1  0.06416675  0.24999919  0.77268516  1
  O  O18  1  0.19343537  0.25000297  0.21976814  1
  O  O19  1  0.22185681  0.74999824  0.05558077  1
  O  O20  1  0.23133339  0.75000155  0.38919876  1
  O  O21  1  0.26847949  0.25000016  0.88950374  1
  O  O22  1  0.27665594  0.25000177  0.55522553  1
  O  O23  1  0.30642784  0.75000374  0.71950680  1
  O  O24  1  0.43512286  0.75000420  0.27176594  1
  O  O25  1  0.47799063  0.25000020  0.42264555  1
  O  O26  1  0.52257655  0.75000481  0.57729296  1
  O  O27  1  0.56518415  0.25000422  0.72828356  1
  O  O28  1  0.69275574  0.25000057  0.27946638  1
  O  O29  1  0.72379084  0.74999831  0.44442213  1
  O  O30  1  0.73068176  0.74999844  0.10976833  1
  O  O31  1  0.76909893  0.25000241  0.61091151  1
  O  O32  1  0.77746711  0.24999956  0.94546139  1
  O  O33  1  0.80573791  0.75000469  0.78157866  1
  O  O34  1  0.93421536  0.75000444  0.22686617  1
  O  O35  1  0.97689870  0.24999748  0.07652218  1
