# generated using pymatgen
data_Rb3HoO3
_symmetry_space_group_name_H-M   'P 1'
_cell_length_a   11.37194173
_cell_length_b   6.69449109
_cell_length_c   10.23606603
_cell_angle_alpha   90.00000000
_cell_angle_beta   106.43245686
_cell_angle_gamma   90.00000000
_symmetry_Int_Tables_number   1
_chemical_formula_structural   Rb3HoO3
_chemical_formula_sum   'Rb12 Ho4 O12'
_cell_volume   747.43522285
_cell_formula_units_Z   4
loop_
 _symmetry_equiv_pos_site_id
 _symmetry_equiv_pos_as_xyz
  1  'x, y, z'
loop_
 _atom_site_type_symbol
 _atom_site_label
 _atom_site_symmetry_multiplicity
 _atom_site_fract_x
 _atom_site_fract_y
 _atom_site_fract_z
 _atom_site_occupancy
  Rb  Rb0  1  0.92578539  0.47152170  0.25975141  1
  Rb  Rb1  1  0.27791344  0.98004249  0.89146430  1
  Rb  Rb2  1  0.16206586  0.95573551  0.52592160  1
  Rb  Rb3  1  0.33793414  0.45573551  0.47407840  1
  Rb  Rb4  1  0.22208656  0.48004249  0.10853570  1
  Rb  Rb5  1  0.57421461  0.97152170  0.74024859  1
  Rb  Rb6  1  0.42578539  0.02847830  0.25975141  1
  Rb  Rb7  1  0.77791344  0.51995751  0.89146430  1
  Rb  Rb8  1  0.66206586  0.54426449  0.52592160  1
  Rb  Rb9  1  0.83793414  0.04426449  0.47407840  1
  Rb  Rb10  1  0.72208656  0.01995751  0.10853570  1
  Rb  Rb11  1  0.07421461  0.52847830  0.74024859  1
  Ho  Ho12  1  0.05132684  0.00039643  0.16274585  1
  Ho  Ho13  1  0.44867316  0.50039643  0.83725415  1
  Ho  Ho14  1  0.55132684  0.49960357  0.16274585  1
  Ho  Ho15  1  0.94867316  -0.00039643  0.83725415  1
  O  O16  1  0.04479529  0.12748851  0.70949785  1
  O  O17  1  0.07484454  0.81753329  0.99159413  1
  O  O18  1  0.29723585  0.66122272  0.71509695  1
  O  O19  1  0.20276415  0.16122272  0.28490305  1
  O  O20  1  0.42515546  0.31753329  0.00840587  1
  O  O21  1  0.45520471  0.62748851  0.29050215  1
  O  O22  1  0.54479529  0.37251149  0.70949785  1
  O  O23  1  0.57484454  0.68246671  0.99159413  1
  O  O24  1  0.79723585  0.83877728  0.71509695  1
  O  O25  1  0.70276415  0.33877728  0.28490305  1
  O  O26  1  0.92515546  0.18246671  0.00840587  1
  O  O27  1  0.95520471  0.87251149  0.29050215  1
