# generated using pymatgen
data_Li9Mn7O16
_symmetry_space_group_name_H-M   'P 1'
_cell_length_a   5.04950103
_cell_length_b   9.93339304
_cell_length_c   6.05850027
_cell_angle_alpha   86.35676268
_cell_angle_beta   93.01919271
_cell_angle_gamma   101.40592245
_symmetry_Int_Tables_number   1
_chemical_formula_structural   Li9Mn7O16
_chemical_formula_sum   'Li9 Mn7 O16'
_cell_volume   297.03291768
_cell_formula_units_Z   1
loop_
 _symmetry_equiv_pos_site_id
 _symmetry_equiv_pos_as_xyz
  1  'x, y, z'
loop_
 _atom_site_type_symbol
 _atom_site_label
 _atom_site_symmetry_multiplicity
 _atom_site_fract_x
 _atom_site_fract_y
 _atom_site_fract_z
 _atom_site_occupancy
  Li  Li0  1  0.74515995  0.24667276  0.99582799  1
  Li  Li1  1  0.74677775  0.75330246  0.25233256  1
  Li  Li2  1  0.74363028  0.24450561  0.50653785  1
  Li  Li3  1  0.25322225  0.24669754  0.24766744  1
  Li  Li4  1  0.25484005  0.75332724  0.50417201  1
  Li  Li5  1  0.25286325  0.24801177  0.75390215  1
  Li  Li6  1  0.74713675  0.75198823  0.74609785  1
  Li  Li7  1  0.25636972  0.75549439  0.99346215  1
  Li  Li8  1  0.50000000  0.00000000  0.75000000  1
  Mn  Mn9  1  0.00029083  0.99936351  0.99144839  1
  Mn  Mn10  1  0.99970917  0.00063649  0.50855161  1
  Mn  Mn11  1  0.00000000  0.50000000  0.25000000  1
  Mn  Mn12  1  0.00000000  0.50000000  0.75000000  1
  Mn  Mn13  1  0.49978328  0.49948854  0.49949358  1
  Mn  Mn14  1  0.50021672  0.50051146  0.00050642  1
  Mn  Mn15  1  0.50000000  0.00000000  0.25000000  1
  O  O16  1  0.89612051  0.11549279  0.75014427  1
  O  O17  1  0.86059534  0.61706936  0.01614864  1
  O  O18  1  0.86266029  0.11116685  0.25644551  1
  O  O19  1  0.36386189  0.11318107  0.01440020  1
  O  O20  1  0.36122315  0.61680555  0.26635689  1
  O  O21  1  0.36865988  0.10526339  0.47342089  1
  O  O22  1  0.86174759  0.61629280  0.51651260  1
  O  O23  1  0.36262916  0.61881331  0.76632296  1
  O  O24  1  0.63877685  0.38319445  0.23364311  1
  O  O25  1  0.63613811  0.88681893  0.48559980  1
  O  O26  1  0.63737084  0.38118669  0.73367704  1
  O  O27  1  0.13940466  0.38293064  0.48385136  1
  O  O28  1  0.10387949  0.88450721  0.74985573  1
  O  O29  1  0.13825241  0.38370720  0.98348740  1
  O  O30  1  0.63134012  0.89473661  0.02657911  1
  O  O31  1  0.13733971  0.88883315  0.24355449  1
