# generated using pymatgen
data_Ti11Fe13O36
_symmetry_space_group_name_H-M   'P 1'
_cell_length_a   5.59192667
_cell_length_b   5.60068252
_cell_length_c   33.32041346
_cell_angle_alpha   55.23782574
_cell_angle_beta   55.37558462
_cell_angle_gamma   54.85950093
_symmetry_Int_Tables_number   1
_chemical_formula_structural   Ti11Fe13O36
_chemical_formula_sum   'Ti11 Fe13 O36'
_cell_volume   654.78421798
_cell_formula_units_Z   1
loop_
 _symmetry_equiv_pos_site_id
 _symmetry_equiv_pos_as_xyz
  1  'x, y, z'
loop_
 _atom_site_type_symbol
 _atom_site_label
 _atom_site_symmetry_multiplicity
 _atom_site_fract_x
 _atom_site_fract_y
 _atom_site_fract_z
 _atom_site_occupancy
  Ti  Ti0  1  0.35805912  0.36246785  0.05651944  1
  Ti  Ti1  1  0.33934459  0.36405428  0.22643479  1
  Ti  Ti2  1  0.15062094  0.14349961  0.35915555  1
  Ti  Ti3  1  0.85418457  0.86438659  0.14070581  1
  Ti  Ti4  1  0.36337787  0.33789011  0.39212732  1
  Ti  Ti5  1  0.14239758  0.14466827  0.52666217  1
  Ti  Ti6  1  0.13971139  0.14826027  0.69116120  1
  Ti  Ti7  1  0.15114395  0.14135908  0.85706996  1
  Ti  Ti8  1  0.85202439  0.85430706  0.64278032  1
  Ti  Ti9  1  0.85740391  0.85158803  0.80941980  1
  Ti  Ti10  1  0.84661523  0.87204181  0.97471605  1
  Fe  Fe11  1  0.14529943  0.14242636  0.02289289  1
  Fe  Fe12  1  0.14380610  0.15250589  0.19041352  1
  Fe  Fe13  1  0.64466320  0.64214108  0.10673000  1
  Fe  Fe14  1  0.64427875  0.64254413  0.27435409  1
  Fe  Fe15  1  0.86355770  0.85665278  0.30800562  1
  Fe  Fe16  1  0.35971969  0.35423377  0.55947054  1
  Fe  Fe17  1  0.63361306  0.64197807  0.44264110  1
  Fe  Fe18  1  0.85788428  0.84423892  0.47685947  1
  Fe  Fe19  1  0.35098529  0.35994308  0.72581204  1
  Fe  Fe20  1  0.64148581  0.64789131  0.60684375  1
  Fe  Fe21  1  0.35963998  0.35442969  0.89264684  1
  Fe  Fe22  1  0.64719680  0.64252868  0.77391769  1
  Fe  Fe23  1  0.64004953  0.64849113  0.94111532  1
  O  O24  1  0.06531747  0.70547441  0.07963167  1
  O  O25  1  0.44784909  0.07561046  0.12261473  1
  O  O26  1  0.71112787  0.45333232  0.01496060  1
  O  O27  1  0.21846696  0.56956899  0.15881404  1
  O  O28  1  0.57367586  0.96690777  0.03707009  1
  O  O29  1  0.08479487  0.74026091  0.23747931  1
  O  O30  1  0.96272010  0.20517842  0.09650275  1
  O  O31  1  0.42390702  0.07855936  0.29083565  1
  O  O32  1  0.72691320  0.43397372  0.18110376  1
  O  O33  1  0.24384958  0.52965012  0.32808395  1
  O  O34  1  0.56575421  0.96493918  0.20209017  1
  O  O35  1  0.08347805  0.74972835  0.40180490  1
  O  O36  1  0.97862884  0.24782298  0.25504692  1
  O  O37  1  0.43168648  0.08209830  0.45699496  1
  O  O38  1  0.74523276  0.40925562  0.34901519  1
  O  O39  1  0.23707399  0.55074661  0.49342204  1
  O  O40  1  0.53456092  0.96812926  0.37386285  1
  O  O41  1  0.04622229  0.78475300  0.57240748  1
  O  O42  1  0.96419197  0.22843926  0.42444156  1
  O  O43  1  0.43269122  0.05392735  0.62981094  1
  O  O44  1  0.78699343  0.43898235  0.50701076  1
  O  O45  1  0.21446543  0.56385261  0.65917586  1
  O  O46  1  0.54964205  0.94690576  0.53862560  1
  O  O47  1  0.05643302  0.77830776  0.73863723  1
  O  O48  1  0.94478955  0.22020873  0.59361326  1
  O  O49  1  0.43960240  0.04157897  0.79647324  1
  O  O50  1  0.77762431  0.44401207  0.67331080  1
  O  O51  1  0.21986628  0.55774148  0.82706919  1
  O  O52  1  0.56110969  0.95509698  0.70380008  1
  O  O53  1  0.06343749  0.77675789  0.90697046  1
  O  O54  1  0.94937656  0.21955962  0.76014323  1
  O  O55  1  0.46875288  0.04475286  0.95787884  1
  O  O56  1  0.78762134  0.43952733  0.83961034  1
  O  O57  1  0.20538614  0.57554431  0.99588396  1
  O  O58  1  0.56545570  0.95490956  0.86901059  1
  O  O59  1  0.94423786  0.22937753  0.92833772  1
