# generated using pymatgen
data_TiTl(VS2)4
_symmetry_space_group_name_H-M   'P 1'
_cell_length_a   3.30724483
_cell_length_b   8.53717725
_cell_length_c   9.15635268
_cell_angle_alpha   104.13642293
_cell_angle_beta   100.40461286
_cell_angle_gamma   90.00000000
_symmetry_Int_Tables_number   1
_chemical_formula_structural   TiTl(VS2)4
_chemical_formula_sum   'Ti1 Tl1 V4 S8'
_cell_volume   246.31039908
_cell_formula_units_Z   1
loop_
 _symmetry_equiv_pos_site_id
 _symmetry_equiv_pos_as_xyz
  1  'x, y, z'
loop_
 _atom_site_type_symbol
 _atom_site_label
 _atom_site_symmetry_multiplicity
 _atom_site_fract_x
 _atom_site_fract_y
 _atom_site_fract_z
 _atom_site_occupancy
  Ti  Ti0  1  -0.00000000  0.50000000  -0.00000000  1
  Tl  Tl1  1  0.50000000  -0.00000000  -0.00000000  1
  V  V2  1  0.71146693  0.85810535  0.42293386  1
  V  V3  1  0.28853307  0.14189465  0.57706614  1
  V  V4  1  0.65371687  0.49327164  0.30743374  1
  V  V5  1  0.34628313  0.50672836  0.69256626  1
  S  S6  1  0.83716034  0.99944985  0.67432067  1
  S  S7  1  0.16283966  0.00055015  0.32567933  1
  S  S8  1  0.75837967  0.33820574  0.51675935  1
  S  S9  1  0.24162033  0.66179426  0.48324065  1
  S  S10  1  0.91257039  0.68025101  0.82514079  1
  S  S11  1  0.08742961  0.31974899  0.17485921  1
  S  S12  1  0.57824881  0.67807830  0.15649762  1
  S  S13  1  0.42175119  0.32192170  0.84350238  1
