# generated using pymatgen
data_Sr3Fe2(ClO2)2
_symmetry_space_group_name_H-M   'P 1'
_cell_length_a   4.08532296
_cell_length_b   4.08532296
_cell_length_c   11.71448076
_cell_angle_alpha   100.04203520
_cell_angle_beta   100.04203520
_cell_angle_gamma   90.00000000
_symmetry_Int_Tables_number   1
_chemical_formula_structural   Sr3Fe2(ClO2)2
_chemical_formula_sum   'Sr3 Fe2 Cl2 O4'
_cell_volume   189.47525832
_cell_formula_units_Z   1
loop_
 _symmetry_equiv_pos_site_id
 _symmetry_equiv_pos_as_xyz
  1  'x, y, z'
loop_
 _atom_site_type_symbol
 _atom_site_label
 _atom_site_symmetry_multiplicity
 _atom_site_fract_x
 _atom_site_fract_y
 _atom_site_fract_z
 _atom_site_occupancy
  Sr  Sr0  1  -0.00000000  -0.00000000  -0.00000000  1
  Sr  Sr1  1  0.84815454  0.84815454  0.69630907  1
  Sr  Sr2  1  0.15184546  0.15184546  0.30369093  1
  Fe  Fe3  1  0.57559612  0.57559612  0.15119223  1
  Fe  Fe4  1  0.42440388  0.42440388  0.84880777  1
  Cl  Cl5  1  0.70491284  0.70491284  0.40982568  1
  Cl  Cl6  1  0.29508716  0.29508716  0.59017432  1
  O  O7  1  0.92241035  0.42241035  0.84482070  1
  O  O8  1  0.42241035  0.92241035  0.84482070  1
  O  O9  1  0.07758965  0.57758965  0.15517930  1
  O  O10  1  0.57758965  0.07758965  0.15517930  1
