# generated using pymatgen
data_Dy(CoGe)6
_symmetry_space_group_name_H-M   'P 1'
_cell_length_a   5.08832764
_cell_length_b   5.08836548
_cell_length_c   7.87705432
_cell_angle_alpha   90.00000000
_cell_angle_beta   90.00000000
_cell_angle_gamma   119.99975776
_symmetry_Int_Tables_number   1
_chemical_formula_structural   Dy(CoGe)6
_chemical_formula_sum   'Dy1 Co6 Ge6'
_cell_volume   176.62366718
_cell_formula_units_Z   1
loop_
 _symmetry_equiv_pos_site_id
 _symmetry_equiv_pos_as_xyz
  1  'x, y, z'
loop_
 _atom_site_type_symbol
 _atom_site_label
 _atom_site_symmetry_multiplicity
 _atom_site_fract_x
 _atom_site_fract_y
 _atom_site_fract_z
 _atom_site_occupancy
  Dy  Dy0  1  0.99997077  1.00000000  -0.00000000  1
  Co  Co1  1  0.49999972  1.00000000  0.25059374  1
  Co  Co2  1  0.49998806  0.49999631  0.25057629  1
  Co  Co3  1  0.99999175  0.50000369  0.25057629  1
  Co  Co4  1  0.49999972  1.00000000  0.74940626  1
  Co  Co5  1  0.49998806  0.49999631  0.74942371  1
  Co  Co6  1  0.99999175  0.50000369  0.74942371  1
  Ge  Ge7  1  0.33331626  0.66667934  -0.00000000  1
  Ge  Ge8  1  0.66663691  0.33332066  -0.00000000  1
  Ge  Ge9  1  0.33330388  0.66667422  0.50000000  1
  Ge  Ge10  1  0.66662967  0.33332578  0.50000000  1
  Ge  Ge11  1  0.99999171  1.00000000  0.34483335  1
  Ge  Ge12  1  0.99999171  1.00000000  0.65516665  1
