# generated using pymatgen
data_Cr(PO3)3
_symmetry_space_group_name_H-M   'P 1'
_cell_length_a   6.61040912
_cell_length_b   6.63045570
_cell_length_c   9.69385593
_cell_angle_alpha   90.00000000
_cell_angle_beta   90.10741924
_cell_angle_gamma   120.10036781
_symmetry_Int_Tables_number   1
_chemical_formula_structural   Cr(PO3)3
_chemical_formula_sum   'Cr2 P6 O18'
_cell_volume   367.58498816
_cell_formula_units_Z   2
loop_
 _symmetry_equiv_pos_site_id
 _symmetry_equiv_pos_as_xyz
  1  'x, y, z'
loop_
 _atom_site_type_symbol
 _atom_site_label
 _atom_site_symmetry_multiplicity
 _atom_site_fract_x
 _atom_site_fract_y
 _atom_site_fract_z
 _atom_site_occupancy
  Cr  Cr0  1  0.33072400  0.66301374  0.99994414  1
  Cr  Cr1  1  0.33072400  0.66771126  0.49994414  1
  P  P2  1  0.71198642  0.93578057  0.75205326  1
  P  P3  1  0.71198642  0.77620585  0.25205326  1
  P  P4  1  0.06241626  0.77867625  0.74790209  1
  P  P5  1  0.22102033  0.28561593  0.74982762  1
  P  P6  1  0.22102033  0.93540440  0.24982762  1
  P  P7  1  0.06241626  0.28374001  0.24790209  1
  O  O8  1  0.08010197  0.40477740  0.11404461  1
  O  O9  1  0.08934260  0.67309029  0.87819295  1
  O  O10  1  0.08010197  0.67532457  0.61404461  1
  O  O11  1  0.32462615  0.41597739  0.61870966  1
  O  O12  1  0.94319119  0.18605394  0.74930379  1
  O  O13  1  0.24139028  0.05574934  0.74764346  1
  O  O14  1  0.58108646  0.91144604  0.62107073  1
  O  O15  1  0.32620280  0.91607042  0.38276422  1
  O  O16  1  0.32462615  0.90864876  0.11870966  1
  O  O17  1  0.94319119  0.75713725  0.24930379  1
  O  O18  1  0.24139028  0.18564095  0.24764346  1
  O  O19  1  0.58108646  0.66964043  0.12107073  1
  O  O20  1  0.08934260  0.41625231  0.37819295  1
  O  O21  1  0.81185018  0.75884212  0.75248502  1
  O  O22  1  0.58752434  0.91332511  0.88513845  1
  O  O23  1  0.81185018  0.05300806  0.25248502  1
  O  O24  1  0.58752434  0.67419823  0.38513845  1
  O  O25  1  0.32620280  0.41013138  0.88276422  1
