# generated using pymatgen
data_Y3Ga9Pt2
_symmetry_space_group_name_H-M   'P 1'
_cell_length_a   4.28240219
_cell_length_b   8.21983994
_cell_length_c   8.21983994
_cell_angle_alpha   72.42641144
_cell_angle_beta   74.90075275
_cell_angle_gamma   74.90075275
_symmetry_Int_Tables_number   1
_chemical_formula_structural   Y3Ga9Pt2
_chemical_formula_sum   'Y3 Ga9 Pt2'
_cell_volume   261.06790020
_cell_formula_units_Z   1
loop_
 _symmetry_equiv_pos_site_id
 _symmetry_equiv_pos_as_xyz
  1  'x, y, z'
loop_
 _atom_site_type_symbol
 _atom_site_label
 _atom_site_symmetry_multiplicity
 _atom_site_fract_x
 _atom_site_fract_y
 _atom_site_fract_z
 _atom_site_occupancy
  Y  Y0  1  -0.00000000  -0.00000000  0.00000000  1
  Y  Y1  1  0.30455754  0.69544246  0.69544246  1
  Y  Y2  1  0.69544246  0.30455754  0.30455754  1
  Ga  Ga3  1  -0.00000000  0.50000000  0.50000000  1
  Ga  Ga4  1  0.34351002  0.28745826  0.02552171  1
  Ga  Ga5  1  0.65648998  0.71254174  0.97447829  1
  Ga  Ga6  1  0.34351002  0.02552171  0.28745826  1
  Ga  Ga7  1  0.65648998  0.97447829  0.71254174  1
  Ga  Ga8  1  0.13814951  0.57967048  0.14403051  1
  Ga  Ga9  1  0.86185049  0.42032952  0.85596949  1
  Ga  Ga10  1  0.13814951  0.14403051  0.57967048  1
  Ga  Ga11  1  0.86185049  0.85596949  0.42032952  1
  Pt  Pt12  1  0.50000000  0.30668005  0.69331995  1
  Pt  Pt13  1  0.50000000  0.69331995  0.30668005  1
