# generated using pymatgen
data_NbPO5
_symmetry_space_group_name_H-M   'P 1'
_cell_length_a   4.26716033
_cell_length_b   6.49165811
_cell_length_c   6.49165811
_cell_angle_alpha   90.00000000
_cell_angle_beta   90.00000000
_cell_angle_gamma   90.00000000
_symmetry_Int_Tables_number   1
_chemical_formula_structural   NbPO5
_chemical_formula_sum   'Nb2 P2 O10'
_cell_volume   179.82507051
_cell_formula_units_Z   2
loop_
 _symmetry_equiv_pos_site_id
 _symmetry_equiv_pos_as_xyz
  1  'x, y, z'
loop_
 _atom_site_type_symbol
 _atom_site_label
 _atom_site_symmetry_multiplicity
 _atom_site_fract_x
 _atom_site_fract_y
 _atom_site_fract_z
 _atom_site_occupancy
  Nb  Nb0  1  0.22247898  0.75000000  0.75000000  1
  Nb  Nb1  1  0.77752102  0.25000000  0.25000000  1
  P  P2  1  0.50000000  0.25000000  0.75000000  1
  P  P3  1  0.50000000  0.75000000  0.25000000  1
  O  O4  1  0.80582654  0.75000000  0.75000000  1
  O  O5  1  0.19417346  0.25000000  0.25000000  1
  O  O6  1  0.70617152  0.55628558  0.27078128  1
  O  O7  1  0.70617152  0.94371442  0.22921872  1
  O  O8  1  0.70617152  0.27078128  0.94371442  1
  O  O9  1  0.70617152  0.22921872  0.55628558  1
  O  O10  1  0.29382848  0.44371442  0.72921872  1
  O  O11  1  0.29382848  0.05628558  0.77078128  1
  O  O12  1  0.29382848  0.72921872  0.05628558  1
  O  O13  1  0.29382848  0.77078128  0.44371442  1
