# generated using pymatgen
data_Dy2Te5
_symmetry_space_group_name_H-M   'P 1'
_cell_length_a   4.37117162
_cell_length_b   4.37370098
_cell_length_c   22.07414814
_cell_angle_alpha   90.00000000
_cell_angle_beta   95.68222839
_cell_angle_gamma   90.00000000
_symmetry_Int_Tables_number   1
_chemical_formula_structural   Dy2Te5
_chemical_formula_sum   'Dy4 Te10'
_cell_volume   419.94426855
_cell_formula_units_Z   2
loop_
 _symmetry_equiv_pos_site_id
 _symmetry_equiv_pos_as_xyz
  1  'x, y, z'
loop_
 _atom_site_type_symbol
 _atom_site_label
 _atom_site_symmetry_multiplicity
 _atom_site_fract_x
 _atom_site_fract_y
 _atom_site_fract_z
 _atom_site_occupancy
  Dy  Dy0  1  0.09802930  0.75000000  0.19605860  1
  Dy  Dy1  1  0.90197070  0.25000000  0.80394140  1
  Dy  Dy2  1  0.30731536  0.75000000  0.61463072  1
  Dy  Dy3  1  0.69268464  0.25000000  0.38536928  1
  Te  Te4  1  0.95842986  0.75000000  0.91685973  1
  Te  Te5  1  0.04157014  0.25000000  0.08314027  1
  Te  Te6  1  0.54177361  0.75000000  0.08354721  1
  Te  Te7  1  0.45822639  0.25000000  0.91645279  1
  Te  Te8  1  0.74999696  0.75000000  0.49999393  1
  Te  Te9  1  0.25000304  0.25000000  0.50000607  1
  Te  Te10  1  0.17246780  0.75000000  0.34493560  1
  Te  Te11  1  0.82753220  0.25000000  0.65506440  1
  Te  Te12  1  0.37989586  0.75000000  0.75979171  1
  Te  Te13  1  0.62010414  0.25000000  0.24020829  1
