# generated using pymatgen
data_Ba8Bi4O17
_symmetry_space_group_name_H-M   'P 1'
_cell_length_a   6.41793370
_cell_length_b   19.34537598
_cell_length_c   17.08402282
_cell_angle_alpha   19.01710676
_cell_angle_beta   55.70159271
_cell_angle_gamma   60.15647104
_symmetry_Int_Tables_number   1
_chemical_formula_structural   Ba8Bi4O17
_chemical_formula_sum   'Ba8 Bi4 O17'
_cell_volume   566.10109954
_cell_formula_units_Z   1
loop_
 _symmetry_equiv_pos_site_id
 _symmetry_equiv_pos_as_xyz
  1  'x, y, z'
loop_
 _atom_site_type_symbol
 _atom_site_label
 _atom_site_symmetry_multiplicity
 _atom_site_fract_x
 _atom_site_fract_y
 _atom_site_fract_z
 _atom_site_occupancy
  Ba  Ba0  1  0.24171272  0.24723757  0.25828728  1
  Ba  Ba1  1  0.49579134  0.16526411  0.50420866  1
  Ba  Ba2  1  0.17832377  0.55944092  0.32167623  1
  Ba  Ba3  1  0.67832377  0.05944092  0.82167623  1
  Ba  Ba4  1  0.20521975  0.90174025  0.29478025  1
  Ba  Ba5  1  0.70521975  0.40174025  0.79478025  1
  Ba  Ba6  1  0.45946233  0.81982044  0.54053767  1
  Ba  Ba7  1  0.74171272  0.74723757  0.75828728  1
  Bi  Bi8  1  0.98141410  0.99380470  0.01858590  1
  Bi  Bi9  1  0.99515569  0.33171823  0.00484431  1
  Bi  Bi10  1  0.00448155  0.66816085  0.99551845  1
  Bi  Bi11  1  0.47327075  0.49109025  0.52672925  1
  O  O12  1  0.24545607  0.10460453  0.22036467  1
  O  O13  1  0.29994259  0.47213700  0.14182370  1
  O  O14  1  0.77963533  0.10460453  0.22036467  1
  O  O15  1  0.21561211  0.07187104  0.78438789  1
  O  O16  1  0.76956945  0.25652348  0.23043055  1
  O  O17  1  0.24333890  0.75695807  0.24289344  1
  O  O18  1  0.24333890  0.24319042  0.75666110  1
  O  O19  1  0.85817630  0.47213700  0.14182370  1
  O  O20  1  0.77484992  0.59161664  0.22515008  1
  O  O21  1  0.24335950  0.41445317  0.75664050  1
  O  O22  1  0.24545607  0.57042527  0.75454393  1
  O  O23  1  0.75710656  0.24319042  0.75666110  1
  O  O24  1  0.75710656  0.75695807  0.24289344  1
  O  O25  1  0.75420927  0.91806942  0.24579073  1
  O  O26  1  0.29994259  0.91390329  0.70005741  1
  O  O27  1  0.77963533  0.57042527  0.75454393  1
  O  O28  1  0.85817630  0.91390329  0.70005741  1
