# generated using pymatgen
data_YbCu2
_symmetry_space_group_name_H-M   'P 1'
_cell_length_a   5.12754813
_cell_length_b   5.12754813
_cell_length_c   8.44622536
_cell_angle_alpha   90.00000000
_cell_angle_beta   90.00000000
_cell_angle_gamma   120.00168208
_symmetry_Int_Tables_number   1
_chemical_formula_structural   YbCu2
_chemical_formula_sum   'Yb4 Cu8'
_cell_volume   192.31157552
_cell_formula_units_Z   4
loop_
 _symmetry_equiv_pos_site_id
 _symmetry_equiv_pos_as_xyz
  1  'x, y, z'
loop_
 _atom_site_type_symbol
 _atom_site_label
 _atom_site_symmetry_multiplicity
 _atom_site_fract_x
 _atom_site_fract_y
 _atom_site_fract_z
 _atom_site_occupancy
  Yb  Yb0  1  0.66665756  0.33334244  0.56056219  1
  Yb  Yb1  1  0.33334244  0.66665756  0.43943781  1
  Yb  Yb2  1  0.33334244  0.66665756  0.06056219  1
  Yb  Yb3  1  0.66665756  0.33334244  0.93943781  1
  Cu  Cu4  1  0.00000000  -0.00000000  0.50000000  1
  Cu  Cu5  1  -0.00000000  0.00000000  0.00000000  1
  Cu  Cu6  1  0.16692409  0.33392729  0.75000000  1
  Cu  Cu7  1  0.16700874  0.83299126  0.75000000  1
  Cu  Cu8  1  0.66607271  0.83307591  0.75000000  1
  Cu  Cu9  1  0.83307591  0.66607271  0.25000000  1
  Cu  Cu10  1  0.83299126  0.16700874  0.25000000  1
  Cu  Cu11  1  0.33392729  0.16692409  0.25000000  1
