# generated using pymatgen
data_PrZn(CoO3)2
_symmetry_space_group_name_H-M   'P 1'
_cell_length_a   5.32770701
_cell_length_b   5.37346356
_cell_length_c   7.71256092
_cell_angle_alpha   89.99517359
_cell_angle_beta   89.99851554
_cell_angle_gamma   90.08845199
_symmetry_Int_Tables_number   1
_chemical_formula_structural   PrZn(CoO3)2
_chemical_formula_sum   'Pr2 Zn2 Co4 O12'
_cell_volume   220.79677711
_cell_formula_units_Z   2
loop_
 _symmetry_equiv_pos_site_id
 _symmetry_equiv_pos_as_xyz
  1  'x, y, z'
loop_
 _atom_site_type_symbol
 _atom_site_label
 _atom_site_symmetry_multiplicity
 _atom_site_fract_x
 _atom_site_fract_y
 _atom_site_fract_z
 _atom_site_occupancy
  Pr  Pr0  1  0.00442190  0.96301144  0.75004657  1
  Pr  Pr1  1  0.50428898  0.53736217  0.25003264  1
  Zn  Zn2  1  0.48141697  0.45745149  0.74991233  1
  Zn  Zn3  1  0.98174942  0.04230986  0.25005470  1
  Co  Co4  1  0.99559221  0.49524508  -0.00006936  1
  Co  Co5  1  0.99542723  0.49503784  0.50009166  1
  Co  Co6  1  0.49608067  0.00433956  0.49994605  1
  Co  Co7  1  0.49626627  0.00426793  0.00008316  1
  O  O8  1  0.07751430  0.43755619  0.24994563  1
  O  O9  1  0.21615678  0.24627319  0.94303805  1
  O  O10  1  0.21610382  0.24644683  0.55705186  1
  O  O11  1  0.32451953  0.71519218  0.55977747  1
  O  O12  1  0.32437644  0.71510078  0.94020337  1
  O  O13  1  0.36335524  0.97485204  0.24991745  1
  O  O14  1  0.57638144  0.06246752  0.75016860  1
  O  O15  1  0.71687218  0.25469438  0.05675843  1
  O  O16  1  0.71676470  0.25471391  0.44318753  1
  O  O17  1  0.82453505  0.78449366  0.05974823  1
  O  O18  1  0.82465836  0.78447586  0.44012363  1
  O  O19  1  0.86351449  0.52470910  0.74998098  1
