# generated using pymatgen
data_Nb6Ni7
_symmetry_space_group_name_H-M   'P 1'
_cell_length_a   4.89288093
_cell_length_b   4.89288098
_cell_length_c   9.27353860
_cell_angle_alpha   74.70381988
_cell_angle_beta   74.70381751
_cell_angle_gamma   59.99999871
_symmetry_Int_Tables_number   1
_chemical_formula_structural   Nb6Ni7
_chemical_formula_sum   'Nb6 Ni7'
_cell_volume   183.12958259
_cell_formula_units_Z   1
loop_
 _symmetry_equiv_pos_site_id
 _symmetry_equiv_pos_as_xyz
  1  'x, y, z'
loop_
 _atom_site_type_symbol
 _atom_site_label
 _atom_site_symmetry_multiplicity
 _atom_site_fract_x
 _atom_site_fract_y
 _atom_site_fract_z
 _atom_site_occupancy
  Nb  Nb0  1  0.83136093  0.83136093  0.50591721  1
  Nb  Nb1  1  0.16863907  0.16863907  0.49408279  1
  Nb  Nb2  1  0.65546400  0.65546400  0.03360800  1
  Nb  Nb3  1  0.34453600  0.34453600  0.96639200  1
  Nb  Nb4  1  0.54929701  0.54929701  0.35210897  1
  Nb  Nb5  1  0.45070299  0.45070299  0.64789103  1
  Ni  Ni6  1  -0.00000000  -0.00000000  -0.00000000  1
  Ni  Ni7  1  0.90944402  0.40884747  0.77226448  1
  Ni  Ni8  1  0.40884747  0.90944402  0.77226448  1
  Ni  Ni9  1  0.90944402  0.90944402  0.77226448  1
  Ni  Ni10  1  0.09055598  0.59115253  0.22773552  1
  Ni  Ni11  1  0.59115253  0.09055598  0.22773552  1
  Ni  Ni12  1  0.09055598  0.09055598  0.22773552  1
