# generated using pymatgen
data_Ti8BiO7
_symmetry_space_group_name_H-M   'P 1'
_cell_length_a   3.03672308
_cell_length_b   7.85755016
_cell_length_c   9.33692085
_cell_angle_alpha   114.88374084
_cell_angle_beta   90.00000000
_cell_angle_gamma   90.00000000
_symmetry_Int_Tables_number   1
_chemical_formula_structural   Ti8BiO7
_chemical_formula_sum   'Ti8 Bi1 O7'
_cell_volume   202.10710321
_cell_formula_units_Z   1
loop_
 _symmetry_equiv_pos_site_id
 _symmetry_equiv_pos_as_xyz
  1  'x, y, z'
loop_
 _atom_site_type_symbol
 _atom_site_label
 _atom_site_symmetry_multiplicity
 _atom_site_fract_x
 _atom_site_fract_y
 _atom_site_fract_z
 _atom_site_occupancy
  Ti  Ti0  1  0.50000000  0.14653452  0.65814615  1
  Ti  Ti1  1  0.50000000  0.85346548  0.34185385  1
  Ti  Ti2  1  0.50000000  0.48838837  0.34185385  1
  Ti  Ti3  1  0.50000000  0.51161163  0.65814615  1
  Ti  Ti4  1  -0.00000000  0.17386603  0.00000000  1
  Ti  Ti5  1  -0.00000000  0.82613397  1.00000000  1
  Ti  Ti6  1  -0.00000000  0.79655267  0.59310534  1
  Ti  Ti7  1  -0.00000000  0.20344733  0.40689466  1
  Bi  Bi8  1  0.50000000  0.50000000  0.00000000  1
  O  O9  1  -0.00000000  0.05709933  0.75976296  1
  O  O10  1  -0.00000000  0.94290067  0.24023704  1
  O  O11  1  -0.00000000  0.29733637  0.24023704  1
  O  O12  1  -0.00000000  0.70266363  0.75976296  1
  O  O13  1  0.00000000  0.67796070  0.35592139  1
  O  O14  1  0.00000000  0.32203930  0.64407861  1
  O  O15  1  0.50000000  0.00000000  0.00000000  1
