# generated using pymatgen
data_Nb3VSe6
_symmetry_space_group_name_H-M   'P 1'
_cell_length_a   6.07077647
_cell_length_b   6.07220932
_cell_length_c   12.74525680
_cell_angle_alpha   90.00081184
_cell_angle_beta   89.99926776
_cell_angle_gamma   119.99180395
_symmetry_Int_Tables_number   1
_chemical_formula_structural   Nb3VSe6
_chemical_formula_sum   'Nb6 V2 Se12'
_cell_volume   406.91721241
_cell_formula_units_Z   2
loop_
 _symmetry_equiv_pos_site_id
 _symmetry_equiv_pos_as_xyz
  1  'x, y, z'
loop_
 _atom_site_type_symbol
 _atom_site_label
 _atom_site_symmetry_multiplicity
 _atom_site_fract_x
 _atom_site_fract_y
 _atom_site_fract_z
 _atom_site_occupancy
  Nb  Nb0  1  -0.00004373  0.00000176  0.50000021  1
  Nb  Nb1  1  0.00005663  -0.00000086  0.00000137  1
  Nb  Nb2  1  0.66667789  0.33339213  0.00040860  1
  Nb  Nb3  1  0.33328693  0.66661125  0.99959480  1
  Nb  Nb4  1  0.33332976  0.66660415  0.50040148  1
  Nb  Nb5  1  0.66672408  0.33339156  0.49959932  1
  V  V6  1  0.66663112  0.33325587  0.75000038  1
  V  V7  1  0.33337384  0.66673891  0.24999671  1
  Se  Se8  1  0.66719890  0.99839693  0.63180152  1
  Se  Se9  1  0.33115387  0.33265422  0.63178027  1
  Se  Se10  1  0.00147342  0.66897364  0.63177295  1
  Se  Se11  1  0.66879650  0.00159652  0.36819716  1
  Se  Se12  1  0.99849900  0.66734762  0.36822201  1
  Se  Se13  1  0.33249829  0.33102495  0.36822654  1
  Se  Se14  1  0.33281139  0.00159197  0.13180087  1
  Se  Se15  1  0.66885671  0.66735538  0.13177790  1
  Se  Se16  1  0.99854272  0.33104091  0.13177406  1
  Se  Se17  1  0.33121869  0.99840841  0.86819654  1
  Se  Se18  1  0.00150403  0.33264749  0.86822189  1
  Se  Se19  1  0.66750998  0.66896719  0.86822542  1
