# generated using pymatgen
data_Ce(Sn2Pd)2
_symmetry_space_group_name_H-M   'P 1'
_cell_length_a   6.11874397
_cell_length_b   6.37515167
_cell_length_c   8.92934081
_cell_angle_alpha   110.91470729
_cell_angle_beta   90.00000000
_cell_angle_gamma   90.00000000
_symmetry_Int_Tables_number   1
_chemical_formula_structural   Ce(Sn2Pd)2
_chemical_formula_sum   'Ce2 Sn8 Pd4'
_cell_volume   325.36554322
_cell_formula_units_Z   2
loop_
 _symmetry_equiv_pos_site_id
 _symmetry_equiv_pos_as_xyz
  1  'x, y, z'
loop_
 _atom_site_type_symbol
 _atom_site_label
 _atom_site_symmetry_multiplicity
 _atom_site_fract_x
 _atom_site_fract_y
 _atom_site_fract_z
 _atom_site_occupancy
  Ce  Ce0  1  0.75000000  0.77240697  1.00000000  1
  Ce  Ce1  1  0.25000000  0.22759303  0.00000000  1
  Sn  Sn2  1  0.75000000  0.85090100  0.40170805  1
  Sn  Sn3  1  0.25000000  0.55080705  0.40170805  1
  Sn  Sn4  1  0.25000000  0.14909900  0.59829195  1
  Sn  Sn5  1  0.75000000  0.44919295  0.59829195  1
  Sn  Sn6  1  0.75000000  0.19660714  0.82807555  1
  Sn  Sn7  1  0.25000000  0.63146841  0.82807555  1
  Sn  Sn8  1  0.25000000  0.80339286  0.17192445  1
  Sn  Sn9  1  0.75000000  0.36853159  0.17192445  1
  Pd  Pd10  1  0.50000000  0.16955018  0.33910035  1
  Pd  Pd11  1  0.00000000  0.16955018  0.33910035  1
  Pd  Pd12  1  0.50000000  0.83044982  0.66089965  1
  Pd  Pd13  1  -0.00000000  0.83044982  0.66089965  1
