# generated using pymatgen
data_Ni3Sb4(OF)6
_symmetry_space_group_name_H-M   'P 1'
_cell_length_a   7.10035997
_cell_length_b   7.10035997
_cell_length_c   7.10035997
_cell_angle_alpha   109.47122063
_cell_angle_beta   109.47122063
_cell_angle_gamma   109.47122063
_symmetry_Int_Tables_number   1
_chemical_formula_structural   Ni3Sb4(OF)6
_chemical_formula_sum   'Ni3 Sb4 O6 F6'
_cell_volume   275.56192498
_cell_formula_units_Z   1
loop_
 _symmetry_equiv_pos_site_id
 _symmetry_equiv_pos_as_xyz
  1  'x, y, z'
loop_
 _atom_site_type_symbol
 _atom_site_label
 _atom_site_symmetry_multiplicity
 _atom_site_fract_x
 _atom_site_fract_y
 _atom_site_fract_z
 _atom_site_occupancy
  Ni  Ni0  1  0.00000000  0.50000000  0.50000000  1
  Ni  Ni1  1  0.50000000  -0.00000000  0.50000000  1
  Ni  Ni2  1  0.50000000  0.50000000  -0.00000000  1
  Sb  Sb3  1  0.32385912  0.32385912  0.32385912  1
  Sb  Sb4  1  -0.00000000  0.00000000  0.67614088  1
  Sb  Sb5  1  -0.00000000  0.67614088  0.00000000  1
  Sb  Sb6  1  0.67614088  -0.00000000  -0.00000000  1
  O  O7  1  0.00000000  0.25195488  0.25195488  1
  O  O8  1  0.74804512  0.00000000  0.74804512  1
  O  O9  1  0.74804512  0.74804512  -0.00000000  1
  O  O10  1  0.00000000  0.74804512  0.74804512  1
  O  O11  1  0.25195488  -0.00000000  0.25195488  1
  O  O12  1  0.25195488  0.25195488  -0.00000000  1
  F  F13  1  0.25000000  0.75000000  0.50000000  1
  F  F14  1  0.50000000  0.75000000  0.25000000  1
  F  F15  1  0.75000000  0.50000000  0.25000000  1
  F  F16  1  0.75000000  0.25000000  0.50000000  1
  F  F17  1  0.25000000  0.50000000  0.75000000  1
  F  F18  1  0.50000000  0.25000000  0.75000000  1
