# generated using pymatgen
data_LaMgVCrO6
_symmetry_space_group_name_H-M   'P 1'
_cell_length_a   5.33278523
_cell_length_b   5.47833753
_cell_length_c   7.74086727
_cell_angle_alpha   90.00000000
_cell_angle_beta   90.55025294
_cell_angle_gamma   90.00000000
_symmetry_Int_Tables_number   1
_chemical_formula_structural   LaMgVCrO6
_chemical_formula_sum   'La2 Mg2 V2 Cr2 O12'
_cell_volume   226.13744045
_cell_formula_units_Z   2
loop_
 _symmetry_equiv_pos_site_id
 _symmetry_equiv_pos_as_xyz
  1  'x, y, z'
loop_
 _atom_site_type_symbol
 _atom_site_label
 _atom_site_symmetry_multiplicity
 _atom_site_fract_x
 _atom_site_fract_y
 _atom_site_fract_z
 _atom_site_occupancy
  La  La0  1  0.00598921  0.96276091  0.74737131  1
  La  La1  1  0.50598921  0.53723909  0.24737131  1
  Mg  Mg2  1  0.48235489  0.44728511  0.74683664  1
  Mg  Mg3  1  0.98235489  0.05271489  0.24683764  1
  V  V4  1  0.49837631  0.00418492  0.99927760  1
  V  V5  1  0.99837631  0.49581508  0.49927760  1
  Cr  Cr6  1  0.49866998  0.00042059  0.49845460  1
  Cr  Cr7  1  0.99866998  0.49957941  0.99845460  1
  O  O8  1  0.07935427  0.45055544  0.25281053  1
  O  O9  1  0.22812549  0.21466290  0.95561473  1
  O  O10  1  0.22107283  0.22336711  0.55790536  1
  O  O11  1  0.31319812  0.69627732  0.93944624  1
  O  O12  1  0.29863643  0.68931116  0.55418317  1
  O  O13  1  0.37422147  0.97507977  0.24809882  1
  O  O14  1  0.57935427  0.04944456  0.75281053  1
  O  O15  1  0.72812549  0.28533710  0.45561473  1
  O  O16  1  0.72107283  0.27663289  0.05790536  1
  O  O17  1  0.81319812  0.80372268  0.43944624  1
  O  O18  1  0.79863643  0.81068884  0.05418317  1
  O  O19  1  0.87422147  0.52492023  0.74809882  1
