# generated using pymatgen
data_Dy3Ga8Ir3
_symmetry_space_group_name_H-M   'P 1'
_cell_length_a   4.20423132
_cell_length_b   8.17359920
_cell_length_c   8.17359920
_cell_angle_alpha   74.44520572
_cell_angle_beta   75.09698411
_cell_angle_gamma   75.09698411
_symmetry_Int_Tables_number   1
_chemical_formula_structural   Dy3Ga8Ir3
_chemical_formula_sum   'Dy3 Ga8 Ir3'
_cell_volume   256.08626348
_cell_formula_units_Z   1
loop_
 _symmetry_equiv_pos_site_id
 _symmetry_equiv_pos_as_xyz
  1  'x, y, z'
loop_
 _atom_site_type_symbol
 _atom_site_label
 _atom_site_symmetry_multiplicity
 _atom_site_fract_x
 _atom_site_fract_y
 _atom_site_fract_z
 _atom_site_occupancy
  Dy  Dy0  1  0.50000000  0.50000000  0.50000000  1
  Dy  Dy1  1  0.16806755  0.83193245  0.83193245  1
  Dy  Dy2  1  0.83193245  0.16806755  0.16806755  1
  Ga  Ga3  1  0.37470336  0.33989839  0.91069489  1
  Ga  Ga4  1  0.62529664  0.66010161  0.08930511  1
  Ga  Ga5  1  0.37470336  0.91069489  0.33989839  1
  Ga  Ga6  1  0.62529664  0.08930511  0.66010161  1
  Ga  Ga7  1  0.16794978  0.46053895  0.20356149  1
  Ga  Ga8  1  0.83205022  0.53946105  0.79643851  1
  Ga  Ga9  1  0.16794978  0.20356149  0.46053895  1
  Ga  Ga10  1  0.83205022  0.79643851  0.53946105  1
  Ir  Ir11  1  0.50000000  0.00000000  0.00000000  1
  Ir  Ir12  1  0.00000000  0.78120787  0.21879213  1
  Ir  Ir13  1  -0.00000000  0.21879213  0.78120787  1
