# generated using pymatgen
data_Er5(MoO6)2
_symmetry_space_group_name_H-M   'P 1'
_cell_length_a   5.95411514
_cell_length_b   6.81876110
_cell_length_c   7.29364451
_cell_angle_alpha   105.57337126
_cell_angle_beta   90.00000000
_cell_angle_gamma   115.88701779
_symmetry_Int_Tables_number   1
_chemical_formula_structural   Er5(MoO6)2
_chemical_formula_sum   'Er5 Mo2 O12'
_cell_volume   254.26750687
_cell_formula_units_Z   1
loop_
 _symmetry_equiv_pos_site_id
 _symmetry_equiv_pos_as_xyz
  1  'x, y, z'
loop_
 _atom_site_type_symbol
 _atom_site_label
 _atom_site_symmetry_multiplicity
 _atom_site_fract_x
 _atom_site_fract_y
 _atom_site_fract_z
 _atom_site_occupancy
  Er  Er0  1  0.30031902  0.60063803  0.63624967  1
  Er  Er1  1  0.69968098  0.39936197  0.36375033  1
  Er  Er2  1  0.30935673  0.61871345  0.17702792  1
  Er  Er3  1  0.69064327  0.38128655  0.82297208  1
  Er  Er4  1  0.00000000  0.00000000  0.50000000  1
  Mo  Mo5  1  0.75302073  0.00000000  0.00000000  1
  Mo  Mo6  1  0.24697927  1.00000000  1.00000000  1
  O  O7  1  0.90003005  0.33466790  0.08633594  1
  O  O8  1  0.43463785  0.33466790  0.08633594  1
  O  O9  1  0.09996995  0.66533210  0.91366406  1
  O  O10  1  0.56536215  0.66533210  0.91366406  1
  O  O11  1  0.09657187  0.69277824  0.42654073  1
  O  O12  1  0.59620636  0.69277824  0.42654073  1
  O  O13  1  0.90342813  0.30722176  0.57345927  1
  O  O14  1  0.40379364  0.30722176  0.57345927  1
  O  O15  1  0.00173551  0.00347101  0.19147265  1
  O  O16  1  0.99826449  0.99652899  0.80852735  1
  O  O17  1  0.49958678  0.99917355  0.19910701  1
  O  O18  1  0.50041322  0.00082645  0.80089299  1
