# generated using pymatgen
data_K2AgSbCl6
_symmetry_space_group_name_H-M   'P 1'
_cell_length_a   7.57098084
_cell_length_b   7.57098117
_cell_length_c   7.57098115
_cell_angle_alpha   59.99999892
_cell_angle_beta   59.99999838
_cell_angle_gamma   59.99999847
_symmetry_Int_Tables_number   1
_chemical_formula_structural   K2AgSbCl6
_chemical_formula_sum   'K2 Ag1 Sb1 Cl6'
_cell_volume   306.86083751
_cell_formula_units_Z   1
loop_
 _symmetry_equiv_pos_site_id
 _symmetry_equiv_pos_as_xyz
  1  'x, y, z'
loop_
 _atom_site_type_symbol
 _atom_site_label
 _atom_site_symmetry_multiplicity
 _atom_site_fract_x
 _atom_site_fract_y
 _atom_site_fract_z
 _atom_site_occupancy
  K  K0  1  0.25000000  0.25000000  0.25000000  1
  K  K1  1  0.75000000  0.75000000  0.75000000  1
  Ag  Ag2  1  0.50000000  0.50000000  0.50000000  1
  Sb  Sb3  1  -0.00000000  0.00000000  -0.00000000  1
  Cl  Cl4  1  0.24788184  0.75211816  0.24788184  1
  Cl  Cl5  1  0.75211816  0.75211816  0.24788184  1
  Cl  Cl6  1  0.75211816  0.24788184  0.75211816  1
  Cl  Cl7  1  0.75211816  0.24788184  0.24788184  1
  Cl  Cl8  1  0.24788184  0.75211816  0.75211816  1
  Cl  Cl9  1  0.24788184  0.24788184  0.75211816  1
