# generated using pymatgen
data_Zn(SbO3)2
_symmetry_space_group_name_H-M   'P 1'
_cell_length_a   5.25533939
_cell_length_b   5.38590562
_cell_length_c   7.62815190
_cell_angle_alpha   89.98241124
_cell_angle_beta   89.99976275
_cell_angle_gamma   89.99912213
_symmetry_Int_Tables_number   1
_chemical_formula_structural   Zn(SbO3)2
_chemical_formula_sum   'Zn2 Sb4 O12'
_cell_volume   215.91301321
_cell_formula_units_Z   2
loop_
 _symmetry_equiv_pos_site_id
 _symmetry_equiv_pos_as_xyz
  1  'x, y, z'
loop_
 _atom_site_type_symbol
 _atom_site_label
 _atom_site_symmetry_multiplicity
 _atom_site_fract_x
 _atom_site_fract_y
 _atom_site_fract_z
 _atom_site_occupancy
  Zn  Zn0  1  0.51118984  0.55691199  0.24999232  1
  Zn  Zn1  1  0.01125309  0.94315074  0.74995607  1
  Sb  Sb2  1  0.50154366  0.00284574  0.00031871  1
  Sb  Sb3  1  0.00153603  0.49714663  0.99968348  1
  Sb  Sb4  1  0.00174705  0.49721147  0.50028107  1
  Sb  Sb5  1  0.50175604  0.00281457  0.49968406  1
  O  O6  1  0.67366305  0.32174585  0.43501621  1
  O  O7  1  0.17371188  0.17832060  0.56499802  1
  O  O8  1  0.80770169  0.80114490  0.06094341  1
  O  O9  1  0.30777188  0.69877431  0.93917617  1
  O  O10  1  0.30845272  0.69823286  0.56048049  1
  O  O11  1  0.80843876  0.80178027  0.43943657  1
  O  O12  1  0.17343565  0.17835170  0.93508480  1
  O  O13  1  0.67340088  0.32165295  0.06486130  1
  O  O14  1  0.13458344  0.45854222  0.24995742  1
  O  O15  1  0.63459971  0.04133211  0.75003021  1
  O  O16  1  0.39864301  0.93479751  0.25002935  1
  O  O17  1  0.89875060  0.56530358  0.74996235  1
