# generated using pymatgen
data_Al(CoS2)2
_symmetry_space_group_name_H-M   'P 1'
_cell_length_a   6.78878450
_cell_length_b   6.78878427
_cell_length_c   6.81678045
_cell_angle_alpha   119.86423677
_cell_angle_beta   119.86424002
_cell_angle_gamma   89.99999350
_symmetry_Int_Tables_number   1
_chemical_formula_structural   Al(CoS2)2
_chemical_formula_sum   'Al2 Co4 S8'
_cell_volume   223.05966202
_cell_formula_units_Z   2
loop_
 _symmetry_equiv_pos_site_id
 _symmetry_equiv_pos_as_xyz
  1  'x, y, z'
loop_
 _atom_site_type_symbol
 _atom_site_label
 _atom_site_symmetry_multiplicity
 _atom_site_fract_x
 _atom_site_fract_y
 _atom_site_fract_z
 _atom_site_occupancy
  Al  Al0  1  0.37500100  0.62500100  0.75000000  1
  Al  Al1  1  0.62499900  0.37500000  0.25000000  1
  Co  Co2  1  0.00000000  0.50000100  0.00000100  1
  Co  Co3  1  0.00000100  0.00000000  0.50000000  1
  Co  Co4  1  0.50000100  0.00000000  0.50000000  1
  Co  Co5  1  0.00000000  0.00000000  0.00000000  1
  S  S6  1  0.76457562  0.79032892  0.52915224  1
  S  S7  1  0.76117768  0.23542538  0.97084976  1
  S  S8  1  0.20967208  0.23542538  0.97084876  1
  S  S9  1  0.23542438  0.20967108  0.47084876  1
  S  S10  1  0.23542338  0.76117668  0.47084776  1
  S  S11  1  0.23882232  0.76457562  0.02915224  1
  S  S12  1  0.76457562  0.23882232  0.52915124  1
  S  S13  1  0.79032792  0.76457562  0.02915124  1
