# generated using pymatgen
data_Rb2MnV2(ClO3)2
_symmetry_space_group_name_H-M   'P 1'
_cell_length_a   10.97585586
_cell_length_b   5.61299521
_cell_length_c   10.90801565
_cell_angle_alpha   104.64586677
_cell_angle_beta   59.79405310
_cell_angle_gamma   90.00000000
_symmetry_Int_Tables_number   1
_chemical_formula_structural   Rb2MnV2(ClO3)2
_chemical_formula_sum   'Rb4 Mn2 V4 Cl4 O12'
_cell_volume   555.35855913
_cell_formula_units_Z   2
loop_
 _symmetry_equiv_pos_site_id
 _symmetry_equiv_pos_as_xyz
  1  'x, y, z'
loop_
 _atom_site_type_symbol
 _atom_site_label
 _atom_site_symmetry_multiplicity
 _atom_site_fract_x
 _atom_site_fract_y
 _atom_site_fract_z
 _atom_site_occupancy
  Rb  Rb0  1  0.20024720  0.37001273  0.74257662  1
  Rb  Rb1  1  0.44560132  0.62963158  0.25229103  1
  Rb  Rb2  1  0.69789235  0.37036842  0.74770897  1
  Rb  Rb3  1  0.94282383  0.62998727  0.25742338  1
  Mn  Mn4  1  0.30881656  0.00000000  -0.00000000  1
  Mn  Mn5  1  0.81034470  0.00000000  0.00000000  1
  V  V6  1  0.13178664  0.22171389  0.40170018  1
  V  V7  1  0.03210072  0.81798038  0.60048595  1
  V  V8  1  0.63258667  0.18201962  0.39951405  1
  V  V9  1  0.53348681  0.77828611  0.59829982  1
  Cl  Cl10  1  0.04001402  0.00000000  -0.00000000  1
  Cl  Cl11  1  0.30099703  0.50000000  -0.00000000  1
  Cl  Cl12  1  0.53909117  0.00000000  -0.00000000  1
  Cl  Cl13  1  0.80070899  0.50000000  0.00000000  1
  O  O14  1  0.03670483  0.53408320  0.47185403  1
  O  O15  1  0.00889704  0.06269735  0.53004289  1
  O  O16  1  0.17390752  0.09258811  0.22387715  1
  O  O17  1  0.27721506  0.22770910  0.41107449  1
  O  O18  1  0.18652399  0.81168820  0.59193995  1
  O  O19  1  0.50855886  0.46591680  0.52814597  1
  O  O20  1  0.53893994  0.93730265  0.46995711  1
  O  O21  1  0.39778467  0.90741189  0.77612285  1
  O  O22  1  0.67317607  0.13837576  0.22246445  1
  O  O23  1  0.77846394  0.18831180  0.40806005  1
  O  O24  1  0.68828955  0.77229090  0.58892551  1
  O  O25  1  0.89564052  0.86162424  0.77753555  1
