# generated using pymatgen
data_Sr12Ru11O36
_symmetry_space_group_name_H-M   'P 1'
_cell_length_a   11.19156502
_cell_length_b   7.91372004
_cell_length_c   24.14394280
_cell_angle_alpha   90.00000000
_cell_angle_beta   90.00000000
_cell_angle_gamma   44.99053388
_symmetry_Int_Tables_number   1
_chemical_formula_structural   Sr12Ru11O36
_chemical_formula_sum   'Sr24 Ru22 O72'
_cell_volume   1511.79511011
_cell_formula_units_Z   2
loop_
 _symmetry_equiv_pos_site_id
 _symmetry_equiv_pos_as_xyz
  1  'x, y, z'
loop_
 _atom_site_type_symbol
 _atom_site_label
 _atom_site_symmetry_multiplicity
 _atom_site_fract_x
 _atom_site_fract_y
 _atom_site_fract_z
 _atom_site_occupancy
  Sr  Sr0  1  0.98987153  0.03415913  0.08870559  1
  Sr  Sr1  1  0.00138755  0.99995048  0.41659805  1
  Sr  Sr2  1  0.01361034  0.96424128  0.74465750  1
  Sr  Sr3  1  0.97855613  0.51112652  0.08856441  1
  Sr  Sr4  1  0.00075012  0.50062960  0.41651557  1
  Sr  Sr5  1  0.02454568  0.48907220  0.74450422  1
  Sr  Sr6  1  0.51361034  0.96424128  0.08867550  1
  Sr  Sr7  1  0.50138755  0.99995048  0.41673595  1
  Sr  Sr8  1  0.48987153  0.03415913  0.74462741  1
  Sr  Sr9  1  0.47545432  0.51092780  0.58882878  1
  Sr  Sr10  1  0.49924988  0.49937040  0.91681843  1
  Sr  Sr11  1  0.52144387  0.48887348  0.24476859  1
  Sr  Sr12  1  0.50075012  0.50062960  0.41681843  1
  Sr  Sr13  1  0.47855613  0.51112652  0.74476859  1
  Sr  Sr14  1  0.52454568  0.48907220  0.08882878  1
  Sr  Sr15  1  0.51012847  0.96584087  0.24462741  1
  Sr  Sr16  1  0.48638966  0.03575872  0.58867550  1
  Sr  Sr17  1  0.49861245  0.00004952  0.91673595  1
  Sr  Sr18  1  0.02144387  0.48887348  0.58856441  1
  Sr  Sr19  1  0.99924988  0.49937040  0.91651557  1
  Sr  Sr20  1  0.97545432  0.51092780  0.24450422  1
  Sr  Sr21  1  0.98638966  0.03575872  0.24465750  1
  Sr  Sr22  1  0.01012847  0.96584087  0.58870559  1
  Sr  Sr23  1  0.99861245  0.00004952  0.91659805  1
  Ru  Ru24  1  0.25033983  0.99958345  -0.00011892  1
  Ru  Ru25  1  0.25000000  0.50000000  0.16666700  1
  Ru  Ru26  1  0.25005715  0.49992989  0.00406475  1
  Ru  Ru27  1  0.24994285  0.50007011  0.32926825  1
  Ru  Ru28  1  0.25060364  0.49936058  0.83595510  1
  Ru  Ru29  1  0.24939636  0.50063942  0.49737790  1
  Ru  Ru30  1  0.25000000  -0.00000000  0.16666700  1
  Ru  Ru31  1  0.24988763  0.00003478  0.49996548  1
  Ru  Ru32  1  0.25011237  -0.00003478  0.83336752  1
  Ru  Ru33  1  0.75011237  -0.00003478  -0.00003452  1
  Ru  Ru34  1  0.24966017  0.00041655  0.33345192  1
  Ru  Ru35  1  0.25000000  -0.00000000  0.66666700  1
  Ru  Ru36  1  0.74994285  0.50007011  0.50406475  1
  Ru  Ru37  1  0.75005715  0.49992989  0.82926825  1
  Ru  Ru38  1  0.75060364  0.49936058  0.99737790  1
  Ru  Ru39  1  0.74939636  0.50063942  0.33595510  1
  Ru  Ru40  1  0.75000000  0.50000000  0.66666700  1
  Ru  Ru41  1  0.75000000  -0.00000000  0.16666700  1
  Ru  Ru42  1  0.74966017  0.00041655  0.49988108  1
  Ru  Ru43  1  0.75033983  0.99958345  0.83345192  1
  Ru  Ru44  1  0.74988763  0.00003478  0.33336752  1
  Ru  Ru45  1  0.75000000  -0.00000000  0.66666700  1
  O  O46  1  0.01206242  0.26837649  0.16579187  1
  O  O47  1  -0.00005608  0.30657119  0.50077322  1
  O  O48  1  0.00030949  0.30633077  0.83088882  1
  O  O49  1  0.00110711  0.29979109  0.99912794  1
  O  O50  1  -0.00019181  0.30088487  0.33536488  1
  O  O51  1  0.99978354  0.29897492  0.66733341  1
  O  O52  1  0.25444230  0.98965423  0.08278650  1
  O  O53  1  0.25173470  0.99449452  0.41670631  1
  O  O54  1  0.25230387  0.99281312  0.75053228  1
  O  O55  1  0.30694457  0.19272383  0.00265599  1
  O  O56  1  0.30634422  0.19361348  0.33276766  1
  O  O57  1  0.28072404  0.20721945  0.66750938  1
  O  O58  1  0.29841267  0.20169687  0.16564029  1
  O  O59  1  0.30029013  0.19927884  0.49767635  1
  O  O60  1  0.30114468  0.19828168  0.83395543  1
  O  O61  1  0.24731019  0.50484565  0.08600092  1
  O  O62  1  0.24729252  0.50525797  0.41178725  1
  O  O63  1  0.24989803  0.50185872  0.75770657  1
  O  O64  1  0.25268981  0.49515435  0.24733208  1
  O  O65  1  0.25010197  0.49814128  0.57562643  1
  O  O66  1  0.25270748  0.49474203  0.92154675  1
  O  O67  1  0.20158733  0.79830313  0.16769271  1
  O  O68  1  0.19885532  0.80171832  0.49937757  1
  O  O69  1  0.19970987  0.80072116  0.83565765  1
  O  O70  1  0.19305543  0.80727617  0.33067701  1
  O  O71  1  0.21927596  0.79278055  0.66582362  1
  O  O72  1  0.19365578  0.80638652  0.00056634  1
  O  O73  1  0.49978354  0.29897492  0.16599959  1
  O  O74  1  0.50110711  0.29979109  0.83420506  1
  O  O75  1  0.49994392  0.30657119  0.33256078  1
  O  O76  1  0.49980819  0.30088487  0.49796912  1
  O  O77  1  0.50030949  0.30633077  0.00244418  1
  O  O78  1  0.51206242  0.26837649  0.66754113  1
  O  O79  1  0.75444230  0.98965423  0.75054650  1
  O  O80  1  0.75230387  0.99281312  0.08280072  1
  O  O81  1  0.75173470  0.99449452  0.41662769  1
  O  O82  1  0.24555770  0.01034577  0.25054650  1
  O  O83  1  0.24769613  0.00718688  0.58280072  1
  O  O84  1  0.24826530  0.00550548  0.91662769  1
  O  O85  1  0.49889289  0.70020891  0.33420506  1
  O  O86  1  0.50021646  0.70102508  0.66599959  1
  O  O87  1  0.48793758  0.73162351  0.16754113  1
  O  O88  1  0.49969051  0.69366923  0.50244418  1
  O  O89  1  0.50005608  0.69342881  0.83256078  1
  O  O90  1  0.50019181  0.69911513  0.99796912  1
  O  O91  1  0.80114468  0.19828168  0.99937757  1
  O  O92  1  0.80029013  0.19927884  0.33565765  1
  O  O93  1  0.79841267  0.20169687  0.66769271  1
  O  O94  1  0.78072404  0.20721945  0.16582362  1
  O  O95  1  0.80634422  0.19361348  0.50056634  1
  O  O96  1  0.80694457  0.19272383  0.83067701  1
  O  O97  1  0.74989803  0.50185872  0.07562643  1
  O  O98  1  0.74729252  0.50525797  0.42154675  1
  O  O99  1  0.74731019  0.50484565  0.74733208  1
  O  O100  1  0.75268981  0.49515435  0.58600092  1
  O  O101  1  0.75010197  0.49814128  0.25770657  1
  O  O102  1  0.75270748  0.49474203  0.91178725  1
  O  O103  1  0.71927596  0.79278055  0.16750938  1
  O  O104  1  0.69305543  0.80727617  0.50265599  1
  O  O105  1  0.69365578  0.80638652  0.83276766  1
  O  O106  1  0.69885532  0.80171832  0.33395543  1
  O  O107  1  0.70158733  0.79830313  0.66564029  1
  O  O108  1  0.69970987  0.80072116  0.99767635  1
  O  O109  1  0.74769613  0.00718688  0.25053228  1
  O  O110  1  0.74555770  0.01034577  0.58278650  1
  O  O111  1  0.74826530  0.00550548  0.91670631  1
  O  O112  1  0.99969051  0.69366923  0.33088882  1
  O  O113  1  0.98793758  0.73162351  0.66579187  1
  O  O114  1  0.00005608  0.69342881  0.00077322  1
  O  O115  1  0.00021646  0.70102508  0.16733341  1
  O  O116  1  0.99889289  0.70020891  0.49912794  1
  O  O117  1  0.00019181  0.69911513  0.83536488  1
