# generated using pymatgen
data_V2ZnO6
_symmetry_space_group_name_H-M   'P 1'
_cell_length_a   4.92934936
_cell_length_b   5.20730289
_cell_length_c   8.07890705
_cell_angle_alpha   89.90238514
_cell_angle_beta   89.86248892
_cell_angle_gamma   90.52963864
_symmetry_Int_Tables_number   1
_chemical_formula_structural   V2ZnO6
_chemical_formula_sum   'V4 Zn2 O12'
_cell_volume   207.36459004
_cell_formula_units_Z   2
loop_
 _symmetry_equiv_pos_site_id
 _symmetry_equiv_pos_as_xyz
  1  'x, y, z'
loop_
 _atom_site_type_symbol
 _atom_site_label
 _atom_site_symmetry_multiplicity
 _atom_site_fract_x
 _atom_site_fract_y
 _atom_site_fract_z
 _atom_site_occupancy
  V  V0  1  0.52962258  0.99802739  0.98347023  1
  V  V1  1  0.99779598  0.48203141  0.95620182  1
  V  V2  1  0.02652327  0.49494607  0.48197844  1
  V  V3  1  0.49571383  0.01022635  0.45697698  1
  Zn  Zn4  1  0.54464597  0.54024523  0.23188750  1
  Zn  Zn5  1  0.04083167  0.95547347  0.73075263  1
  O  O6  1  0.68226003  0.32448568  0.43404000  1
  O  O7  1  0.18806435  0.21500151  0.56239761  1
  O  O8  1  0.76389909  0.76382789  0.06614128  1
  O  O9  1  0.26968946  0.69862900  0.97330788  1
  O  O10  1  0.26165073  0.74302261  0.56527924  1
  O  O11  1  0.77027895  0.80411808  0.46985783  1
  O  O12  1  0.18149989  0.17847311  0.93101017  1
  O  O13  1  0.68867419  0.28968490  0.06199945  1
  O  O14  1  0.14931563  0.48720666  0.28558833  1
  O  O15  1  0.64728198  0.01203461  0.78604428  1
  O  O16  1  0.39185331  0.96932896  0.26139858  1
  O  O17  1  0.89257811  0.53329707  0.76155974  1
