# generated using pymatgen
data_Li7Mn4CoO12
_symmetry_space_group_name_H-M   'P 1'
_cell_length_a   5.08309138
_cell_length_b   7.77375869
_cell_length_c   5.91287311
_cell_angle_alpha   78.88071167
_cell_angle_beta   73.76643290
_cell_angle_gamma   76.90373883
_symmetry_Int_Tables_number   1
_chemical_formula_structural   Li7Mn4CoO12
_chemical_formula_sum   'Li7 Mn4 Co1 O12'
_cell_volume   216.39004914
_cell_formula_units_Z   1
loop_
 _symmetry_equiv_pos_site_id
 _symmetry_equiv_pos_as_xyz
  1  'x, y, z'
loop_
 _atom_site_type_symbol
 _atom_site_label
 _atom_site_symmetry_multiplicity
 _atom_site_fract_x
 _atom_site_fract_y
 _atom_site_fract_z
 _atom_site_occupancy
  Li  Li0  1  0.49688588  0.15757981  0.33327800  1
  Li  Li1  1  0.00000000  0.33333300  0.16666700  1
  Li  Li2  1  0.00503258  0.99643390  0.49817096  1
  Li  Li3  1  0.50311412  0.50908719  0.00005500  1
  Li  Li4  1  0.99496742  0.67023310  0.83516204  1
  Li  Li5  1  0.50000000  0.83333300  0.66666700  1
  Li  Li6  1  0.50000000  0.83333300  0.16666700  1
  Mn  Mn7  1  -0.00079676  0.99696308  0.00168905  1
  Mn  Mn8  1  0.00079676  0.66970392  0.33164395  1
  Mn  Mn9  1  0.50171510  0.16376195  0.83379168  1
  Mn  Mn10  1  0.49828490  0.50290505  0.49954132  1
  Co  Co11  1  0.00000000  0.33333300  0.66666700  1
  O  O12  1  0.74767729  0.23250860  -0.00707806  1
  O  O13  1  0.27830289  0.40886497  0.81621570  1
  O  O14  1  0.24910507  0.08878779  0.13573405  1
  O  O15  1  0.74314783  0.58246137  0.64735445  1
  O  O16  1  0.24817368  0.72969585  0.49694257  1
  O  O17  1  0.78017917  0.90660576  0.32282698  1
  O  O18  1  0.25685217  0.08420563  0.68597855  1
  O  O19  1  0.72169711  0.25780103  0.51711830  1
  O  O20  1  0.75182632  0.93697115  0.83639043  1
  O  O21  1  0.25232271  0.43415840  0.34041106  1
  O  O22  1  0.75089493  0.57787921  0.19759895  1
  O  O23  1  0.21982083  0.76006024  0.01050702  1
