# generated using pymatgen
data_Na3CaAl3Si3SO16
_symmetry_space_group_name_H-M   'P 1'
_cell_length_a   9.08804243
_cell_length_b   9.08804243
_cell_length_c   9.08804243
_cell_angle_alpha   90.18044124
_cell_angle_beta   90.18044124
_cell_angle_gamma   89.81955876
_symmetry_Int_Tables_number   1
_chemical_formula_structural   Na3CaAl3Si3SO16
_chemical_formula_sum   'Na6 Ca2 Al6 Si6 S2 O32'
_cell_volume   750.59313887
_cell_formula_units_Z   2
loop_
 _symmetry_equiv_pos_site_id
 _symmetry_equiv_pos_as_xyz
  1  'x, y, z'
loop_
 _atom_site_type_symbol
 _atom_site_label
 _atom_site_symmetry_multiplicity
 _atom_site_fract_x
 _atom_site_fract_y
 _atom_site_fract_z
 _atom_site_occupancy
  Na  Na0  1  0.20329595  0.20539941  0.20631521  1
  Na  Na1  1  0.20539941  0.79368479  0.79670405  1
  Na  Na2  1  0.29368479  0.70539941  0.29670405  1
  Na  Na3  1  0.70329595  0.29368479  0.29460059  1
  Na  Na4  1  0.70539941  0.70329595  0.70631521  1
  Na  Na5  1  0.79368479  0.20329595  0.79460059  1
  Ca  Ca6  1  0.32012592  0.32012592  0.67987408  1
  Ca  Ca7  1  0.82012592  0.82012592  0.17987408  1
  Al  Al8  1  0.25143659  0.50144089  0.00256898  1
  Al  Al9  1  0.49743102  0.00144089  0.24856341  1
  Al  Al10  1  0.50144089  0.99743102  0.74856341  1
  Al  Al11  1  0.75143659  0.49743102  0.99855911  1
  Al  Al12  1  0.99743102  0.25143659  0.49855911  1
  Al  Al13  1  0.00144089  0.75143659  0.50256898  1
  Si  Si14  1  0.00223271  0.50003634  0.75036653  1
  Si  Si15  1  0.24963347  0.00223271  0.49996366  1
  Si  Si16  1  0.50223271  0.74963347  -0.00003634  1
  Si  Si17  1  0.50003634  0.24963347  0.99776729  1
  Si  Si18  1  0.74963347  0.00003634  0.49776729  1
  Si  Si19  1  0.00003634  0.50223271  0.25036653  1
  S  S20  1  0.99440840  0.99440840  0.00559160  1
  S  S21  1  0.49440840  0.49440840  0.50559160  1
  O  O22  1  0.05794032  0.35926732  0.64923682  1
  O  O23  1  0.04686981  0.64730528  0.34668189  1
  O  O24  1  0.08758255  0.08758255  0.91241745  1
  O  O25  1  0.08366530  0.89279016  0.10197444  1
  O  O26  1  0.14118659  0.45179178  0.15154007  1
  O  O27  1  0.14730528  0.54686981  0.84668189  1
  O  O28  1  0.15331811  0.14730528  0.45313019  1
  O  O29  1  0.15112892  0.86279567  0.55201596  1
  O  O30  1  0.35076318  0.05794032  0.64073268  1
  O  O31  1  0.34845993  0.95179178  0.35881341  1
  O  O32  1  0.35926732  0.35076318  0.94205968  1
  O  O33  1  0.36279567  0.65112892  0.05201596  1
  O  O34  1  0.39802556  0.39279016  0.41633470  1
  O  O35  1  0.39279016  0.58366530  0.60197444  1
  O  O36  1  0.44798404  0.15112892  0.13720433  1
  O  O37  1  0.45179178  0.84845993  0.85881341  1
  O  O38  1  0.54686981  0.15331811  0.85269472  1
  O  O39  1  0.55794032  0.85076318  0.14073268  1
  O  O40  1  0.58366530  0.39802556  0.60720984  1
  O  O41  1  0.58758255  0.58758255  0.41241745  1
  O  O42  1  0.64118659  0.34845993  0.04820822  1
  O  O43  1  0.64730528  0.65331811  0.95313019  1
  O  O44  1  0.65331811  0.04686981  0.35269472  1
  O  O45  1  0.65112892  0.94798404  0.63720433  1
  O  O46  1  0.84845993  0.14118659  0.54820822  1
  O  O47  1  0.85076318  0.85926732  0.44205968  1
  O  O48  1  0.85926732  0.55794032  0.14923682  1
  O  O49  1  0.86279567  0.44798404  0.84887108  1
  O  O50  1  0.89802556  0.08366530  0.10720984  1
  O  O51  1  0.89279016  0.89802556  0.91633470  1
  O  O52  1  0.94798404  0.36279567  0.34887108  1
  O  O53  1  0.95179178  0.64118659  0.65154007  1
