# generated using pymatgen
data_Sr2NdNb(CuO4)2
_symmetry_space_group_name_H-M   'P 1'
_cell_length_a   5.53993587
_cell_length_b   5.53993581
_cell_length_c   12.47795817
_cell_angle_alpha   102.73269348
_cell_angle_beta   102.73269428
_cell_angle_gamma   89.96656456
_symmetry_Int_Tables_number   1
_chemical_formula_structural   Sr2NdNb(CuO4)2
_chemical_formula_sum   'Sr4 Nd2 Nb2 Cu4 O16'
_cell_volume   363.89257468
_cell_formula_units_Z   2
loop_
 _symmetry_equiv_pos_site_id
 _symmetry_equiv_pos_as_xyz
  1  'x, y, z'
loop_
 _atom_site_type_symbol
 _atom_site_label
 _atom_site_symmetry_multiplicity
 _atom_site_fract_x
 _atom_site_fract_y
 _atom_site_fract_z
 _atom_site_occupancy
  Sr  Sr0  1  0.58886503  0.08886503  0.19856463  1
  Sr  Sr1  1  0.91193919  0.41193919  0.80064412  1
  Sr  Sr2  1  0.08806081  0.58806081  0.19935588  1
  Sr  Sr3  1  0.41113497  0.91113497  0.80143537  1
  Nd  Nd4  1  0.24942497  0.74942497  0.50013514  1
  Nd  Nd5  1  0.75057503  0.25057503  0.49986486  1
  Nb  Nb6  1  -0.00000000  -0.00000000  0.00000000  1
  Nb  Nb7  1  0.50000000  0.50000000  0.00000000  1
  Cu  Cu8  1  0.67183379  0.67143530  0.35336858  1
  Cu  Cu9  1  0.82856470  0.82816621  0.64663142  1
  Cu  Cu10  1  0.17143530  0.17183379  0.35336858  1
  Cu  Cu11  1  0.32816621  0.32856470  0.64663142  1
  O  O12  1  0.18618121  0.31381879  0.00000000  1
  O  O13  1  0.43729394  0.42264918  0.36986808  1
  O  O14  1  0.59233481  0.56837879  0.16616253  1
  O  O15  1  0.57767060  0.07767060  0.63335737  1
  O  O16  1  0.68180187  0.18180187  0.99097384  1
  O  O17  1  0.94165211  0.44165211  0.37271295  1
  O  O18  1  0.93162121  0.90766519  0.83383747  1
  O  O19  1  0.06837879  0.09233481  0.16616253  1
  O  O20  1  0.07735082  0.06270606  0.63013192  1
  O  O21  1  0.31819813  0.81819813  0.00902616  1
  O  O22  1  0.42232940  0.92232940  0.36664263  1
  O  O23  1  0.40766519  0.43162121  0.83383747  1
  O  O24  1  0.56270606  0.57735082  0.63013192  1
  O  O25  1  0.81381879  0.68618121  1.00000000  1
  O  O26  1  0.92264918  0.93729394  0.36986808  1
  O  O27  1  0.05834789  0.55834789  0.62728705  1
