# generated using pymatgen
data_Li8CoNi9O20
_symmetry_space_group_name_H-M   'P 1'
_cell_length_a   21.32615229
_cell_length_b   2.81502889
_cell_length_c   11.59908344
_cell_angle_alpha   90.00000000
_cell_angle_beta   82.63644171
_cell_angle_gamma   90.00000000
_symmetry_Int_Tables_number   1
_chemical_formula_structural   Li8CoNi9O20
_chemical_formula_sum   'Li16 Co2 Ni18 O40'
_cell_volume   690.59352998
_cell_formula_units_Z   2
loop_
 _symmetry_equiv_pos_site_id
 _symmetry_equiv_pos_as_xyz
  1  'x, y, z'
loop_
 _atom_site_type_symbol
 _atom_site_label
 _atom_site_symmetry_multiplicity
 _atom_site_fract_x
 _atom_site_fract_y
 _atom_site_fract_z
 _atom_site_occupancy
  Li  Li0  1  0.09254877  0.50000000  0.34576207  1
  Li  Li1  1  0.10061242  0.50000000  0.85105693  1
  Li  Li2  1  0.19827891  0.00000000  0.45079707  1
  Li  Li3  1  0.29289584  0.50000000  0.03987679  1
  Li  Li4  1  0.30012018  0.50000000  0.54945486  1
  Li  Li5  1  0.40387373  0.00000000  0.14985173  1
  Li  Li6  1  0.40324588  0.00000000  0.64954374  1
  Li  Li7  1  0.51139425  0.50000000  0.25864270  1
  Li  Li8  1  0.50066647  0.50000000  0.75010412  1
  Li  Li9  1  0.59957758  0.00000000  0.85060743  1
  Li  Li10  1  0.69106234  0.50000000  0.44482321  1
  Li  Li11  1  0.69860156  0.50000000  0.94883804  1
  Li  Li12  1  0.79943144  -0.00000000  0.04541031  1
  Li  Li13  1  0.79916774  -0.00000000  0.55360216  1
  Li  Li14  1  0.90650172  0.50000000  0.15591204  1
  Li  Li15  1  0.90844072  0.50000000  0.65620983  1
  Co  Co16  1  0.00059785  0.00000000  0.99996007  1
  Co  Co17  1  0.00019136  0.00000000  0.49928956  1
  Ni  Ni18  1  0.09970659  0.50000000  0.10148085  1
  Ni  Ni19  1  0.09729476  0.50000000  0.60400162  1
  Ni  Ni20  1  0.19900986  -0.00000000  0.20422312  1
  Ni  Ni21  1  0.19990402  0.00000000  0.69739839  1
  Ni  Ni22  1  0.29774173  0.50000000  0.30192748  1
  Ni  Ni23  1  0.29653892  0.50000000  0.80252804  1
  Ni  Ni24  1  0.39896843  -0.00000000  0.40063070  1
  Ni  Ni25  1  0.39955017  -0.00000000  0.89863589  1
  Ni  Ni26  1  0.50031269  0.50000000  0.99895121  1
  Ni  Ni27  1  0.50191414  0.50000000  0.49756400  1
  Ni  Ni28  1  0.60114534  -0.00000000  0.09628465  1
  Ni  Ni29  1  0.59910591  -0.00000000  0.60389996  1
  Ni  Ni30  1  0.69951393  0.50000000  0.20115249  1
  Ni  Ni31  1  0.69949945  0.50000000  0.70114405  1
  Ni  Ni32  1  0.80070677  0.00000000  0.29843947  1
  Ni  Ni33  1  0.80028583  0.00000000  0.80107886  1
  Ni  Ni34  1  0.90320224  0.50000000  0.39592945  1
  Ni  Ni35  1  0.90405426  0.50000000  0.89480855  1
  O  O36  1  0.99995886  0.50000000  0.39064697  1
  O  O37  1  0.00101128  0.50000000  0.89246797  1
  O  O38  1  0.11135059  0.00000000  0.21528076  1
  O  O39  1  0.09089855  -0.00000000  0.48404883  1
  O  O40  1  0.11203227  -0.00000000  0.71594954  1
  O  O41  1  0.08913784  0.00000000  0.98829864  1
  O  O42  1  0.20024046  0.50000000  0.09786597  1
  O  O43  1  0.19801302  0.50000000  0.31524405  1
  O  O44  1  0.20084500  0.50000000  0.58563371  1
  O  O45  1  0.19904178  0.50000000  0.80367098  1
  O  O46  1  0.29085348  -0.00000000  0.19089982  1
  O  O47  1  0.29802681  0.00000000  0.41384755  1
  O  O48  1  0.29151931  0.00000000  0.68860429  1
  O  O49  1  0.30286439  0.00000000  0.91082525  1
  O  O50  1  0.39836213  0.50000000  0.01180807  1
  O  O51  1  0.39680738  0.50000000  0.28776768  1
  O  O52  1  0.39743209  0.50000000  0.51381669  1
  O  O53  1  0.39927441  0.50000000  0.78486074  1
  O  O54  1  0.50002400  0.00000000  0.11084156  1
  O  O55  1  0.49548808  -0.00000000  0.38866834  1
  O  O56  1  0.49996775  0.00000000  0.61108751  1
  O  O57  1  0.49908587  -0.00000000  0.88711906  1
  O  O58  1  0.60315889  0.50000000  0.20449776  1
  O  O59  1  0.59902190  0.50000000  0.49554104  1
  O  O60  1  0.59977998  0.50000000  0.71601929  1
  O  O61  1  0.60050392  0.50000000  0.98395040  1
  O  O62  1  0.70219720  -0.00000000  0.08815030  1
  O  O63  1  0.70978154  0.00000000  0.31091547  1
  O  O64  1  0.69995051  0.00000000  0.58898955  1
  O  O65  1  0.70043429  0.00000000  0.81282508  1
  O  O66  1  0.80154798  0.50000000  0.18866229  1
  O  O67  1  0.79950575  0.50000000  0.40928612  1
  O  O68  1  0.79990684  0.50000000  0.68794608  1
  O  O69  1  0.79993962  0.50000000  0.91439291  1
  O  O70  1  0.90828173  0.00000000  0.00798568  1
  O  O71  1  0.88895269  0.00000000  0.28188487  1
  O  O72  1  0.91001473  0.00000000  0.51651500  1
  O  O73  1  0.89623388  0.00000000  0.78744408  1
  O  O74  1  0.00037621  0.50000000  0.10818735  1
  O  O75  1  0.00095620  0.50000000  0.60785034  1
