# generated using pymatgen
data_Li7Mn4CoO12
_symmetry_space_group_name_H-M   'P 1'
_cell_length_a   5.06954358
_cell_length_b   5.17938041
_cell_length_c   8.62536953
_cell_angle_alpha   90.02146333
_cell_angle_beta   106.46508799
_cell_angle_gamma   98.27409221
_symmetry_Int_Tables_number   1
_chemical_formula_structural   Li7Mn4CoO12
_chemical_formula_sum   'Li7 Mn4 Co1 O12'
_cell_volume   214.72689834
_cell_formula_units_Z   1
loop_
 _symmetry_equiv_pos_site_id
 _symmetry_equiv_pos_as_xyz
  1  'x, y, z'
loop_
 _atom_site_type_symbol
 _atom_site_label
 _atom_site_symmetry_multiplicity
 _atom_site_fract_x
 _atom_site_fract_y
 _atom_site_fract_z
 _atom_site_occupancy
  Li  Li0  1  0.48772636  0.25557488  0.91191450  1
  Li  Li1  1  0.50268970  0.75465241  0.08117667  1
  Li  Li2  1  0.51227364  0.74442512  0.75475250  1
  Li  Li3  1  0.49731030  0.24534759  0.58548933  1
  Li  Li4  1  0.50790074  0.76311049  0.41771439  1
  Li  Li5  1  0.49209926  0.23688951  0.24895261  1
  Li  Li6  1  0.00000000  0.50000000  0.83333300  1
  Mn  Mn7  1  0.99930216  0.00009317  -0.00048719  1
  Mn  Mn8  1  0.00069784  -0.00009317  0.66715419  1
  Mn  Mn9  1  0.99900314  0.49943876  0.16289765  1
  Mn  Mn10  1  0.00099686  0.50056124  0.50376935  1
  Co  Co11  1  0.00000000  0.00000000  0.33333300  1
  O  O12  1  0.22754894  0.89638264  0.87112219  1
  O  O13  1  0.22065418  0.35102065  0.04474831  1
  O  O14  1  0.22184210  0.35199599  0.69627436  1
  O  O15  1  0.23200887  0.89509386  0.53891201  1
  O  O16  1  0.21301875  0.35778549  0.36865682  1
  O  O17  1  0.23154389  0.89327382  0.20509872  1
  O  O18  1  0.77815790  0.64800401  0.97039264  1
  O  O19  1  0.76799113  0.10490614  0.12775399  1
  O  O20  1  0.77245106  0.10361736  0.79554481  1
  O  O21  1  0.77934582  0.64897935  0.62191769  1
  O  O22  1  0.76845611  0.10672618  0.46156828  1
  O  O23  1  0.78698125  0.64221451  0.29801018  1
