# generated using pymatgen
data_Li6V3P8O29
_symmetry_space_group_name_H-M   'P 1'
_cell_length_a   9.81258356
_cell_length_b   9.81267197
_cell_length_c   14.00275642
_cell_angle_alpha   90.10996888
_cell_angle_beta   90.06669999
_cell_angle_gamma   59.66430889
_symmetry_Int_Tables_number   1
_chemical_formula_structural   Li6V3P8O29
_chemical_formula_sum   'Li12 V6 P16 O58'
_cell_volume   1163.68377316
_cell_formula_units_Z   2
loop_
 _symmetry_equiv_pos_site_id
 _symmetry_equiv_pos_as_xyz
  1  'x, y, z'
loop_
 _atom_site_type_symbol
 _atom_site_label
 _atom_site_symmetry_multiplicity
 _atom_site_fract_x
 _atom_site_fract_y
 _atom_site_fract_z
 _atom_site_occupancy
  Li  Li0  1  0.89915497  0.76369507  0.06191157  1
  Li  Li1  1  0.76397407  0.89900874  0.56176323  1
  Li  Li2  1  0.90004010  0.33482943  0.55989869  1
  Li  Li3  1  0.76245551  0.33514716  0.06011413  1
  Li  Li4  1  0.33469659  0.90004175  0.05974828  1
  Li  Li5  1  0.66514072  0.23404314  0.44041076  1
  Li  Li6  1  0.33517287  0.76247667  0.56013582  1
  Li  Li7  1  0.23423887  0.66507704  0.94030963  1
  Li  Li8  1  0.23539680  0.09871109  0.43920242  1
  Li  Li9  1  0.09850667  0.23531392  0.93932179  1
  Li  Li10  1  0.94802158  0.01425065  0.99490772  1
  Li  Li11  1  0.01398702  0.94803859  0.49491802  1
  V  V12  1  0.56496224  0.43489967  0.24951995  1
  V  V13  1  0.43505836  0.56506346  0.74936745  1
  V  V14  1  0.56344985  0.00276332  0.75329412  1
  V  V15  1  0.43851419  0.99879615  0.24758409  1
  V  V16  1  0.00317924  0.56318061  0.25357566  1
  V  V17  1  0.99940319  0.43810870  0.74827145  1
  P  P18  1  0.91446505  0.77414989  0.84405535  1
  P  P19  1  0.77397683  0.91439060  0.34429751  1
  P  P20  1  0.91319967  0.31323024  0.34132695  1
  P  P21  1  0.67129861  0.66275811  0.13058614  1
  P  P22  1  0.66300531  0.67099413  0.63041964  1
  P  P23  1  0.77660122  0.31373939  0.84275420  1
  P  P24  1  0.69014075  0.22414152  0.65874785  1
  P  P25  1  0.31316294  0.91324305  0.84133787  1
  P  P26  1  0.69306621  0.08578225  0.15933094  1
  P  P27  1  0.31367283  0.77666492  0.34270559  1
  P  P28  1  0.22426856  0.68992479  0.15872439  1
  P  P29  1  0.33436657  0.33067937  0.36870871  1
  P  P30  1  0.33092987  0.33422153  0.86859728  1
  P  P31  1  0.08606749  0.69273327  0.65906368  1
  P  P32  1  0.22584550  0.08676531  0.65761851  1
  P  P33  1  0.08683209  0.22568782  0.15750831  1
  O  O34  1  0.99257476  0.80159549  0.57888360  1
  O  O35  1  0.91254780  0.74735637  0.33931508  1
  O  O36  1  0.80121228  0.99230106  0.07884771  1
  O  O37  1  0.74743350  0.91252521  0.83928136  1
  O  O38  1  0.91826136  0.61582294  0.82959494  1
  O  O39  1  0.81513075  0.67242751  0.17268481  1
  O  O40  1  0.90608725  0.47148222  0.32955147  1
  O  O41  1  0.00035205  0.21927238  0.06931298  1
  O  O42  1  0.91940830  0.34065171  0.83774627  1
  O  O43  1  0.67225551  0.81520209  0.67277902  1
  O  O44  1  0.61556020  0.91906762  0.33030519  1
  O  O45  1  0.80772711  0.51514289  0.66975770  1
  O  O46  1  0.67474265  0.65957577  0.02389344  1
  O  O47  1  0.65909227  0.67550636  0.52374160  1
  O  O48  1  0.68053528  0.50847802  0.17140467  1
  O  O49  1  0.47129067  0.90639937  0.82958716  1
  O  O50  1  0.51469735  0.80800441  0.16969266  1
  O  O51  1  0.74513730  0.33460814  0.34041545  1
  O  O52  1  0.79720357  0.20406173  0.75137948  1
  O  O53  1  0.77684594  0.22638795  0.56971839  1
  O  O54  1  0.78920219  0.22550003  0.93306596  1
  O  O55  1  0.61909709  0.46869501  0.83001971  1
  O  O56  1  0.50830602  0.68076143  0.67130773  1
  O  O57  1  0.66061996  0.25798752  0.15787517  1
  O  O58  1  0.46865337  0.61923843  0.32999231  1
  O  O59  1  0.34072315  0.91935588  0.33714502  1
  O  O60  1  0.78898555  0.01384709  0.25767103  1
  O  O61  1  0.77672166  0.99838253  0.43527243  1
  O  O62  1  0.21911009  0.00074702  0.56924984  1
  O  O63  1  0.66741906  0.08086621  0.65862328  1
  O  O64  1  0.53208772  0.38005820  0.67227261  1
  O  O65  1  0.33456838  0.74520541  0.84042885  1
  O  O66  1  0.48812397  0.32267442  0.32920130  1
  O  O67  1  0.38031207  0.53199610  0.17227528  1
  O  O68  1  0.22659774  0.77650982  0.06969205  1
  O  O69  1  0.22537894  0.78962384  0.43308082  1
  O  O70  1  0.20411692  0.79709124  0.25138465  1
  O  O71  1  0.25826841  0.66055036  0.65783655  1
  O  O72  1  0.48030931  0.18874898  0.82153687  1
  O  O73  1  0.53919574  0.08180332  0.16651660  1
  O  O74  1  0.32258083  0.48813086  0.82924836  1
  O  O75  1  0.32893186  0.33184407  0.97483374  1
  O  O76  1  0.33183575  0.32921538  0.47493913  1
  O  O77  1  0.18888768  0.48026888  0.32169048  1
  O  O78  1  0.38045677  0.08631784  0.66804241  1
  O  O79  1  0.32414632  0.18715964  0.32663366  1
  O  O80  1  0.08101450  0.66721126  0.15862551  1
  O  O81  1  0.01404258  0.78888099  0.75763152  1
  O  O82  1  0.99835308  0.77602903  0.93519484  1
  O  O83  1  0.08122352  0.53970566  0.66598529  1
  O  O84  1  0.18701045  0.32375238  0.82704878  1
  O  O85  1  0.08619778  0.38041502  0.16803988  1
  O  O86  1  0.25737635  0.08067614  0.15795459  1
  O  O87  1  0.22487082  0.00072194  0.93048966  1
  O  O88  1  0.20245178  0.00127638  0.74993951  1
  O  O89  1  0.08090749  0.25741220  0.65869719  1
  O  O90  1  0.00065746  0.22524183  0.43047355  1
  O  O91  1  0.00135942  0.20235208  0.24994617  1
