# generated using pymatgen
data_Li7Mn4CoO12
_symmetry_space_group_name_H-M   'P 1'
_cell_length_a   5.19109250
_cell_length_b   6.48619480
_cell_length_c   6.51365754
_cell_angle_alpha   82.95681176
_cell_angle_beta   96.31736716
_cell_angle_gamma   96.16220413
_symmetry_Int_Tables_number   1
_chemical_formula_structural   Li7Mn4CoO12
_chemical_formula_sum   'Li7 Mn4 Co1 O12'
_cell_volume   215.35960561
_cell_formula_units_Z   1
loop_
 _symmetry_equiv_pos_site_id
 _symmetry_equiv_pos_as_xyz
  1  'x, y, z'
loop_
 _atom_site_type_symbol
 _atom_site_label
 _atom_site_symmetry_multiplicity
 _atom_site_fract_x
 _atom_site_fract_y
 _atom_site_fract_z
 _atom_site_occupancy
  Li  Li0  1  0.75712302  0.25492736  0.25137805  1
  Li  Li1  1  0.75658044  0.58174055  0.92420846  1
  Li  Li2  1  0.24287698  0.07840564  0.41528895  1
  Li  Li3  1  0.24761921  0.40818647  0.07105468  1
  Li  Li4  1  0.75238079  0.92514753  0.59561132  1
  Li  Li5  1  0.24341956  0.75159245  0.74245854  1
  Li  Li6  1  0.50000000  0.16666700  0.83333300  1
  Mn  Mn7  1  0.00022893  0.99928207  0.00044670  1
  Mn  Mn8  1  0.99977107  0.33405093  0.66622030  1
  Mn  Mn9  1  0.50010179  0.83714914  0.16269411  1
  Mn  Mn10  1  0.49989821  0.49618386  0.50397289  1
  Co  Co11  1  0.00000000  0.66666700  0.33333300  1
  O  O12  1  0.89575475  0.28120333  0.94606361  1
  O  O13  1  0.89401459  0.61671517  0.61405622  1
  O  O14  1  0.35161531  0.10219350  0.11720139  1
  O  O15  1  0.35078259  0.45175332  0.76867253  1
  O  O16  1  0.89472245  0.94981383  0.28021382  1
  O  O17  1  0.35855400  0.77353828  0.43945944  1
  O  O18  1  0.64838469  0.23113950  0.54946561  1
  O  O19  1  0.64144600  0.55979472  0.22720756  1
  O  O20  1  0.10424525  0.05212967  0.72060339  1
  O  O21  1  0.10527755  0.38352017  0.38645218  1
  O  O22  1  0.64921741  0.88158068  0.89799347  1
  O  O23  1  0.10598541  0.71661783  0.05261078  1
