# generated using pymatgen
data_LiMn3(PO4)3
_symmetry_space_group_name_H-M   'P 1'
_cell_length_a   6.76886558
_cell_length_b   12.11717034
_cell_length_c   10.91052952
_cell_angle_alpha   89.99999727
_cell_angle_beta   95.93833157
_cell_angle_gamma   90.00000386
_symmetry_Int_Tables_number   1
_chemical_formula_structural   LiMn3(PO4)3
_chemical_formula_sum   'Li4 Mn12 P12 O48'
_cell_volume   890.07408398
_cell_formula_units_Z   4
loop_
 _symmetry_equiv_pos_site_id
 _symmetry_equiv_pos_as_xyz
  1  'x, y, z'
loop_
 _atom_site_type_symbol
 _atom_site_label
 _atom_site_symmetry_multiplicity
 _atom_site_fract_x
 _atom_site_fract_y
 _atom_site_fract_z
 _atom_site_occupancy
  Li  Li0  1  0.75113707  0.51037143  0.50071968  1
  Li  Li1  1  0.24886293  0.01037143  0.99928032  1
  Li  Li2  1  0.00070421  0.99979145  0.50089054  1
  Li  Li3  1  0.99929579  0.49979145  0.99910946  1
  Mn  Mn4  1  0.92055421  0.84203304  0.77538392  1
  Mn  Mn5  1  0.92625887  0.66024188  0.27266397  1
  Mn  Mn6  1  0.74194829  0.22400013  0.49941009  1
  Mn  Mn7  1  0.74406133  0.26960680  0.99898497  1
  Mn  Mn8  1  0.57706441  0.66211031  0.72591389  1
  Mn  Mn9  1  0.58132843  0.84026825  0.22354416  1
  Mn  Mn10  1  0.42293559  0.16211031  0.77408611  1
  Mn  Mn11  1  0.41867157  0.34026825  0.27645584  1
  Mn  Mn12  1  0.25593867  0.76960680  0.50101503  1
  Mn  Mn13  1  0.25805171  0.72400013  0.00058991  1
  Mn  Mn14  1  0.07944579  0.34203304  0.72461608  1
  Mn  Mn15  1  0.07374113  0.16024188  0.22733603  1
  P  P16  1  0.89463798  0.10857743  0.76197414  1
  P  P17  1  0.88951218  0.39225918  0.26359694  1
  P  P18  1  0.75000908  0.79023731  0.49816588  1
  P  P19  1  0.75013022  0.70997645  0.99810708  1
  P  P20  1  0.61809971  0.39286741  0.73580407  1
  P  P21  1  0.61319684  0.10803822  0.23739242  1
  P  P22  1  0.38190029  0.89286741  0.76419593  1
  P  P23  1  0.38680316  0.60803822  0.26260758  1
  P  P24  1  0.24986978  0.20997645  0.50189292  1
  P  P25  1  0.24999092  0.29023731  0.00183412  1
  P  P26  1  0.10536202  0.60857743  0.73802586  1
  P  P27  1  0.11048782  0.89225918  0.23640306  1
  O  O28  1  0.95517298  0.99698865  0.82574235  1
  O  O29  1  0.92805496  0.50664287  0.32859069  1
  O  O30  1  0.91337766  0.78428775  0.94960609  1
  O  O31  1  0.91074147  0.71237308  0.45095233  1
  O  O32  1  0.91315504  0.68485273  0.72252081  1
  O  O33  1  0.91520232  0.81874463  0.22038415  1
  O  O34  1  0.86065367  0.86936429  0.59483040  1
  O  O35  1  0.86231070  0.63028013  0.09411143  1
  O  O36  1  0.82841077  0.09468629  0.62511555  1
  O  O37  1  0.82598060  0.40317935  0.12631593  1
  O  O38  1  0.76123150  0.33526488  0.65234959  1
  O  O39  1  0.76185371  0.16614023  0.15851243  1
  O  O40  1  0.73559018  0.16444535  0.83348177  1
  O  O41  1  0.73585410  0.33604924  0.33977515  1
  O  O42  1  0.70823361  0.40099483  0.86849065  1
  O  O43  1  0.70645089  0.09645814  0.36937250  1
  O  O44  1  0.64270017  0.63251593  0.89934922  1
  O  O45  1  0.64521087  0.86721448  0.39876365  1
  O  O46  1  0.58097648  0.82269833  0.77320869  1
  O  O47  1  0.58288038  0.68114280  0.27131275  1
  O  O48  1  0.58625803  0.71644945  0.54880940  1
  O  O49  1  0.58461633  0.78067645  0.04967476  1
  O  O50  1  0.57681340  0.50766904  0.67217773  1
  O  O51  1  0.55043580  0.99597379  0.17564684  1
  O  O52  1  0.42318660  0.00766904  0.82782227  1
  O  O53  1  0.44956420  0.49597379  0.32435316  1
  O  O54  1  0.41374197  0.21644945  0.95119060  1
  O  O55  1  0.41538367  0.28067645  0.45032524  1
  O  O56  1  0.41902352  0.32269833  0.72679131  1
  O  O57  1  0.41711962  0.18114280  0.22868725  1
  O  O58  1  0.35729983  0.13251593  0.60065078  1
  O  O59  1  0.35478913  0.36721448  0.10123635  1
  O  O60  1  0.29176639  0.90099483  0.63150935  1
  O  O61  1  0.29354911  0.59645814  0.13062750  1
  O  O62  1  0.26440982  0.66444535  0.66651823  1
  O  O63  1  0.26414590  0.83604924  0.16022485  1
  O  O64  1  0.23876850  0.83526488  0.84765041  1
  O  O65  1  0.23814629  0.66614023  0.34148757  1
  O  O66  1  0.17158923  0.59468629  0.87488445  1
  O  O67  1  0.17401940  0.90317935  0.37368407  1
  O  O68  1  0.13934633  0.36936429  0.90516960  1
  O  O69  1  0.13768930  0.13028013  0.40588857  1
  O  O70  1  0.08684496  0.18485273  0.77747919  1
  O  O71  1  0.08479768  0.31874463  0.27961585  1
  O  O72  1  0.08662234  0.28428775  0.55039391  1
  O  O73  1  0.08925853  0.21237308  0.04904767  1
  O  O74  1  0.04482702  0.49698865  0.67425765  1
  O  O75  1  0.07194504  0.00664287  0.17140931  1
