# generated using pymatgen
data_LiMnH4(SO5)2
_symmetry_space_group_name_H-M   'P 1'
_cell_length_a   5.63816843
_cell_length_b   7.41115713
_cell_length_c   11.15986214
_cell_angle_alpha   67.93836649
_cell_angle_beta   67.85881625
_cell_angle_gamma   68.06096939
_symmetry_Int_Tables_number   1
_chemical_formula_structural   LiMnH4(SO5)2
_chemical_formula_sum   'Li2 Mn2 H8 S4 O20'
_cell_volume   385.40171616
_cell_formula_units_Z   2
loop_
 _symmetry_equiv_pos_site_id
 _symmetry_equiv_pos_as_xyz
  1  'x, y, z'
loop_
 _atom_site_type_symbol
 _atom_site_label
 _atom_site_symmetry_multiplicity
 _atom_site_fract_x
 _atom_site_fract_y
 _atom_site_fract_z
 _atom_site_occupancy
  Li  Li0  1  0.37289203  0.60887497  0.96517389  1
  Li  Li1  1  0.77493546  0.70308160  0.37920405  1
  Mn  Mn2  1  0.25138865  0.02157706  0.24997708  1
  Mn  Mn3  1  0.74146825  0.99232962  0.75031054  1
  H  H4  1  0.18021859  0.39702377  0.19768907  1
  H  H5  1  0.38890727  0.29630942  0.28627615  1
  H  H6  1  0.21844096  0.65109268  0.38390794  1
  H  H7  1  0.29002222  0.68607845  0.22505765  1
  H  H8  1  0.67470402  0.32523984  0.77693578  1
  H  H9  1  0.81230849  0.34006387  0.61892186  1
  H  H10  1  0.62770500  0.70961673  0.70885498  1
  H  H11  1  0.81307701  0.59667844  0.81123450  1
  S  S12  1  0.22813985  0.25025708  0.92137341  1
  S  S13  1  0.28872588  0.77378332  0.56851328  1
  S  S14  1  0.71008335  0.24852422  0.42738380  1
  S  S15  1  0.74775575  0.76110229  0.07666110  1
  O  O16  1  0.19370380  0.10970330  0.05880673  1
  O  O17  1  0.34027923  0.28442695  0.21155084  1
  O  O18  1  0.97198394  0.37032833  0.89579722  1
  O  O19  1  0.15690839  0.74019040  0.30228541  1
  O  O20  1  0.16308385  0.63877820  0.56243435  1
  O  O21  1  0.12420788  0.87045532  0.68310672  1
  O  O22  1  0.36763173  0.11803091  0.82272726  1
  O  O23  1  0.45387406  0.34918962  0.39581355  1
  O  O24  1  0.33358176  0.93447442  0.43724927  1
  O  O25  1  0.55375370  0.66189555  0.08714816  1
  O  O26  1  0.40048708  0.37846779  0.89743329  1
  O  O27  1  0.68952138  0.08434702  0.55415208  1
  O  O28  1  0.55623380  0.67070529  0.59253052  1
  O  O29  1  0.62893807  0.86476978  0.19193444  1
  O  O30  1  0.88174671  0.14856875  0.31224985  1
  O  O31  1  0.83194805  0.39314459  0.42821938  1
  O  O32  1  0.82151262  0.25417010  0.71053097  1
  O  O33  1  0.00158755  0.61815430  0.09979071  1
  O  O34  1  0.66131650  0.71831698  0.78955126  1
  O  O35  1  0.80247510  0.91305903  0.94622392  1
