# generated using pymatgen
data_LiCoBO3
_symmetry_space_group_name_H-M   'P 1'
_cell_length_a   8.23063134
_cell_length_b   8.23061762
_cell_length_c   3.11159051
_cell_angle_alpha   90.00000000
_cell_angle_beta   90.00000000
_cell_angle_gamma   120.00007385
_symmetry_Int_Tables_number   1
_chemical_formula_structural   LiCoBO3
_chemical_formula_sum   'Li3 Co3 B3 O9'
_cell_volume   182.54852228
_cell_formula_units_Z   3
loop_
 _symmetry_equiv_pos_site_id
 _symmetry_equiv_pos_as_xyz
  1  'x, y, z'
loop_
 _atom_site_type_symbol
 _atom_site_label
 _atom_site_symmetry_multiplicity
 _atom_site_fract_x
 _atom_site_fract_y
 _atom_site_fract_z
 _atom_site_occupancy
  Li  Li0  1  0.37715732  0.36283142  0.00000000  1
  Li  Li1  1  0.63717170  0.01432745  -0.00000000  1
  Li  Li2  1  0.98567335  0.62284674  0.00000000  1
  Co  Co3  1  0.29639391  0.98596986  0.50000000  1
  Co  Co4  1  0.01404089  0.31043244  0.50000000  1
  Co  Co5  1  0.68956676  0.70359808  0.50000000  1
  B  B6  1  0.33333273  0.66666865  0.50000000  1
  B  B7  1  0.99999404  0.99999486  0.00000000  1
  B  B8  1  0.66667402  0.33333588  0.50000000  1
  O  O9  1  0.10926327  0.91421247  0.00000000  1
  O  O10  1  0.13974870  0.58408315  0.50000000  1
  O  O11  1  0.08578187  0.19504731  -0.00000000  1
  O  O12  1  0.44432924  0.86025310  0.50000000  1
  O  O13  1  0.41591355  0.55567024  0.50000000  1
  O  O14  1  0.47262048  0.25311570  0.50000000  1
  O  O15  1  0.80494401  0.89072773  0.00000000  1
  O  O16  1  0.78050129  0.52738279  0.50000000  1
  O  O17  1  0.74689185  0.21950214  0.50000000  1
