# generated using pymatgen
data_Na3V3O8
_symmetry_space_group_name_H-M   'P 1'
_cell_length_a   5.63308864
_cell_length_b   5.63315404
_cell_length_c   7.01644454
_cell_angle_alpha   90.00027599
_cell_angle_beta   90.00151681
_cell_angle_gamma   119.99917020
_symmetry_Int_Tables_number   1
_chemical_formula_structural   Na3V3O8
_chemical_formula_sum   'Na3 V3 O8'
_cell_volume   192.81888727
_cell_formula_units_Z   1
loop_
 _symmetry_equiv_pos_site_id
 _symmetry_equiv_pos_as_xyz
  1  'x, y, z'
loop_
 _atom_site_type_symbol
 _atom_site_label
 _atom_site_symmetry_multiplicity
 _atom_site_fract_x
 _atom_site_fract_y
 _atom_site_fract_z
 _atom_site_occupancy
  Na  Na0  1  0.33331985  0.66669261  0.31934819  1
  Na  Na1  1  0.00004877  0.00000126  0.99999899  1
  Na  Na2  1  0.66662274  0.33330576  0.68065810  1
  V  V3  1  0.33331555  0.66667350  0.76465838  1
  V  V4  1  0.99998947  -0.00000199  0.49999473  1
  V  V5  1  0.66664135  0.33332590  0.23533322  1
  O  O6  1  0.16524383  0.83474463  0.67350084  1
  O  O7  1  0.33326258  0.66669353  0.00373384  1
  O  O8  1  0.16524106  0.33051280  0.67353687  1
  O  O9  1  0.33049930  0.16525378  0.32648544  1
  O  O10  1  0.66948049  0.83475296  0.67354842  1
  O  O11  1  0.66656309  0.33330649  0.99629150  1
  O  O12  1  0.83473502  0.66949308  0.32645630  1
  O  O13  1  0.83473591  0.16524468  0.32645516  1
