# generated using pymatgen
data_Na3Li3Fe2P2(CO7)2
_symmetry_space_group_name_H-M   'P 1'
_cell_length_a   8.73692155
_cell_length_b   6.64251653
_cell_length_c   10.24225561
_cell_angle_alpha   90.40621817
_cell_angle_beta   87.53430845
_cell_angle_gamma   88.69653591
_symmetry_Int_Tables_number   1
_chemical_formula_structural   Na3Li3Fe2P2(CO7)2
_chemical_formula_sum   'Na6 Li6 Fe4 P4 C4 O28'
_cell_volume   593.68742878
_cell_formula_units_Z   2
loop_
 _symmetry_equiv_pos_site_id
 _symmetry_equiv_pos_as_xyz
  1  'x, y, z'
loop_
 _atom_site_type_symbol
 _atom_site_label
 _atom_site_symmetry_multiplicity
 _atom_site_fract_x
 _atom_site_fract_y
 _atom_site_fract_z
 _atom_site_occupancy
  Na  Na0  1  0.08400637  0.24503406  0.38071911  1
  Na  Na1  1  0.25739728  0.50073992  0.63044373  1
  Na  Na2  1  0.26010324  0.99870892  0.12377979  1
  Na  Na3  1  0.26229546  0.49945945  0.12282422  1
  Na  Na4  1  0.74165756  0.50142863  0.87418322  1
  Na  Na5  1  0.74179386  0.50285701  0.37323584  1
  Li  Li6  1  0.08140396  0.22678363  0.87458999  1
  Li  Li7  1  0.28074972  0.02702658  0.61728954  1
  Li  Li8  1  0.72866143  0.98386012  0.87989644  1
  Li  Li9  1  0.72420481  0.97975530  0.38009315  1
  Li  Li10  1  0.91062162  0.77776955  0.62773763  1
  Li  Li11  1  0.90526065  0.76650406  0.12394164  1
  Fe  Fe12  1  0.34902706  0.75382467  0.88646402  1
  Fe  Fe13  1  0.35108313  0.75289792  0.39369060  1
  Fe  Fe14  1  0.65454877  0.24357766  0.60962410  1
  Fe  Fe15  1  0.65506268  0.24254120  0.10570421  1
  P  P16  1  0.40812916  0.24160043  0.84989420  1
  P  P17  1  0.41949692  0.24478191  0.35562050  1
  P  P18  1  0.59050078  0.75763948  0.64750541  1
  P  P19  1  0.59493748  0.75128100  0.14315179  1
  C  C20  1  0.04228354  0.76177478  0.86218242  1
  C  C21  1  0.04381747  0.76066997  0.36280053  1
  C  C22  1  0.95016344  0.23597628  0.64595586  1
  C  C23  1  0.94957646  0.24657116  0.13440329  1
  O  O24  1  0.09718395  0.22480987  0.66008737  1
  O  O25  1  0.09371836  0.25722934  0.15416633  1
  O  O26  1  0.08036009  0.75575172  0.98388575  1
  O  O27  1  0.08100458  0.75099000  0.48424373  1
  O  O28  1  0.14922459  0.75505927  0.76918815  1
  O  O29  1  0.15243814  0.75485453  0.27058797  1
  O  O30  1  0.30178611  0.06764578  0.89590116  1
  O  O31  1  0.31688142  0.43916389  0.88788867  1
  O  O32  1  0.31715981  0.06682853  0.40355627  1
  O  O33  1  0.32890549  0.44045082  0.40020396  1
  O  O34  1  0.43104804  0.22849977  0.69746962  1
  O  O35  1  0.42968877  0.77022540  0.58872149  1
  O  O36  1  0.43736907  0.24136567  0.20368949  1
  O  O37  1  0.43832203  0.74578858  0.07888821  1
  O  O38  1  0.56667080  0.23126315  0.91197415  1
  O  O39  1  0.57104944  0.77772733  0.79937916  1
  O  O40  1  0.57975389  0.23109003  0.41374774  1
  O  O41  1  0.57025278  0.77414699  0.29481223  1
  O  O42  1  0.67850794  0.55766302  0.61108420  1
  O  O43  1  0.69712897  0.92727938  0.59405679  1
  O  O44  1  0.69357041  0.55730848  0.11141790  1
  O  O45  1  0.69556926  0.92683195  0.08980602  1
  O  O46  1  0.85702048  0.23373286  0.74825223  1
  O  O47  1  0.85125583  0.23655854  0.23368991  1
  O  O48  1  0.89315657  0.24959447  0.53119659  1
  O  O49  1  0.90094709  0.24484209  0.01596473  1
  O  O50  1  0.90063688  0.77449184  0.83043117  1
  O  O51  1  0.90260834  0.77574500  0.32997775  1
