# generated using pymatgen
data_Sr2AlCu2AgO7
_symmetry_space_group_name_H-M   'P 1'
_cell_length_a   5.25024991
_cell_length_b   5.24859542
_cell_length_c   12.51115134
_cell_angle_alpha   101.88159856
_cell_angle_beta   101.87137018
_cell_angle_gamma   90.08675688
_symmetry_Int_Tables_number   1
_chemical_formula_structural   Sr2AlCu2AgO7
_chemical_formula_sum   'Sr4 Al2 Cu4 Ag2 O14'
_cell_volume   329.81383824
_cell_formula_units_Z   2
loop_
 _symmetry_equiv_pos_site_id
 _symmetry_equiv_pos_as_xyz
  1  'x, y, z'
loop_
 _atom_site_type_symbol
 _atom_site_label
 _atom_site_symmetry_multiplicity
 _atom_site_fract_x
 _atom_site_fract_y
 _atom_site_fract_z
 _atom_site_occupancy
  Sr  Sr0  1  0.31871883  0.35001705  0.70023823  1
  Sr  Sr1  1  0.62085484  0.64946700  0.29902002  1
  Sr  Sr2  1  0.81974006  0.84805370  0.70028927  1
  Sr  Sr3  1  0.12217144  0.15337279  0.29881110  1
  Al  Al4  1  0.00016431  0.00804738  0.99873599  1
  Al  Al5  1  0.48487195  0.49257544  -0.00072502  1
  Cu  Cu6  1  0.91614900  0.43833796  0.87960591  1
  Cu  Cu7  1  0.04478125  0.56619967  0.11965169  1
  Cu  Cu8  1  0.41982889  0.93284746  0.87843841  1
  Cu  Cu9  1  0.54967989  0.06268302  0.12054057  1
  Ag  Ag10  1  0.22287868  0.76248818  0.50006290  1
  Ag  Ag11  1  0.72290226  0.23877781  0.49944863  1
  O  O12  1  0.21119487  0.24026825  0.49970038  1
  O  O13  1  0.70817217  0.75836230  0.49970920  1
  O  O14  1  0.24337516  0.26065718  0.90130078  1
  O  O15  1  0.35671908  0.73486458  0.10029594  1
  O  O16  1  0.74723984  0.12774798  0.89956908  1
  O  O17  1  0.86170971  0.87800357  0.10085315  1
  O  O18  1  0.59686574  0.61415584  0.89030670  1
  O  O19  1  0.71771405  0.38366405  0.10962829  1
  O  O20  1  0.09992980  0.76469965  0.89008973  1
  O  O21  1  0.22044635  0.23834854  0.11029135  1
  O  O22  1  0.30776829  0.84256980  0.67614765  1
  O  O23  1  0.63519852  0.15821183  0.32351755  1
  O  O24  1  0.80775350  0.33135384  0.67513315  1
  O  O25  1  0.13409448  0.66954015  0.32426534  1
