# generated using pymatgen
data_Li6V3P8O29
_symmetry_space_group_name_H-M   'P 1'
_cell_length_a   9.83727221
_cell_length_b   9.83692427
_cell_length_c   14.09450144
_cell_angle_alpha   89.99822451
_cell_angle_beta   89.99893591
_cell_angle_gamma   60.00020100
_symmetry_Int_Tables_number   1
_chemical_formula_structural   Li6V3P8O29
_chemical_formula_sum   'Li12 V6 P16 O58'
_cell_volume   1181.17772051
_cell_formula_units_Z   2
loop_
 _symmetry_equiv_pos_site_id
 _symmetry_equiv_pos_as_xyz
  1  'x, y, z'
loop_
 _atom_site_type_symbol
 _atom_site_label
 _atom_site_symmetry_multiplicity
 _atom_site_fract_x
 _atom_site_fract_y
 _atom_site_fract_z
 _atom_site_occupancy
  Li  Li0  1  0.91303006  0.76638852  0.06206494  1
  Li  Li1  1  0.76645578  0.91302652  0.56204159  1
  Li  Li2  1  0.91304104  0.32058835  0.56205078  1
  Li  Li3  1  0.66656909  0.66668333  0.38785475  1
  Li  Li4  1  0.66668607  0.66672401  0.88785443  1
  Li  Li5  1  0.76639234  0.32058338  0.06204933  1
  Li  Li6  1  0.32054353  0.91303159  0.06204799  1
  Li  Li7  1  0.32057773  0.76639036  0.56205984  1
  Li  Li8  1  0.33334636  0.33321885  0.60626697  1
  Li  Li9  1  0.33347352  0.33323536  0.10624621  1
  Li  Li10  1  0.99997947  0.99993156  0.99240137  1
  Li  Li11  1  0.00011623  0.99995301  0.49240554  1
  V  V12  1  0.56130057  0.43765899  0.25070667  1
  V  V13  1  0.43766919  0.56128363  0.75071261  1
  V  V14  1  0.56131348  0.00104538  0.75066086  1
  V  V15  1  0.43766068  0.00106142  0.25069376  1
  V  V16  1  0.00105030  0.56126769  0.25071409  1
  V  V17  1  0.00101487  0.43765260  0.75070080  1
  P  P18  1  0.90893455  0.77522483  0.84429860  1
  P  P19  1  0.77521188  0.90896492  0.34430324  1
  P  P20  1  0.90893197  0.31581259  0.34428811  1
  P  P21  1  0.66665413  0.66668947  0.12687522  1
  P  P22  1  0.66665413  0.66669041  0.62687790  1
  P  P23  1  0.77522326  0.31581760  0.84430177  1
  P  P24  1  0.69103961  0.22180797  0.66052595  1
  P  P25  1  0.31583182  0.90897457  0.84431319  1
  P  P26  1  0.69102105  0.08720429  0.16050920  1
  P  P27  1  0.31579620  0.77521675  0.34430917  1
  P  P28  1  0.22179876  0.69096750  0.16052612  1
  P  P29  1  0.33333867  0.33333326  0.36878925  1
  P  P30  1  0.33332192  0.33330563  0.86874904  1
  P  P31  1  0.08722736  0.69096536  0.66054248  1
  P  P32  1  0.22178194  0.08722123  0.66053190  1
  P  P33  1  0.08716373  0.22178910  0.16052252  1
  O  O34  1  0.98892183  0.79604518  0.58166481  1
  O  O35  1  0.91652809  0.74414464  0.33106033  1
  O  O36  1  0.79608041  0.98890959  0.08163516  1
  O  O37  1  0.74416615  0.91658907  0.83105255  1
  O  O38  1  0.89277219  0.62563460  0.82986416  1
  O  O39  1  0.81835204  0.66190248  0.16580678  1
  O  O40  1  0.89275382  0.48156942  0.32980309  1
  O  O41  1  0.98886306  0.21502448  0.08165901  1
  O  O42  1  0.91656780  0.33926431  0.83109900  1
  O  O43  1  0.66182870  0.81837878  0.66589833  1
  O  O44  1  0.62557735  0.89287441  0.32990174  1
  O  O45  1  0.81832237  0.51982528  0.66589388  1
  O  O46  1  0.66651075  0.66664879  0.02009117  1
  O  O47  1  0.66674957  0.66673380  0.52009322  1
  O  O48  1  0.66185343  0.51982691  0.16593050  1
  O  O49  1  0.48154963  0.89287923  0.82989230  1
  O  O50  1  0.51980096  0.81839715  0.16588187  1
  O  O51  1  0.74415349  0.33923018  0.33109791  1
  O  O52  1  0.77806691  0.20508010  0.76019030  1
  O  O53  1  0.79612595  0.21503745  0.58166103  1
  O  O54  1  0.77922844  0.23710172  0.93597342  1
  O  O55  1  0.62563904  0.48156712  0.82984695  1
  O  O56  1  0.51977370  0.66188565  0.66583713  1
  O  O57  1  0.66120953  0.25700131  0.15802118  1
  O  O58  1  0.48153935  0.62559699  0.32989692  1
  O  O59  1  0.33926841  0.91654940  0.33105512  1
  O  O60  1  0.77803281  0.01683780  0.26016603  1
  O  O61  1  0.77932708  0.98362564  0.43595143  1
  O  O62  1  0.21503015  0.98890675  0.58165773  1
  O  O63  1  0.66115406  0.08187596  0.65798531  1
  O  O64  1  0.52751421  0.37407899  0.66652132  1
  O  O65  1  0.33931075  0.74416258  0.83106369  1
  O  O66  1  0.47330535  0.34553083  0.32503277  1
  O  O67  1  0.37403639  0.52740640  0.16652484  1
  O  O68  1  0.21504710  0.79603499  0.08165780  1
  O  O69  1  0.23704000  0.77930754  0.43596190  1
  O  O70  1  0.20512159  0.77800080  0.26018090  1
  O  O71  1  0.25701496  0.66113552  0.65803352  1
  O  O72  1  0.47329128  0.18117917  0.82496848  1
  O  O73  1  0.52746182  0.09853101  0.16649787  1
  O  O74  1  0.34552597  0.47331157  0.82504335  1
  O  O75  1  0.33335964  0.33325974  0.97415792  1
  O  O76  1  0.33338947  0.33325518  0.47417026  1
  O  O77  1  0.18113063  0.47333643  0.32508015  1
  O  O78  1  0.37399744  0.09857080  0.66650482  1
  O  O79  1  0.34551328  0.18119390  0.32498782  1
  O  O80  1  0.08181468  0.66116898  0.15803256  1
  O  O81  1  0.01686477  0.77800695  0.76019111  1
  O  O82  1  0.98360286  0.77928667  0.93596906  1
  O  O83  1  0.09850173  0.52742729  0.66653104  1
  O  O84  1  0.18113614  0.34551465  0.82503694  1
  O  O85  1  0.09841074  0.37407714  0.16652937  1
  O  O86  1  0.25698532  0.08187610  0.15800530  1
  O  O87  1  0.23704488  0.98362340  0.93596457  1
  O  O88  1  0.20512241  0.01686663  0.76018887  1
  O  O89  1  0.08178187  0.25700245  0.65803066  1
  O  O90  1  0.98364339  0.23713854  0.43596288  1
  O  O91  1  0.01682993  0.20506750  0.26018065  1
