# generated using pymatgen
data_Li6V3P8O29
_symmetry_space_group_name_H-M   'P 1'
_cell_length_a   9.75061701
_cell_length_b   9.80416279
_cell_length_c   13.99402147
_cell_angle_alpha   90.73808068
_cell_angle_beta   90.52536662
_cell_angle_gamma   60.50973797
_symmetry_Int_Tables_number   1
_chemical_formula_structural   Li6V3P8O29
_chemical_formula_sum   'Li12 V6 P16 O58'
_cell_volume   1164.35482956
_cell_formula_units_Z   2
loop_
 _symmetry_equiv_pos_site_id
 _symmetry_equiv_pos_as_xyz
  1  'x, y, z'
loop_
 _atom_site_type_symbol
 _atom_site_label
 _atom_site_symmetry_multiplicity
 _atom_site_fract_x
 _atom_site_fract_y
 _atom_site_fract_z
 _atom_site_occupancy
  Li  Li0  1  0.76875422  0.89971759  0.55383631  1
  Li  Li1  1  0.89840787  0.33895623  0.56060410  1
  Li  Li2  1  0.76199447  0.33683929  0.06468514  1
  Li  Li3  1  0.33707923  0.89868174  0.06437880  1
  Li  Li4  1  0.33173995  0.77009047  0.55463984  1
  Li  Li5  1  0.67855502  0.08845399  0.94053077  1
  Li  Li6  1  0.23645418  0.67535950  0.94001347  1
  Li  Li7  1  0.33621271  0.32093463  0.60846924  1
  Li  Li8  1  0.32517042  0.33110067  0.11168716  1
  Li  Li9  1  0.09025642  0.67712943  0.43079715  1
  Li  Li10  1  0.99646548  -0.00130683  0.01306188  1
  Li  Li11  1  0.97611551  0.04698230  0.48828808  1
  V  V12  1  0.56291430  0.43676806  0.25458495  1
  V  V13  1  0.43748077  0.56509947  0.74778262  1
  V  V14  1  0.56651675  0.99588173  0.75178127  1
  V  V15  1  0.43590888  0.00289979  0.25432963  1
  V  V16  1  0.99371242  0.56250070  0.24404670  1
  V  V17  1  0.00174055  0.43432009  0.75511388  1
  P  P18  1  0.92084710  0.77759017  0.84045509  1
  P  P19  1  0.77970045  0.91354984  0.34062400  1
  P  P20  1  0.91486435  0.31293204  0.34660990  1
  P  P21  1  0.65921906  0.66889432  0.12956838  1
  P  P22  1  0.67027609  0.66514425  0.62968899  1
  P  P23  1  0.76996246  0.31540257  0.84483023  1
  P  P24  1  0.69016849  0.21900291  0.65971542  1
  P  P25  1  0.31111374  0.91584929  0.84696199  1
  P  P26  1  0.68818931  0.09135524  0.15647294  1
  P  P27  1  0.31354088  0.77636577  0.34123914  1
  P  P28  1  0.22422900  0.68070671  0.15777063  1
  P  P29  1  0.32961788  0.33908514  0.36894845  1
  P  P30  1  0.33649346  0.33465584  0.86962621  1
  P  P31  1  0.09025659  0.67866395  0.65360154  1
  P  P32  1  0.21754097  0.08721303  0.66203935  1
  P  P33  1  0.08653528  0.21330415  0.16144396  1
  O  O34  1  0.00348123  0.75522051  0.56283894  1
  O  O35  1  0.92074622  0.74573371  0.33296664  1
  O  O36  1  0.77519418  0.01027541  0.06653370  1
  O  O37  1  0.74990809  0.91783904  0.83900289  1
  O  O38  1  0.92400785  0.61939302  0.83549252  1
  O  O39  1  0.81011284  0.66462048  0.17330044  1
  O  O40  1  0.92219093  0.46508080  0.33255471  1
  O  O41  1  0.98714679  0.20453115  0.08153379  1
  O  O42  1  0.90966544  0.34284051  0.83752012  1
  O  O43  1  0.67706940  0.81057936  0.67222767  1
  O  O44  1  0.62223278  0.91304637  0.33189152  1
  O  O45  1  0.81587443  0.51505282  0.67285595  1
  O  O46  1  0.65103789  0.67096692  0.02328526  1
  O  O47  1  0.67325694  0.66330943  0.52320400  1
  O  O48  1  0.66006064  0.51924991  0.16951785  1
  O  O49  1  0.46890820  0.91606827  0.82896633  1
  O  O50  1  0.51398019  0.81883315  0.17333796  1
  O  O51  1  0.74664158  0.34381447  0.33500886  1
  O  O52  1  0.78320566  0.19903277  0.75890618  1
  O  O53  1  0.79470978  0.21150913  0.58001799  1
  O  O54  1  0.76572487  0.23726615  0.93606283  1
  O  O55  1  0.61434305  0.47101631  0.82714209  1
  O  O56  1  0.51535571  0.67154375  0.66803248  1
  O  O57  1  0.66353319  0.25909822  0.16020055  1
  O  O58  1  0.47180108  0.62414939  0.33021438  1
  O  O59  1  0.33608201  0.91897897  0.33824063  1
  O  O60  1  0.79389222  0.00385709  0.24867212  1
  O  O61  1  0.79520200  0.98881447  0.43164296  1
  O  O62  1  0.20933662  0.98936861  0.58178452  1
  O  O63  1  0.65991575  0.07702190  0.65730857  1
  O  O64  1  0.52623043  0.36918707  0.66754229  1
  O  O65  1  0.33598632  0.74805999  0.83470422  1
  O  O66  1  0.47959063  0.33675522  0.32740642  1
  O  O67  1  0.37596648  0.51984449  0.16773718  1
  O  O68  1  0.22709788  0.77062023  0.07074176  1
  O  O69  1  0.22545041  0.77522992  0.42989622  1
  O  O70  1  0.20437476  0.78867102  0.24982878  1
  O  O71  1  0.25861640  0.65860091  0.65509987  1
  O  O72  1  0.49083629  0.18783329  0.83254434  1
  O  O73  1  0.52441972  0.10195495  0.16736281  1
  O  O74  1  0.32817911  0.48817694  0.82973578  1
  O  O75  1  0.33586147  0.34000065  0.97682648  1
  O  O76  1  0.32813024  0.34046937  0.47588862  1
  O  O77  1  0.18469625  0.48811340  0.32821270  1
  O  O78  1  0.37178718  0.09777734  0.67011464  1
  O  O79  1  0.33176210  0.19070985  0.32378007  1
  O  O80  1  0.08488509  0.65049484  0.15575739  1
  O  O81  1  0.99571240  0.79377730  0.74016033  1
  O  O82  1  0.01273214  0.79803171  0.92030184  1
  O  O83  1  0.10815967  0.51478124  0.67006999  1
  O  O84  1  0.19285459  0.32768605  0.82443494  1
  O  O85  1  0.09813329  0.36676415  0.16669516  1
  O  O86  1  0.25659402  0.07555121  0.15753026  1
  O  O87  1  0.23728571  0.98395783  0.94128418  1
  O  O88  1  0.19698974  0.01707490  0.76198824  1
  O  O89  1  0.07815842  0.25669506  0.65960478  1
  O  O90  1  0.98596654  0.23236093  0.43935810  1
  O  O91  1  0.01650090  0.19538997  0.26101293  1
