# generated using pymatgen
data_Li6V3P8O29
_symmetry_space_group_name_H-M   'P 1'
_cell_length_a   9.83625537
_cell_length_b   9.84661383
_cell_length_c   14.02219939
_cell_angle_alpha   89.80495430
_cell_angle_beta   89.98499143
_cell_angle_gamma   59.46649808
_symmetry_Int_Tables_number   1
_chemical_formula_structural   Li6V3P8O29
_chemical_formula_sum   'Li12 V6 P16 O58'
_cell_volume   1169.76978410
_cell_formula_units_Z   2
loop_
 _symmetry_equiv_pos_site_id
 _symmetry_equiv_pos_as_xyz
  1  'x, y, z'
loop_
 _atom_site_type_symbol
 _atom_site_label
 _atom_site_symmetry_multiplicity
 _atom_site_fract_x
 _atom_site_fract_y
 _atom_site_fract_z
 _atom_site_occupancy
  Li  Li0  1  0.90044881  0.76501497  0.05792889  1
  Li  Li1  1  0.76315017  0.89878555  0.56475664  1
  Li  Li2  1  0.90093670  0.33501275  0.56217176  1
  Li  Li3  1  0.76575775  0.32849101  0.05514104  1
  Li  Li4  1  0.33153654  0.89939024  0.05387672  1
  Li  Li5  1  0.66816225  0.23503282  0.44346433  1
  Li  Li6  1  0.33936399  0.75795536  0.56509889  1
  Li  Li7  1  0.33161839  0.34138592  0.10654877  1
  Li  Li8  1  0.23715681  0.09362169  0.44190703  1
  Li  Li9  1  0.09262839  0.23173537  0.93443423  1
  Li  Li10  1  0.98082579  0.97842684  0.98506409  1
  Li  Li11  1  0.01596476  0.94992580  0.50210342  1
  V  V12  1  0.56284856  0.43849128  0.25074783  1
  V  V13  1  0.43247438  0.56666238  0.75457621  1
  V  V14  1  0.56540545  0.00240396  0.75051800  1
  V  V15  1  0.44098618  0.99686440  0.24792168  1
  V  V16  1  0.00209784  0.56501888  0.25375031  1
  V  V17  1  0.99951292  0.44162964  0.74867297  1
  P  P18  1  0.91276403  0.77523449  0.84345643  1
  P  P19  1  0.77370373  0.91601168  0.34497700  1
  P  P20  1  0.91453658  0.31387503  0.34182906  1
  P  P21  1  0.67126207  0.66261509  0.12959734  1
  P  P22  1  0.66521336  0.66733629  0.63011417  1
  P  P23  1  0.77936396  0.30933189  0.84376908  1
  P  P24  1  0.68680880  0.22825117  0.66026981  1
  P  P25  1  0.31474487  0.91224120  0.84048925  1
  P  P26  1  0.69069617  0.08995346  0.16010876  1
  P  P27  1  0.31040910  0.77555005  0.34571025  1
  P  P28  1  0.21750303  0.69594070  0.16022135  1
  P  P29  1  0.33549721  0.32823617  0.36897809  1
  P  P30  1  0.33072784  0.33478853  0.86796725  1
  P  P31  1  0.08528221  0.69578644  0.66094490  1
  P  P32  1  0.22604455  0.08664229  0.65716098  1
  P  P33  1  0.09102765  0.22637725  0.15693833  1
  O  O34  1  0.98978865  0.80347477  0.58050456  1
  O  O35  1  0.91290400  0.74901221  0.33778122  1
  O  O36  1  0.79170877  0.99258760  0.07935097  1
  O  O37  1  0.74219639  0.91469464  0.82912159  1
  O  O38  1  0.91352941  0.61977439  0.83277768  1
  O  O39  1  0.81823064  0.66423642  0.17248541  1
  O  O40  1  0.90684949  0.47233031  0.32955514  1
  O  O41  1  0.99933169  0.23279949  0.06913078  1
  O  O42  1  0.92187119  0.33422519  0.83719116  1
  O  O43  1  0.67530225  0.81290647  0.66496743  1
  O  O44  1  0.61688167  0.91785871  0.33092949  1
  O  O45  1  0.81398526  0.51370491  0.67422408  1
  O  O46  1  0.67249097  0.66523115  0.02358291  1
  O  O47  1  0.67127802  0.65427406  0.52375692  1
  O  O48  1  0.67202928  0.51306371  0.16994903  1
  O  O49  1  0.46893574  0.91132004  0.83002674  1
  O  O50  1  0.51903387  0.81318767  0.17049906  1
  O  O51  1  0.74849219  0.33222151  0.33955992  1
  O  O52  1  0.79624706  0.20118150  0.75159085  1
  O  O53  1  0.77394148  0.22847334  0.57080418  1
  O  O54  1  0.79415085  0.21794654  0.93335911  1
  O  O55  1  0.62317181  0.46475636  0.83172033  1
  O  O56  1  0.51253109  0.67674676  0.67105230  1
  O  O57  1  0.66007890  0.26135264  0.15729634  1
  O  O58  1  0.46680430  0.61601400  0.32938421  1
  O  O59  1  0.33938700  0.91485008  0.33668945  1
  O  O60  1  0.78563951  0.01771294  0.25825526  1
  O  O61  1  0.77529661  0.99851836  0.43575195  1
  O  O62  1  0.22678451  0.99701909  0.56908754  1
  O  O63  1  0.65909577  0.08747842  0.65758714  1
  O  O64  1  0.53108832  0.38588907  0.67364306  1
  O  O65  1  0.34214683  0.74349471  0.83647914  1
  O  O66  1  0.48769929  0.32429151  0.32924730  1
  O  O67  1  0.37005199  0.52979021  0.17054470  1
  O  O68  1  0.21519926  0.79615668  0.07933758  1
  O  O69  1  0.23129050  0.78340226  0.43845311  1
  O  O70  1  0.19762918  0.78948008  0.25912416  1
  O  O71  1  0.25583702  0.66506124  0.65950917  1
  O  O72  1  0.47754924  0.19181251  0.82418411  1
  O  O73  1  0.52604979  0.10363221  0.16886725  1
  O  O74  1  0.32176139  0.48557116  0.82753167  1
  O  O75  1  0.32221000  0.32980356  0.97487374  1
  O  O76  1  0.33509302  0.32313452  0.47467597  1
  O  O77  1  0.18933009  0.47675187  0.32223087  1
  O  O78  1  0.38259822  0.08395007  0.67083141  1
  O  O79  1  0.32927762  0.18269422  0.32584316  1
  O  O80  1  0.07619568  0.66912574  0.15780126  1
  O  O81  1  0.01225595  0.79241596  0.75887325  1
  O  O82  1  0.97956494  0.79101610  0.93598949  1
  O  O83  1  0.08232410  0.54146576  0.66696510  1
  O  O84  1  0.18172575  0.32995810  0.82662626  1
  O  O85  1  0.10605595  0.37444319  0.16916560  1
  O  O86  1  0.25842721  0.07888354  0.15566389  1
  O  O87  1  0.22226612  0.99692077  0.92913820  1
  O  O88  1  0.20311988  0.00195253  0.74949447  1
  O  O89  1  0.08440516  0.25548161  0.65533957  1
  O  O90  1  0.00266156  0.22564863  0.43063874  1
  O  O91  1  0.00484673  0.20659227  0.24958312  1
