# generated using pymatgen
data_Li6Mn3V(PO4)6
_symmetry_space_group_name_H-M   'P 1'
_cell_length_a   8.63940865
_cell_length_b   12.35553540
_cell_length_c   8.71617402
_cell_angle_alpha   89.28132299
_cell_angle_beta   90.80132055
_cell_angle_gamma   92.02315585
_symmetry_Int_Tables_number   1
_chemical_formula_structural   Li6Mn3V(PO4)6
_chemical_formula_sum   'Li12 Mn6 V2 P12 O48'
_cell_volume   929.66530539
_cell_formula_units_Z   2
loop_
 _symmetry_equiv_pos_site_id
 _symmetry_equiv_pos_as_xyz
  1  'x, y, z'
loop_
 _atom_site_type_symbol
 _atom_site_label
 _atom_site_symmetry_multiplicity
 _atom_site_fract_x
 _atom_site_fract_y
 _atom_site_fract_z
 _atom_site_occupancy
  Li  Li0  1  0.08111143  0.69552845  0.08083672  1
  Li  Li1  1  0.07811454  0.75872315  0.69749439  1
  Li  Li2  1  0.20836319  0.17664465  0.78131644  1
  Li  Li3  1  0.29249834  0.32639701  0.27894395  1
  Li  Li4  1  0.42433226  0.73973984  0.19290414  1
  Li  Li5  1  0.42218763  0.80275270  0.58446269  1
  Li  Li6  1  0.57788596  0.19835999  0.41824424  1
  Li  Li7  1  0.57879081  0.26416121  0.80531703  1
  Li  Li8  1  0.70847218  0.67245475  0.71896028  1
  Li  Li9  1  0.79130493  0.82717467  0.21652144  1
  Li  Li10  1  0.91204299  0.23815235  0.30516656  1
  Li  Li11  1  0.91846487  0.30307013  0.91717730  1
  Mn  Mn12  1  0.25152610  0.89798524  0.03693536  1
  Mn  Mn13  1  0.25211794  0.39120839  0.95777612  1
  Mn  Mn14  1  0.74823090  0.60856407  0.04087575  1
  Mn  Mn15  1  0.75309899  0.89002907  0.54235969  1
  Mn  Mn16  1  0.74758031  0.10116940  0.96259416  1
  Mn  Mn17  1  0.75135825  0.39894698  0.46370560  1
  V  V18  1  0.24799477  0.60784331  0.53195487  1
  V  V19  1  0.24681077  0.11046556  0.45919004  1
  P  P20  1  0.03514243  0.49279828  0.25085134  1
  P  P21  1  0.10410777  0.85201046  0.38285217  1
  P  P22  1  0.10081664  0.15384013  0.10031682  1
  P  P23  1  0.39915500  0.35028400  0.59841346  1
  P  P24  1  0.39769796  0.64051333  0.88602799  1
  P  P25  1  0.46068643  0.00597504  0.74890019  1
  P  P26  1  0.53896256  0.99711413  0.24749789  1
  P  P27  1  0.60348076  0.35996080  0.11592193  1
  P  P28  1  0.60385549  0.65781696  0.40062677  1
  P  P29  1  0.89943053  0.84466500  0.90164406  1
  P  P30  1  0.89455239  0.13975365  0.61773924  1
  P  P31  1  0.96142382  0.50497401  0.74688281  1
  O  O32  1  0.04880058  0.43336961  0.86608302  1
  O  O33  1  0.08138720  0.84950274  0.89330798  1
  O  O34  1  0.07070736  0.59544895  0.67928238  1
  O  O35  1  0.06941995  0.16567358  0.59573964  1
  O  O36  1  0.10145609  0.57318831  0.36975954  1
  O  O37  1  0.14296616  0.82037987  0.21344954  1
  O  O38  1  0.14861962  0.97149355  0.40889566  1
  O  O39  1  0.14154497  0.24661385  0.98038816  1
  O  O40  1  0.15423240  0.18818749  0.26474940  1
  O  O41  1  0.16733012  0.43407134  0.17655894  1
  O  O42  1  0.17034503  0.05171132  0.04360129  1
  O  O43  1  0.19494282  0.78185955  0.50210641  1
  O  O44  1  0.30534547  0.70200330  0.00540740  1
  O  O45  1  0.32707004  0.45502046  0.54700836  1
  O  O46  1  0.32927624  0.06816414  0.66710965  1
  O  O47  1  0.35017267  0.30743320  0.75880139  1
  O  O48  1  0.36543207  0.51741630  0.89751373  1
  O  O49  1  0.36030777  0.67821545  0.71744167  1
  O  O50  1  0.35891894  0.26043890  0.47595650  1
  O  O51  1  0.39106921  0.92650712  0.86860270  1
  O  O52  1  0.42947921  0.90556683  0.17838629  1
  O  O53  1  0.42260088  0.65323324  0.39350151  1
  O  O54  1  0.42647391  0.33448816  0.09373861  1
  O  O55  1  0.45316428  0.06821134  0.36056069  1
  O  O56  1  0.54549803  0.93492565  0.63534488  1
  O  O57  1  0.57504705  0.66541926  0.90844525  1
  O  O58  1  0.58132210  0.35522508  0.60830939  1
  O  O59  1  0.56877883  0.09726058  0.81816744  1
  O  O60  1  0.60280294  0.07796196  0.12533745  1
  O  O61  1  0.64178899  0.74822544  0.52478296  1
  O  O62  1  0.64106381  0.32234551  0.28544369  1
  O  O63  1  0.63496621  0.48319410  0.10588984  1
  O  O64  1  0.65173830  0.69806482  0.23964524  1
  O  O65  1  0.67263877  0.93717331  0.32496225  1
  O  O66  1  0.67619736  0.55530483  0.45754515  1
  O  O67  1  0.69614053  0.29869691  0.99657895  1
  O  O68  1  0.79830614  0.20219104  0.49777053  1
  O  O69  1  0.82796029  0.94650065  0.95702395  1
  O  O70  1  0.82703368  0.56143311  0.82113121  1
  O  O71  1  0.84851746  0.80604886  0.73956608  1
  O  O72  1  0.86104780  0.75240669  0.02308846  1
  O  O73  1  0.86552712  0.01612225  0.60449123  1
  O  O74  1  0.85824480  0.17471742  0.78703398  1
  O  O75  1  0.90044228  0.42187687  0.62719376  1
  O  O76  1  0.92848543  0.82991887  0.40204945  1
  O  O77  1  0.92545102  0.40232927  0.32042329  1
  O  O78  1  0.91954630  0.15057515  0.10927271  1
  O  O79  1  0.94879184  0.56480904  0.13213995  1
