# generated using pymatgen
data_Ba2Ca2Mn3Tl2O10
_symmetry_space_group_name_H-M   'P 1'
_cell_length_a   4.02827776
_cell_length_b   3.98735925
_cell_length_c   18.58739285
_cell_angle_alpha   96.08463671
_cell_angle_beta   96.36752918
_cell_angle_gamma   90.00023637
_symmetry_Int_Tables_number   1
_chemical_formula_structural   Ba2Ca2Mn3Tl2O10
_chemical_formula_sum   'Ba2 Ca2 Mn3 Tl2 O10'
_cell_volume   295.01999497
_cell_formula_units_Z   1
loop_
 _symmetry_equiv_pos_site_id
 _symmetry_equiv_pos_as_xyz
  1  'x, y, z'
loop_
 _atom_site_type_symbol
 _atom_site_label
 _atom_site_symmetry_multiplicity
 _atom_site_fract_x
 _atom_site_fract_y
 _atom_site_fract_z
 _atom_site_occupancy
  Ba  Ba0  1  0.08502321  0.15345693  0.29008260  1
  Ba  Ba1  1  0.78488197  0.84544535  0.70573105  1
  Ca  Ca2  1  0.88846133  0.94773338  0.90650287  1
  Ca  Ca3  1  0.98558551  0.05458122  0.09412483  1
  Mn  Mn4  1  0.34074657  0.39890352  0.81395045  1
  Mn  Mn5  1  0.53559685  0.60406530  0.18931898  1
  Mn  Mn6  1  0.43622679  0.50238764  0.00035327  1
  Tl  Tl7  1  0.59807247  0.72038507  0.43187892  1
  Tl  Tl8  1  0.19591153  0.27945532  0.56039688  1
  O  O9  1  0.35021289  0.90791817  0.83255810  1
  O  O10  1  0.28403156  0.34400432  0.70466890  1
  O  O11  1  0.84958787  0.40788741  0.83087874  1
  O  O12  1  0.81828915  0.77158680  0.54265859  1
  O  O13  1  0.93695879  0.50375401  0.00178920  1
  O  O14  1  0.02747772  0.59616465  0.17339945  1
  O  O15  1  0.61282852  0.66288403  0.31036117  1
  O  O16  1  0.52423643  0.09535221  0.17136632  1
  O  O17  1  0.31040264  0.21889269  0.42926454  1
  O  O18  1  0.43655719  0.00310198  0.00167614  1
