# generated using pymatgen
data_Li6V3P8O29
_symmetry_space_group_name_H-M   'P 1'
_cell_length_a   9.78987068
_cell_length_b   9.80513091
_cell_length_c   14.01287413
_cell_angle_alpha   90.69424994
_cell_angle_beta   90.86041051
_cell_angle_gamma   60.22653640
_symmetry_Int_Tables_number   1
_chemical_formula_structural   Li6V3P8O29
_chemical_formula_sum   'Li12 V6 P16 O58'
_cell_volume   1167.40038352
_cell_formula_units_Z   2
loop_
 _symmetry_equiv_pos_site_id
 _symmetry_equiv_pos_as_xyz
  1  'x, y, z'
loop_
 _atom_site_type_symbol
 _atom_site_label
 _atom_site_symmetry_multiplicity
 _atom_site_fract_x
 _atom_site_fract_y
 _atom_site_fract_z
 _atom_site_occupancy
  Li  Li0  1  0.90252871  0.33485661  0.56220411  1
  Li  Li1  1  0.68003651  0.66580571  0.88943685  1
  Li  Li2  1  0.76861873  0.32407174  0.06251026  1
  Li  Li3  1  0.32443008  0.90903791  0.06292698  1
  Li  Li4  1  0.66050276  0.23798276  0.43947415  1
  Li  Li5  1  0.33080955  0.76512249  0.56058330  1
  Li  Li6  1  0.66692804  0.09780635  0.93827539  1
  Li  Li7  1  0.23651675  0.66136460  0.94294123  1
  Li  Li8  1  0.09447300  0.66351958  0.43632826  1
  Li  Li9  1  0.23196526  0.09887481  0.44167745  1
  Li  Li10  1  0.99799139  0.99708748  0.00143318  1
  Li  Li11  1  0.96202191  0.98200321  0.50625593  1
  V  V12  1  0.56496164  0.43487828  0.25124611  1
  V  V13  1  0.43432316  0.56443774  0.74789386  1
  V  V14  1  0.56537025  0.99734618  0.74645524  1
  V  V15  1  0.43713306  0.00231946  0.25226582  1
  V  V16  1  0.99543359  0.56411666  0.24378036  1
  V  V17  1  0.00490606  0.43662326  0.75366206  1
  P  P18  1  0.91602721  0.78386900  0.83846951  1
  P  P19  1  0.78203782  0.91758788  0.33719122  1
  P  P20  1  0.91525703  0.31449449  0.34568655  1
  P  P21  1  0.66297366  0.66478441  0.12924624  1
  P  P22  1  0.66579654  0.66437979  0.63092948  1
  P  P23  1  0.77732287  0.31886937  0.84286337  1
  P  P24  1  0.68771116  0.22511603  0.65909857  1
  P  P25  1  0.31666485  0.90683083  0.84445734  1
  P  P26  1  0.68574059  0.08835236  0.15303586  1
  P  P27  1  0.31590079  0.77411826  0.34207959  1
  P  P28  1  0.22457917  0.68585495  0.15832425  1
  P  P29  1  0.32941928  0.33780362  0.36832671  1
  P  P30  1  0.33837482  0.33106673  0.86999481  1
  P  P31  1  0.08326335  0.68907358  0.65235914  1
  P  P32  1  0.22328056  0.08507651  0.66012362  1
  P  P33  1  0.08411857  0.21827870  0.16144920  1
  O  O34  1  0.01259708  0.77451313  0.56046532  1
  O  O35  1  0.91687163  0.74777614  0.33946814  1
  O  O36  1  0.76977577  0.02000006  0.06110143  1
  O  O37  1  0.74683031  0.92371465  0.84184046  1
  O  O38  1  0.90446975  0.63070695  0.83192971  1
  O  O39  1  0.80934772  0.66908331  0.17440062  1
  O  O40  1  0.91512864  0.46864747  0.33135782  1
  O  O41  1  0.99483557  0.19856363  0.07955663  1
  O  O42  1  0.91785676  0.34538431  0.84283939  1
  O  O43  1  0.66741290  0.81103900  0.67853528  1
  O  O44  1  0.61949665  0.92427562  0.32822110  1
  O  O45  1  0.81193473  0.51493884  0.67456496  1
  O  O46  1  0.66509104  0.66084055  0.02208495  1
  O  O47  1  0.66512751  0.66251703  0.52501136  1
  O  O48  1  0.67493972  0.50993429  0.16751163  1
  O  O49  1  0.47920767  0.89526133  0.83337382  1
  O  O50  1  0.51249364  0.81090433  0.16792632  1
  O  O51  1  0.74565648  0.33949343  0.34219215  1
  O  O52  1  0.79538395  0.21018241  0.75065976  1
  O  O53  1  0.77451336  0.22423377  0.56996903  1
  O  O54  1  0.77266209  0.23059997  0.92968808  1
  O  O55  1  0.62653397  0.48079154  0.82998517  1
  O  O56  1  0.50965089  0.67534454  0.66906313  1
  O  O57  1  0.65988009  0.25831083  0.16399841  1
  O  O58  1  0.47327947  0.62023159  0.32865717  1
  O  O59  1  0.34087896  0.91818995  0.34382602  1
  O  O60  1  0.80195366  0.99094544  0.23968617  1
  O  O61  1  0.79074738  0.01385010  0.41878324  1
  O  O62  1  0.22120780  0.99623058  0.57129266  1
  O  O63  1  0.65569757  0.08929941  0.66095127  1
  O  O64  1  0.53348866  0.38429062  0.67194227  1
  O  O65  1  0.34157626  0.73657014  0.83803040  1
  O  O66  1  0.48579186  0.32519669  0.32939127  1
  O  O67  1  0.38159150  0.53239751  0.17142553  1
  O  O68  1  0.22298044  0.77544975  0.07021433  1
  O  O69  1  0.22858868  0.77241360  0.42982275  1
  O  O70  1  0.20753664  0.79707695  0.24979753  1
  O  O71  1  0.25301670  0.66379701  0.66140331  1
  O  O72  1  0.48436589  0.18035508  0.82757661  1
  O  O73  1  0.53184264  0.08750791  0.16784530  1
  O  O74  1  0.33379787  0.48133059  0.82988194  1
  O  O75  1  0.34320901  0.32892050  0.97587353  1
  O  O76  1  0.32929841  0.34202487  0.47492654  1
  O  O77  1  0.18434795  0.48822393  0.32513327  1
  O  O78  1  0.37721617  0.08981659  0.67026844  1
  O  O79  1  0.32050605  0.18994151  0.33035803  1
  O  O80  1  0.08605067  0.65728792  0.16035601  1
  O  O81  1  0.98606752  0.80351675  0.73911676  1
  O  O82  1  0.01601681  0.79013044  0.91848962  1
  O  O83  1  0.08099410  0.53530578  0.66502372  1
  O  O84  1  0.18825323  0.33498715  0.82297275  1
  O  O85  1  0.08379486  0.37471751  0.16713700  1
  O  O86  1  0.25705973  0.07898809  0.16422015  1
  O  O87  1  0.23130116  0.98201938  0.93467104  1
  O  O88  1  0.20850876  0.99656269  0.75306813  1
  O  O89  1  0.07864536  0.25101909  0.66146419  1
  O  O90  1  0.99765799  0.22992970  0.43677161  1
  O  O91  1  0.00867664  0.19744171  0.25883679  1
