# generated using pymatgen
data_Li6V3P8O29
_symmetry_space_group_name_H-M   'P 1'
_cell_length_a   9.77418371
_cell_length_b   9.76993321
_cell_length_c   13.95949236
_cell_angle_alpha   90.08161278
_cell_angle_beta   90.04017680
_cell_angle_gamma   60.07336528
_symmetry_Int_Tables_number   1
_chemical_formula_structural   Li6V3P8O29
_chemical_formula_sum   'Li12 V6 P16 O58'
_cell_volume   1155.29394755
_cell_formula_units_Z   2
loop_
 _symmetry_equiv_pos_site_id
 _symmetry_equiv_pos_as_xyz
  1  'x, y, z'
loop_
 _atom_site_type_symbol
 _atom_site_label
 _atom_site_symmetry_multiplicity
 _atom_site_fract_x
 _atom_site_fract_y
 _atom_site_fract_z
 _atom_site_occupancy
  Li  Li0  1  0.76294161  0.90103079  0.55730662  1
  Li  Li1  1  0.89858730  0.33917152  0.55793578  1
  Li  Li2  1  0.76321389  0.33360570  0.06578141  1
  Li  Li3  1  0.33557625  0.90043709  0.06222476  1
  Li  Li4  1  0.32948847  0.76842424  0.55761366  1
  Li  Li5  1  0.66501223  0.09849330  0.94368523  1
  Li  Li6  1  0.23841046  0.66085363  0.94215192  1
  Li  Li7  1  0.09619486  0.66665694  0.43418123  1
  Li  Li8  1  0.23428136  0.09957287  0.43957022  1
  Li  Li9  1  0.09783719  0.23214223  0.94216553  1
  Li  Li10  1  0.99235268  0.94801331  0.01693337  1
  Li  Li11  1  0.94070975  0.05119781  0.48341792  1
  V  V12  1  0.56119817  0.43602202  0.25543971  1
  V  V13  1  0.43412709  0.56554839  0.74838841  1
  V  V14  1  0.56850771  0.00029289  0.75063835  1
  V  V15  1  0.43949897  0.00179103  0.25106788  1
  V  V16  1  0.99636068  0.56474947  0.24406009  1
  V  V17  1  0.99927733  0.43477688  0.75139265  1
  P  P18  1  0.91767260  0.77750660  0.84074281  1
  P  P19  1  0.77928557  0.91220063  0.34220577  1
  P  P20  1  0.91221499  0.31162108  0.34186747  1
  P  P21  1  0.66371028  0.66409816  0.13264465  1
  P  P22  1  0.66672837  0.66762589  0.63049485  1
  P  P23  1  0.76925105  0.31730367  0.84576177  1
  P  P24  1  0.69474504  0.22271202  0.65940275  1
  P  P25  1  0.31601573  0.91195660  0.84173195  1
  P  P26  1  0.69202008  0.08710529  0.15723277  1
  P  P27  1  0.31099739  0.77779239  0.34269072  1
  P  P28  1  0.22404321  0.68873599  0.15802103  1
  P  P29  1  0.32746910  0.33754338  0.36737227  1
  P  P30  1  0.33418477  0.33256872  0.86938172  1
  P  P31  1  0.08624627  0.68318618  0.65433653  1
  P  P32  1  0.22765511  0.08836382  0.65780293  1
  P  P33  1  0.08873874  0.22235982  0.15744823  1
  O  O34  1  0.00194497  0.76387254  0.56319818  1
  O  O35  1  0.92120004  0.74360640  0.33883965  1
  O  O36  1  0.78057363  0.00754326  0.06682587  1
  O  O37  1  0.74615711  0.91946445  0.84215675  1
  O  O38  1  0.92042257  0.61905665  0.83280292  1
  O  O39  1  0.80946715  0.67078464  0.17571006  1
  O  O40  1  0.92128040  0.46330666  0.33317310  1
  O  O41  1  0.99883396  0.22342656  0.06843232  1
  O  O42  1  0.91694696  0.33778320  0.84274351  1
  O  O43  1  0.68132107  0.81013753  0.67134422  1
  O  O44  1  0.62244058  0.91102005  0.33030559  1
  O  O45  1  0.80963322  0.51103753  0.67276608  1
  O  O46  1  0.65728622  0.66257833  0.02613151  1
  O  O47  1  0.66970150  0.66570349  0.52359644  1
  O  O48  1  0.67529811  0.51020204  0.17568633  1
  O  O49  1  0.47498109  0.90615312  0.82671940  1
  O  O50  1  0.51220805  0.81185874  0.17538802  1
  O  O51  1  0.74429554  0.34075235  0.34179085  1
  O  O52  1  0.79098746  0.20138660  0.75828594  1
  O  O53  1  0.80189707  0.20844869  0.57866488  1
  O  O54  1  0.76525905  0.23674829  0.93683589  1
  O  O55  1  0.61754425  0.47612764  0.82773371  1
  O  O56  1  0.50935914  0.68213932  0.67081016  1
  O  O57  1  0.66323936  0.25672988  0.16112000  1
  O  O58  1  0.47037129  0.62485424  0.33143555  1
  O  O59  1  0.33395644  0.92289454  0.34456697  1
  O  O60  1  0.79953501  0.00003510  0.24995350  1
  O  O61  1  0.78452476  0.99301503  0.43311479  1
  O  O62  1  0.22682378  0.00187634  0.56821998  1
  O  O63  1  0.66496573  0.08054342  0.65920530  1
  O  O64  1  0.53940920  0.38083164  0.66702395  1
  O  O65  1  0.33619823  0.74418661  0.84067728  1
  O  O66  1  0.47987025  0.32860854  0.32357194  1
  O  O67  1  0.38436162  0.53716448  0.16669709  1
  O  O68  1  0.21605342  0.78383113  0.06884344  1
  O  O69  1  0.22206570  0.77571182  0.43125174  1
  O  O70  1  0.20315730  0.79967521  0.24999565  1
  O  O71  1  0.25454511  0.66267935  0.65749585  1
  O  O72  1  0.49201851  0.18937052  0.82926726  1
  O  O73  1  0.53665575  0.08286306  0.16681543  1
  O  O74  1  0.32125567  0.48875975  0.82721116  1
  O  O75  1  0.33555792  0.33386473  0.97627124  1
  O  O76  1  0.32062956  0.33602663  0.47371026  1
  O  O77  1  0.18533592  0.49058865  0.32449991  1
  O  O78  1  0.38126939  0.09239864  0.67140971  1
  O  O79  1  0.32214980  0.18869222  0.32504303  1
  O  O80  1  0.08535894  0.65930042  0.15806669  1
  O  O81  1  0.99190224  0.79916200  0.74165775  1
  O  O82  1  0.01196692  0.79055018  0.92124035  1
  O  O83  1  0.09382389  0.52406159  0.67206321  1
  O  O84  1  0.19170238  0.31780001  0.82885193  1
  O  O85  1  0.09523372  0.37555995  0.16849310  1
  O  O86  1  0.25594799  0.07723271  0.15737957  1
  O  O87  1  0.23193012  0.99875304  0.93165929  1
  O  O88  1  0.20632368  -0.00000038  0.74994602  1
  O  O89  1  0.08009799  0.25619898  0.65936974  1
  O  O90  1  0.99924558  0.21643922  0.43105592  1
  O  O91  1  0.00165439  0.20114831  0.24978206  1
