# generated using pymatgen
data_Li6V3P8O29
_symmetry_space_group_name_H-M   'P 1'
_cell_length_a   9.78272743
_cell_length_b   9.78186509
_cell_length_c   14.02761387
_cell_angle_alpha   90.31468723
_cell_angle_beta   90.32050909
_cell_angle_gamma   60.28864104
_symmetry_Int_Tables_number   1
_chemical_formula_structural   Li6V3P8O29
_chemical_formula_sum   'Li12 V6 P16 O58'
_cell_volume   1165.85076159
_cell_formula_units_Z   2
loop_
 _symmetry_equiv_pos_site_id
 _symmetry_equiv_pos_as_xyz
  1  'x, y, z'
loop_
 _atom_site_type_symbol
 _atom_site_label
 _atom_site_symmetry_multiplicity
 _atom_site_fract_x
 _atom_site_fract_y
 _atom_site_fract_z
 _atom_site_occupancy
  Li  Li0  1  0.76727333  0.90370196  0.55559063  1
  Li  Li1  1  0.90551007  0.33130960  0.55847489  1
  Li  Li2  1  0.76380550  0.33455127  0.06313902  1
  Li  Li3  1  0.33455952  0.90202080  0.06522006  1
  Li  Li4  1  0.66567843  0.23610224  0.43682218  1
  Li  Li5  1  0.33326081  0.76550205  0.55650079  1
  Li  Li6  1  0.66850247  0.09473994  0.94143000  1
  Li  Li7  1  0.23406412  0.66695579  0.94375065  1
  Li  Li8  1  0.09802822  0.66538742  0.43472184  1
  Li  Li9  1  0.09629930  0.23252865  0.94437214  1
  Li  Li10  1  0.98844456  0.95492207  0.01548568  1
  Li  Li11  1  0.04482567  0.01169899  0.48470756  1
  V  V12  1  0.56256615  0.43745662  0.25002049  1
  V  V13  1  0.43618515  0.56380970  0.75006492  1
  V  V14  1  0.56462670  0.99757552  0.74970877  1
  V  V15  1  0.43600879  0.00409861  0.25359514  1
  V  V16  1  0.99590630  0.56396372  0.24638646  1
  V  V17  1  0.00243535  0.43529113  0.75015012  1
  P  P18  1  0.91578154  0.77857483  0.83898617  1
  P  P19  1  0.77830012  0.91473419  0.33992297  1
  P  P20  1  0.91186066  0.31055822  0.34352999  1
  P  P21  1  0.66322546  0.66893346  0.13212757  1
  P  P22  1  0.66608099  0.66387869  0.63167479  1
  P  P23  1  0.77427689  0.31375444  0.84156170  1
  P  P24  1  0.68632924  0.22567847  0.65824843  1
  P  P25  1  0.31247489  0.91494030  0.84661606  1
  P  P26  1  0.68933905  0.08823032  0.15642531  1
  P  P27  1  0.31268330  0.77753612  0.34159287  1
  P  P28  1  0.22239411  0.68736670  0.15851881  1
  P  P29  1  0.33111128  0.33679256  0.36788173  1
  P  P30  1  0.33620908  0.33377346  0.86845197  1
  P  P31  1  0.08494017  0.68758488  0.65348732  1
  P  P32  1  0.22147277  0.08395222  0.66102712  1
  P  P33  1  0.08522051  0.22166701  0.16004796  1
  O  O34  1  0.99918082  0.76690540  0.56260865  1
  O  O35  1  0.92174011  0.74850455  0.34015521  1
  O  O36  1  0.78093915  0.01408581  0.06673288  1
  O  O37  1  0.74372579  0.91748723  0.84021718  1
  O  O38  1  0.92164380  0.61905252  0.83110597  1
  O  O39  1  0.80944611  0.67113320  0.17953821  1
  O  O40  1  0.91854708  0.46252123  0.33464869  1
  O  O41  1  0.99530533  0.22237563  0.07120475  1
  O  O42  1  0.92065764  0.33641550  0.84043745  1
  O  O43  1  0.67805711  0.80806011  0.67077000  1
  O  O44  1  0.62420238  0.91032840  0.32897602  1
  O  O45  1  0.81132290  0.50991500  0.67136938  1
  O  O46  1  0.66276086  0.66881329  0.02607047  1
  O  O47  1  0.65620268  0.66212758  0.52570564  1
  O  O48  1  0.67489696  0.51317515  0.17155415  1
  O  O49  1  0.47045793  0.91072583  0.82898613  1
  O  O50  1  0.51178509  0.81452586  0.17361118  1
  O  O51  1  0.73993980  0.34073783  0.33888946  1
  O  O52  1  0.79644805  0.20325699  0.75004677  1
  O  O53  1  0.77357150  0.22565190  0.56980276  1
  O  O54  1  0.77365694  0.22729944  0.93020637  1
  O  O55  1  0.62196942  0.47136976  0.82888352  1
  O  O56  1  0.51205998  0.67352561  0.67625012  1
  O  O57  1  0.65915576  0.26017565  0.16112528  1
  O  O58  1  0.46491418  0.61830162  0.33151441  1
  O  O59  1  0.34372494  0.91468350  0.34091676  1
  O  O60  1  0.79920665  0.00197737  0.24799517  1
  O  O61  1  0.77763932  0.00462566  0.42876637  1
  O  O62  1  0.20682756  0.99116335  0.58000657  1
  O  O63  1  0.66307384  0.07968846  0.65919765  1
  O  O64  1  0.52913982  0.37856742  0.67062803  1
  O  O65  1  0.33288523  0.74889170  0.84381580  1
  O  O66  1  0.48689324  0.32513730  0.32852897  1
  O  O67  1  0.38162673  0.53517179  0.16851944  1
  O  O68  1  0.21616759  0.78141360  0.07030559  1
  O  O69  1  0.21879094  0.78361067  0.42981769  1
  O  O70  1  0.20379410  0.79617083  0.25007094  1
  O  O71  1  0.25089286  0.66720734  0.65639807  1
  O  O72  1  0.49003611  0.18872516  0.82860602  1
  O  O73  1  0.53738122  0.08154872  0.16529839  1
  O  O74  1  0.32686612  0.48777002  0.82380253  1
  O  O75  1  0.33804204  0.34381720  0.97437623  1
  O  O76  1  0.33122142  0.33718797  0.47394395  1
  O  O77  1  0.18553759  0.48823129  0.32638901  1
  O  O78  1  0.38099457  0.07834252  0.66907701  1
  O  O79  1  0.32896486  0.19056362  0.32042051  1
  O  O80  1  0.08526508  0.65632612  0.15912488  1
  O  O81  1  0.98826192  0.80180202  0.74075772  1
  O  O82  1  0.00847514  0.79370871  0.91991113  1
  O  O83  1  0.08933859  0.52936004  0.67125621  1
  O  O84  1  0.19201935  0.32203911  0.82923547  1
  O  O85  1  0.08963649  0.37575980  0.17102452  1
  O  O86  1  0.25144810  0.07820965  0.15982867  1
  O  O87  1  0.23270760  0.00082484  0.93737655  1
  O  O88  1  0.19830327  0.01134157  0.75915847  1
  O  O89  1  0.08266388  0.25599135  0.65960589  1
  O  O90  1  0.98611826  0.21893954  0.43321818  1
  O  O91  1  0.99803367  0.20068969  0.25196889  1
