# generated using pymatgen
data_Li6V3P8O29
_symmetry_space_group_name_H-M   'P 1'
_cell_length_a   9.77236476
_cell_length_b   9.79924722
_cell_length_c   14.00852466
_cell_angle_alpha   90.09437848
_cell_angle_beta   90.11404395
_cell_angle_gamma   60.49732218
_symmetry_Int_Tables_number   1
_chemical_formula_structural   Li6V3P8O29
_chemical_formula_sum   'Li12 V6 P16 O58'
_cell_volume   1167.53278909
_cell_formula_units_Z   2
loop_
 _symmetry_equiv_pos_site_id
 _symmetry_equiv_pos_as_xyz
  1  'x, y, z'
loop_
 _atom_site_type_symbol
 _atom_site_label
 _atom_site_symmetry_multiplicity
 _atom_site_fract_x
 _atom_site_fract_y
 _atom_site_fract_z
 _atom_site_occupancy
  Li  Li0  1  0.76159491  0.90317786  0.55933202  1
  Li  Li1  1  0.90020238  0.33657003  0.56304612  1
  Li  Li2  1  0.76518536  0.33491789  0.06003477  1
  Li  Li3  1  0.33051785  0.90427323  0.05773382  1
  Li  Li4  1  0.32955706  0.76583280  0.55925521  1
  Li  Li5  1  0.67705005  0.08961254  0.93902128  1
  Li  Li6  1  0.23411588  0.67644435  0.93775521  1
  Li  Li7  1  0.32573131  0.33830902  0.11017922  1
  Li  Li8  1  0.09315610  0.66803514  0.43692373  1
  Li  Li9  1  0.23483442  0.09616857  0.44165104  1
  Li  Li10  1  0.00092007  0.00020789  0.99812731  1
  Li  Li11  1  0.94394948  0.04286398  0.49210262  1
  V  V12  1  0.56371802  0.43497414  0.25626689  1
  V  V13  1  0.44027221  0.55899990  0.74800867  1
  V  V14  1  0.56651276  0.99798282  0.75137264  1
  V  V15  1  0.43923882  0.00065118  0.25001641  1
  V  V16  1  0.99533990  0.56360950  0.24431873  1
  V  V17  1  0.00223009  0.43425447  0.75390521  1
  P  P18  1  0.91733314  0.77927069  0.84095644  1
  P  P19  1  0.77891068  0.91233858  0.34111096  1
  P  P20  1  0.91762966  0.30960772  0.34485908  1
  P  P21  1  0.66056473  0.66717305  0.13083236  1
  P  P22  1  0.66764876  0.66547733  0.63114940  1
  P  P23  1  0.77411756  0.31231670  0.84342915  1
  P  P24  1  0.69472684  0.21903500  0.65986178  1
  P  P25  1  0.31199684  0.91040728  0.84412513  1
  P  P26  1  0.68976344  0.09208047  0.15726285  1
  P  P27  1  0.31330851  0.77390511  0.34286543  1
  P  P28  1  0.22534802  0.68339279  0.15787594  1
  P  P29  1  0.32725613  0.33624839  0.36833573  1
  P  P30  1  0.33720427  0.33226821  0.86981347  1
  P  P31  1  0.08392720  0.68773063  0.65482922  1
  P  P32  1  0.22620239  0.08742157  0.66086790  1
  P  P33  1  0.08857323  0.21673478  0.15907830  1
  O  O34  1  0.99826406  0.77015150  0.56427682  1
  O  O35  1  0.91841059  0.74380741  0.33544202  1
  O  O36  1  0.77047265  0.01158992  0.06686630  1
  O  O37  1  0.74511325  0.91899921  0.84009239  1
  O  O38  1  0.91850338  0.62309849  0.83308670  1
  O  O39  1  0.80913902  0.66540027  0.17458068  1
  O  O40  1  0.92375048  0.46233928  0.33221283  1
  O  O41  1  0.98884546  0.21163413  0.07962611  1
  O  O42  1  0.91371294  0.34381131  0.83453862  1
  O  O43  1  0.67689702  0.81027664  0.67242150  1
  O  O44  1  0.61958191  0.91603571  0.33108893  1
  O  O45  1  0.81176457  0.51171074  0.66870077  1
  O  O46  1  0.65284092  0.66508761  0.02506407  1
  O  O47  1  0.65833994  0.67221432  0.52452266  1
  O  O48  1  0.65985392  0.52007055  0.17458216  1
  O  O49  1  0.46717728  0.91243308  0.83062116  1
  O  O50  1  0.51279061  0.81924801  0.17235792  1
  O  O51  1  0.74983148  0.33917800  0.33868312  1
  O  O52  1  0.79274542  0.19575348  0.75774958  1
  O  O53  1  0.80126866  0.20679041  0.57920877  1
  O  O54  1  0.78090312  0.22634663  0.93438405  1
  O  O55  1  0.61945055  0.46718668  0.83170091  1
  O  O56  1  0.51303019  0.67194621  0.67330871  1
  O  O57  1  0.66718950  0.25913856  0.16140683  1
  O  O58  1  0.47132132  0.62214996  0.33252374  1
  O  O59  1  0.33422142  0.91976524  0.34209726  1
  O  O60  1  0.79580527  0.00175703  0.24889799  1
  O  O61  1  0.79091189  0.98877945  0.43156185  1
  O  O62  1  0.22795307  0.99954795  0.57121618  1
  O  O63  1  0.66380030  0.07844794  0.65880042  1
  O  O64  1  0.53995932  0.37513485  0.66669095  1
  O  O65  1  0.33801542  0.74215834  0.83709116  1
  O  O66  1  0.47716076  0.33300650  0.32386805  1
  O  O67  1  0.37628536  0.52165903  0.16870194  1
  O  O68  1  0.22762228  0.77238851  0.07030889  1
  O  O69  1  0.22342224  0.77348468  0.43077697  1
  O  O70  1  0.20815380  0.79069162  0.24967361  1
  O  O71  1  0.25286685  0.66035489  0.65558029  1
  O  O72  1  0.49298102  0.18740832  0.83453812  1
  O  O73  1  0.52372714  0.10651861  0.17097448  1
  O  O74  1  0.33217475  0.48498662  0.82676451  1
  O  O75  1  0.33792308  0.34317298  0.97705225  1
  O  O76  1  0.32273156  0.33537497  0.47434893  1
  O  O77  1  0.18427536  0.48681119  0.32517868  1
  O  O78  1  0.38260943  0.08931575  0.67420644  1
  O  O79  1  0.32490610  0.18700876  0.32589968  1
  O  O80  1  0.08367743  0.65658637  0.15817332  1
  O  O81  1  0.99158366  0.80191881  0.74218673  1
  O  O82  1  0.00814521  0.79817736  0.92129877  1
  O  O83  1  0.08235840  0.53257051  0.67204607  1
  O  O84  1  0.19582400  0.32573485  0.82589514  1
  O  O85  1  0.10116046  0.36942801  0.16654289  1
  O  O86  1  0.25843791  0.07760854  0.15515903  1
  O  O87  1  0.22487422  0.98603821  0.93435341  1
  O  O88  1  0.20322334  0.00205145  0.75217424  1
  O  O89  1  0.08353108  0.25479074  0.66013453  1
  O  O90  1  0.99855959  0.22219912  0.43593697  1
  O  O91  1  0.01818595  0.19507205  0.25857685  1
