# generated using pymatgen
data_Li2FeCuO4
_symmetry_space_group_name_H-M   'P 1'
_cell_length_a   5.13916562
_cell_length_b   5.13916456
_cell_length_c   5.13916541
_cell_angle_alpha   132.68678462
_cell_angle_beta   132.68678968
_cell_angle_gamma   69.14645506
_symmetry_Int_Tables_number   1
_chemical_formula_structural   Li2FeCuO4
_chemical_formula_sum   'Li2 Fe1 Cu1 O4'
_cell_volume   71.97614246
_cell_formula_units_Z   1
loop_
 _symmetry_equiv_pos_site_id
 _symmetry_equiv_pos_as_xyz
  1  'x, y, z'
loop_
 _atom_site_type_symbol
 _atom_site_label
 _atom_site_symmetry_multiplicity
 _atom_site_fract_x
 _atom_site_fract_y
 _atom_site_fract_z
 _atom_site_occupancy
  Li  Li0  1  0.25000000  0.75000000  0.50000000  1
  Li  Li1  1  0.50000000  0.50000000  -0.00000000  1
  Fe  Fe2  1  -0.00000000  0.00000000  -0.00000000  1
  Cu  Cu3  1  0.75000000  0.25000000  0.50000000  1
  O  O4  1  0.52116707  0.02116707  0.50000000  1
  O  O5  1  0.23657583  0.23657583  0.00000000  1
  O  O6  1  0.97883293  0.47883293  0.50000000  1
  O  O7  1  0.76342417  0.76342417  -0.00000000  1
