# generated using pymatgen
data_LaAl33O51
_symmetry_space_group_name_H-M   'P 1'
_cell_length_a   11.80250306
_cell_length_b   9.80311519
_cell_length_c   9.78551662
_cell_angle_alpha   60.05931954
_cell_angle_beta   73.83742644
_cell_angle_gamma   82.01391578
_symmetry_Int_Tables_number   1
_chemical_formula_structural   LaAl33O51
_chemical_formula_sum   'La1 Al33 O51'
_cell_volume   942.31975537
_cell_formula_units_Z   1
loop_
 _symmetry_equiv_pos_site_id
 _symmetry_equiv_pos_as_xyz
  1  'x, y, z'
loop_
 _atom_site_type_symbol
 _atom_site_label
 _atom_site_symmetry_multiplicity
 _atom_site_fract_x
 _atom_site_fract_y
 _atom_site_fract_z
 _atom_site_occupancy
  La  La0  1  0.49992431  0.33332343  0.33328459  1
  Al  Al1  1  0.99999555  0.00178309  0.99910757  1
  Al  Al2  1  0.21582639  0.00174134  0.09468950  1
  Al  Al3  1  0.21675603  0.16498447  0.26107625  1
  Al  Al4  1  0.78439204  0.16791702  0.07126180  1
  Al  Al5  1  0.99999109  0.33331183  0.33334045  1
  Al  Al6  1  0.35013558  0.99600289  0.55231112  1
  Al  Al7  1  0.04959986  0.99850526  0.65042086  1
  Al  Al8  1  0.95038955  0.99850501  0.35107094  1
  Al  Al9  1  0.64986321  0.99602293  0.45167715  1
  Al  Al10  1  0.21675501  0.50163340  0.09275918  1
  Al  Al11  1  0.79481713  0.33335801  0.23340866  1
  Al  Al12  1  0.20515152  0.33335556  0.43324348  1
  Al  Al13  1  0.78323941  0.16497973  0.57392051  1
  Al  Al14  1  0.95040226  0.66815837  0.01623313  1
  Al  Al15  1  0.35013693  0.67065459  0.21497473  1
  Al  Al16  1  0.64986060  0.67063437  0.11437908  1
  Al  Al17  1  0.04958529  0.66815770  0.31560590  1
  Al  Al18  1  0.21561091  0.16793319  0.76081630  1
  Al  Al19  1  0.21560312  0.49875982  0.59541189  1
  Al  Al20  1  0.78417231  0.00172078  0.90357833  1
  Al  Al21  1  0.78323888  0.50163398  0.40559095  1
  Al  Al22  1  0.78514079  0.83230626  0.23896289  1
  Al  Al23  1  0.64718513  0.33334354  0.78535473  1
  Al  Al24  1  0.94723812  0.33335222  0.68299789  1
  Al  Al25  1  0.05276273  0.33335218  0.98365059  1
  Al  Al26  1  0.99999448  0.66490984  0.66754348  1
  Al  Al27  1  0.35268240  0.33334579  0.88133701  1
  Al  Al28  1  0.21486265  0.83434614  0.42768612  1
  Al  Al29  1  0.78414936  0.66493714  0.57195719  1
  Al  Al30  1  0.21584467  0.66491473  0.76311764  1
  Al  Al31  1  0.78439773  0.49876995  0.90582269  1
  Al  Al32  1  0.21484950  0.83230053  0.92873131  1
  Al  Al33  1  0.78512908  0.83433837  0.73797359  1
  O  O34  1  0.71641935  0.00005791  0.09553000  1
  O  O35  1  0.11104341  0.99924111  0.29805070  1
  O  O36  1  0.28788916  0.16719482  0.07096950  1
  O  O37  1  0.89845672  0.00289981  0.19105871  1
  O  O38  1  0.28980473  0.99966642  0.40391318  1
  O  O39  1  0.10125291  0.33333394  0.14624623  1
  O  O40  1  0.49999817  0.04799825  0.47599703  1
  O  O41  1  0.10060667  0.17747310  0.45731866  1
  O  O42  1  0.29105388  0.33332104  0.24156305  1
  O  O43  1  0.70222248  0.17555068  0.26285694  1
  O  O44  1  0.88971325  0.33333490  0.03904147  1
  O  O45  1  0.10059923  0.48919284  0.30146478  1
  O  O46  1  0.28980466  0.66697840  0.07025328  1
  O  O47  1  0.70222994  0.49112510  0.10506261  1
  O  O48  1  0.71018701  0.99966105  0.59643065  1
  O  O49  1  0.29777724  0.17555433  0.56157345  1
  O  O50  1  0.10152917  0.00290284  0.80603755  1
  O  O51  1  0.89937909  0.17746491  0.36521818  1
  O  O52  1  0.49999894  0.61865251  0.19066648  1
  O  O53  1  0.09873656  0.84437381  0.12362228  1
  O  O54  1  0.89938719  0.48919698  0.20934218  1
  O  O55  1  0.11027976  0.33333450  0.62762254  1
  O  O56  1  0.29776960  0.49112262  0.40379250  1
  O  O57  1  0.28357015  0.00005301  0.90440785  1
  O  O58  1  0.88894721  0.99924070  0.70270750  1
  O  O59  1  0.70895168  0.33332096  0.42512406  1
  O  O60  1  0.09905727  0.15737313  0.96676744  1
  O  O61  1  0.89873598  0.33333515  0.52043134  1
  O  O62  1  0.28992415  0.33334517  0.73340913  1
  O  O63  1  0.71210377  0.16718240  0.76183592  1
  O  O64  1  0.71018774  0.66697851  0.26277541  1
  O  O65  1  0.29186314  0.83583013  0.23567174  1
  O  O66  1  0.10152065  0.66375437  0.47561317  1
  O  O67  1  0.90124717  0.84437645  0.03200018  1
  O  O68  1  0.50016230  0.33333556  0.83329767  1
  O  O69  1  0.90092315  0.15737455  0.87585503  1
  O  O70  1  0.09906277  0.50931005  0.79079783  1
  O  O71  1  0.88894284  0.66741453  0.36861549  1
  O  O72  1  0.71210414  0.49948378  0.59567725  1
  O  O73  1  0.28358272  0.66661545  0.57111844  1
  O  O74  1  0.09874068  0.82229031  0.63465441  1
  O  O75  1  0.70813206  0.83083641  0.43097283  1
  O  O76  1  0.71007608  0.33333972  0.93324492  1
  O  O77  1  0.28788784  0.49947493  0.90484051  1
  O  O78  1  0.90091517  0.50930612  0.69989537  1
  O  O79  1  0.90124022  0.82228498  0.54304994  1
  O  O80  1  0.11104578  0.66741645  0.96396886  1
  O  O81  1  0.71640282  0.66660868  0.76226510  1
  O  O82  1  0.29185915  0.83083377  0.73819043  1
  O  O83  1  0.89846200  0.66376763  0.86062200  1
  O  O84  1  0.70812862  0.83582880  0.92849975  1
