# generated using pymatgen
data_Li2SiNiO4
_symmetry_space_group_name_H-M   'P 1'
_cell_length_a   10.83161328
_cell_length_b   4.94358523
_cell_length_c   6.33902124
_cell_angle_alpha   90.00000000
_cell_angle_beta   90.00000000
_cell_angle_gamma   90.00000000
_symmetry_Int_Tables_number   1
_chemical_formula_structural   Li2SiNiO4
_chemical_formula_sum   'Li8 Si4 Ni4 O16'
_cell_volume   339.43559207
_cell_formula_units_Z   4
loop_
 _symmetry_equiv_pos_site_id
 _symmetry_equiv_pos_as_xyz
  1  'x, y, z'
loop_
 _atom_site_type_symbol
 _atom_site_label
 _atom_site_symmetry_multiplicity
 _atom_site_fract_x
 _atom_site_fract_y
 _atom_site_fract_z
 _atom_site_occupancy
  Li  Li0  1  0.09130038  0.70442828  0.87108226  1
  Li  Li1  1  0.16841008  0.20128491  0.11704988  1
  Li  Li2  1  0.33158992  0.70128491  0.61704988  1
  Li  Li3  1  0.40869962  0.20442828  0.37108226  1
  Li  Li4  1  0.59130038  0.79557172  0.87108226  1
  Li  Li5  1  0.66841008  0.29871509  0.11704988  1
  Li  Li6  1  0.83158992  0.79871509  0.61704988  1
  Li  Li7  1  0.90869962  0.29557172  0.37108226  1
  Si  Si8  1  0.16751480  0.19168666  0.61682506  1
  Si  Si9  1  0.33248520  0.69168666  0.11682506  1
  Si  Si10  1  0.66751480  0.30831334  0.61682506  1
  Si  Si11  1  0.83248520  0.80831334  0.11682506  1
  Ni  Ni12  1  0.08504247  0.70284239  0.36756334  1
  Ni  Ni13  1  0.41495753  0.20284239  0.86756334  1
  Ni  Ni14  1  0.58504247  0.79715761  0.36756334  1
  Ni  Ni15  1  0.91495753  0.29715761  0.86756334  1
  O  O16  1  0.09542509  0.30230033  0.83054384  1
  O  O17  1  0.09491941  0.29612885  0.40117490  1
  O  O18  1  0.16526754  0.85720986  0.61779856  1
  O  O19  1  0.18779406  0.79749550  0.12006315  1
  O  O20  1  0.31220594  0.29749550  0.62006315  1
  O  O21  1  0.33473246  0.35720986  0.11779856  1
  O  O22  1  0.40508059  0.79612885  0.90117490  1
  O  O23  1  0.40457491  0.80230033  0.33054384  1
  O  O24  1  0.59542509  0.19769967  0.83054384  1
  O  O25  1  0.59491941  0.20387115  0.40117490  1
  O  O26  1  0.66526754  0.64279014  0.61779856  1
  O  O27  1  0.68779406  0.70250450  0.12006315  1
  O  O28  1  0.81220594  0.20250450  0.62006315  1
  O  O29  1  0.83473246  0.14279014  0.11779856  1
  O  O30  1  0.90508059  0.70387115  0.90117490  1
  O  O31  1  0.90457491  0.69769967  0.33054384  1
