# generated using pymatgen
data_Li3MnFeCo(PO4)3
_symmetry_space_group_name_H-M   'P 1'
_cell_length_a   10.43479092
_cell_length_b   6.08241042
_cell_length_c   14.30836801
_cell_angle_alpha   90.00000000
_cell_angle_beta   90.02932304
_cell_angle_gamma   90.00000000
_symmetry_Int_Tables_number   1
_chemical_formula_structural   Li3MnFeCo(PO4)3
_chemical_formula_sum   'Li12 Mn4 Fe4 Co4 P12 O48'
_cell_volume   908.13312693
_cell_formula_units_Z   4
loop_
 _symmetry_equiv_pos_site_id
 _symmetry_equiv_pos_as_xyz
  1  'x, y, z'
loop_
 _atom_site_type_symbol
 _atom_site_label
 _atom_site_symmetry_multiplicity
 _atom_site_fract_x
 _atom_site_fract_y
 _atom_site_fract_z
 _atom_site_occupancy
  Li  Li0  1  0.99745280  0.49976551  0.66631616  1
  Li  Li1  1  0.99830400  -0.00002236  0.99973243  1
  Li  Li2  1  0.99830400  0.50002236  0.99973243  1
  Li  Li3  1  0.99807882  0.99963928  0.33340409  1
  Li  Li4  1  0.99807882  0.50036072  0.33340409  1
  Li  Li5  1  0.99745280  0.00023449  0.66631616  1
  Li  Li6  1  0.50286131  0.00080329  0.50057998  1
  Li  Li7  1  0.50286131  0.49919671  0.50057998  1
  Li  Li8  1  0.50172585  0.00013399  0.16689327  1
  Li  Li9  1  0.50172585  0.49986601  0.16689327  1
  Li  Li10  1  0.50250139  0.99986326  0.83262665  1
  Li  Li11  1  0.50250139  0.50013674  0.83262665  1
  Mn  Mn12  1  0.21839549  0.75000000  0.15994525  1
  Mn  Mn13  1  0.21894026  0.75000000  0.49462218  1
  Mn  Mn14  1  0.21921654  0.75000000  0.82637641  1
  Mn  Mn15  1  0.28073069  0.25000000  0.32677299  1
  Fe  Fe16  1  0.27954546  0.25000000  0.66157997  1
  Fe  Fe17  1  0.28184986  0.25000000  0.99248491  1
  Fe  Fe18  1  0.71954009  0.75000000  0.00872817  1
  Fe  Fe19  1  0.72022999  0.75000000  0.34195735  1
  Co  Co20  1  0.72084011  0.75000000  0.67502419  1
  Co  Co21  1  0.78023213  0.25000000  0.83796644  1
  Co  Co22  1  0.78061246  0.25000000  0.50651958  1
  Co  Co23  1  0.78147428  0.25000000  0.17226619  1
  P  P24  1  0.09160684  0.25000000  0.80564715  1
  P  P25  1  0.09138415  0.25000000  0.13753483  1
  P  P26  1  0.09045369  0.25000000  0.47270929  1
  P  P27  1  0.40926001  0.75000000  0.30539655  1
  P  P28  1  0.41154007  0.75000000  0.64026650  1
  P  P29  1  0.40824729  0.75000000  0.97326271  1
  P  P30  1  0.59723210  0.25000000  0.36077394  1
  P  P31  1  0.59613882  0.25000000  0.02705323  1
  P  P32  1  0.59696729  0.25000000  0.69354832  1
  P  P33  1  0.90038995  0.75000000  0.86000866  1
  P  P34  1  0.90302342  0.75000000  0.19429315  1
  P  P35  1  0.90159679  0.75000000  0.52853145  1
  O  O36  1  0.04054701  0.75000000  0.23699251  1
  O  O37  1  0.03940698  0.75000000  0.57103682  1
  O  O38  1  0.03933995  0.75000000  0.90008461  1
  O  O39  1  0.09560220  0.25000000  0.58004218  1
  O  O40  1  0.09661128  0.25000000  0.91284683  1
  O  O41  1  0.09510104  0.25000000  0.24499763  1
  O  O42  1  0.16169525  0.04795217  0.09227092  1
  O  O43  1  0.16169525  0.45204783  0.09227092  1
  O  O44  1  0.16048985  0.04752135  0.42748896  1
  O  O45  1  0.16048985  0.45247865  0.42748896  1
  O  O46  1  0.16266062  0.04912947  0.75953817  1
  O  O47  1  0.16266062  0.45087053  0.75953817  1
  O  O48  1  0.34105392  0.54669131  0.59523592  1
  O  O49  1  0.34105392  0.95330869  0.59523592  1
  O  O50  1  0.33843109  0.54762932  0.26081708  1
  O  O51  1  0.33843109  0.95237068  0.26081708  1
  O  O52  1  0.33627813  0.54668419  0.92960787  1
  O  O53  1  0.33627813  0.95331581  0.92960787  1
  O  O54  1  0.40595795  0.75000000  0.41296651  1
  O  O55  1  0.40626334  0.75000000  0.08053840  1
  O  O56  1  0.40594845  0.75000000  0.74755290  1
  O  O57  1  0.45966192  0.25000000  0.40282495  1
  O  O58  1  0.45804683  0.25000000  0.06850203  1
  O  O59  1  0.45887641  0.25000000  0.73491756  1
  O  O60  1  0.54684994  0.75000000  0.26405834  1
  O  O61  1  0.54502839  0.75000000  0.93071291  1
  O  O62  1  0.55097903  0.75000000  0.60055031  1
  O  O63  1  0.59944083  0.25000000  0.25339925  1
  O  O64  1  0.59938914  0.25000000  0.91977298  1
  O  O65  1  0.59960697  0.25000000  0.58607514  1
  O  O66  1  0.66684853  0.04761585  0.07253904  1
  O  O67  1  0.66807663  0.04746381  0.40573166  1
  O  O68  1  0.66764200  0.04676599  0.73888587  1
  O  O69  1  0.66764200  0.45323401  0.73888587  1
  O  O70  1  0.66684853  0.45238415  0.07253904  1
  O  O71  1  0.66807663  0.45253619  0.40573166  1
  O  O72  1  0.83194417  0.54505860  0.90484715  1
  O  O73  1  0.83194417  0.95494140  0.90484715  1
  O  O74  1  0.83246525  0.54536073  0.23804935  1
  O  O75  1  0.83061495  0.54583778  0.57240125  1
  O  O76  1  0.83246525  0.95463927  0.23804935  1
  O  O77  1  0.83061495  0.95416222  0.57240125  1
  O  O78  1  0.89614754  0.75000000  0.75192156  1
  O  O79  1  0.90254283  0.75000000  0.42097004  1
  O  O80  1  0.90322541  0.75000000  0.08679064  1
  O  O81  1  0.95322120  0.25000000  0.76544300  1
  O  O82  1  0.95256156  0.25000000  0.09749241  1
  O  O83  1  0.95194488  0.25000000  0.43230843  1
