# generated using pymatgen
data_Li2Mn2V3O12
_symmetry_space_group_name_H-M   'P 1'
_cell_length_a   12.77367785
_cell_length_b   9.12921698
_cell_length_c   8.98220687
_cell_angle_alpha   90.00000000
_cell_angle_beta   90.00000000
_cell_angle_gamma   90.00000000
_symmetry_Int_Tables_number   1
_chemical_formula_structural   Li2Mn2V3O12
_chemical_formula_sum   'Li8 Mn8 V12 O48'
_cell_volume   1047.44816822
_cell_formula_units_Z   4
loop_
 _symmetry_equiv_pos_site_id
 _symmetry_equiv_pos_as_xyz
  1  'x, y, z'
loop_
 _atom_site_type_symbol
 _atom_site_label
 _atom_site_symmetry_multiplicity
 _atom_site_fract_x
 _atom_site_fract_y
 _atom_site_fract_z
 _atom_site_occupancy
  Li  Li0  1  0.19028747  0.22478472  0.27395181  1
  Li  Li1  1  0.19028747  0.77521528  0.77395181  1
  Li  Li2  1  0.30971253  0.27521528  0.77395181  1
  Li  Li3  1  0.30971253  0.72478472  0.27395181  1
  Li  Li4  1  0.69028747  0.27521528  0.72604819  1
  Li  Li5  1  0.69028747  0.72478472  0.22604819  1
  Li  Li6  1  0.80971253  0.22478472  0.22604819  1
  Li  Li7  1  0.80971253  0.77521528  0.72604819  1
  Mn  Mn8  1  0.11937136  0.25124265  0.97105763  1
  Mn  Mn9  1  0.11937136  0.74875735  0.47105763  1
  Mn  Mn10  1  0.38062864  0.75124265  0.97105763  1
  Mn  Mn11  1  0.38062864  0.24875735  0.47105763  1
  Mn  Mn12  1  0.61937136  0.24875735  0.02894237  1
  Mn  Mn13  1  0.61937136  0.75124265  0.52894237  1
  Mn  Mn14  1  0.88062864  0.25124265  0.52894237  1
  Mn  Mn15  1  0.88062864  0.74875735  0.02894237  1
  V  V16  1  0.00000000  0.46852752  0.25000000  1
  V  V17  1  -0.00000000  0.53147248  0.75000000  1
  V  V18  1  0.50000000  0.03147248  0.75000000  1
  V  V19  1  0.50000000  0.96852752  0.25000000  1
  V  V20  1  0.14150220  0.09927902  0.60589511  1
  V  V21  1  0.14150220  0.90072098  0.10589511  1
  V  V22  1  0.35849780  0.40072098  0.10589511  1
  V  V23  1  0.35849780  0.59927902  0.60589511  1
  V  V24  1  0.64150220  0.40072098  0.39410489  1
  V  V25  1  0.64150220  0.59927902  0.89410489  1
  V  V26  1  0.85849780  0.09927902  0.89410489  1
  V  V27  1  0.85849780  0.90072098  0.39410489  1
  O  O28  1  0.01759760  0.15000557  0.55609734  1
  O  O29  1  0.01759760  0.84999443  0.05609734  1
  O  O30  1  0.07309745  0.57547684  0.36850815  1
  O  O31  1  0.07309745  0.42452316  0.86850815  1
  O  O32  1  0.09030414  0.35257250  0.15878333  1
  O  O33  1  0.09030414  0.64742750  0.65878333  1
  O  O34  1  0.16111752  0.09369652  0.10224011  1
  O  O35  1  0.16111752  0.90630348  0.60224011  1
  O  O36  1  0.17395398  0.16111387  0.78497217  1
  O  O37  1  0.17395398  0.83888613  0.28497217  1
  O  O38  1  0.22659794  0.82168985  0.97810485  1
  O  O39  1  0.22659794  0.17831015  0.47810485  1
  O  O40  1  0.27340206  0.32168985  0.97810485  1
  O  O41  1  0.27340206  0.67831015  0.47810485  1
  O  O42  1  0.32604602  0.66111387  0.78497217  1
  O  O43  1  0.32604602  0.33888613  0.28497217  1
  O  O44  1  0.33888248  0.40630348  0.60224011  1
  O  O45  1  0.33888248  0.59369652  0.10224011  1
  O  O46  1  0.40969586  0.14742750  0.65878333  1
  O  O47  1  0.40969586  0.85257250  0.15878333  1
  O  O48  1  0.42690255  0.07547684  0.36850815  1
  O  O49  1  0.42690255  0.92452316  0.86850815  1
  O  O50  1  0.48240240  0.65000557  0.55609734  1
  O  O51  1  0.48240240  0.34999443  0.05609734  1
  O  O52  1  0.51759760  0.34999443  0.44390266  1
  O  O53  1  0.51759760  0.65000557  0.94390266  1
  O  O54  1  0.57309745  0.07547684  0.13149185  1
  O  O55  1  0.57309745  0.92452316  0.63149185  1
  O  O56  1  0.59030414  0.14742750  0.84121667  1
  O  O57  1  0.59030414  0.85257250  0.34121667  1
  O  O58  1  0.66111752  0.40630348  0.89775989  1
  O  O59  1  0.66111752  0.59369652  0.39775989  1
  O  O60  1  0.67395398  0.33888613  0.21502783  1
  O  O61  1  0.67395398  0.66111387  0.71502783  1
  O  O62  1  0.72659794  0.32168985  0.52189515  1
  O  O63  1  0.72659794  0.67831015  0.02189515  1
  O  O64  1  0.77340206  0.17831015  0.02189515  1
  O  O65  1  0.77340206  0.82168985  0.52189515  1
  O  O66  1  0.82604602  0.16111387  0.71502783  1
  O  O67  1  0.82604602  0.83888613  0.21502783  1
  O  O68  1  0.83888248  0.09369652  0.39775989  1
  O  O69  1  0.83888248  0.90630348  0.89775989  1
  O  O70  1  0.90969586  0.35257250  0.34121667  1
  O  O71  1  0.90969586  0.64742750  0.84121667  1
  O  O72  1  0.92690255  0.42452316  0.63149185  1
  O  O73  1  0.92690255  0.57547684  0.13149185  1
  O  O74  1  0.98240240  0.15000557  0.94390266  1
  O  O75  1  0.98240240  0.84999443  0.44390266  1
