# generated using pymatgen
data_Li2MnVP2(HO5)2
_symmetry_space_group_name_H-M   'P 1'
_cell_length_a   7.49641445
_cell_length_b   7.86257706
_cell_length_c   6.95590796
_cell_angle_alpha   88.42445071
_cell_angle_beta   89.21818788
_cell_angle_gamma   116.84456499
_symmetry_Int_Tables_number   1
_chemical_formula_structural   Li2MnVP2(HO5)2
_chemical_formula_sum   'Li4 Mn2 V2 P4 H4 O20'
_cell_volume   365.51215173
_cell_formula_units_Z   2
loop_
 _symmetry_equiv_pos_site_id
 _symmetry_equiv_pos_as_xyz
  1  'x, y, z'
loop_
 _atom_site_type_symbol
 _atom_site_label
 _atom_site_symmetry_multiplicity
 _atom_site_fract_x
 _atom_site_fract_y
 _atom_site_fract_z
 _atom_site_occupancy
  Li  Li0  1  0.41529930  0.23725919  0.16134853  1
  Li  Li1  1  0.08592141  0.26006159  0.34058277  1
  Li  Li2  1  0.91112883  0.73874522  0.65873858  1
  Li  Li3  1  0.58686407  0.76486753  0.83822681  1
  Mn  Mn4  1  0.25032728  0.75055067  0.25116548  1
  Mn  Mn5  1  0.50002882  0.49902138  0.50172850  1
  V  V6  1  0.00000320  0.99918065  0.99917520  1
  V  V7  1  0.74873007  0.24925372  0.74849748  1
  P  P8  1  0.27337464  0.03867927  0.59079960  1
  P  P9  1  0.77262028  0.54124229  0.09748123  1
  P  P10  1  0.22454080  0.45930750  0.90713344  1
  P  P11  1  0.72855671  0.96016411  0.40496570  1
  H  H12  1  0.67943737  0.01923246  0.04267797  1
  H  H13  1  0.18672282  0.51670109  0.54524107  1
  H  H14  1  0.81517808  0.48256158  0.45594232  1
  H  H15  1  0.32072530  0.98262544  0.95607416  1
  O  O16  1  0.16248136  0.28744483  0.05432794  1
  O  O17  1  0.30716341  0.65234043  0.01242593  1
  O  O18  1  0.33024300  0.20384133  0.43974078  1
  O  O19  1  0.09318549  0.01863694  0.71753999  1
  O  O20  1  0.24368349  0.97346195  0.07621593  1
  O  O21  1  0.59086060  0.52287051  0.22119811  1
  O  O22  1  0.26353858  0.52511005  0.42468734  1
  O  O23  1  0.45058355  0.06845368  0.72093467  1
  O  O24  1  0.81167590  0.15678115  0.50404729  1
  O  O25  1  0.04918872  0.43210340  0.77608760  1
  O  O26  1  0.94695259  0.56586201  0.22748059  1
  O  O27  1  0.18986872  0.84136647  0.49119965  1
  O  O28  1  0.55251171  0.93275868  0.27558871  1
  O  O29  1  0.73857588  0.47208203  0.57785693  1
  O  O30  1  0.40724331  0.48119457  0.78241926  1
  O  O31  1  0.75682167  0.03147125  0.92128009  1
  O  O32  1  0.90814606  0.97736914  0.27869022  1
  O  O33  1  0.67081521  0.79532636  0.55809007  1
  O  O34  1  0.69071561  0.34903517  0.99253042  1
  O  O35  1  0.83628616  0.71303633  0.94787966  1
