# generated using pymatgen
data_Li2Mn2(PO4)3
_symmetry_space_group_name_H-M   'P 1'
_cell_length_a   8.53309557
_cell_length_b   8.87209364
_cell_length_c   11.98658376
_cell_angle_alpha   90.00000000
_cell_angle_beta   90.00000000
_cell_angle_gamma   90.00000000
_symmetry_Int_Tables_number   1
_chemical_formula_structural   Li2Mn2(PO4)3
_chemical_formula_sum   'Li8 Mn8 P12 O48'
_cell_volume   907.46137969
_cell_formula_units_Z   4
loop_
 _symmetry_equiv_pos_site_id
 _symmetry_equiv_pos_as_xyz
  1  'x, y, z'
loop_
 _atom_site_type_symbol
 _atom_site_label
 _atom_site_symmetry_multiplicity
 _atom_site_fract_x
 _atom_site_fract_y
 _atom_site_fract_z
 _atom_site_occupancy
  Li  Li0  1  0.21750004  0.72215331  0.18122520  1
  Li  Li1  1  0.21750004  0.77784669  0.81877480  1
  Li  Li2  1  0.28249996  0.22215331  0.31877480  1
  Li  Li3  1  0.28249996  0.27784669  0.68122520  1
  Li  Li4  1  0.71750004  0.72215331  0.31877480  1
  Li  Li5  1  0.71750004  0.77784669  0.68122520  1
  Li  Li6  1  0.78249996  0.22215331  0.18122520  1
  Li  Li7  1  0.78249996  0.27784669  0.81877480  1
  Mn  Mn8  1  0.24951994  0.96361771  0.61391093  1
  Mn  Mn9  1  0.24951994  0.53638229  0.38608907  1
  Mn  Mn10  1  0.25048006  0.03638229  0.11391093  1
  Mn  Mn11  1  0.25048006  0.46361771  0.88608907  1
  Mn  Mn12  1  0.74951994  0.53638229  0.11391093  1
  Mn  Mn13  1  0.74951994  0.96361771  0.88608907  1
  Mn  Mn14  1  0.75048006  0.03638229  0.38608907  1
  Mn  Mn15  1  0.75048006  0.46361771  0.61391093  1
  P  P16  1  0.03329142  0.25000000  0.50000000  1
  P  P17  1  0.46670858  0.75000000  -0.00000000  1
  P  P18  1  0.53329142  0.25000000  -0.00000000  1
  P  P19  1  0.96670858  0.75000000  0.50000000  1
  P  P20  1  0.10454514  0.39596382  0.14747628  1
  P  P21  1  0.10454514  0.10403618  0.85252372  1
  P  P22  1  0.39545486  0.60403618  0.64747628  1
  P  P23  1  0.39545486  0.89596382  0.35252372  1
  P  P24  1  0.60454514  0.10403618  0.64747628  1
  P  P25  1  0.60454514  0.39596382  0.35252372  1
  P  P26  1  0.89545486  0.60403618  0.85252372  1
  P  P27  1  0.89545486  0.89596382  0.14747628  1
  O  O28  1  0.06071869  0.64157622  0.42552746  1
  O  O29  1  0.06071869  0.85842378  0.57447254  1
  O  O30  1  0.07758700  0.89778053  0.15738220  1
  O  O31  1  0.07758700  0.60221947  0.84261780  1
  O  O32  1  0.13994886  0.16511070  0.58361819  1
  O  O33  1  0.13994886  0.33488930  0.41638181  1
  O  O34  1  0.15472945  0.43841629  0.02896343  1
  O  O35  1  0.15472945  0.06158371  0.97103657  1
  O  O36  1  0.15651126  0.23602210  0.18175170  1
  O  O37  1  0.15651126  0.26397790  0.81824830  1
  O  O38  1  0.17688490  0.51760738  0.22608963  1
  O  O39  1  0.17688490  0.98239262  0.77391037  1
  O  O40  1  0.32311510  0.01760738  0.27391037  1
  O  O41  1  0.32311510  0.48239262  0.72608963  1
  O  O42  1  0.34348874  0.76397790  0.68175170  1
  O  O43  1  0.34348874  0.73602210  0.31824830  1
  O  O44  1  0.34527055  0.56158371  0.52896343  1
  O  O45  1  0.34527055  0.93841629  0.47103657  1
  O  O46  1  0.36005114  0.83488930  0.08361819  1
  O  O47  1  0.36005114  0.66511070  0.91638181  1
  O  O48  1  0.42241300  0.10221947  0.65738220  1
  O  O49  1  0.42241300  0.39778053  0.34261780  1
  O  O50  1  0.43928131  0.14157622  0.07447254  1
  O  O51  1  0.43928131  0.35842378  0.92552746  1
  O  O52  1  0.56071869  0.64157622  0.07447254  1
  O  O53  1  0.56071869  0.85842378  0.92552746  1
  O  O54  1  0.57758700  0.60221947  0.65738220  1
  O  O55  1  0.57758700  0.89778053  0.34261780  1
  O  O56  1  0.63994886  0.33488930  0.08361819  1
  O  O57  1  0.63994886  0.16511070  0.91638181  1
  O  O58  1  0.65472945  0.06158371  0.52896343  1
  O  O59  1  0.65472945  0.43841629  0.47103657  1
  O  O60  1  0.65651126  0.23602210  0.31824830  1
  O  O61  1  0.65651126  0.26397790  0.68175170  1
  O  O62  1  0.67688490  0.51760738  0.27391037  1
  O  O63  1  0.67688490  0.98239262  0.72608963  1
  O  O64  1  0.82311510  0.01760738  0.22608963  1
  O  O65  1  0.82311510  0.48239262  0.77391037  1
  O  O66  1  0.84348874  0.73602210  0.18175170  1
  O  O67  1  0.84348874  0.76397790  0.81824830  1
  O  O68  1  0.84527055  0.56158371  0.97103657  1
  O  O69  1  0.84527055  0.93841629  0.02896343  1
  O  O70  1  0.86005114  0.66511070  0.58361819  1
  O  O71  1  0.86005114  0.83488930  0.41638181  1
  O  O72  1  0.92241300  0.10221947  0.84261780  1
  O  O73  1  0.92241300  0.39778053  0.15738220  1
  O  O74  1  0.93928131  0.14157622  0.42552746  1
  O  O75  1  0.93928131  0.35842378  0.57447254  1
