# generated using pymatgen
data_Li3V2P4(HO8)2
_symmetry_space_group_name_H-M   'P 1'
_cell_length_a   9.97687531
_cell_length_b   8.08562178
_cell_length_c   10.70573347
_cell_angle_alpha   89.96570674
_cell_angle_beta   90.09770745
_cell_angle_gamma   89.89167745
_symmetry_Int_Tables_number   1
_chemical_formula_structural   Li3V2P4(HO8)2
_chemical_formula_sum   'Li9 V6 P12 H6 O48'
_cell_volume   863.62043108
_cell_formula_units_Z   3
loop_
 _symmetry_equiv_pos_site_id
 _symmetry_equiv_pos_as_xyz
  1  'x, y, z'
loop_
 _atom_site_type_symbol
 _atom_site_label
 _atom_site_symmetry_multiplicity
 _atom_site_fract_x
 _atom_site_fract_y
 _atom_site_fract_z
 _atom_site_occupancy
  Li  Li0  1  0.23218727  0.86821631  0.07568658  1
  Li  Li1  1  0.09512896  0.13327370  0.25306164  1
  Li  Li2  1  0.73661059  0.63783395  0.08128224  1
  Li  Li3  1  0.60272603  0.36419654  0.25827891  1
  Li  Li4  1  0.56586312  0.87196537  0.41494864  1
  Li  Li5  1  0.40390675  0.63606027  0.74536648  1
  Li  Li6  1  0.26760100  0.36668533  0.92377104  1
  Li  Li7  1  0.93585936  0.36685380  0.58432474  1
  Li  Li8  1  0.89795659  0.87139489  0.74586125  1
  V  V9  1  0.16274612  0.50455269  0.17630027  1
  V  V10  1  0.00132440  0.99784512  0.49843235  1
  V  V11  1  0.67106708  0.00187962  0.16257400  1
  V  V12  1  0.49743074  0.49621701  0.50107343  1
  V  V13  1  0.33991636  0.00362389  0.82400270  1
  V  V14  1  0.82718819  0.49435527  0.83537634  1
  P  P15  1  0.36753487  0.15665119  0.12902295  1
  P  P16  1  0.46447478  0.65513156  0.20237638  1
  P  P17  1  0.19905804  0.34968138  0.46781490  1
  P  P18  1  0.30076134  0.85058437  0.53239316  1
  P  P19  1  0.03412380  0.15468880  0.80023490  1
  P  P20  1  0.86560452  0.34847925  0.13145695  1
  P  P21  1  0.13162111  0.65473785  0.87055637  1
  P  P22  1  0.96903093  0.84662051  0.19782819  1
  P  P23  1  0.70092852  0.15344925  0.46460304  1
  P  P24  1  0.79800425  0.65392497  0.53750511  1
  P  P25  1  0.53201354  0.34855973  0.80213426  1
  P  P26  1  0.63644170  0.84977543  0.86606727  1
  H  H27  1  0.50239123  0.50992088  0.01329687  1
  H  H28  1  0.33057067  0.00970826  0.32058037  1
  H  H29  1  0.16926341  0.50843939  0.67835174  1
  H  H30  1  0.83719889  0.51452063  0.35371918  1
  H  H31  1  0.66257944  0.01167439  0.64988444  1
  H  H32  1  0.99619119  0.01227145  0.98629610  1
  O  O33  1  0.04849594  0.94153082  0.09729411  1
  O  O34  1  0.01854670  0.33262824  0.16236438  1
  O  O35  1  0.03411633  0.67300531  0.21299335  1
  O  O36  1  0.35247028  0.04943196  0.00817740  1
  O  O37  1  0.29262537  0.32209654  0.10986960  1
  O  O38  1  0.31432229  0.67459221  0.16521708  1
  O  O39  1  0.28834693  0.05740652  0.23211797  1
  O  O40  1  0.18881599  0.45216426  0.33848601  1
  O  O41  1  0.12928456  0.18531470  0.43690111  1
  O  O42  1  0.54547261  0.56319635  0.09653822  1
  O  O43  1  0.51474033  0.17987944  0.16472069  1
  O  O44  1  0.15057941  0.83398694  0.50761073  1
  O  O45  1  0.12277835  0.43959718  0.57166232  1
  O  O46  1  0.53330516  0.82128883  0.22378799  1
  O  O47  1  0.01990675  0.04980252  0.68142316  1
  O  O48  1  0.47754741  0.54191238  0.31687024  1
  O  O49  1  0.85793176  0.45437686  0.00588598  1
  O  O50  1  0.37650324  0.93990938  0.42859204  1
  O  O51  1  0.80534913  0.17836049  0.11469603  1
  O  O52  1  0.34878428  0.33268501  0.49404085  1
  O  O53  1  0.81954713  0.82292640  0.16510254  1
  O  O54  1  0.37013039  0.68522294  0.56271607  1
  O  O55  1  0.78746182  0.45172927  0.22696884  1
  O  O56  1  0.31135338  0.95306397  0.66196654  1
  O  O57  1  0.68894257  0.04368702  0.34660627  1
  O  O58  1  0.21122990  0.55674716  0.76721433  1
  O  O59  1  0.63436244  0.32169398  0.44071017  1
  O  O60  1  0.18530596  0.17667153  0.83332469  1
  O  O61  1  0.64963131  0.67363385  0.50103139  1
  O  O62  1  0.20404489  0.82136965  0.88859378  1
  O  O63  1  0.62084413  0.05738779  0.56644997  1
  O  O64  1  0.14707773  0.54833048  0.99132581  1
  O  O65  1  0.51588745  0.45301555  0.68261657  1
  O  O66  1  0.98151710  0.95142101  0.31780849  1
  O  O67  1  0.47076329  0.17394325  0.78942896  1
  O  O68  1  0.87727005  0.54975655  0.43850702  1
  O  O69  1  0.85038114  0.17422456  0.50097674  1
  O  O70  1  0.48252365  0.82856603  0.83371305  1
  O  O71  1  0.45409628  0.44147471  0.90523531  1
  O  O72  1  0.86851515  0.81769634  0.56021666  1
  O  O73  1  0.81032679  0.54480650  0.65938137  1
  O  O74  1  0.71208866  0.93184324  0.76007367  1
  O  O75  1  0.68512285  0.33387615  0.82942845  1
  O  O76  1  0.69992435  0.67292669  0.88812337  1
  O  O77  1  0.64137444  0.94524996  0.98882618  1
  O  O78  1  0.96605541  0.32569787  0.78100530  1
  O  O79  1  0.98215329  0.67282927  0.83561064  1
  O  O80  1  0.95598285  0.05732331  0.90162576  1
