# generated using pymatgen
data_K2LaPCO7
_symmetry_space_group_name_H-M   'P 1'
_cell_length_a   10.17711315
_cell_length_b   7.43009440
_cell_length_c   5.73874146
_cell_angle_alpha   90.00000000
_cell_angle_beta   92.73482858
_cell_angle_gamma   90.00000000
_symmetry_Int_Tables_number   1
_chemical_formula_structural   K2LaPCO7
_chemical_formula_sum   'K4 La2 P2 C2 O14'
_cell_volume   433.45166462
_cell_formula_units_Z   2
loop_
 _symmetry_equiv_pos_site_id
 _symmetry_equiv_pos_as_xyz
  1  'x, y, z'
loop_
 _atom_site_type_symbol
 _atom_site_label
 _atom_site_symmetry_multiplicity
 _atom_site_fract_x
 _atom_site_fract_y
 _atom_site_fract_z
 _atom_site_occupancy
  K  K0  1  0.21024012  0.48701229  0.24437681  1
  K  K1  1  0.21024012  0.01298771  0.24437681  1
  K  K2  1  0.78975988  0.51298771  0.75562319  1
  K  K3  1  0.78975988  0.98701229  0.75562319  1
  La  La4  1  0.38262772  0.75000000  0.78424772  1
  La  La5  1  0.61737228  0.25000000  0.21575228  1
  P  P6  1  0.42687233  0.25000000  0.70495999  1
  P  P7  1  0.57312767  0.75000000  0.29504001  1
  C  C8  1  0.09616076  0.75000000  0.73014769  1
  C  C9  1  0.90383924  0.25000000  0.26985231  1
  O  O10  1  0.02725341  0.25000000  0.30299574  1
  O  O11  1  0.15562292  0.75000000  0.93914996  1
  O  O12  1  0.17695803  0.75000000  0.55456706  1
  O  O13  1  0.36072123  0.07710856  0.79776631  1
  O  O14  1  0.36072123  0.42289144  0.79776631  1
  O  O15  1  0.42366899  0.75000000  0.21018962  1
  O  O16  1  0.41889998  0.25000000  0.43153860  1
  O  O17  1  0.58110002  0.75000000  0.56846140  1
  O  O18  1  0.57633101  0.25000000  0.78981038  1
  O  O19  1  0.63927877  0.57710856  0.20223369  1
  O  O20  1  0.63927877  0.92289144  0.20223369  1
  O  O21  1  0.82304197  0.25000000  0.44543294  1
  O  O22  1  0.84437708  0.25000000  0.06085004  1
  O  O23  1  0.97274659  0.75000000  0.69700426  1
