# generated using pymatgen
data_ZnCrSF5
_symmetry_space_group_name_H-M   'P 1'
_cell_length_a   6.17909334
_cell_length_b   7.34068756
_cell_length_c   12.14010965
_cell_angle_alpha   86.62588519
_cell_angle_beta   28.39976429
_cell_angle_gamma   78.70673838
_symmetry_Int_Tables_number   1
_chemical_formula_structural   ZnCrSF5
_chemical_formula_sum   'Zn2 Cr2 S2 F10'
_cell_volume   249.12663822
_cell_formula_units_Z   2
loop_
 _symmetry_equiv_pos_site_id
 _symmetry_equiv_pos_as_xyz
  1  'x, y, z'
loop_
 _atom_site_type_symbol
 _atom_site_label
 _atom_site_symmetry_multiplicity
 _atom_site_fract_x
 _atom_site_fract_y
 _atom_site_fract_z
 _atom_site_occupancy
  Zn  Zn0  1  0.58277701  0.15676461  0.54629117  1
  Zn  Zn1  1  0.47995811  0.67076663  0.25994589  1
  Cr  Cr2  1  0.49807144  0.51075754  0.00705579  1
  Cr  Cr3  1  0.54572834  0.99896653  0.98407916  1
  S  S4  1  0.01920221  0.29394275  0.47141225  1
  S  S5  1  0.76997607  0.56777736  0.56661499  1
  F  F6  1  0.39408534  0.92305858  0.21867091  1
  F  F7  1  0.79780540  0.45610876  0.01699647  1
  F  F8  1  0.67680419  0.02815280  0.77627193  1
  F  F9  1  0.11371518  0.60746738  0.04402587  1
  F  F10  1  0.92056278  0.65752374  0.34026129  1
  F  F11  1  0.18023707  0.99191509  0.75475660  1
  F  F12  1  0.08736007  0.36421117  0.68041668  1
  F  F13  1  0.86560536  0.03486526  0.27872317  1
  F  F14  1  0.75396563  0.72455563  0.87581324  1
  F  F15  1  0.30087879  0.28029715  0.11068060  1
