# generated using pymatgen
data_NaY(C2O5)2
_symmetry_space_group_name_H-M   'P 1'
_cell_length_a   6.43647820
_cell_length_b   11.62188342
_cell_length_c   6.45635350
_cell_angle_alpha   90.00000000
_cell_angle_beta   90.20675453
_cell_angle_gamma   90.00000000
_symmetry_Int_Tables_number   1
_chemical_formula_structural   NaY(C2O5)2
_chemical_formula_sum   'Na2 Y2 C8 O20'
_cell_volume   482.95791773
_cell_formula_units_Z   2
loop_
 _symmetry_equiv_pos_site_id
 _symmetry_equiv_pos_as_xyz
  1  'x, y, z'
loop_
 _atom_site_type_symbol
 _atom_site_label
 _atom_site_symmetry_multiplicity
 _atom_site_fract_x
 _atom_site_fract_y
 _atom_site_fract_z
 _atom_site_occupancy
  Na  Na0  1  0.89166190  0.23690566  0.06160112  1
  Na  Na1  1  0.10833810  0.73690566  0.93839888  1
  Y  Y2  1  0.84123300  0.47705402  0.73224203  1
  Y  Y3  1  0.15876700  0.97705402  0.26775797  1
  C  C4  1  0.32920137  0.38631865  0.80920596  1
  C  C5  1  0.67079863  0.88631865  0.19079404  1
  C  C6  1  0.93874838  0.51705513  0.24429398  1
  C  C7  1  0.06125162  0.01705513  0.75570602  1
  C  C8  1  0.89617228  0.18667333  0.58171701  1
  C  C9  1  0.10382772  0.68667333  0.41828299  1
  C  C10  1  0.62470855  0.72711792  0.92764820  1
  C  C11  1  0.37529145  0.22711792  0.07235180  1
  O  O12  1  0.51644142  0.41495036  0.81269977  1
  O  O13  1  0.48355858  0.91495036  0.18730023  1
  O  O14  1  0.18565959  0.43317714  0.70607050  1
  O  O15  1  0.81434041  0.93317714  0.29392950  1
  O  O16  1  0.08449320  0.60431606  0.24877515  1
  O  O17  1  0.91550680  0.10431606  0.75122485  1
  O  O18  1  0.94237403  0.45818770  0.07954512  1
  O  O19  1  0.05762597  0.95818770  0.92045488  1
  O  O20  1  0.83158283  0.28065318  0.65275862  1
  O  O21  1  0.16841717  0.78065318  0.34724138  1
  O  O22  1  0.93595841  0.15613964  0.40234587  1
  O  O23  1  0.06404159  0.65613964  0.59765413  1
  O  O24  1  0.44800918  0.75307615  0.87656117  1
  O  O25  1  0.55199082  0.25307615  0.12343883  1
  O  O26  1  0.74170429  0.64587570  0.86445442  1
  O  O27  1  0.25829571  0.14587570  0.13554558  1
  O  O28  1  0.81517324  0.50312293  0.39243767  1
  O  O29  1  0.18482676  0.00312293  0.60756233  1
  O  O30  1  0.74263508  0.79247642  0.07628392  1
  O  O31  1  0.25736492  0.29247642  0.92371608  1
