# generated using pymatgen
data_Ca4Fe5(TeO6)3
_symmetry_space_group_name_H-M   'P 1'
_cell_length_a   9.06091100
_cell_length_b   9.06091105
_cell_length_c   10.81541895
_cell_angle_alpha   84.17158150
_cell_angle_beta   84.17158060
_cell_angle_gamma   68.10424994
_symmetry_Int_Tables_number   1
_chemical_formula_structural   Ca4Fe5(TeO6)3
_chemical_formula_sum   'Ca8 Fe10 Te6 O36'
_cell_volume   817.68214679
_cell_formula_units_Z   2
loop_
 _symmetry_equiv_pos_site_id
 _symmetry_equiv_pos_as_xyz
  1  'x, y, z'
loop_
 _atom_site_type_symbol
 _atom_site_label
 _atom_site_symmetry_multiplicity
 _atom_site_fract_x
 _atom_site_fract_y
 _atom_site_fract_z
 _atom_site_occupancy
  Ca  Ca0  1  0.85684941  0.57667148  0.39080036  1
  Ca  Ca1  1  0.52004105  0.57079973  0.23203948  1
  Ca  Ca2  1  0.42332852  0.14315059  0.60919964  1
  Ca  Ca3  1  0.42920027  0.47995895  0.76796052  1
  Ca  Ca4  1  0.18085347  0.91150873  0.73272633  1
  Ca  Ca5  1  0.18446653  0.24762879  0.89469660  1
  Ca  Ca6  1  0.75237121  0.81553347  0.10530340  1
  Ca  Ca7  1  0.08849127  0.81914653  0.26727367  1
  Fe  Fe8  1  0.79480422  0.45533862  0.97001941  1
  Fe  Fe9  1  0.06407061  0.18507314  0.47003761  1
  Fe  Fe10  1  0.32012570  0.33300482  0.32648417  1
  Fe  Fe11  1  0.93979104  0.71587076  0.82588847  1
  Fe  Fe12  1  0.66699518  0.67987430  0.67351583  1
  Fe  Fe13  1  0.96299123  0.03700877  0.00000000  1
  Fe  Fe14  1  0.64467469  0.35532531  0.50000000  1
  Fe  Fe15  1  0.28412924  0.06020996  0.17411153  1
  Fe  Fe16  1  0.81492686  0.93592939  0.52996239  1
  Fe  Fe17  1  0.54466138  0.20519578  0.02998059  1
  Te  Te18  1  0.47577823  0.84573632  0.91364668  1
  Te  Te19  1  0.80446764  0.19552667  0.24977798  1
  Te  Te20  1  0.80447333  0.19553236  0.75022202  1
  Te  Te21  1  0.45497456  0.86904107  0.41073493  1
  Te  Te22  1  0.13095893  0.54502544  0.58926507  1
  Te  Te23  1  0.15426368  0.52422177  0.08635332  1
  O  O24  1  0.37351319  0.03030708  0.80569219  1
  O  O25  1  0.72205642  0.41466072  0.81342895  1
  O  O26  1  0.62575009  0.57657064  0.54883740  1
  O  O27  1  0.73280897  0.12281168  0.41523865  1
  O  O28  1  0.58533928  0.27794358  0.18657105  1
  O  O29  1  0.87718832  0.26719103  0.58476135  1
  O  O30  1  0.33022573  0.84186403  0.27856877  1
  O  O31  1  0.00848623  0.14350194  0.81808198  1
  O  O32  1  0.60049111  0.24799210  0.68223658  1
  O  O33  1  0.10998920  0.37633512  0.43171799  1
  O  O34  1  0.64276251  0.62024268  0.05290638  1
  O  O35  1  0.49579215  0.01478460  0.06624547  1
  O  O36  1  0.88767736  0.97548108  0.68726414  1
  O  O37  1  0.69473419  0.78965827  0.83553067  1
  O  O38  1  0.37975732  0.35723749  0.94709362  1
  O  O39  1  0.27893582  0.54715555  0.22177206  1
  O  O40  1  0.96616573  0.77004977  0.44729599  1
  O  O41  1  0.21034173  0.30526581  0.16446933  1
  O  O42  1  0.42342936  0.37424991  0.45116260  1
  O  O43  1  0.22995023  0.03383427  0.55270401  1
  O  O44  1  0.63977820  0.76887916  0.30303520  1
  O  O45  1  0.91156784  0.60690464  0.66851052  1
  O  O46  1  0.85649806  0.99151377  0.18191802  1
  O  O47  1  0.45284445  0.72106418  0.77822794  1
  O  O48  1  0.98558381  0.81653731  0.94939536  1
  O  O49  1  0.73165341  0.12313284  0.91535686  1
  O  O50  1  0.98521540  0.50420785  0.93375453  1
  O  O51  1  0.15813597  0.66977427  0.72143123  1
  O  O52  1  0.02451892  0.11232264  0.31273586  1
  O  O53  1  0.39309536  0.08843216  0.33148948  1
  O  O54  1  0.23112084  0.36022180  0.69696480  1
  O  O55  1  0.87686716  0.26834659  0.08464314  1
  O  O56  1  0.75200790  0.39950889  0.31776342  1
  O  O57  1  0.62366388  0.89001080  0.56828201  1
  O  O58  1  0.18346269  0.01441619  0.05060464  1
  O  O59  1  0.96969292  0.62648681  0.19430781  1
