# generated using pymatgen
data_H5IO6
_symmetry_space_group_name_H-M   'P 1'
_cell_length_a   5.44978494
_cell_length_b   18.56980800
_cell_length_c   4.94806820
_cell_angle_alpha   90.00000000
_cell_angle_beta   107.49126422
_cell_angle_gamma   90.00000000
_symmetry_Int_Tables_number   1
_chemical_formula_structural   H5IO6
_chemical_formula_sum   'H20 I4 O24'
_cell_volume   477.59836180
_cell_formula_units_Z   4
loop_
 _symmetry_equiv_pos_site_id
 _symmetry_equiv_pos_as_xyz
  1  'x, y, z'
loop_
 _atom_site_type_symbol
 _atom_site_label
 _atom_site_symmetry_multiplicity
 _atom_site_fract_x
 _atom_site_fract_y
 _atom_site_fract_z
 _atom_site_occupancy
  H  H0  1  0.30786446  0.55196719  0.52481010  1
  H  H1  1  0.63836597  0.99445068  0.30229909  1
  H  H2  1  0.86163403  0.49445068  0.19770091  1
  H  H3  1  0.19213554  0.05196719  0.97518990  1
  H  H4  1  0.72945302  0.60975845  0.06031850  1
  H  H5  1  0.33633521  0.98921046  0.64201989  1
  H  H6  1  0.16366479  0.48921046  0.85798011  1
  H  H7  1  0.77054698  0.10975845  0.43968150  1
  H  H8  1  0.81156913  0.93794085  0.96070475  1
  H  H9  1  0.68843087  0.43794085  0.53929525  1
  H  H10  1  0.11826307  0.68738465  0.45485215  1
  H  H11  1  0.59395381  0.79820287  0.90341026  1
  H  H12  1  0.90604619  0.29820287  0.59658974  1
  H  H13  1  0.38173693  0.18738465  0.04514785  1
  H  H14  1  0.11200511  0.86459816  0.50504064  1
  H  H15  1  0.38799489  0.36459816  0.99495936  1
  H  H16  1  0.91427186  0.71135881  0.78407472  1
  H  H17  1  0.38507093  0.77350145  0.25565019  1
  H  H18  1  0.11492907  0.27350145  0.24434981  1
  H  H19  1  0.58572814  0.21135881  0.71592528  1
  I  I20  1  0.21008264  0.61605072  0.06162527  1
  I  I21  1  0.66280883  0.87201201  0.51214225  1
  I  I22  1  0.83719117  0.37201201  0.98785775  1
  I  I23  1  0.28991736  0.11605072  0.43837473  1
  O  O24  1  0.20534689  0.53957192  0.79699779  1
  O  O25  1  0.66513692  0.94462642  0.23244835  1
  O  O26  1  0.83486308  0.44462642  0.26755165  1
  O  O27  1  0.29465311  0.03957192  0.70300221  1
  O  O28  1  0.89839451  0.57675098  0.11060997  1
  O  O29  1  0.37522175  0.90749401  0.58714165  1
  O  O30  1  0.12477825  0.40749401  0.91285835  1
  O  O31  1  0.60160549  0.07675098  0.38939003  1
  O  O32  1  0.39523607  0.55710993  0.37080868  1
  O  O33  1  0.89016126  0.92948655  0.80421358  1
  O  O34  1  0.60983874  0.42948655  0.69578642  1
  O  O35  1  0.10476393  0.05710993  0.12919232  1
  O  O36  1  0.17869932  0.69941007  0.28594609  1
  O  O37  1  0.67689071  0.78799966  0.75213711  1
  O  O38  1  0.82310929  0.28799966  0.74786289  1
  O  O39  1  0.32130068  0.19941007  0.21405391  1
  O  O40  1  0.50232954  0.65254557  0.01253638  1
  O  O41  1  0.95491027  0.83151585  0.43732779  1
  O  O42  1  0.54508973  0.33151585  0.06267221  1
  O  O43  1  0.99767046  0.15254557  0.48746362  1
  O  O44  1  0.00266987  0.66929012  0.72916793  1
  O  O45  1  0.46469226  0.81563365  0.18972567  1
  O  O46  1  0.03530774  0.31563365  0.31027433  1
  O  O47  1  0.49733013  0.16929012  0.77083207  1
