# generated using pymatgen
data_CaTm2O4
_symmetry_space_group_name_H-M   'P 1'
_cell_length_a   6.72912262
_cell_length_b   6.75208769
_cell_length_c   6.72917536
_cell_angle_alpha   60.11233645
_cell_angle_beta   89.99973341
_cell_angle_gamma   119.88740541
_symmetry_Int_Tables_number   1
_chemical_formula_structural   CaTm2O4
_chemical_formula_sum   'Ca2 Tm4 O8'
_cell_volume   216.92631194
_cell_formula_units_Z   2
loop_
 _symmetry_equiv_pos_site_id
 _symmetry_equiv_pos_as_xyz
  1  'x, y, z'
loop_
 _atom_site_type_symbol
 _atom_site_label
 _atom_site_symmetry_multiplicity
 _atom_site_fract_x
 _atom_site_fract_y
 _atom_site_fract_z
 _atom_site_occupancy
  Ca  Ca0  1  0.00000474  0.00001047  0.99999526  1
  Ca  Ca1  1  0.74999526  0.49998953  0.75000474  1
  Tm  Tm2  1  0.37500000  0.25000000  0.37500000  1
  Tm  Tm3  1  0.87500000  0.25000000  0.37500000  1
  Tm  Tm4  1  0.37500000  0.75000000  0.37500000  1
  Tm  Tm5  1  0.37500000  0.75000000  0.87500000  1
  O  O6  1  0.14025346  0.28050658  0.13680497  1
  O  O7  1  0.60974687  0.21949342  0.16731155  1
  O  O8  1  0.58269081  0.71949486  0.14025225  1
  O  O9  1  0.13680405  0.71949486  0.14025188  1
  O  O10  1  0.60974654  0.21949342  0.61319503  1
  O  O11  1  0.14025313  0.28050658  0.58268845  1
  O  O12  1  0.16730919  0.78050514  0.60974775  1
  O  O13  1  0.61319595  0.78050514  0.60974812  1
