# generated using pymatgen
data_LaCoO3
_symmetry_space_group_name_H-M   'P 1'
_cell_length_a   5.49096933
_cell_length_b   5.54274189
_cell_length_c   5.54944395
_cell_angle_alpha   89.77763050
_cell_angle_beta   120.72081258
_cell_angle_gamma   119.41185997
_symmetry_Int_Tables_number   1
_chemical_formula_structural   LaCoO3
_chemical_formula_sum   'La2 Co2 O6'
_cell_volume   119.40413391
_cell_formula_units_Z   2
loop_
 _symmetry_equiv_pos_site_id
 _symmetry_equiv_pos_as_xyz
  1  'x, y, z'
loop_
 _atom_site_type_symbol
 _atom_site_label
 _atom_site_symmetry_multiplicity
 _atom_site_fract_x
 _atom_site_fract_y
 _atom_site_fract_z
 _atom_site_occupancy
  La  La0  1  0.50571259  0.75495769  0.25013516  1
  La  La1  1  0.49427514  0.24504370  0.74985425  1
  Co  Co2  1  0.99999233  0.00000054  0.99999419  1
  Co  Co3  1  0.99999248  0.50000039  0.49999413  1
  O  O4  1  0.99425584  0.20718341  0.69887779  1
  O  O5  1  0.00573156  0.79281924  0.30111082  1
  O  O6  1  0.52200636  0.80306660  0.80483657  1
  O  O7  1  0.47797748  0.19693134  0.19515261  1
  O  O8  1  0.07750381  0.33051335  0.25039544  1
  O  O9  1  0.92247141  0.66948474  0.74958504  1
