# generated using pymatgen
data_Sr(H8O5)2
_symmetry_space_group_name_H-M   'P 1'
_cell_length_a   6.26130979
_cell_length_b   6.24187208
_cell_length_c   11.44067955
_cell_angle_alpha   91.74022173
_cell_angle_beta   92.11168887
_cell_angle_gamma   90.20333606
_symmetry_Int_Tables_number   1
_chemical_formula_structural   Sr(H8O5)2
_chemical_formula_sum   'Sr2 H32 O20'
_cell_volume   446.61340733
_cell_formula_units_Z   2
loop_
 _symmetry_equiv_pos_site_id
 _symmetry_equiv_pos_as_xyz
  1  'x, y, z'
loop_
 _atom_site_type_symbol
 _atom_site_label
 _atom_site_symmetry_multiplicity
 _atom_site_fract_x
 _atom_site_fract_y
 _atom_site_fract_z
 _atom_site_occupancy
  Sr  Sr0  1  0.99365198  0.97409516  0.50011290  1
  Sr  Sr1  1  0.00312106  0.00771848  0.98952217  1
  H  H2  1  0.01227203  0.43087424  0.37846965  1
  H  H3  1  0.25045558  0.35192296  0.38577843  1
  H  H4  1  0.83168387  0.68696880  0.28711567  1
  H  H5  1  0.69782061  0.57962104  0.39100708  1
  H  H6  1  0.60104351  0.23883307  0.38253579  1
  H  H7  1  0.52321412  -0.00099111  0.36773648  1
  H  H8  1  0.24926894  0.79941223  0.27974629  1
  H  H9  1  0.37175336  0.68985841  0.38780090  1
  H  H10  1  0.94876312  0.43724388  0.84636840  1
  H  H11  1  0.71569857  0.39321620  0.89182221  1
  H  H12  1  0.20150088  0.73311982  0.77784696  1
  H  H13  1  0.27722398  0.61631626  0.89238844  1
  H  H14  1  0.25722087  0.19899055  0.77690015  1
  H  H15  1  0.38298336  0.28237450  0.89282441  1
  H  H16  1  0.54970620  0.96214082  0.85336680  1
  H  H17  1  0.60720168  0.72915537  0.89669076  1
  H  H18  1  0.82746973  0.70385676  0.70853093  1
  H  H19  1  0.72054860  0.57698238  0.59988260  1
  H  H20  1  0.28379732  0.35618415  0.60302155  1
  H  H21  1  0.05057272  0.41063568  0.64381539  1
  H  H22  1  0.43945580  0.92732605  0.64707353  1
  H  H23  1  0.38496113  0.69030387  0.60292288  1
  H  H24  1  0.73864248  0.17254225  0.71519130  1
  H  H25  1  0.61434627  0.24792096  0.60133883  1
  H  H26  1  0.06097071  0.57695342  0.12976763  1
  H  H27  1  0.30101212  0.63221472  0.10597452  1
  H  H28  1  0.74159785  0.40483218  0.10941424  1
  H  H29  1  0.90913909  0.30075987  0.20497814  1
  H  H30  1  0.67548138  0.93896626  0.21584596  1
  H  H31  1  0.62629006  0.73629485  0.11830902  1
  H  H32  1  0.44382946  0.04876974  0.11359221  1
  H  H33  1  0.39109909  0.29201520  0.10254088  1
  O  O34  1  0.49474388  0.47289926  0.42502475  1
  O  O35  1  0.50556946  0.50898910  0.94256414  1
  O  O36  1  0.50029576  0.47042472  0.55556629  1
  O  O37  1  0.51901112  0.51670778  0.07329351  1
  O  O38  1  0.10004826  0.29794884  0.37489781  1
  O  O39  1  0.84442234  0.64700129  0.36918779  1
  O  O40  1  0.65544838  0.08900016  0.36527103  1
  O  O41  1  0.30367938  0.82960405  0.36136752  1
  O  O42  1  0.84468066  0.32021772  0.85618699  1
  O  O43  1  0.14684265  0.68195029  0.85216048  1
  O  O44  1  0.31374525  0.15052620  0.85418679  1
  O  O45  1  0.67235156  0.86372696  0.86460768  1
  O  O46  1  0.86191702  0.64448994  0.63102832  1
  O  O47  1  0.15441090  0.29098685  0.63972342  1
  O  O48  1  0.31736009  0.82681709  0.63493079  1
  O  O49  1  0.68428176  0.11809148  0.63739983  1
  O  O50  1  0.16084022  0.70167194  0.12904450  1
  O  O51  1  0.89253125  0.34596228  0.12387249  1
  O  O52  1  0.71072752  0.87479369  0.13925533  1
  O  O53  1  0.32294404  0.14794730  0.11367245  1
