# generated using pymatgen
data_BaSrI4
_symmetry_space_group_name_H-M   'P 1'
_cell_length_a   10.29408940
_cell_length_b   11.25234316
_cell_length_c   11.23137418
_cell_angle_alpha   90.00000000
_cell_angle_beta   90.00000000
_cell_angle_gamma   90.00000000
_symmetry_Int_Tables_number   1
_chemical_formula_structural   BaSrI4
_chemical_formula_sum   'Ba4 Sr4 I16'
_cell_volume   1300.95956990
_cell_formula_units_Z   4
loop_
 _symmetry_equiv_pos_site_id
 _symmetry_equiv_pos_as_xyz
  1  'x, y, z'
loop_
 _atom_site_type_symbol
 _atom_site_label
 _atom_site_symmetry_multiplicity
 _atom_site_fract_x
 _atom_site_fract_y
 _atom_site_fract_z
 _atom_site_occupancy
  Ba  Ba0  1  0.00176949  0.25000000  0.74455864  1
  Ba  Ba1  1  0.49823051  0.75000000  0.24455864  1
  Ba  Ba2  1  0.50176949  0.25000000  0.75544136  1
  Ba  Ba3  1  0.99823051  0.75000000  0.25544136  1
  Sr  Sr4  1  0.26019395  0.25000000  0.25030055  1
  Sr  Sr5  1  0.23980605  0.75000000  0.75030055  1
  Sr  Sr6  1  0.76019395  0.25000000  0.24969945  1
  Sr  Sr7  1  0.73980605  0.75000000  0.74969945  1
  I  I8  1  0.99040735  0.93879142  0.75665568  1
  I  I9  1  0.99040735  0.56120858  0.75665568  1
  I  I10  1  0.25174006  0.75000000  0.45503362  1
  I  I11  1  0.25569443  0.25000000  0.54526941  1
  I  I12  1  0.24430557  0.75000000  0.04526941  1
  I  I13  1  0.24825994  0.25000000  0.95503362  1
  I  I14  1  0.50959265  0.43879142  0.25665568  1
  I  I15  1  0.50959265  0.06120858  0.25665568  1
  I  I16  1  0.49040735  0.93879142  0.74334432  1
  I  I17  1  0.49040735  0.56120858  0.74334432  1
  I  I18  1  0.75174006  0.75000000  0.04496638  1
  I  I19  1  0.75569443  0.25000000  0.95473059  1
  I  I20  1  0.74430557  0.75000000  0.45473059  1
  I  I21  1  0.74825994  0.25000000  0.54496638  1
  I  I22  1  0.00959265  0.43879142  0.24334432  1
  I  I23  1  0.00959265  0.06120858  0.24334432  1
