# generated using pymatgen
data_Ba4Ti3O10
_symmetry_space_group_name_H-M   'P 1'
_cell_length_a   5.74204350
_cell_length_b   29.56538943
_cell_length_c   5.75368096
_cell_angle_alpha   90.00000000
_cell_angle_beta   90.00000000
_cell_angle_gamma   90.00000000
_symmetry_Int_Tables_number   1
_chemical_formula_structural   Ba4Ti3O10
_chemical_formula_sum   'Ba16 Ti12 O40'
_cell_volume   976.77797610
_cell_formula_units_Z   4
loop_
 _symmetry_equiv_pos_site_id
 _symmetry_equiv_pos_as_xyz
  1  'x, y, z'
loop_
 _atom_site_type_symbol
 _atom_site_label
 _atom_site_symmetry_multiplicity
 _atom_site_fract_x
 _atom_site_fract_y
 _atom_site_fract_z
 _atom_site_occupancy
  Ba  Ba0  1  0.99994910  0.43284334  0.50316776  1
  Ba  Ba1  1  0.99994910  0.93284334  0.99683224  1
  Ba  Ba2  1  0.99991835  0.29864670  0.50521685  1
  Ba  Ba3  1  0.99991835  0.79864670  0.99478315  1
  Ba  Ba4  1  0.50008165  0.29864670  0.00521685  1
  Ba  Ba5  1  0.50008165  0.79864670  0.49478315  1
  Ba  Ba6  1  0.50005090  0.93284334  0.49683224  1
  Ba  Ba7  1  0.50005090  0.43284334  0.00316776  1
  Ba  Ba8  1  0.49994910  0.06715666  0.50316776  1
  Ba  Ba9  1  0.49994910  0.56715666  0.99683224  1
  Ba  Ba10  1  0.49991835  0.20135330  0.50521685  1
  Ba  Ba11  1  0.49991835  0.70135330  0.99478315  1
  Ba  Ba12  1  0.00008165  0.20135330  0.00521685  1
  Ba  Ba13  1  0.00008165  0.70135330  0.49478315  1
  Ba  Ba14  1  0.00005090  0.06715666  0.00316776  1
  Ba  Ba15  1  0.00005090  0.56715666  0.49683224  1
  Ti  Ti16  1  0.00000000  0.00000000  0.50000000  1
  Ti  Ti17  1  0.00000000  0.50000000  -0.00000000  1
  Ti  Ti18  1  0.99984049  0.13744818  0.52044370  1
  Ti  Ti19  1  0.99984049  0.63744818  0.97955630  1
  Ti  Ti20  1  0.50015951  0.63744818  0.47955630  1
  Ti  Ti21  1  0.50015951  0.13744818  0.02044370  1
  Ti  Ti22  1  0.50000000  0.00000000  -0.00000000  1
  Ti  Ti23  1  0.50000000  0.50000000  0.50000000  1
  Ti  Ti24  1  0.49984049  0.36255182  0.52044370  1
  Ti  Ti25  1  0.49984049  0.86255182  0.97955630  1
  Ti  Ti26  1  0.00015951  0.36255182  0.02044370  1
  Ti  Ti27  1  0.00015951  0.86255182  0.47955630  1
  O  O28  1  0.00099127  0.29634206  0.99532518  1
  O  O29  1  0.00099127  0.79634206  0.50467482  1
  O  O30  1  0.00037623  0.06784247  0.49749829  1
  O  O31  1  0.00037623  0.56784247  0.00250171  1
  O  O32  1  0.25003265  0.99995311  0.74998011  1
  O  O33  1  0.25003265  0.49995311  0.75001989  1
  O  O34  1  0.24587767  0.13697122  0.74129728  1
  O  O35  1  0.24587767  0.63697122  0.75870272  1
  O  O36  1  0.25451936  0.86321930  0.75804073  1
  O  O37  1  0.25451936  0.36321930  0.74195927  1
  O  O38  1  0.24548064  0.86321930  0.25804073  1
  O  O39  1  0.24548064  0.36321930  0.24195927  1
  O  O40  1  0.25412233  0.13697122  0.24129728  1
  O  O41  1  0.25412233  0.63697122  0.25870272  1
  O  O42  1  0.24996735  0.49995311  0.25001989  1
  O  O43  1  0.24996735  0.99995311  0.24998011  1
  O  O44  1  0.49962377  0.56784247  0.50250171  1
  O  O45  1  0.49962377  0.06784247  0.99749829  1
  O  O46  1  0.49900873  0.29634206  0.49532518  1
  O  O47  1  0.49900873  0.79634206  0.00467482  1
  O  O48  1  0.50099127  0.20365794  0.99532518  1
  O  O49  1  0.50099127  0.70365794  0.50467482  1
  O  O50  1  0.50037623  0.93215753  0.00250171  1
  O  O51  1  0.50037623  0.43215753  0.49749829  1
  O  O52  1  0.75003265  0.00004689  0.75001989  1
  O  O53  1  0.75003265  0.50004689  0.74998011  1
  O  O54  1  0.74587767  0.36302878  0.74129728  1
  O  O55  1  0.74587767  0.86302878  0.75870272  1
  O  O56  1  0.75451936  0.13678070  0.74195927  1
  O  O57  1  0.75451936  0.63678070  0.75804073  1
  O  O58  1  0.74548064  0.63678070  0.25804073  1
  O  O59  1  0.74548064  0.13678070  0.24195927  1
  O  O60  1  0.75412233  0.36302878  0.24129728  1
  O  O61  1  0.75412233  0.86302878  0.25870272  1
  O  O62  1  0.74996735  0.00004689  0.25001989  1
  O  O63  1  0.74996735  0.50004689  0.24998011  1
  O  O64  1  0.99962377  0.43215753  0.99749829  1
  O  O65  1  0.99962377  0.93215753  0.50250171  1
  O  O66  1  0.99900873  0.20365794  0.49532518  1
  O  O67  1  0.99900873  0.70365794  0.00467482  1
