# generated using pymatgen
data_LaTaZnCrO6
_symmetry_space_group_name_H-M   'P 1'
_cell_length_a   5.42284488
_cell_length_b   5.72504833
_cell_length_c   8.48532330
_cell_angle_alpha   90.00000000
_cell_angle_beta   89.15895917
_cell_angle_gamma   90.00000000
_symmetry_Int_Tables_number   1
_chemical_formula_structural   LaTaZnCrO6
_chemical_formula_sum   'La2 Ta2 Zn2 Cr2 O12'
_cell_volume   263.40738238
_cell_formula_units_Z   2
loop_
 _symmetry_equiv_pos_site_id
 _symmetry_equiv_pos_as_xyz
  1  'x, y, z'
loop_
 _atom_site_type_symbol
 _atom_site_label
 _atom_site_symmetry_multiplicity
 _atom_site_fract_x
 _atom_site_fract_y
 _atom_site_fract_z
 _atom_site_occupancy
  La  La0  1  0.02785531  0.94738182  0.75240485  1
  La  La1  1  0.52785531  0.55261818  0.25240485  1
  Ta  Ta2  1  0.49969224  0.02826670  0.00253753  1
  Ta  Ta3  1  0.99969224  0.47173330  0.50253753  1
  Zn  Zn4  1  0.50811998  0.60406323  0.74906111  1
  Zn  Zn5  1  0.00811998  0.89593677  0.24906111  1
  Cr  Cr6  1  0.50537019  0.00770003  0.49924469  1
  Cr  Cr7  1  0.00537019  0.49229997  0.99924469  1
  O  O8  1  0.10127876  0.50365568  0.27949418  1
  O  O9  1  0.20671403  0.19887635  0.94533783  1
  O  O10  1  0.19548167  0.20632069  0.55501332  1
  O  O11  1  0.30426483  0.70345087  0.93421913  1
  O  O12  1  0.29478175  0.69716891  0.56447693  1
  O  O13  1  0.35643824  0.95963409  0.21820843  1
  O  O14  1  0.60127876  0.99634432  0.77949418  1
  O  O15  1  0.70671403  0.30112365  0.44533783  1
  O  O16  1  0.69548167  0.29367931  0.05501332  1
  O  O17  1  0.80426483  0.79654913  0.43421913  1
  O  O18  1  0.79478175  0.80283109  0.06447693  1
  O  O19  1  0.85643824  0.54036591  0.71820843  1
