# generated using pymatgen
data_Ac2Mg
_symmetry_space_group_name_H-M   'P 1'
_cell_length_a   4.07315033
_cell_length_b   7.55981646
_cell_length_c   8.16461069
_cell_angle_alpha   74.42735040
_cell_angle_beta   90.00000000
_cell_angle_gamma   105.62825217
_symmetry_Int_Tables_number   1
_chemical_formula_structural   Ac2Mg
_chemical_formula_sum   'Ac4 Mg2'
_cell_volume   232.51477228
_cell_formula_units_Z   2
loop_
 _symmetry_equiv_pos_site_id
 _symmetry_equiv_pos_as_xyz
  1  'x, y, z'
loop_
 _atom_site_type_symbol
 _atom_site_label
 _atom_site_symmetry_multiplicity
 _atom_site_fract_x
 _atom_site_fract_y
 _atom_site_fract_z
 _atom_site_occupancy
  Ac  Ac0  1  0.34310081  0.68620163  0.29101462  1
  Ac  Ac1  1  0.04578819  0.09157637  0.43120538  1
  Ac  Ac2  1  0.35136843  0.70273686  0.77895039  1
  Ac  Ac3  1  0.03751957  0.07503914  0.94327361  1
  Mg  Mg4  1  0.69744941  0.39489982  0.09885180  1
  Mg  Mg5  1  0.69143759  0.38287618  0.62337020  1
