# generated using pymatgen
data_Zn3Si4(MoO7)2
_symmetry_space_group_name_H-M   'P 1'
_cell_length_a   8.00119272
_cell_length_b   9.92842341
_cell_length_c   9.22208490
_cell_angle_alpha   64.85055291
_cell_angle_beta   64.29065479
_cell_angle_gamma   66.23766192
_symmetry_Int_Tables_number   1
_chemical_formula_structural   Zn3Si4(MoO7)2
_chemical_formula_sum   'Zn6 Si8 Mo4 O28'
_cell_volume   575.64129344
_cell_formula_units_Z   2
loop_
 _symmetry_equiv_pos_site_id
 _symmetry_equiv_pos_as_xyz
  1  'x, y, z'
loop_
 _atom_site_type_symbol
 _atom_site_label
 _atom_site_symmetry_multiplicity
 _atom_site_fract_x
 _atom_site_fract_y
 _atom_site_fract_z
 _atom_site_occupancy
  Zn  Zn0  1  0.95083322  0.90372348  0.43800213  1
  Zn  Zn1  1  0.29255883  0.59627652  0.06199787  1
  Zn  Zn2  1  0.70744117  0.40372348  0.93800213  1
  Zn  Zn3  1  0.60507961  0.25000000  0.75000000  1
  Zn  Zn4  1  0.04916678  0.09627652  0.56199787  1
  Zn  Zn5  1  0.39492039  0.75000000  0.25000000  1
  Si  Si6  1  0.47873922  0.29272967  0.33530105  1
  Si  Si7  1  0.89322907  0.79272967  0.83530105  1
  Si  Si8  1  0.48352774  0.90012240  0.85655501  1
  Si  Si9  1  0.75979485  0.40012240  0.35655501  1
  Si  Si10  1  0.10677093  0.20727033  0.16469895  1
  Si  Si11  1  0.51647226  0.09987760  0.14344499  1
  Si  Si12  1  0.24020515  0.59987760  0.64344499  1
  Si  Si13  1  0.52126078  0.70727033  0.66469895  1
  Mo  Mo14  1  0.21088546  0.25000000  0.75000000  1
  Mo  Mo15  1  0.78911454  0.75000000  0.25000000  1
  Mo  Mo16  1  0.00000000  0.00000000  -0.00000000  1
  Mo  Mo17  1  0.00000000  0.50000000  0.50000000  1
  O  O18  1  0.17421641  0.65694145  0.47129303  1
  O  O19  1  0.06037219  0.59147570  0.24014823  1
  O  O20  1  0.52126743  0.91772214  0.20105145  1
  O  O21  1  0.10800288  0.09147570  0.74014823  1
  O  O22  1  0.73141924  0.67302325  0.52326644  1
  O  O23  1  0.95078994  0.36937115  0.19443546  1
  O  O24  1  0.35995998  0.41772214  0.70105145  1
  O  O25  1  0.92770893  0.82697675  0.97673356  1
  O  O26  1  0.04921106  0.63062885  0.80556454  1
  O  O27  1  0.36039695  0.72569444  0.58665611  1
  O  O28  1  0.93962781  0.40852430  0.75985177  1
  O  O29  1  0.26858076  0.32697675  0.47673356  1
  O  O30  1  0.51459755  0.13062885  0.30556454  1
  O  O31  1  0.69754811  0.15694145  0.97129303  1
  O  O32  1  0.32725250  0.22569444  0.08665611  1
  O  O33  1  0.07229107  0.17302325  0.02326644  1
  O  O34  1  0.09130600  0.07119608  0.34643564  1
  O  O35  1  0.63960305  0.27430556  0.41334389  1
  O  O36  1  0.50893672  0.42880392  0.15356436  1
  O  O37  1  0.67274750  0.77430556  0.91334389  1
  O  O38  1  0.48540245  0.86937115  0.69443546  1
  O  O39  1  0.89199712  0.90852430  0.25985177  1
  O  O40  1  0.49106328  0.57119608  0.84643564  1
  O  O41  1  0.47873257  0.08227786  0.79894855  1
  O  O42  1  0.90869400  0.92880392  0.65356436  1
  O  O43  1  0.64004002  0.58227786  0.29894855  1
  O  O44  1  0.30245189  0.84305855  0.02870697  1
  O  O45  1  0.82578359  0.34305855  0.52870697  1
