# generated using pymatgen
data_Eu(Mg4Al3)4
_symmetry_space_group_name_H-M   'P 1'
_cell_length_a   9.19422286
_cell_length_b   9.19422293
_cell_length_c   9.19422286
_cell_angle_alpha   109.47121948
_cell_angle_beta   109.47122815
_cell_angle_gamma   109.47121948
_symmetry_Int_Tables_number   1
_chemical_formula_structural   Eu(Mg4Al3)4
_chemical_formula_sum   'Eu1 Mg16 Al12'
_cell_volume   598.30573333
_cell_formula_units_Z   1
loop_
 _symmetry_equiv_pos_site_id
 _symmetry_equiv_pos_as_xyz
  1  'x, y, z'
loop_
 _atom_site_type_symbol
 _atom_site_label
 _atom_site_symmetry_multiplicity
 _atom_site_fract_x
 _atom_site_fract_y
 _atom_site_fract_z
 _atom_site_occupancy
  Eu  Eu0  1  -0.00000000  -0.00000000  -0.00000000  1
  Mg  Mg1  1  0.00000000  0.35813335  0.00000000  1
  Mg  Mg2  1  0.31973355  0.60266938  0.99999900  1
  Mg  Mg3  1  0.60267038  0.31973355  0.00000000  1
  Mg  Mg4  1  0.35813235  0.99999900  1.00000000  1
  Mg  Mg5  1  0.68026645  0.68026645  0.28293684  1
  Mg  Mg6  1  0.99999900  0.60266938  0.31973355  1
  Mg  Mg7  1  0.60266938  0.00000000  0.31973355  1
  Mg  Mg8  1  1.00000000  0.99999900  0.35813235  1
  Mg  Mg9  1  0.39733062  0.71706416  0.39733062  1
  Mg  Mg10  1  0.71706416  0.39733062  0.39733062  1
  Mg  Mg11  1  0.31973355  0.00000000  0.60266938  1
  Mg  Mg12  1  0.00000000  0.31973355  0.60267038  1
  Mg  Mg13  1  0.64186665  0.64186665  0.64186665  1
  Mg  Mg14  1  0.28293684  0.68026645  0.68026645  1
  Mg  Mg15  1  0.68026645  0.28293684  0.68026645  1
  Mg  Mg16  1  0.39733062  0.39733062  0.71706416  1
  Al  Al17  1  0.81224291  0.63257530  0.99999900  1
  Al  Al18  1  0.63257630  0.81224191  0.99999900  1
  Al  Al19  1  0.36742470  0.36742470  0.17966762  1
  Al  Al20  1  0.18775609  0.82033138  0.18775609  1
  Al  Al21  1  0.82033138  0.18775609  0.18775609  1
  Al  Al22  1  0.36742470  0.17966762  0.36742470  1
  Al  Al23  1  0.17966762  0.36742470  0.36742470  1
  Al  Al24  1  0.99999900  0.81224191  0.63257630  1
  Al  Al25  1  0.81224291  0.99999900  0.63257630  1
  Al  Al26  1  0.99999900  0.63257530  0.81224291  1
  Al  Al27  1  0.63257630  0.99999900  0.81224291  1
  Al  Al28  1  0.18775609  0.18775609  0.82033138  1
