# generated using pymatgen
data_Ba(H8O5)2
_symmetry_space_group_name_H-M   'P 1'
_cell_length_a   6.41219235
_cell_length_b   6.40861094
_cell_length_c   11.74909885
_cell_angle_alpha   87.98569425
_cell_angle_beta   92.60887729
_cell_angle_gamma   88.98490381
_symmetry_Int_Tables_number   1
_chemical_formula_structural   Ba(H8O5)2
_chemical_formula_sum   'Ba2 H32 O20'
_cell_volume   481.91994093
_cell_formula_units_Z   2
loop_
 _symmetry_equiv_pos_site_id
 _symmetry_equiv_pos_as_xyz
  1  'x, y, z'
loop_
 _atom_site_type_symbol
 _atom_site_label
 _atom_site_symmetry_multiplicity
 _atom_site_fract_x
 _atom_site_fract_y
 _atom_site_fract_z
 _atom_site_occupancy
  Ba  Ba0  1  0.01783404  0.00555290  0.49427166  1
  Ba  Ba1  1  0.99172723  0.98071697  0.99612520  1
  H  H2  1  0.27695778  0.41319048  0.39483283  1
  H  H3  1  0.03669340  0.46643891  0.36015910  1
  H  H4  1  0.77848579  0.73169469  0.28138835  1
  H  H5  1  0.71562449  0.60940539  0.39472145  1
  H  H6  1  0.60364116  0.29213897  0.39562334  1
  H  H7  1  0.71661095  0.20065010  0.28690478  1
  H  H8  1  0.40745515  0.73576786  0.39814024  1
  H  H9  1  0.46539611  0.97047757  0.36608827  1
  H  H10  1  0.79987510  0.27995148  0.78659588  1
  H  H11  1  0.70650068  0.39168433  0.89535649  1
  H  H12  1  0.25945347  0.59198781  0.89483593  1
  H  H13  1  0.02387239  0.53298290  0.86627294  1
  H  H14  1  0.26328444  0.21400189  0.78291235  1
  H  H15  1  0.38791546  0.27923071  0.89555533  1
  H  H16  1  0.58442683  0.71598091  0.89436211  1
  H  H17  1  0.52897434  0.95667934  0.86311343  1
  H  H18  1  0.73146846  0.60242939  0.60703256  1
  H  H19  1  0.87560494  0.69257903  0.70757554  1
  H  H20  1  0.30320910  0.38394443  0.61169511  1
  H  H21  1  0.06855761  0.43017086  0.64153986  1
  H  H22  1  0.35808717  0.85726097  0.71350007  1
  H  H23  1  0.41679730  0.72081198  0.60976203  1
  H  H24  1  0.63099905  0.05652400  0.66283526  1
  H  H25  1  0.63955549  0.29176812  0.61468771  1
  H  H26  1  0.14969443  0.64877823  0.21317048  1
  H  H27  1  0.27634991  0.58096467  0.10791353  1
  H  H28  1  0.94062200  0.37177478  0.16505087  1
  H  H29  1  0.70611274  0.36056712  0.11514939  1
  H  H30  1  0.56830994  0.93013341  0.14457305  1
  H  H31  1  0.61367696  0.69638942  0.11092110  1
  H  H32  1  0.39823560  0.26749922  0.10658252  1
  H  H33  1  0.30691849  0.13421309  0.20908928  1
  O  O34  1  0.50445806  0.50234950  0.44334057  1
  O  O35  1  0.49500649  0.48989568  0.94141587  1
  O  O36  1  0.51380298  0.49530097  0.57065039  1
  O  O37  1  0.50181519  0.48531334  0.06869797  1
  O  O38  1  0.14382548  0.35308724  0.36081394  1
  O  O39  1  0.83846281  0.67692777  0.35672762  1
  O  O40  1  0.66479946  0.15975844  0.36292924  1
  O  O41  1  0.34534583  0.87410060  0.36837394  1
  O  O42  1  0.83956624  0.33130119  0.86347114  1
  O  O43  1  0.11962214  0.65383592  0.86771731  1
  O  O44  1  0.31837947  0.15500348  0.85819697  1
  O  O45  1  0.64304297  0.85070996  0.86235515  1
  O  O46  1  0.87593520  0.66014404  0.62700096  1
  O  O47  1  0.17337673  0.31536518  0.64147307  1
  O  O48  1  0.36504711  0.86442003  0.63059103  1
  O  O49  1  0.72926706  0.17045586  0.65090467  1
  O  O50  1  0.13433372  0.63290645  0.13079834  1
  O  O51  1  0.82759832  0.27236672  0.15215685  1
  O  O52  1  0.68289574  0.82515410  0.14268858  1
  O  O53  1  0.34115201  0.12449860  0.12927135  1
