# generated using pymatgen
data_Fe3O4
_symmetry_space_group_name_H-M   'P 1'
_cell_length_a   6.06570980
_cell_length_b   6.06335285
_cell_length_c   8.68538431
_cell_angle_alpha   90.20995718
_cell_angle_beta   90.00000000
_cell_angle_gamma   90.00000000
_symmetry_Int_Tables_number   1
_chemical_formula_structural   Fe3O4
_chemical_formula_sum   'Fe12 O16'
_cell_volume   319.43359915
_cell_formula_units_Z   4
loop_
 _symmetry_equiv_pos_site_id
 _symmetry_equiv_pos_as_xyz
  1  'x, y, z'
loop_
 _atom_site_type_symbol
 _atom_site_label
 _atom_site_symmetry_multiplicity
 _atom_site_fract_x
 _atom_site_fract_y
 _atom_site_fract_z
 _atom_site_occupancy
  Fe  Fe0  1  -0.00000000  0.00000000  0.50000000  1
  Fe  Fe1  1  -0.00000000  0.50000000  0.50000000  1
  Fe  Fe2  1  0.50000000  0.00000000  0.00000000  1
  Fe  Fe3  1  0.50000000  0.50000000  0.00000000  1
  Fe  Fe4  1  0.50000000  0.75304021  0.37752489  1
  Fe  Fe5  1  0.50000000  0.24695979  0.62247511  1
  Fe  Fe6  1  -0.00000000  0.75193092  0.12153207  1
  Fe  Fe7  1  -0.00000000  0.24806908  0.87846793  1
  Fe  Fe8  1  0.75204485  0.25262763  0.25059063  1
  Fe  Fe9  1  0.75204485  0.74737337  0.74940937  1
  Fe  Fe10  1  0.24795515  0.25262763  0.25059063  1
  Fe  Fe11  1  0.24795515  0.74737337  0.74940937  1
  O  O12  1  -0.00000000  0.97611018  0.73182033  1
  O  O13  1  -0.00000000  0.47682608  0.25876930  1
  O  O14  1  -0.00000000  0.52317392  0.74123070  1
  O  O15  1  -0.00000000  0.02388982  0.26817967  1
  O  O16  1  0.24236941  0.76097478  0.50707434  1
  O  O17  1  0.24236941  0.23902522  0.49292566  1
  O  O18  1  0.75763059  0.23902522  0.49292566  1
  O  O19  1  0.75763059  0.76097478  0.50707434  1
  O  O20  1  0.26785257  0.24072096  0.02112654  1
  O  O21  1  0.26785257  0.75927904  0.97887346  1
  O  O22  1  0.73214743  0.75927904  0.97887346  1
  O  O23  1  0.73214743  0.24072096  0.02112654  1
  O  O24  1  0.50000000  0.51689258  0.74193933  1
  O  O25  1  0.50000000  0.01186958  0.24286416  1
  O  O26  1  0.50000000  0.48310742  0.25806067  1
  O  O27  1  0.50000000  0.98813042  0.75713584  1
