# generated using pymatgen
data_Zn2CrIrO6
_symmetry_space_group_name_H-M   'P 1'
_cell_length_a   5.23314217
_cell_length_b   5.22492265
_cell_length_c   7.64378101
_cell_angle_alpha   90.00000000
_cell_angle_beta   89.68627260
_cell_angle_gamma   90.00000000
_symmetry_Int_Tables_number   1
_chemical_formula_structural   Zn2CrIrO6
_chemical_formula_sum   'Zn4 Cr2 Ir2 O12'
_cell_volume   208.99896005
_cell_formula_units_Z   2
loop_
 _symmetry_equiv_pos_site_id
 _symmetry_equiv_pos_as_xyz
  1  'x, y, z'
loop_
 _atom_site_type_symbol
 _atom_site_label
 _atom_site_symmetry_multiplicity
 _atom_site_fract_x
 _atom_site_fract_y
 _atom_site_fract_z
 _atom_site_occupancy
  Zn  Zn0  1  0.99056927  0.96748279  0.24916159  1
  Zn  Zn1  1  0.50943073  0.46748279  0.25083841  1
  Zn  Zn2  1  0.49056927  0.53251721  0.74916159  1
  Zn  Zn3  1  0.00943073  0.03251721  0.75083841  1
  Cr  Cr4  1  -0.00000000  0.50000000  0.00000000  1
  Cr  Cr5  1  0.50000000  0.00000000  0.50000000  1
  Ir  Ir6  1  -0.00000000  0.50000000  0.50000000  1
  Ir  Ir7  1  0.50000000  0.00000000  0.00000000  1
  O  O8  1  0.11742304  0.41505091  0.74739245  1
  O  O9  1  0.17661858  0.17389238  0.06265261  1
  O  O10  1  0.17167100  0.17673601  0.43350085  1
  O  O11  1  0.32832900  0.67673601  0.06649915  1
  O  O12  1  0.32338142  0.67389238  0.43734739  1
  O  O13  1  0.38257696  0.91505091  0.75260755  1
  O  O14  1  0.61742304  0.08494909  0.24739245  1
  O  O15  1  0.67661858  0.32610762  0.56265261  1
  O  O16  1  0.67167100  0.32326399  0.93350085  1
  O  O17  1  0.82338142  0.82610762  0.93734739  1
  O  O18  1  0.82832900  0.82326399  0.56649915  1
  O  O19  1  0.88257696  0.58494909  0.25260755  1
