# generated using pymatgen
data_HfTi3
_symmetry_space_group_name_H-M   'P 1'
_cell_length_a   6.02669484
_cell_length_b   6.02669497
_cell_length_c   4.75121880
_cell_angle_alpha   90.00000000
_cell_angle_beta   90.00000000
_cell_angle_gamma   120.00000510
_symmetry_Int_Tables_number   1
_chemical_formula_structural   HfTi3
_chemical_formula_sum   'Hf2 Ti6'
_cell_volume   149.44935761
_cell_formula_units_Z   2
loop_
 _symmetry_equiv_pos_site_id
 _symmetry_equiv_pos_as_xyz
  1  'x, y, z'
loop_
 _atom_site_type_symbol
 _atom_site_label
 _atom_site_symmetry_multiplicity
 _atom_site_fract_x
 _atom_site_fract_y
 _atom_site_fract_z
 _atom_site_occupancy
  Hf  Hf0  1  0.33333300  0.66666600  0.74999800  1
  Hf  Hf1  1  0.66666600  0.33333300  0.24999900  1
  Ti  Ti2  1  0.16127235  0.32254370  0.24999900  1
  Ti  Ti3  1  0.67745630  0.83872865  0.24999900  1
  Ti  Ti4  1  0.16127235  0.83872865  0.24999900  1
  Ti  Ti5  1  0.83872665  0.67745530  0.74999800  1
  Ti  Ti6  1  0.32254470  0.16127235  0.74999800  1
  Ti  Ti7  1  0.83872765  0.16127235  0.74999800  1
