# generated using pymatgen
data_MgIn2
_symmetry_space_group_name_H-M   'P 1'
_cell_length_a   3.43328663
_cell_length_b   6.05149678
_cell_length_c   8.17240110
_cell_angle_alpha   69.57215506
_cell_angle_beta   90.00000007
_cell_angle_gamma   106.47952028
_symmetry_Int_Tables_number   1
_chemical_formula_structural   MgIn2
_chemical_formula_sum   'Mg2 In4'
_cell_volume   151.65089048
_cell_formula_units_Z   2
loop_
 _symmetry_equiv_pos_site_id
 _symmetry_equiv_pos_as_xyz
  1  'x, y, z'
loop_
 _atom_site_type_symbol
 _atom_site_label
 _atom_site_symmetry_multiplicity
 _atom_site_fract_x
 _atom_site_fract_y
 _atom_site_fract_z
 _atom_site_occupancy
  Mg  Mg0  1  0.05522774  0.11045548  0.38861372  1
  Mg  Mg1  1  0.66699426  0.33398952  0.66694128  1
  In  In2  1  0.00177527  0.00355054  0.99453810  1
  In  In3  1  0.72044673  0.44089346  0.06101690  1
  In  In4  1  0.33333276  0.66666552  0.34060279  1
  In  In5  1  0.38889024  0.77778048  0.71495221  1
