# generated using pymatgen
data_MgAu2
_symmetry_space_group_name_H-M   'P 1'
_cell_length_a   3.07896075
_cell_length_b   5.35480641
_cell_length_c   7.39800322
_cell_angle_alpha   69.66547913
_cell_angle_beta   90.00000000
_cell_angle_gamma   106.70805345
_symmetry_Int_Tables_number   1
_chemical_formula_structural   MgAu2
_chemical_formula_sum   'Mg2 Au4'
_cell_volume   108.86288030
_cell_formula_units_Z   2
loop_
 _symmetry_equiv_pos_site_id
 _symmetry_equiv_pos_as_xyz
  1  'x, y, z'
loop_
 _atom_site_type_symbol
 _atom_site_label
 _atom_site_symmetry_multiplicity
 _atom_site_fract_x
 _atom_site_fract_y
 _atom_site_fract_z
 _atom_site_occupancy
  Mg  Mg0  1  0.71293539  0.42587377  0.09290111  1
  Mg  Mg1  1  0.67595061  0.35190323  0.62931989  1
  Au  Au2  1  0.34447941  0.68895882  0.30534022  1
  Au  Au3  1  0.04441059  0.08882118  0.41688078  1
  Au  Au4  1  0.35922874  0.71845747  0.76107426  1
  Au  Au5  1  0.02966026  0.05932053  0.96114874  1
