# generated using pymatgen
data_MgPb2
_symmetry_space_group_name_H-M   'P 1'
_cell_length_a   3.49089218
_cell_length_b   6.84150559
_cell_length_c   7.77866924
_cell_angle_alpha   75.44281460
_cell_angle_beta   89.99999980
_cell_angle_gamma   104.78106317
_symmetry_Int_Tables_number   1
_chemical_formula_structural   MgPb2
_chemical_formula_sum   'Mg2 Pb4'
_cell_volume   173.45461096
_cell_formula_units_Z   2
loop_
 _symmetry_equiv_pos_site_id
 _symmetry_equiv_pos_as_xyz
  1  'x, y, z'
loop_
 _atom_site_type_symbol
 _atom_site_label
 _atom_site_symmetry_multiplicity
 _atom_site_fract_x
 _atom_site_fract_y
 _atom_site_fract_z
 _atom_site_occupancy
  Mg  Mg0  1  0.67355155  0.34710311  0.66221401  1
  Mg  Mg1  1  0.38200445  0.76400889  0.72667499  1
  Pb  Pb2  1  0.00152648  0.00305196  0.96991693  1
  Pb  Pb3  1  0.72068705  0.44137411  0.04388833  1
  Pb  Pb4  1  0.33486795  0.66973589  0.34500067  1
  Pb  Pb5  1  0.05402952  0.10805904  0.41897207  1
