# generated using pymatgen
data_WO2
_symmetry_space_group_name_H-M   'P 1'
_cell_length_a   3.31464277
_cell_length_b   9.18138534
_cell_length_c   11.20331814
_cell_angle_alpha   89.93900776
_cell_angle_beta   90.00003069
_cell_angle_gamma   90.00004015
_symmetry_Int_Tables_number   1
_chemical_formula_structural   WO2
_chemical_formula_sum   'W8 O16'
_cell_volume   340.95052831
_cell_formula_units_Z   8
loop_
 _symmetry_equiv_pos_site_id
 _symmetry_equiv_pos_as_xyz
  1  'x, y, z'
loop_
 _atom_site_type_symbol
 _atom_site_label
 _atom_site_symmetry_multiplicity
 _atom_site_fract_x
 _atom_site_fract_y
 _atom_site_fract_z
 _atom_site_occupancy
  W  W0  1  0.24999900  0.43389966  0.11242437  1
  W  W1  1  0.75000000  0.06638219  0.61422690  1
  W  W2  1  0.25000000  0.93391361  0.38765346  1
  W  W3  1  0.75000000  0.56641676  0.88568241  1
  W  W4  1  0.74999900  0.57484073  0.38938877  1
  W  W5  1  0.25000000  0.42440101  0.60935256  1
  W  W6  1  0.75000000  0.07480808  0.11047722  1
  W  W7  1  0.25000000  0.92445291  0.89079542  1
  O  O8  1  0.24999900  0.93640281  0.07295796  1
  O  O9  1  0.75000000  0.06247508  0.92855875  1
  O  O10  1  0.24999900  0.43642533  0.42713765  1
  O  O11  1  0.75000000  0.56246084  0.57135489  1
  O  O12  1  0.25000000  0.00779573  0.72149342  1
  O  O13  1  0.74999900  0.99291650  0.28035869  1
  O  O14  1  0.24999900  0.50780070  0.77842802  1
  O  O15  1  0.74999900  0.49296045  0.21971575  1
  O  O16  1  0.25000000  0.60995128  0.00058150  1
  O  O17  1  0.74999900  0.39064391  0.99753999  1
  O  O18  1  0.25000000  0.10996150  0.49920376  1
  O  O19  1  0.74999900  0.89058263  0.50265146  1
  O  O20  1  0.74999900  0.78556424  0.85624632  1
  O  O21  1  0.25000000  0.21470558  0.14268090  1
  O  O22  1  0.25000000  0.71483193  0.35730200  1
  O  O23  1  0.74999900  0.28540651  0.64378482  1
