# generated using pymatgen
data_Mg5Pb
_symmetry_space_group_name_H-M   'P 1'
_cell_length_a   5.63443433
_cell_length_b   5.63443539
_cell_length_c   6.19490774
_cell_angle_alpha   117.04970441
_cell_angle_beta   62.95029025
_cell_angle_gamma   119.99999287
_symmetry_Int_Tables_number   1
_chemical_formula_structural   Mg5Pb
_chemical_formula_sum   'Mg5 Pb1'
_cell_volume   144.94779188
_cell_formula_units_Z   1
loop_
 _symmetry_equiv_pos_site_id
 _symmetry_equiv_pos_as_xyz
  1  'x, y, z'
loop_
 _atom_site_type_symbol
 _atom_site_label
 _atom_site_symmetry_multiplicity
 _atom_site_fract_x
 _atom_site_fract_y
 _atom_site_fract_z
 _atom_site_occupancy
  Mg  Mg0  1  0.66563623  0.33230323  0.00000100  1
  Mg  Mg1  1  0.00103077  1.00000000  0.00000000  1
  Mg  Mg2  1  0.33333400  0.66769677  1.00000000  1
  Mg  Mg3  1  0.50046467  0.83286933  0.49860799  1
  Mg  Mg4  1  0.16620333  0.16713067  0.50139201  1
  Pb  Pb5  1  0.83333300  0.49999900  0.49999900  1
