# generated using pymatgen
data_MgAu5
_symmetry_space_group_name_H-M   'P 1'
_cell_length_a   5.08229830
_cell_length_b   5.08229916
_cell_length_c   5.64451327
_cell_angle_alpha   116.75638051
_cell_angle_beta   63.24360753
_cell_angle_gamma   119.99998396
_symmetry_Int_Tables_number   1
_chemical_formula_structural   MgAu5
_chemical_formula_sum   'Mg1 Au5'
_cell_volume   107.86195808
_cell_formula_units_Z   1
loop_
 _symmetry_equiv_pos_site_id
 _symmetry_equiv_pos_as_xyz
  1  'x, y, z'
loop_
 _atom_site_type_symbol
 _atom_site_label
 _atom_site_symmetry_multiplicity
 _atom_site_fract_x
 _atom_site_fract_y
 _atom_site_fract_z
 _atom_site_occupancy
  Mg  Mg0  1  0.83333400  0.50000100  0.49999900  1
  Au  Au1  1  0.66718248  0.33385148  0.00000100  1
  Au  Au2  1  0.99948452  1.00000000  1.00000000  1
  Au  Au3  1  0.33333300  0.66614952  1.00000000  1
  Au  Au4  1  0.50055561  0.83277839  0.49833618  1
  Au  Au5  1  0.16611139  0.16722161  0.50166382  1
