# generated using pymatgen
data_Zn(AgO2)2
_symmetry_space_group_name_H-M   'P 1'
_cell_length_a   6.29516792
_cell_length_b   6.42762188
_cell_length_c   6.43080544
_cell_angle_alpha   90.09064885
_cell_angle_beta   120.65336085
_cell_angle_gamma   120.65833325
_symmetry_Int_Tables_number   1
_chemical_formula_structural   Zn(AgO2)2
_chemical_formula_sum   'Zn2 Ag4 O8'
_cell_volume   180.13170985
_cell_formula_units_Z   2
loop_
 _symmetry_equiv_pos_site_id
 _symmetry_equiv_pos_as_xyz
  1  'x, y, z'
loop_
 _atom_site_type_symbol
 _atom_site_label
 _atom_site_symmetry_multiplicity
 _atom_site_fract_x
 _atom_site_fract_y
 _atom_site_fract_z
 _atom_site_occupancy
  Zn  Zn0  1  0.25051378  0.12465059  0.87488290  1
  Zn  Zn1  1  0.74962468  0.87542468  0.12515405  1
  Ag  Ag2  1  0.49996200  0.99995628  0.49998980  1
  Ag  Ag3  1  0.50000684  0.50006213  0.49992602  1
  Ag  Ag4  1  0.00008039  0.50001439  0.00000107  1
  Ag  Ag5  1  0.99997761  0.50003425  0.50001182  1
  O  O6  1  0.03842559  0.78117024  0.20656519  1
  O  O7  1  0.46050771  0.79555129  0.74325374  1
  O  O8  1  0.46138638  0.66748801  0.21929064  1
  O  O9  1  0.96067374  0.74168447  0.66801701  1
  O  O10  1  0.53855078  0.33246091  0.78074748  1
  O  O11  1  0.53943312  0.20445656  0.25675826  1
  O  O12  1  0.03924118  0.25825103  0.33193245  1
  O  O13  1  0.96161819  0.21879816  0.79346957  1
