# generated using pymatgen
data_NdEr3
_symmetry_space_group_name_H-M   'P 1'
_cell_length_a   5.01500655
_cell_length_b   5.01515118
_cell_length_c   5.01516277
_cell_angle_alpha   89.97699920
_cell_angle_beta   89.97953700
_cell_angle_gamma   90.02261463
_symmetry_Int_Tables_number   1
_chemical_formula_structural   NdEr3
_chemical_formula_sum   'Nd1 Er3'
_cell_volume   126.13641105
_cell_formula_units_Z   1
loop_
 _symmetry_equiv_pos_site_id
 _symmetry_equiv_pos_as_xyz
  1  'x, y, z'
loop_
 _atom_site_type_symbol
 _atom_site_label
 _atom_site_symmetry_multiplicity
 _atom_site_fract_x
 _atom_site_fract_y
 _atom_site_fract_z
 _atom_site_occupancy
  Nd  Nd0  1  0.99999774  0.00000217  0.99999387  1
  Er  Er1  1  0.99995659  0.49998710  0.50001263  1
  Er  Er2  1  0.50002748  0.00001475  0.50001057  1
  Er  Er3  1  0.50002019  0.49999798  0.99998493  1
