# generated using pymatgen
data_Na3Au
_symmetry_space_group_name_H-M   'P 1'
_cell_length_a   6.66714972
_cell_length_b   6.66715053
_cell_length_c   5.36493004
_cell_angle_alpha   90.00000000
_cell_angle_beta   90.00000000
_cell_angle_gamma   120.00000092
_symmetry_Int_Tables_number   1
_chemical_formula_structural   Na3Au
_chemical_formula_sum   'Na6 Au2'
_cell_volume   206.52620252
_cell_formula_units_Z   2
loop_
 _symmetry_equiv_pos_site_id
 _symmetry_equiv_pos_as_xyz
  1  'x, y, z'
loop_
 _atom_site_type_symbol
 _atom_site_label
 _atom_site_symmetry_multiplicity
 _atom_site_fract_x
 _atom_site_fract_y
 _atom_site_fract_z
 _atom_site_occupancy
  Na  Na0  1  0.17538729  0.35077359  0.25000000  1
  Na  Na1  1  0.64922641  0.82461371  0.25000000  1
  Na  Na2  1  0.17538629  0.82461371  0.25000000  1
  Na  Na3  1  0.82461371  0.64922641  0.75000000  1
  Na  Na4  1  0.35077359  0.17538729  0.75000000  1
  Na  Na5  1  0.82461371  0.17538729  0.75000000  1
  Au  Au6  1  0.33333300  0.66666600  0.75000000  1
  Au  Au7  1  0.66666600  0.33333200  0.25000000  1
