# generated using pymatgen
data_Pr2Mg
_symmetry_space_group_name_H-M   'P 1'
_cell_length_a   5.50441174
_cell_length_b   5.52153106
_cell_length_c   6.97314565
_cell_angle_alpha   66.67701703
_cell_angle_beta   90.00000000
_cell_angle_gamma   90.00000000
_symmetry_Int_Tables_number   1
_chemical_formula_structural   Pr2Mg
_chemical_formula_sum   'Pr4 Mg2'
_cell_volume   194.61571608
_cell_formula_units_Z   2
loop_
 _symmetry_equiv_pos_site_id
 _symmetry_equiv_pos_as_xyz
  1  'x, y, z'
loop_
 _atom_site_type_symbol
 _atom_site_label
 _atom_site_symmetry_multiplicity
 _atom_site_fract_x
 _atom_site_fract_y
 _atom_site_fract_z
 _atom_site_occupancy
  Pr  Pr0  1  0.50000000  0.40186512  0.02902099  1
  Pr  Pr1  1  0.00000000  0.90244590  0.02902099  1
  Pr  Pr2  1  0.50000000  0.09755210  0.63764501  1
  Pr  Pr3  1  0.00000000  0.59813488  0.63764601  1
  Mg  Mg4  1  0.50000000  0.74925409  0.33333300  1
  Mg  Mg5  1  0.00000000  0.25074691  0.33333400  1
