# generated using pymatgen
data_Yb5Mg
_symmetry_space_group_name_H-M   'P 1'
_cell_length_a   6.12333564
_cell_length_b   6.46455428
_cell_length_c   6.46455566
_cell_angle_alpha   60.00000589
_cell_angle_beta   90.00000000
_cell_angle_gamma   90.00000000
_symmetry_Int_Tables_number   1
_chemical_formula_structural   Yb5Mg
_chemical_formula_sum   'Yb5 Mg1'
_cell_volume   221.61338528
_cell_formula_units_Z   1
loop_
 _symmetry_equiv_pos_site_id
 _symmetry_equiv_pos_as_xyz
  1  'x, y, z'
loop_
 _atom_site_type_symbol
 _atom_site_label
 _atom_site_symmetry_multiplicity
 _atom_site_fract_x
 _atom_site_fract_y
 _atom_site_fract_z
 _atom_site_occupancy
  Yb  Yb0  1  0.50000000  0.33333300  0.00000100  1
  Yb  Yb1  1  0.00000000  0.99007568  0.00992432  1
  Yb  Yb2  1  0.00000000  0.34325832  0.33333300  1
  Yb  Yb3  1  0.00000000  0.66666600  0.65674268  1
  Yb  Yb4  1  0.50000000  0.00000100  0.66666500  1
  Mg  Mg5  1  0.50000000  0.66666600  0.33333300  1
