# generated using pymatgen
data_Zn(CuO2)2
_symmetry_space_group_name_H-M   'P 1'
_cell_length_a   2.93750595
_cell_length_b   5.05380538
_cell_length_c   9.42533827
_cell_angle_alpha   90.00000000
_cell_angle_beta   90.00000000
_cell_angle_gamma   106.89526308
_symmetry_Int_Tables_number   1
_chemical_formula_structural   Zn(CuO2)2
_chemical_formula_sum   'Zn2 Cu4 O8'
_cell_volume   133.88516367
_cell_formula_units_Z   2
loop_
 _symmetry_equiv_pos_site_id
 _symmetry_equiv_pos_as_xyz
  1  'x, y, z'
loop_
 _atom_site_type_symbol
 _atom_site_label
 _atom_site_symmetry_multiplicity
 _atom_site_fract_x
 _atom_site_fract_y
 _atom_site_fract_z
 _atom_site_occupancy
  Zn  Zn0  1  0.39078296  0.78156693  0.75000000  1
  Zn  Zn1  1  0.60921704  0.21843307  0.25000000  1
  Cu  Cu2  1  0.86843380  0.73686960  0.06963007  1
  Cu  Cu3  1  0.13156620  0.26313040  0.93036993  1
  Cu  Cu4  1  0.86843380  0.73686960  0.43036993  1
  Cu  Cu5  1  0.13156620  0.26313040  0.56963007  1
  O  O6  1  0.22196691  0.44393381  0.38757930  1
  O  O7  1  0.77803309  0.55606619  0.61242070  1
  O  O8  1  0.77803309  0.55606619  0.88757930  1
  O  O9  1  0.22196691  0.44393381  0.11242070  1
  O  O10  1  0.95931331  0.91862761  0.25000000  1
  O  O11  1  0.04068669  0.08137239  0.75000000  1
  O  O12  1  0.50000000  0.00000000  -0.00000000  1
  O  O13  1  0.50000000  0.00000000  0.50000000  1
