# generated using pymatgen
data_CsTi2Cl7
_symmetry_space_group_name_H-M   'P 1'
_cell_length_a   6.36135636
_cell_length_b   7.29414650
_cell_length_c   12.27275824
_cell_angle_alpha   91.91272380
_cell_angle_beta   90.00000000
_cell_angle_gamma   90.00000000
_symmetry_Int_Tables_number   1
_chemical_formula_structural   CsTi2Cl7
_chemical_formula_sum   'Cs2 Ti4 Cl14'
_cell_volume   569.14685787
_cell_formula_units_Z   2
loop_
 _symmetry_equiv_pos_site_id
 _symmetry_equiv_pos_as_xyz
  1  'x, y, z'
loop_
 _atom_site_type_symbol
 _atom_site_label
 _atom_site_symmetry_multiplicity
 _atom_site_fract_x
 _atom_site_fract_y
 _atom_site_fract_z
 _atom_site_occupancy
  Cs  Cs0  1  0.37425065  0.50000000  0.25000000  1
  Cs  Cs1  1  0.62574935  0.50000000  0.75000000  1
  Ti  Ti2  1  0.75869750  0.93158802  0.06915204  1
  Ti  Ti3  1  0.75869750  0.06841198  0.43084796  1
  Ti  Ti4  1  0.24130250  0.06841198  0.93084796  1
  Ti  Ti5  1  0.24130250  0.93158802  0.56915204  1
  Cl  Cl6  1  0.86986862  0.64999458  0.12084479  1
  Cl  Cl7  1  0.86986862  0.35000542  0.37915521  1
  Cl  Cl8  1  0.13013138  0.35000542  0.87915521  1
  Cl  Cl9  1  0.13013138  0.64999458  0.62084479  1
  Cl  Cl10  1  0.40628506  -0.00000000  0.75000000  1
  Cl  Cl11  1  0.59371494  -0.00000000  0.25000000  1
  Cl  Cl12  1  0.06874496  0.88897754  0.38873810  1
  Cl  Cl13  1  0.06874496  0.11102246  0.11126190  1
  Cl  Cl14  1  0.93125504  0.11102246  0.61126190  1
  Cl  Cl15  1  0.93125504  0.88897754  0.88873810  1
  Cl  Cl16  1  0.57693918  0.79102129  0.49804794  1
  Cl  Cl17  1  0.57693918  0.20897871  0.00195206  1
  Cl  Cl18  1  0.42306082  0.20897871  0.50195206  1
  Cl  Cl19  1  0.42306082  0.79102129  0.99804794  1
