# generated using pymatgen
data_YbBr2
_symmetry_space_group_name_H-M   'P 1'
_cell_length_a   7.05121673
_cell_length_b   7.28631818
_cell_length_c   13.80922527
_cell_angle_alpha   90.00000000
_cell_angle_beta   90.00000000
_cell_angle_gamma   90.00000000
_symmetry_Int_Tables_number   1
_chemical_formula_structural   YbBr2
_chemical_formula_sum   'Yb8 Br16'
_cell_volume   709.48220985
_cell_formula_units_Z   8
loop_
 _symmetry_equiv_pos_site_id
 _symmetry_equiv_pos_as_xyz
  1  'x, y, z'
loop_
 _atom_site_type_symbol
 _atom_site_label
 _atom_site_symmetry_multiplicity
 _atom_site_fract_x
 _atom_site_fract_y
 _atom_site_fract_z
 _atom_site_occupancy
  Yb  Yb0  1  0.77403406  0.54778428  0.38822077  1
  Yb  Yb1  1  0.22596594  0.95221572  0.88822077  1
  Yb  Yb2  1  0.72596594  0.04778428  0.61177923  1
  Yb  Yb3  1  0.27403406  0.45221572  0.11177923  1
  Yb  Yb4  1  0.22596594  0.45221572  0.61177923  1
  Yb  Yb5  1  0.77403406  0.04778428  0.11177923  1
  Yb  Yb6  1  0.27403406  0.95221572  0.38822077  1
  Yb  Yb7  1  0.72596594  0.54778428  0.88822077  1
  Br  Br8  1  0.65020523  0.88424627  0.29336213  1
  Br  Br9  1  0.34979477  0.61575373  0.79336213  1
  Br  Br10  1  0.84979477  0.38424627  0.70663787  1
  Br  Br11  1  0.15020523  0.11575373  0.20663787  1
  Br  Br12  1  0.34979477  0.11575373  0.70663787  1
  Br  Br13  1  0.65020523  0.38424627  0.20663787  1
  Br  Br14  1  0.15020523  0.61575373  0.29336213  1
  Br  Br15  1  0.84979477  0.88424627  0.79336213  1
  Br  Br16  1  0.50130619  0.73641936  0.52920611  1
  Br  Br17  1  0.49869381  0.76358064  0.02920611  1
  Br  Br18  1  0.99869381  0.23641936  0.47079389  1
  Br  Br19  1  0.00130619  0.26358064  0.97079389  1
  Br  Br20  1  0.49869381  0.26358064  0.47079389  1
  Br  Br21  1  0.50130619  0.23641936  0.97079389  1
  Br  Br22  1  0.00130619  0.76358064  0.52920611  1
  Br  Br23  1  0.99869381  0.73641936  0.02920611  1
