# generated using pymatgen
data_YCr(WO4)2
_symmetry_space_group_name_H-M   'P 1'
_cell_length_a   5.13675240
_cell_length_b   5.92474886
_cell_length_c   6.38848498
_cell_angle_alpha   108.86002059
_cell_angle_beta   117.49095651
_cell_angle_gamma   91.98296503
_symmetry_Int_Tables_number   1
_chemical_formula_structural   YCr(WO4)2
_chemical_formula_sum   'Y1 Cr1 W2 O8'
_cell_volume   159.25197237
_cell_formula_units_Z   1
loop_
 _symmetry_equiv_pos_site_id
 _symmetry_equiv_pos_as_xyz
  1  'x, y, z'
loop_
 _atom_site_type_symbol
 _atom_site_label
 _atom_site_symmetry_multiplicity
 _atom_site_fract_x
 _atom_site_fract_y
 _atom_site_fract_z
 _atom_site_occupancy
  Y  Y0  1  0.61969955  0.70653840  0.10555661  1
  Cr  Cr1  1  0.13226645  0.22964047  0.09968754  1
  W  W2  1  0.87796118  0.39107518  0.58465672  1
  W  W3  1  0.39062524  0.06213187  0.61958858  1
  O  O4  1  0.13524010  0.68074127  0.83555339  1
  O  O5  1  0.56541550  0.46526810  0.30145195  1
  O  O6  1  0.16761328  0.19888959  0.79051096  1
  O  O7  1  0.57573986  0.04302216  0.40598930  1
  O  O8  1  0.66752661  0.97302872  0.87473836  1
  O  O9  1  0.11486517  0.77754601  0.38345631  1
  O  O10  1  0.08593582  0.24342031  0.39593291  1
  O  O11  1  0.66310925  0.40719594  0.79897338  1
