# generated using pymatgen
data_ThCrSe3
_symmetry_space_group_name_H-M   'P 1'
_cell_length_a   6.51892711
_cell_length_b   7.75356877
_cell_length_c   9.37690864
_cell_angle_alpha   90.00000000
_cell_angle_beta   90.00000000
_cell_angle_gamma   90.00000000
_symmetry_Int_Tables_number   1
_chemical_formula_structural   ThCrSe3
_chemical_formula_sum   'Th4 Cr4 Se12'
_cell_volume   473.95537512
_cell_formula_units_Z   4
loop_
 _symmetry_equiv_pos_site_id
 _symmetry_equiv_pos_as_xyz
  1  'x, y, z'
loop_
 _atom_site_type_symbol
 _atom_site_label
 _atom_site_symmetry_multiplicity
 _atom_site_fract_x
 _atom_site_fract_y
 _atom_site_fract_z
 _atom_site_occupancy
  Th  Th0  1  0.44342994  0.87898345  0.25000000  1
  Th  Th1  1  0.05657006  0.37898345  0.25000000  1
  Th  Th2  1  0.55657006  0.12101655  0.75000000  1
  Th  Th3  1  0.94342994  0.62101655  0.75000000  1
  Cr  Cr4  1  0.50000000  0.50000000  0.00000000  1
  Cr  Cr5  1  -0.00000000  -0.00000000  0.50000000  1
  Cr  Cr6  1  0.50000000  0.50000000  0.50000000  1
  Cr  Cr7  1  -0.00000000  -0.00000000  0.00000000  1
  Se  Se8  1  0.64126521  0.54078457  0.25000000  1
  Se  Se9  1  0.85873479  0.04078457  0.25000000  1
  Se  Se10  1  0.35873479  0.45921543  0.75000000  1
  Se  Se11  1  0.14126521  0.95921543  0.75000000  1
  Se  Se12  1  0.66757853  0.82772402  0.55611890  1
  Se  Se13  1  0.83242147  0.32772402  0.94388110  1
  Se  Se14  1  0.33242147  0.17227598  0.05611890  1
  Se  Se15  1  0.16757853  0.67227598  0.44388110  1
  Se  Se16  1  0.33242147  0.17227598  0.44388110  1
  Se  Se17  1  0.16757853  0.67227598  0.05611890  1
  Se  Se18  1  0.66757853  0.82772402  0.94388110  1
  Se  Se19  1  0.83242147  0.32772402  0.55611890  1
