# generated using pymatgen
data_Ti2O3
_symmetry_space_group_name_H-M   'P 1'
_cell_length_a   2.85498627
_cell_length_b   7.88040494
_cell_length_c   8.20830549
_cell_angle_alpha   90.00000000
_cell_angle_beta   90.00000000
_cell_angle_gamma   90.00000000
_symmetry_Int_Tables_number   1
_chemical_formula_structural   Ti2O3
_chemical_formula_sum   'Ti8 O12'
_cell_volume   184.67413346
_cell_formula_units_Z   4
loop_
 _symmetry_equiv_pos_site_id
 _symmetry_equiv_pos_as_xyz
  1  'x, y, z'
loop_
 _atom_site_type_symbol
 _atom_site_label
 _atom_site_symmetry_multiplicity
 _atom_site_fract_x
 _atom_site_fract_y
 _atom_site_fract_z
 _atom_site_occupancy
  Ti  Ti0  1  0.75000000  0.47005857  0.81599516  1
  Ti  Ti1  1  0.75000000  0.97005857  0.68400484  1
  Ti  Ti2  1  0.25000000  0.52994143  0.18400484  1
  Ti  Ti3  1  0.25000000  0.02994143  0.31599516  1
  Ti  Ti4  1  0.75000000  0.30406407  0.48170254  1
  Ti  Ti5  1  0.75000000  0.80406407  0.01829746  1
  Ti  Ti6  1  0.25000000  0.69593593  0.51829746  1
  Ti  Ti7  1  0.25000000  0.19593593  0.98170254  1
  O  O8  1  0.75000000  0.55675970  0.37490251  1
  O  O9  1  0.75000000  0.05675970  0.12509749  1
  O  O10  1  0.25000000  0.44324030  0.62509749  1
  O  O11  1  0.25000000  0.94324030  0.87490251  1
  O  O12  1  0.75000000  0.37916476  0.05333350  1
  O  O13  1  0.75000000  0.87916476  0.44666650  1
  O  O14  1  0.25000000  0.62083524  0.94666650  1
  O  O15  1  0.25000000  0.12083524  0.55333350  1
  O  O16  1  0.75000000  0.70797216  0.68926172  1
  O  O17  1  0.75000000  0.20797216  0.81073828  1
  O  O18  1  0.25000000  0.29202784  0.31073828  1
  O  O19  1  0.25000000  0.79202784  0.18926172  1
