# generated using pymatgen
data_Ce5Bi3
_symmetry_space_group_name_H-M   'P 1'
_cell_length_a   6.48753803
_cell_length_b   9.52147671
_cell_length_c   9.52742327
_cell_angle_alpha   119.97935525
_cell_angle_beta   90.00000000
_cell_angle_gamma   90.00000000
_symmetry_Int_Tables_number   1
_chemical_formula_structural   Ce5Bi3
_chemical_formula_sum   'Ce10 Bi6'
_cell_volume   509.77745714
_cell_formula_units_Z   2
loop_
 _symmetry_equiv_pos_site_id
 _symmetry_equiv_pos_as_xyz
  1  'x, y, z'
loop_
 _atom_site_type_symbol
 _atom_site_label
 _atom_site_symmetry_multiplicity
 _atom_site_fract_x
 _atom_site_fract_y
 _atom_site_fract_z
 _atom_site_occupancy
  Ce  Ce0  1  0.49999393  0.33333186  0.66669416  1
  Ce  Ce1  1  0.49999393  0.66663770  0.33330584  1
  Ce  Ce2  1  0.99999393  0.66666814  0.33330584  1
  Ce  Ce3  1  0.99999393  0.33336230  0.66669416  1
  Ce  Ce4  1  0.74989429  0.25218906  1.00000000  1
  Ce  Ce5  1  0.75005154  0.74759727  0.74764589  1
  Ce  Ce6  1  0.75005154  0.99995138  0.25235411  1
  Ce  Ce7  1  0.24989429  0.74781094  0.00000000  1
  Ce  Ce8  1  0.25005154  0.25240273  0.25235411  1
  Ce  Ce9  1  0.25005154  0.00004862  0.74764589  1
  Bi  Bi10  1  0.74994186  0.61397493  1.00000000  1
  Bi  Bi11  1  0.75003645  0.38603808  0.38604803  1
  Bi  Bi12  1  0.75003645  0.99999005  0.61395197  1
  Bi  Bi13  1  0.24994186  0.38602507  0.00000000  1
  Bi  Bi14  1  0.25003645  0.61396192  0.61395197  1
  Bi  Bi15  1  0.25003645  0.00000995  0.38604803  1
