# generated using pymatgen
data_Hg4GeS6
_symmetry_space_group_name_H-M   'P 1'
_cell_length_a   7.30794724
_cell_length_b   7.30794724
_cell_length_c   12.68007668
_cell_angle_alpha   90.74754755
_cell_angle_beta   106.36726477
_cell_angle_gamma   119.23682497
_symmetry_Int_Tables_number   1
_chemical_formula_structural   Hg4GeS6
_chemical_formula_sum   'Hg8 Ge2 S12'
_cell_volume   557.71971534
_cell_formula_units_Z   2
loop_
 _symmetry_equiv_pos_site_id
 _symmetry_equiv_pos_as_xyz
  1  'x, y, z'
loop_
 _atom_site_type_symbol
 _atom_site_label
 _atom_site_symmetry_multiplicity
 _atom_site_fract_x
 _atom_site_fract_y
 _atom_site_fract_z
 _atom_site_occupancy
  Hg  Hg0  1  0.72299893  0.57903724  0.49026339  1
  Hg  Hg1  1  0.41122615  0.76726446  0.99026339  1
  Hg  Hg2  1  0.43652725  0.95063688  0.49688813  1
  Hg  Hg3  1  0.04625125  0.06036088  0.99688813  1
  Hg  Hg4  1  0.98869035  0.07192103  0.30720157  1
  Hg  Hg5  1  0.73528054  0.31851122  0.80720157  1
  Hg  Hg6  1  0.97552634  0.57614035  0.15513111  1
  Hg  Hg7  1  0.07899076  0.17960477  0.65513111  1
  Ge  Ge8  1  0.52225680  0.17649005  0.24130629  1
  Ge  Ge9  1  0.56481624  0.71904949  0.74130629  1
  S  S10  1  0.40889341  0.85999658  0.29177604  1
  S  S11  1  0.93177946  0.88288262  0.79177604  1
  S  S12  1  0.39939114  0.36746569  0.30159442  1
  S  S13  1  0.43412873  0.90220328  0.80159442  1
  S  S14  1  0.05530152  0.43781789  0.99385982  1
  S  S15  1  0.05604193  0.93855830  0.49385982  1
  S  S16  1  0.89448540  0.37420001  0.31796493  1
  S  S17  1  0.44376491  0.42347953  0.81796493  1
  S  S18  1  0.45310726  0.14725072  0.05742519  1
  S  S19  1  0.41017447  0.60431793  0.55742519  1
  S  S20  1  0.81436773  0.83358970  0.11358910  1
  S  S21  1  0.77999940  0.29922137  0.61358910  1
