# generated using pymatgen
data_MnPH4O5F
_symmetry_space_group_name_H-M   'P 1'
_cell_length_a   5.62010518
_cell_length_b   5.68959510
_cell_length_c   8.52926324
_cell_angle_alpha   81.96406065
_cell_angle_beta   74.68226924
_cell_angle_gamma   71.59652878
_symmetry_Int_Tables_number   1
_chemical_formula_structural   MnPH4O5F
_chemical_formula_sum   'Mn2 P2 H8 O10 F2'
_cell_volume   249.11690001
_cell_formula_units_Z   2
loop_
 _symmetry_equiv_pos_site_id
 _symmetry_equiv_pos_as_xyz
  1  'x, y, z'
loop_
 _atom_site_type_symbol
 _atom_site_label
 _atom_site_symmetry_multiplicity
 _atom_site_fract_x
 _atom_site_fract_y
 _atom_site_fract_z
 _atom_site_occupancy
  Mn  Mn0  1  0.45930853  0.70241999  0.83043191  1
  Mn  Mn1  1  0.54069147  0.29758001  0.16956809  1
  P  P2  1  0.85311809  0.08879063  0.80624152  1
  P  P3  1  0.14688191  0.91120937  0.19375848  1
  H  H4  1  0.68008576  0.59601696  0.48334517  1
  H  H5  1  0.31991424  0.40398304  0.51665483  1
  H  H6  1  0.71193256  0.85086324  0.50437649  1
  H  H7  1  0.28806744  0.14913676  0.49562351  1
  H  H8  1  0.03778521  0.60866588  0.79538531  1
  H  H9  1  0.96221479  0.39133412  0.20461469  1
  H  H10  1  0.21441255  0.33102830  0.80810007  1
  H  H11  1  0.78558745  0.66897170  0.19189993  1
  O  O12  1  0.68809016  0.31753294  0.90207467  1
  O  O13  1  0.31190984  0.68246706  0.09792533  1
  O  O14  1  0.75151319  0.86389411  0.84704415  1
  O  O15  1  0.24848681  0.13610589  0.15295585  1
  O  O16  1  0.14041725  0.02984097  0.79723577  1
  O  O17  1  0.85958275  0.97015903  0.20276423  1
  O  O18  1  0.63702934  0.72077323  0.56249567  1
  O  O19  1  0.36297066  0.27922677  0.43750433  1
  O  O20  1  0.21911865  0.50107114  0.76639430  1
  O  O21  1  0.78088135  0.49892886  0.23360570  1
  F  F22  1  0.82495858  0.17983856  0.62251431  1
  F  F23  1  0.17504142  0.82016144  0.37748569  1
