# generated using pymatgen
data_VAg2AsO6
_symmetry_space_group_name_H-M   'P 1'
_cell_length_a   6.53735111
_cell_length_b   6.53573529
_cell_length_c   7.20619421
_cell_angle_alpha   116.08705861
_cell_angle_beta   91.66009585
_cell_angle_gamma   90.03555074
_symmetry_Int_Tables_number   1
_chemical_formula_structural   VAg2AsO6
_chemical_formula_sum   'V2 Ag4 As2 O12'
_cell_volume   276.38185580
_cell_formula_units_Z   2
loop_
 _symmetry_equiv_pos_site_id
 _symmetry_equiv_pos_as_xyz
  1  'x, y, z'
loop_
 _atom_site_type_symbol
 _atom_site_label
 _atom_site_symmetry_multiplicity
 _atom_site_fract_x
 _atom_site_fract_y
 _atom_site_fract_z
 _atom_site_occupancy
  V  V0  1  0.91932679  0.88288340  0.27555707  1
  V  V1  1  0.08067321  0.11711660  0.72444293  1
  Ag  Ag2  1  0.61593760  0.88669544  0.75825070  1
  Ag  Ag3  1  0.38406240  0.11330456  0.24174930  1
  Ag  Ag4  1  0.62724985  0.37778480  0.71571946  1
  Ag  Ag5  1  0.37275015  0.62221520  0.28428054  1
  As  As6  1  0.84738827  0.34194261  0.19121407  1
  As  As7  1  0.15261173  0.65805739  0.80878593  1
  O  O8  1  0.61837547  0.39106146  0.31264154  1
  O  O9  1  0.38162453  0.60893854  0.68735846  1
  O  O10  1  0.81199664  0.22394346  0.92459972  1
  O  O11  1  0.18800336  0.77605654  0.07540028  1
  O  O12  1  0.98955311  0.59130093  0.27840870  1
  O  O13  1  0.01044689  0.40869907  0.72159130  1
  O  O14  1  0.99550570  0.16366267  0.25648972  1
  O  O15  1  0.00449430  0.83633733  0.74351028  1
  O  O16  1  0.20282001  0.99114138  0.49045532  1
  O  O17  1  0.79717999  0.00885862  0.50954468  1
  O  O18  1  0.72949384  0.78952885  0.09752759  1
  O  O19  1  0.27050616  0.21047115  0.90247241  1
