# generated using pymatgen
data_Ca2YFeO5
_symmetry_space_group_name_H-M   'P 1'
_cell_length_a   5.53524397
_cell_length_b   5.71018046
_cell_length_c   8.90557716
_cell_angle_alpha   108.70086265
_cell_angle_beta   108.11378269
_cell_angle_gamma   90.00259474
_symmetry_Int_Tables_number   1
_chemical_formula_structural   Ca2YFeO5
_chemical_formula_sum   'Ca4 Y2 Fe2 O10'
_cell_volume   251.84695888
_cell_formula_units_Z   2
loop_
 _symmetry_equiv_pos_site_id
 _symmetry_equiv_pos_as_xyz
  1  'x, y, z'
loop_
 _atom_site_type_symbol
 _atom_site_label
 _atom_site_symmetry_multiplicity
 _atom_site_fract_x
 _atom_site_fract_y
 _atom_site_fract_z
 _atom_site_occupancy
  Ca  Ca0  1  0.10928891  0.62555949  0.19664402  1
  Ca  Ca1  1  0.41212673  0.92817734  0.80179654  1
  Ca  Ca2  1  0.91214034  0.37003425  0.80183930  1
  Ca  Ca3  1  0.60939026  0.06741261  0.19668614  1
  Y  Y4  1  0.29418710  0.29284020  0.49920981  1
  Y  Y5  1  0.79421899  0.70267991  0.49924598  1
  Fe  Fe6  1  0.48752490  0.49781533  0.99926469  1
  Fe  Fe7  1  0.98804792  0.99783172  0.99925365  1
  O  O8  1  0.69139559  0.33156764  0.49925548  1
  O  O9  1  0.19141726  0.66397838  0.49922448  1
  O  O10  1  0.57428707  0.70811620  0.25814151  1
  O  O11  1  0.31492575  0.28738258  0.74032248  1
  O  O12  1  0.07391106  0.04633913  0.25810042  1
  O  O13  1  0.81495033  0.94930755  0.74037690  1
  O  O14  1  0.21826466  0.73575852  0.96335063  1
  O  O15  1  0.25378147  0.26029874  0.03522967  1
  O  O16  1  0.75383926  0.27119145  0.03513638  1
  O  O17  1  0.71827840  0.72392195  0.96322592  1
