# generated using pymatgen
data_V2Cu3(Bi2O7)2
_symmetry_space_group_name_H-M   'P 1'
_cell_length_a   5.33889339
_cell_length_b   8.06806366
_cell_length_c   8.11722426
_cell_angle_alpha   74.61317451
_cell_angle_beta   89.51229731
_cell_angle_gamma   70.75430162
_symmetry_Int_Tables_number   1
_chemical_formula_structural   V2Cu3(Bi2O7)2
_chemical_formula_sum   'V2 Cu3 Bi4 O14'
_cell_volume   317.07382449
_cell_formula_units_Z   1
loop_
 _symmetry_equiv_pos_site_id
 _symmetry_equiv_pos_as_xyz
  1  'x, y, z'
loop_
 _atom_site_type_symbol
 _atom_site_label
 _atom_site_symmetry_multiplicity
 _atom_site_fract_x
 _atom_site_fract_y
 _atom_site_fract_z
 _atom_site_occupancy
  V  V0  1  0.74782781  0.42790343  0.75355138  1
  V  V1  1  0.25217219  0.57209657  0.24644862  1
  Cu  Cu2  1  0.36424972  0.22092920  0.02291409  1
  Cu  Cu3  1  0.63575028  0.77907080  0.97708591  1
  Cu  Cu4  1  -0.00000000  0.00000000  0.00000000  1
  Bi  Bi5  1  0.89484623  0.20579460  0.30371608  1
  Bi  Bi6  1  0.10515377  0.79420540  0.69628392  1
  Bi  Bi7  1  0.57521448  0.84350983  0.36140528  1
  Bi  Bi8  1  0.42478552  0.15649017  0.63859472  1
  O  O9  1  0.71152801  0.06996300  0.14431223  1
  O  O10  1  0.28847199  0.93003700  0.85568777  1
  O  O11  1  0.77793369  0.95772683  0.83472019  1
  O  O12  1  0.22206631  0.04227317  0.16527981  1
  O  O13  1  0.00513193  0.34086759  0.91307450  1
  O  O14  1  0.99486807  0.65913241  0.08692550  1
  O  O15  1  0.46420895  0.39192453  0.84184942  1
  O  O16  1  0.53579105  0.60807547  0.15815058  1
  O  O17  1  0.82059471  0.31893782  0.59177337  1
  O  O18  1  0.17940529  0.68106218  0.40822663  1
  O  O19  1  0.67103100  0.66704130  0.67139204  1
  O  O20  1  0.32896900  0.33295870  0.32860796  1
  O  O21  1  0.75305227  0.00062127  0.49681659  1
  O  O22  1  0.24694773  0.99937873  0.50318341  1
