# generated using pymatgen
data_Ca4Ni20H
_symmetry_space_group_name_H-M   'P 1'
_cell_length_a   3.88541284
_cell_length_b   9.77118047
_cell_length_c   9.90272139
_cell_angle_alpha   119.62961689
_cell_angle_beta   90.00241723
_cell_angle_gamma   90.00030373
_symmetry_Int_Tables_number   1
_chemical_formula_structural   Ca4Ni20H
_chemical_formula_sum   'Ca4 Ni20 H1'
_cell_volume   326.79711445
_cell_formula_units_Z   1
loop_
 _symmetry_equiv_pos_site_id
 _symmetry_equiv_pos_as_xyz
  1  'x, y, z'
loop_
 _atom_site_type_symbol
 _atom_site_label
 _atom_site_symmetry_multiplicity
 _atom_site_fract_x
 _atom_site_fract_y
 _atom_site_fract_z
 _atom_site_occupancy
  Ca  Ca0  1  0.00221009  0.00096942  0.00007264  1
  Ca  Ca1  1  0.00128849  0.99536374  0.49263411  1
  Ca  Ca2  1  0.00221325  0.49737788  0.00012695  1
  Ca  Ca3  1  0.00128270  0.50269901  0.50718281  1
  Ni  Ni4  1  0.00112408  0.16688116  0.33297503  1
  Ni  Ni5  1  0.00114947  0.66439515  0.33299585  1
  Ni  Ni6  1  0.99964680  0.15726760  0.81641864  1
  Ni  Ni7  1  0.00132702  0.66686041  0.83541017  1
  Ni  Ni8  1  0.50800143  0.24913208  0.00001653  1
  Ni  Ni9  1  0.50114546  0.24907181  0.49998765  1
  Ni  Ni10  1  0.50115128  0.99903227  0.24882669  1
  Ni  Ni11  1  0.50154705  0.50148981  0.25474799  1
  Ni  Ni12  1  0.50154325  0.99665548  0.74522187  1
  Ni  Ni13  1  0.50115543  0.49927083  0.75125283  1
  Ni  Ni14  1  0.99962558  0.34088526  0.18358531  1
  Ni  Ni15  1  0.00132072  0.83137707  0.16461430  1
  Ni  Ni16  1  0.00112945  0.33136152  0.66700370  1
  Ni  Ni17  1  0.00113006  0.83383802  0.66699506  1
  Ni  Ni18  1  0.50148149  0.74910851  -0.00001661  1
  Ni  Ni19  1  0.50115649  0.74907496  0.49998258  1
  Ni  Ni20  1  0.50153930  0.25149227  0.25470790  1
  Ni  Ni21  1  0.50115539  0.74794897  0.24879311  1
  Ni  Ni22  1  0.50156257  0.24675182  0.74529171  1
  Ni  Ni23  1  0.50114697  0.75018755  0.75116733  1
  H  H24  1  0.08076617  0.24910740  0.00000586  1
