# generated using pymatgen
data_Y5Al3C4
_symmetry_space_group_name_H-M   'P 1'
_cell_length_a   3.52354851
_cell_length_b   10.91899228
_cell_length_c   10.91899228
_cell_angle_alpha   90.00000000
_cell_angle_beta   90.00000000
_cell_angle_gamma   90.00000000
_symmetry_Int_Tables_number   1
_chemical_formula_structural   Y5Al3C4
_chemical_formula_sum   'Y10 Al6 C8'
_cell_volume   420.09293023
_cell_formula_units_Z   2
loop_
 _symmetry_equiv_pos_site_id
 _symmetry_equiv_pos_as_xyz
  1  'x, y, z'
loop_
 _atom_site_type_symbol
 _atom_site_label
 _atom_site_symmetry_multiplicity
 _atom_site_fract_x
 _atom_site_fract_y
 _atom_site_fract_z
 _atom_site_occupancy
  Y  Y0  1  0.50000000  0.72951565  0.55081930  1
  Y  Y1  1  0.50000000  0.27048435  0.44918070  1
  Y  Y2  1  0.50000000  0.77048435  0.05081930  1
  Y  Y3  1  0.50000000  0.22951565  0.94918070  1
  Y  Y4  1  0.50000000  0.55081930  0.27048435  1
  Y  Y5  1  0.50000000  0.44918070  0.72951565  1
  Y  Y6  1  0.50000000  0.05081930  0.22951565  1
  Y  Y7  1  0.50000000  0.94918070  0.77048435  1
  Y  Y8  1  0.00000000  -0.00000000  0.50000000  1
  Y  Y9  1  0.00000000  0.50000000  -0.00000000  1
  Al  Al10  1  -0.00000000  0.20377970  0.70377970  1
  Al  Al11  1  0.00000000  0.79622030  0.29622030  1
  Al  Al12  1  0.00000000  0.29622030  0.20377970  1
  Al  Al13  1  -0.00000000  0.70377970  0.79622030  1
  Al  Al14  1  0.00000000  0.50000000  0.50000000  1
  Al  Al15  1  0.00000000  -0.00000000  -0.00000000  1
  C  C16  1  0.50000000  0.13289173  0.63289173  1
  C  C17  1  0.50000000  0.86710827  0.36710827  1
  C  C18  1  0.50000000  0.36710827  0.13289173  1
  C  C19  1  0.50000000  0.63289173  0.86710827  1
  C  C20  1  -0.00000000  0.66239726  0.16239726  1
  C  C21  1  0.00000000  0.33760274  0.83760274  1
  C  C22  1  0.00000000  0.83760274  0.66239726  1
  C  C23  1  -0.00000000  0.16239726  0.33760274  1
