# generated using pymatgen
data_La3AlCdS7
_symmetry_space_group_name_H-M   'P 1'
_cell_length_a   6.08258764
_cell_length_b   10.36437443
_cell_length_c   10.36439559
_cell_angle_alpha   119.99885654
_cell_angle_beta   90.00000000
_cell_angle_gamma   90.00000000
_symmetry_Int_Tables_number   1
_chemical_formula_structural   La3AlCdS7
_chemical_formula_sum   'La6 Al2 Cd2 S14'
_cell_volume   565.86272369
_cell_formula_units_Z   2
loop_
 _symmetry_equiv_pos_site_id
 _symmetry_equiv_pos_as_xyz
  1  'x, y, z'
loop_
 _atom_site_type_symbol
 _atom_site_label
 _atom_site_symmetry_multiplicity
 _atom_site_fract_x
 _atom_site_fract_y
 _atom_site_fract_z
 _atom_site_occupancy
  La  La0  1  0.26009940  0.24516108  0.37514037  1
  La  La1  1  0.26009074  0.62486177  0.87001829  1
  La  La2  1  0.26009731  0.12996296  0.75483237  1
  La  La3  1  0.76009940  0.75483892  0.62485963  1
  La  La4  1  0.76009074  0.37513823  0.12998171  1
  La  La5  1  0.76009731  0.87003704  0.24516763  1
  Al  Al6  1  0.84133867  0.33333997  0.66666762  1
  Al  Al7  1  0.34133867  0.66666003  0.33333238  1
  Cd  Cd8  1  0.50236802  0.99999918  0.99999669  1
  Cd  Cd9  1  0.00236802  0.00000082  0.00000331  1
  S  S10  1  0.74772853  0.16401634  0.25001024  1
  S  S11  1  0.74771863  0.75000315  0.91402466  1
  S  S12  1  0.74771932  0.08598287  0.83596435  1
  S  S13  1  0.24772853  0.83598366  0.74998976  1
  S  S14  1  0.24771863  0.24999685  0.08597534  1
  S  S15  1  0.24771932  0.91401713  0.16403565  1
  S  S16  1  0.99245231  0.10613335  0.51642254  1
  S  S17  1  0.99245667  0.48358715  0.58970428  1
  S  S18  1  0.99246033  0.41028868  0.89386989  1
  S  S19  1  0.49245231  0.89386665  0.48357746  1
  S  S20  1  0.49245667  0.51641285  0.41029572  1
  S  S21  1  0.49246033  0.58971132  0.10613011  1
  S  S22  1  0.47347005  0.33333681  0.66666799  1
  S  S23  1  0.97347005  0.66666319  0.33333201  1
