# generated using pymatgen
data_Sm2Mn3(SbS3)4
_symmetry_space_group_name_H-M   'P 1'
_cell_length_a   3.86899207
_cell_length_b   10.17014745
_cell_length_c   12.17633370
_cell_angle_alpha   83.05769359
_cell_angle_beta   80.85848721
_cell_angle_gamma   79.03477487
_symmetry_Int_Tables_number   1
_chemical_formula_structural   Sm2Mn3(SbS3)4
_chemical_formula_sum   'Sm2 Mn3 Sb4 S12'
_cell_volume   462.36011926
_cell_formula_units_Z   1
loop_
 _symmetry_equiv_pos_site_id
 _symmetry_equiv_pos_as_xyz
  1  'x, y, z'
loop_
 _atom_site_type_symbol
 _atom_site_label
 _atom_site_symmetry_multiplicity
 _atom_site_fract_x
 _atom_site_fract_y
 _atom_site_fract_z
 _atom_site_occupancy
  Sm  Sm0  1  0.24080483  0.65568062  0.86270971  1
  Sm  Sm1  1  0.75919517  0.34431938  0.13729029  1
  Mn  Mn2  1  0.19844903  0.98127903  0.62182291  1
  Mn  Mn3  1  0.80155097  0.01872097  0.37817709  1
  Mn  Mn4  1  -0.00000000  0.00000000  0.00000000  1
  Sb  Sb5  1  0.10661045  0.33506882  0.45171028  1
  Sb  Sb6  1  0.89338955  0.66493118  0.54828972  1
  Sb  Sb7  1  0.45920744  0.26531930  0.81626582  1
  Sb  Sb8  1  0.54079256  0.73468070  0.18373418  1
  S  S9  1  0.05729949  0.08298002  0.80242099  1
  S  S10  1  0.94270051  0.91701998  0.19757901  1
  S  S11  1  0.60198160  0.81929913  0.97673767  1
  S  S12  1  0.39801840  0.18070087  0.02326233  1
  S  S13  1  0.82955564  0.44290970  0.89797902  1
  S  S14  1  0.17044436  0.55709030  0.10202098  1
  S  S15  1  0.40975061  0.52781767  0.65268111  1
  S  S16  1  0.59024939  0.47218233  0.34731889  1
  S  S17  1  0.25772772  0.19423881  0.29030575  1
  S  S18  1  0.74227228  0.80576119  0.70969425  1
  S  S19  1  0.34169682  0.86280769  0.45379867  1
  S  S20  1  0.65830318  0.13719231  0.54620133  1
