# generated using pymatgen
data_Pr5Co19
_symmetry_space_group_name_H-M   'P 1'
_cell_length_a   5.06616788
_cell_length_b   5.06616788
_cell_length_c   16.41044391
_cell_angle_alpha   81.12043485
_cell_angle_beta   81.12043485
_cell_angle_gamma   60.00000734
_symmetry_Int_Tables_number   1
_chemical_formula_structural   Pr5Co19
_chemical_formula_sum   'Pr5 Co19'
_cell_volume   358.92172263
_cell_formula_units_Z   1
loop_
 _symmetry_equiv_pos_site_id
 _symmetry_equiv_pos_as_xyz
  1  'x, y, z'
loop_
 _atom_site_type_symbol
 _atom_site_label
 _atom_site_symmetry_multiplicity
 _atom_site_fract_x
 _atom_site_fract_y
 _atom_site_fract_z
 _atom_site_occupancy
  Pr  Pr0  1  -0.00000000  -0.00000000  0.00000000  1
  Pr  Pr1  1  0.07943184  0.07943184  0.76170447  1
  Pr  Pr2  1  0.92056816  0.92056816  0.23829553  1
  Pr  Pr3  1  0.15288994  0.15288994  0.54133018  1
  Pr  Pr4  1  0.84711006  0.84711006  0.45866982  1
  Co  Co5  1  0.50000000  0.50000000  0.50000000  1
  Co  Co6  1  0.25092952  0.25092952  0.24721144  1
  Co  Co7  1  0.74907048  0.74907048  0.75278856  1
  Co  Co8  1  0.33353683  0.33353683  0.99938950  1
  Co  Co9  1  0.66646317  0.66646317  0.00061050  1
  Co  Co10  1  0.41476680  0.41476680  0.75569961  1
  Co  Co11  1  0.58523320  0.58523320  0.24430039  1
  Co  Co12  1  0.12773662  0.61896163  0.63434012  1
  Co  Co13  1  0.61896163  0.61896163  0.63434012  1
  Co  Co14  1  0.61896163  0.12773662  0.63434012  1
  Co  Co15  1  0.87226338  0.38103837  0.36565988  1
  Co  Co16  1  0.38103837  0.38103837  0.36565988  1
  Co  Co17  1  0.38103837  0.87226338  0.36565988  1
  Co  Co18  1  0.04061636  0.54079977  0.87778409  1
  Co  Co19  1  0.54079977  0.54079977  0.87778409  1
  Co  Co20  1  0.54079977  0.04061636  0.87778409  1
  Co  Co21  1  0.95938364  0.45920023  0.12221591  1
  Co  Co22  1  0.45920023  0.45920023  0.12221591  1
  Co  Co23  1  0.45920023  0.95938364  0.12221591  1
