# generated using pymatgen
data_Nd3GaNiS7
_symmetry_space_group_name_H-M   'P 1'
_cell_length_a   6.20163313
_cell_length_b   9.86939298
_cell_length_c   9.86931690
_cell_angle_alpha   119.99915698
_cell_angle_beta   90.00000000
_cell_angle_gamma   90.00000000
_symmetry_Int_Tables_number   1
_chemical_formula_structural   Nd3GaNiS7
_chemical_formula_sum   'Nd6 Ga2 Ni2 S14'
_cell_volume   523.14000052
_cell_formula_units_Z   2
loop_
 _symmetry_equiv_pos_site_id
 _symmetry_equiv_pos_as_xyz
  1  'x, y, z'
loop_
 _atom_site_type_symbol
 _atom_site_label
 _atom_site_symmetry_multiplicity
 _atom_site_fract_x
 _atom_site_fract_y
 _atom_site_fract_z
 _atom_site_occupancy
  Nd  Nd0  1  0.81981844  0.15265477  0.77867713  1
  Nd  Nd1  1  0.81981789  0.22132612  0.37397595  1
  Nd  Nd2  1  0.81980353  0.62604002  0.84735257  1
  Nd  Nd3  1  0.31981844  0.84734523  0.22132287  1
  Nd  Nd4  1  0.31981789  0.77867388  0.62602405  1
  Nd  Nd5  1  0.31980353  0.37395998  0.15264743  1
  Ga  Ga6  1  0.89448430  0.66664931  0.33332345  1
  Ga  Ga7  1  0.39448430  0.33335069  0.66667655  1
  Ni  Ni8  1  0.50733559  -0.00000048  0.00000057  1
  Ni  Ni9  1  0.00733559  0.00000048  -0.00000057  1
  S  S10  1  0.54417699  0.43070429  0.91023911  1
  S  S11  1  0.54416351  0.08977676  0.52047095  1
  S  S12  1  0.54417895  0.47954504  0.56930296  1
  S  S13  1  0.04417699  0.56929571  0.08976089  1
  S  S14  1  0.04416351  0.91022324  0.47952905  1
  S  S15  1  0.04417895  0.52045496  0.43069704  1
  S  S16  1  0.52988954  0.66666145  0.33333098  1
  S  S17  1  0.02988954  0.33333855  0.66666902  1
  S  S18  1  0.74456430  0.86794901  0.77403500  1
  S  S19  1  0.74456712  0.22596368  0.09390575  1
  S  S20  1  0.74455985  0.90609900  0.13206837  1
  S  S21  1  0.24456430  0.13205099  0.22596500  1
  S  S22  1  0.24456712  0.77403632  0.90609425  1
  S  S23  1  0.24455985  0.09390100  0.86793163  1
