# generated using pymatgen
data_Eu(BiSe2)2
_symmetry_space_group_name_H-M   'P 1'
_cell_length_a   4.24958747
_cell_length_b   12.51262474
_cell_length_c   15.45148112
_cell_angle_alpha   90.00000000
_cell_angle_beta   90.00000000
_cell_angle_gamma   90.00000000
_symmetry_Int_Tables_number   1
_chemical_formula_structural   Eu(BiSe2)2
_chemical_formula_sum   'Eu4 Bi8 Se16'
_cell_volume   821.60922799
_cell_formula_units_Z   4
loop_
 _symmetry_equiv_pos_site_id
 _symmetry_equiv_pos_as_xyz
  1  'x, y, z'
loop_
 _atom_site_type_symbol
 _atom_site_label
 _atom_site_symmetry_multiplicity
 _atom_site_fract_x
 _atom_site_fract_y
 _atom_site_fract_z
 _atom_site_occupancy
  Eu  Eu0  1  0.75000000  0.25429901  0.16162136  1
  Eu  Eu1  1  0.75000000  0.75429901  0.33837864  1
  Eu  Eu2  1  0.25000000  0.74570099  0.83837864  1
  Eu  Eu3  1  0.25000000  0.24570099  0.66162136  1
  Bi  Bi4  1  0.75000000  0.42917538  0.89996093  1
  Bi  Bi5  1  0.75000000  0.92917538  0.60003907  1
  Bi  Bi6  1  0.25000000  0.57082462  0.10003907  1
  Bi  Bi7  1  0.25000000  0.07082462  0.39996093  1
  Bi  Bi8  1  0.75000000  0.42109430  0.39036802  1
  Bi  Bi9  1  0.75000000  0.92109430  0.10963198  1
  Bi  Bi10  1  0.25000000  0.57890570  0.60963198  1
  Bi  Bi11  1  0.25000000  0.07890570  0.89036802  1
  Se  Se12  1  0.75000000  0.14704767  0.52928351  1
  Se  Se13  1  0.75000000  0.64704767  0.97071649  1
  Se  Se14  1  0.25000000  0.85295233  0.47071649  1
  Se  Se15  1  0.25000000  0.35295233  0.02928351  1
  Se  Se16  1  0.75000000  0.21906962  0.81394079  1
  Se  Se17  1  0.75000000  0.71906962  0.68605921  1
  Se  Se18  1  0.25000000  0.78093038  0.18605921  1
  Se  Se19  1  0.25000000  0.28093038  0.31394079  1
  Se  Se20  1  0.75000000  0.41683684  0.58454264  1
  Se  Se21  1  0.75000000  0.91683684  0.91545736  1
  Se  Se22  1  0.25000000  0.58316316  0.41545736  1
  Se  Se23  1  0.25000000  0.08316316  0.08454264  1
  Se  Se24  1  0.75000000  0.50560952  0.21241628  1
  Se  Se25  1  0.75000000  0.00560952  0.28758372  1
  Se  Se26  1  0.25000000  0.49439048  0.78758372  1
  Se  Se27  1  0.25000000  0.99439048  0.71241628  1
