# generated using pymatgen
data_Ca2YNiO5
_symmetry_space_group_name_H-M   'P 1'
_cell_length_a   5.13158145
_cell_length_b   5.56693386
_cell_length_c   9.12011669
_cell_angle_alpha   107.78750535
_cell_angle_beta   106.33827254
_cell_angle_gamma   90.01228743
_symmetry_Int_Tables_number   1
_chemical_formula_structural   Ca2YNiO5
_chemical_formula_sum   'Ca4 Y2 Ni2 O10'
_cell_volume   237.00272611
_cell_formula_units_Z   2
loop_
 _symmetry_equiv_pos_site_id
 _symmetry_equiv_pos_as_xyz
  1  'x, y, z'
loop_
 _atom_site_type_symbol
 _atom_site_label
 _atom_site_symmetry_multiplicity
 _atom_site_fract_x
 _atom_site_fract_y
 _atom_site_fract_z
 _atom_site_occupancy
  Ca  Ca0  1  0.08865053  0.62389102  0.19473742  1
  Ca  Ca1  1  0.39511354  0.93071148  0.80828871  1
  Ca  Ca2  1  0.89555825  0.37818308  0.80813391  1
  Ca  Ca3  1  0.58847351  0.07133190  0.19464666  1
  Y  Y4  1  0.26791185  0.28872296  0.50131124  1
  Y  Y5  1  0.76814320  0.71335258  0.50162916  1
  Ni  Ni6  1  0.48461154  0.50126009  0.00164818  1
  Ni  Ni7  1  0.98444317  0.00112050  0.00143374  1
  O  O8  1  0.71627894  0.32014251  0.50147535  1
  O  O9  1  0.21641354  0.68195804  0.50142469  1
  O  O10  1  0.60124767  0.69034917  0.25411462  1
  O  O11  1  0.34790625  0.31161552  0.74878855  1
  O  O12  1  0.10078502  0.06456712  0.25355008  1
  O  O13  1  0.84929547  0.93752924  0.74942696  1
  O  O14  1  0.22104509  0.73788820  0.97039005  1
  O  O15  1  0.25246475  0.26457963  0.03297839  1
  O  O16  1  0.75212615  0.26873997  0.03266584  1
  O  O17  1  0.72079752  0.73300299  0.96991146  1
