# generated using pymatgen
data_Ba3As2H34O25
_symmetry_space_group_name_H-M   'P 1'
_cell_length_a   9.51437086
_cell_length_b   9.51437086
_cell_length_c   13.91416111
_cell_angle_alpha   90.15389951
_cell_angle_beta   90.15389951
_cell_angle_gamma   86.56091789
_symmetry_Int_Tables_number   1
_chemical_formula_structural   Ba3As2H34O25
_chemical_formula_sum   'Ba6 As4 H68 O50'
_cell_volume   1257.27828709
_cell_formula_units_Z   2
loop_
 _symmetry_equiv_pos_site_id
 _symmetry_equiv_pos_as_xyz
  1  'x, y, z'
loop_
 _atom_site_type_symbol
 _atom_site_label
 _atom_site_symmetry_multiplicity
 _atom_site_fract_x
 _atom_site_fract_y
 _atom_site_fract_z
 _atom_site_occupancy
  Ba  Ba0  1  0.81072932  0.01888776  0.17764363  1
  Ba  Ba1  1  0.01888776  0.81072932  0.67764363  1
  Ba  Ba2  1  0.25930785  0.73762808  0.22162829  1
  Ba  Ba3  1  0.73762808  0.25930785  0.72162829  1
  Ba  Ba4  1  0.52840679  0.32104817  0.27474825  1
  Ba  Ba5  1  0.32104817  0.52840679  0.77474825  1
  As  As6  1  0.49359074  0.83258953  0.47387309  1
  As  As7  1  0.83258953  0.49359074  0.97387309  1
  As  As8  1  0.33392606  0.00360565  0.97472953  1
  As  As9  1  0.00360565  0.33392606  0.47472953  1
  H  H10  1  0.51782737  0.20438891  0.04906554  1
  H  H11  1  0.20438891  0.51782737  0.54906554  1
  H  H12  1  0.63208114  0.31757038  0.05306408  1
  H  H13  1  0.31757038  0.63208114  0.55306408  1
  H  H14  1  0.48465448  0.96879131  0.28258307  1
  H  H15  1  0.96879131  0.48465448  0.78258307  1
  H  H16  1  0.47092113  0.98507388  0.16678637  1
  H  H17  1  0.98507388  0.47092113  0.66678637  1
  H  H18  1  0.73397233  0.78203555  0.01263712  1
  H  H19  1  0.78203555  0.73397233  0.51263712  1
  H  H20  1  0.57982311  0.85248671  0.04350628  1
  H  H21  1  0.85248671  0.57982311  0.54350628  1
  H  H22  1  0.73163478  0.80302934  0.35228442  1
  H  H23  1  0.80302934  0.73163478  0.85228442  1
  H  H24  1  0.87117302  0.74301668  0.30651541  1
  H  H25  1  0.74301668  0.87117302  0.80651541  1
  H  H26  1  0.69662103  0.02743482  0.40460338  1
  H  H27  1  0.02743482  0.69662103  0.90460338  1
  H  H28  1  0.81732248  0.13432896  0.39916606  1
  H  H29  1  0.13432896  0.81732248  0.89916606  1
  H  H30  1  0.85394164  0.35796348  0.16514904  1
  H  H31  1  0.35796348  0.85394164  0.66514904  1
  H  H32  1  0.87057242  0.35009585  0.28069119  1
  H  H33  1  0.35009585  0.87057242  0.78069119  1
  H  H34  1  0.02433417  0.08670390  0.99280819  1
  H  H35  1  0.08670390  0.02433417  0.49280819  1
  H  H36  1  0.93920983  0.23224163  0.02518153  1
  H  H37  1  0.23224163  0.93920983  0.52518153  1
  H  H38  1  0.13572841  0.11570996  0.23250597  1
  H  H39  1  0.11570996  0.13572841  0.73250597  1
  H  H40  1  0.06694746  0.07396476  0.32967375  1
  H  H41  1  0.07396476  0.06694746  0.82967375  1
  H  H42  1  0.97635907  0.75662692  0.05866108  1
  H  H43  1  0.75662692  0.97635907  0.55866108  1
  H  H44  1  0.07767625  0.88015194  0.04736345  1
  H  H45  1  0.88015194  0.07767625  0.54736345  1
  H  H46  1  0.07389004  0.79505607  0.42313738  1
  H  H47  1  0.79505607  0.07389004  0.92313738  1
  H  H48  1  0.03053311  0.64278421  0.39290025  1
  H  H49  1  0.64278421  0.03053311  0.89290025  1
  H  H50  1  0.03121171  0.48472917  0.15460262  1
  H  H51  1  0.48472917  0.03121171  0.65460262  1
  H  H52  1  0.04375411  0.47989095  0.26856968  1
  H  H53  1  0.47989095  0.04375411  0.76856968  1
  H  H54  1  0.23395946  0.51112249  0.02805135  1
  H  H55  1  0.51112249  0.23395946  0.52805135  1
  H  H56  1  0.35324509  0.61259901  0.00835508  1
  H  H57  1  0.61259901  0.35324509  0.50835508  1
  H  H58  1  0.58879885  0.57673974  0.12422502  1
  H  H59  1  0.57673974  0.58879885  0.62422502  1
  H  H60  1  0.63735819  0.65097277  0.21904340  1
  H  H61  1  0.65097277  0.63735819  0.71904340  1
  H  H62  1  0.26770537  0.46408859  0.39908507  1
  H  H63  1  0.46408859  0.26770537  0.89908507  1
  H  H64  1  0.39003738  0.56807322  0.41238209  1
  H  H65  1  0.56807322  0.39003738  0.91238209  1
  H  H66  1  0.26732867  0.25479392  0.11547002  1
  H  H67  1  0.25479392  0.26732867  0.61547002  1
  H  H68  1  0.33350139  0.14085081  0.18145092  1
  H  H69  1  0.14085081  0.33350139  0.68145092  1
  H  H70  1  0.29356973  0.24096965  0.44310655  1
  H  H71  1  0.24096965  0.29356973  0.94310655  1
  H  H72  1  0.36409271  0.08836613  0.41166630  1
  H  H73  1  0.08836613  0.36409271  0.91166630  1
  H  H74  1  0.76583339  0.47286778  0.40531212  1
  H  H75  1  0.47286778  0.76583339  0.90531212  1
  H  H76  1  0.61345286  0.54960713  0.44250625  1
  H  H77  1  0.54960713  0.61345286  0.94250625  1
  O  O78  1  0.40775123  0.92665052  0.56434928  1
  O  O79  1  0.92665052  0.40775123  0.06434928  1
  O  O80  1  0.67049181  0.86766617  0.46700287  1
  O  O81  1  0.86766617  0.67049181  0.96700287  1
  O  O82  1  0.48480888  0.65386296  0.49785697  1
  O  O83  1  0.65386296  0.48480888  0.99785697  1
  O  O84  1  0.41370906  0.87719458  0.36628021  1
  O  O85  1  0.87719458  0.41370906  0.86628021  1
  O  O86  1  0.36019034  0.18159501  0.98698990  1
  O  O87  1  0.18159501  0.36019034  0.48698990  1
  O  O88  1  0.38205543  0.91790570  0.07985739  1
  O  O89  1  0.91790570  0.38205543  0.57985739  1
  O  O90  1  0.43727062  0.93962601  0.88058566  1
  O  O91  1  0.93962601  0.43727062  0.38058566  1
  O  O92  1  0.15754474  0.98001706  0.95107617  1
  O  O93  1  0.98001706  0.15754474  0.45107617  1
  O  O94  1  0.60437076  0.22931314  0.08454150  1
  O  O95  1  0.22931314  0.60437076  0.58454150  1
  O  O96  1  0.51249739  0.02831472  0.22611489  1
  O  O97  1  0.02831472  0.51249739  0.72611489  1
  O  O98  1  0.68190043  0.86220871  0.04599233  1
  O  O99  1  0.86220871  0.68190043  0.54599233  1
  O  O100  1  0.77227837  0.76964196  0.28952696  1
  O  O101  1  0.76964196  0.77227837  0.78952696  1
  O  O102  1  0.72762653  0.10930344  0.36736447  1
  O  O103  1  0.10930344  0.72762653  0.86736447  1
  O  O104  1  0.81953718  0.31099907  0.22485846  1
  O  O105  1  0.31099907  0.81953718  0.72485846  1
  O  O106  1  0.93019549  0.12911848  0.01280046  1
  O  O107  1  0.12911848  0.93019549  0.51280046  1
  O  O108  1  0.08753427  0.03885575  0.26400969  1
  O  O109  1  0.03885575  0.08753427  0.76400969  1
  O  O110  1  0.02729411  0.82635780  0.09646023  1
  O  O111  1  0.82635780  0.02729411  0.59646023  1
  O  O112  1  0.05258847  0.73481060  0.36721820  1
  O  O113  1  0.73481060  0.05258847  0.86721820  1
  O  O114  1  0.08362434  0.52071726  0.21031821  1
  O  O115  1  0.52071726  0.08362434  0.71031821  1
  O  O116  1  0.29949818  0.57073684  0.06118259  1
  O  O117  1  0.57073684  0.29949818  0.56118259  1
  O  O118  1  0.56005037  0.59974204  0.19092165  1
  O  O119  1  0.59974204  0.56005037  0.69092165  1
  O  O120  1  0.33647746  0.51740268  0.36212532  1
  O  O121  1  0.51740268  0.33647746  0.86212532  1
  O  O122  1  0.26886556  0.22543739  0.18305850  1
  O  O123  1  0.22543739  0.26886556  0.68305850  1
  O  O124  1  0.38200759  0.18838973  0.41930183  1
  O  O125  1  0.18838973  0.38200759  0.91930183  1
  O  O126  1  0.66238799  0.46240505  0.41554446  1
  O  O127  1  0.46240505  0.66238799  0.91554446  1
