# generated using pymatgen
data_NaPH6NO4F
_symmetry_space_group_name_H-M   'P 1'
_cell_length_a   5.02039419
_cell_length_b   6.06376544
_cell_length_c   9.12117608
_cell_angle_alpha   90.00000000
_cell_angle_beta   90.00000000
_cell_angle_gamma   90.43567701
_symmetry_Int_Tables_number   1
_chemical_formula_structural   NaPH6NO4F
_chemical_formula_sum   'Na2 P2 H12 N2 O8 F2'
_cell_volume   277.66330987
_cell_formula_units_Z   2
loop_
 _symmetry_equiv_pos_site_id
 _symmetry_equiv_pos_as_xyz
  1  'x, y, z'
loop_
 _atom_site_type_symbol
 _atom_site_label
 _atom_site_symmetry_multiplicity
 _atom_site_fract_x
 _atom_site_fract_y
 _atom_site_fract_z
 _atom_site_occupancy
  Na  Na0  1  0.88758946  0.49502339  0.04200495  1
  Na  Na1  1  0.38758946  0.99502339  0.95799505  1
  P  P2  1  0.00563573  0.00271675  0.22140955  1
  P  P3  1  0.50563573  0.50271675  0.77859045  1
  H  H4  1  0.49594545  0.83853074  0.58447885  1
  H  H5  1  0.99594545  0.33853074  0.41552115  1
  H  H6  1  0.66010442  0.02108091  0.47559076  1
  H  H7  1  0.16010442  0.52108091  0.52440924  1
  H  H8  1  0.31696436  0.02543850  0.48890354  1
  H  H9  1  0.81696436  0.52543850  0.51109646  1
  H  H10  1  0.51163359  0.11161062  0.63102802  1
  H  H11  1  0.01163359  0.61161062  0.36897198  1
  H  H12  1  0.92336285  0.85952834  0.79837127  1
  H  H13  1  0.42336285  0.35952834  0.20162873  1
  H  H14  1  0.93195422  0.11309156  0.79067055  1
  H  H15  1  0.43195422  0.61309156  0.20932945  1
  N  N16  1  0.49573201  0.00110757  0.54460806  1
  N  N17  1  0.99573201  0.50110757  0.45539194  1
  O  O18  1  0.12536110  0.19033787  0.13163804  1
  O  O19  1  0.62536110  0.69033787  0.86836196  1
  O  O20  1  0.10639972  0.77358563  0.18240111  1
  O  O21  1  0.60639972  0.27358563  0.81759889  1
  O  O22  1  0.99082030  0.04828009  0.38650237  1
  O  O23  1  0.49082030  0.54828009  0.61349763  1
  O  O24  1  0.04768118  0.98312807  0.77996774  1
  O  O25  1  0.54768118  0.48312807  0.22003226  1
  F  F26  1  0.69141563  0.99574996  0.17225530  1
  F  F27  1  0.19141563  0.49574996  0.82774470  1
