# generated using pymatgen
data_BaAl4O7
_symmetry_space_group_name_H-M   'P 1'
_cell_length_a   4.96090520
_cell_length_b   10.36095356
_cell_length_c   13.04735353
_cell_angle_alpha   90.00000000
_cell_angle_beta   90.00000000
_cell_angle_gamma   90.00000000
_symmetry_Int_Tables_number   1
_chemical_formula_structural   BaAl4O7
_chemical_formula_sum   'Ba4 Al16 O28'
_cell_volume   670.63016674
_cell_formula_units_Z   4
loop_
 _symmetry_equiv_pos_site_id
 _symmetry_equiv_pos_as_xyz
  1  'x, y, z'
loop_
 _atom_site_type_symbol
 _atom_site_label
 _atom_site_symmetry_multiplicity
 _atom_site_fract_x
 _atom_site_fract_y
 _atom_site_fract_z
 _atom_site_occupancy
  Ba  Ba0  1  0.02664076  0.26016074  0.00000000  1
  Ba  Ba1  1  0.97335924  0.76016074  0.00000000  1
  Ba  Ba2  1  0.48302764  0.58472943  0.50000000  1
  Ba  Ba3  1  0.51697236  0.08472943  0.50000000  1
  Al  Al4  1  0.95237985  0.07393405  0.74878156  1
  Al  Al5  1  0.95237985  0.07393405  0.25121844  1
  Al  Al6  1  0.04762015  0.57393405  0.25121844  1
  Al  Al7  1  0.04762015  0.57393405  0.74878156  1
  Al  Al8  1  0.44857265  0.26074478  0.75135296  1
  Al  Al9  1  0.44857265  0.26074478  0.24864704  1
  Al  Al10  1  0.55142735  0.76074478  0.24864704  1
  Al  Al11  1  0.55142735  0.76074478  0.75135296  1
  Al  Al12  1  0.95327265  0.32460858  0.61825682  1
  Al  Al13  1  0.95327265  0.32460858  0.38174318  1
  Al  Al14  1  0.04672735  0.82460858  0.38174318  1
  Al  Al15  1  0.04672735  0.82460858  0.61825682  1
  Al  Al16  1  0.45919078  0.01074510  0.88158552  1
  Al  Al17  1  0.45919078  0.01074510  0.11841448  1
  Al  Al18  1  0.54080922  0.51074510  0.11841448  1
  Al  Al19  1  0.54080922  0.51074510  0.88158552  1
  O  O20  1  0.54250528  0.07819654  0.00000000  1
  O  O21  1  0.45749472  0.57819654  0.00000000  1
  O  O22  1  0.03847371  0.25649942  0.50000000  1
  O  O23  1  0.96152629  0.75649942  0.50000000  1
  O  O24  1  0.10796477  0.02528518  0.86238323  1
  O  O25  1  0.10796477  0.02528518  0.13761677  1
  O  O26  1  0.89203523  0.52528518  0.13761677  1
  O  O27  1  0.89203523  0.52528518  0.86238323  1
  O  O28  1  0.60850952  0.10926451  0.78240152  1
  O  O29  1  0.60850952  0.10926451  0.21759848  1
  O  O30  1  0.39149048  0.60926451  0.21759848  1
  O  O31  1  0.39149048  0.60926451  0.78240152  1
  O  O32  1  0.60258869  0.30553873  0.63640871  1
  O  O33  1  0.60258869  0.30553873  0.36359129  1
  O  O34  1  0.39741131  0.80553873  0.36359129  1
  O  O35  1  0.39741131  0.80553873  0.63640871  1
  O  O36  1  0.95198025  0.98589792  0.63447205  1
  O  O37  1  0.95198025  0.98589792  0.36552795  1
  O  O38  1  0.04801975  0.48589792  0.36552795  1
  O  O39  1  0.04801975  0.48589792  0.63447205  1
  O  O40  1  0.43910791  0.34995969  0.86507631  1
  O  O41  1  0.43910791  0.34995969  0.13492369  1
  O  O42  1  0.56089209  0.84995969  0.13492369  1
  O  O43  1  0.56089209  0.84995969  0.86507631  1
  O  O44  1  0.10489626  0.22668539  0.71779648  1
  O  O45  1  0.10489626  0.22668539  0.28220352  1
  O  O46  1  0.89510374  0.72668539  0.28220352  1
  O  O47  1  0.89510374  0.72668539  0.71779648  1
