# generated using pymatgen
data_Gd6Mo10O39
_symmetry_space_group_name_H-M   'P 1'
_cell_length_a   11.76088690
_cell_length_b   11.76088690
_cell_length_c   14.02230497
_cell_angle_alpha   95.97135650
_cell_angle_beta   95.97135650
_cell_angle_gamma   115.89578814
_symmetry_Int_Tables_number   1
_chemical_formula_structural   Gd6Mo10O39
_chemical_formula_sum   'Gd12 Mo20 O78'
_cell_volume   1710.94114011
_cell_formula_units_Z   2
loop_
 _symmetry_equiv_pos_site_id
 _symmetry_equiv_pos_as_xyz
  1  'x, y, z'
loop_
 _atom_site_type_symbol
 _atom_site_label
 _atom_site_symmetry_multiplicity
 _atom_site_fract_x
 _atom_site_fract_y
 _atom_site_fract_z
 _atom_site_occupancy
  Gd  Gd0  1  0.64302656  0.52773108  0.08366545  1
  Gd  Gd1  1  0.47226892  0.35697344  0.41633455  1
  Gd  Gd2  1  0.35697344  0.47226892  0.91633455  1
  Gd  Gd3  1  0.52773108  0.64302656  0.58366545  1
  Gd  Gd4  1  0.97182426  0.28324437  0.14642927  1
  Gd  Gd5  1  0.71675563  0.02817574  0.35357073  1
  Gd  Gd6  1  0.02817574  0.71675563  0.85357073  1
  Gd  Gd7  1  0.28324437  0.97182426  0.64642927  1
  Gd  Gd8  1  0.06131480  0.76464081  0.41543444  1
  Gd  Gd9  1  0.23535919  0.93868520  0.08456556  1
  Gd  Gd10  1  0.93868520  0.23535919  0.58456556  1
  Gd  Gd11  1  0.76464081  0.06131480  0.91543444  1
  Mo  Mo12  1  0.31520716  0.31468957  0.13913194  1
  Mo  Mo13  1  0.68531043  0.68479284  0.36086806  1
  Mo  Mo14  1  0.68479284  0.68531043  0.86086806  1
  Mo  Mo15  1  0.31468957  0.31520716  0.63913194  1
  Mo  Mo16  1  0.07271171  0.11513497  0.36156908  1
  Mo  Mo17  1  0.88486503  0.92728829  0.13843092  1
  Mo  Mo18  1  0.92728829  0.88486503  0.63843092  1
  Mo  Mo19  1  0.11513497  0.07271171  0.86156908  1
  Mo  Mo20  1  0.81986441  0.38634949  0.36097300  1
  Mo  Mo21  1  0.61365051  0.18013559  0.13902700  1
  Mo  Mo22  1  0.18013559  0.61365051  0.63902700  1
  Mo  Mo23  1  0.38634949  0.81986441  0.86097300  1
  Mo  Mo24  1  0.99630156  0.61613326  0.11813778  1
  Mo  Mo25  1  0.38386674  0.00369844  0.38186222  1
  Mo  Mo26  1  0.00369844  0.38386674  0.88186222  1
  Mo  Mo27  1  0.61613326  0.99630156  0.61813778  1
  Mo  Mo28  1  0.25875631  0.56947767  0.33964741  1
  Mo  Mo29  1  0.43052233  0.74124369  0.16035259  1
  Mo  Mo30  1  0.74124369  0.43052233  0.66035259  1
  Mo  Mo31  1  0.56947767  0.25875631  0.83964741  1
  O  O32  1  0.84693877  0.71569117  0.38852150  1
  O  O33  1  0.28430883  0.15306123  0.11147850  1
  O  O34  1  0.15306123  0.28430883  0.61147850  1
  O  O35  1  0.71569117  0.84693877  0.88852150  1
  O  O36  1  0.17051998  0.32605477  0.11201620  1
  O  O37  1  0.67394523  0.82948002  0.38798380  1
  O  O38  1  0.82948002  0.67394523  0.88798380  1
  O  O39  1  0.32605477  0.17051998  0.61201620  1
  O  O40  1  0.63137746  0.61928063  0.23393628  1
  O  O41  1  0.38071937  0.36862254  0.26606372  1
  O  O42  1  0.36862254  0.38071937  0.76606372  1
  O  O43  1  0.61928063  0.63137746  0.73393628  1
  O  O44  1  0.57898982  0.57764981  0.43497069  1
  O  O45  1  0.42235019  0.42101018  0.06502931  1
  O  O46  1  0.42101018  0.42235019  0.56502931  1
  O  O47  1  0.57764981  0.57898982  0.93497069  1
  O  O48  1  0.03890638  0.93286726  0.13975421  1
  O  O49  1  0.06713274  0.96109362  0.36024579  1
  O  O50  1  0.96109362  0.06713274  0.86024579  1
  O  O51  1  0.93286726  0.03890638  0.63975421  1
  O  O52  1  0.77452060  0.76461965  0.08643635  1
  O  O53  1  0.23538035  0.22547940  0.41356365  1
  O  O54  1  0.22547940  0.23538035  0.91356365  1
  O  O55  1  0.76461965  0.77452060  0.58643635  1
  O  O56  1  0.04549543  0.16037302  0.24384550  1
  O  O57  1  0.83962698  0.95450457  0.25615450  1
  O  O58  1  0.95450457  0.83962698  0.75615450  1
  O  O59  1  0.16037302  0.04549543  0.74384550  1
  O  O60  1  0.95757568  0.12925256  0.43609255  1
  O  O61  1  0.87074744  0.04242432  0.06390745  1
  O  O62  1  0.04242432  0.87074744  0.56390745  1
  O  O63  1  0.12925256  0.95757568  0.93609255  1
  O  O64  1  0.67143686  0.39655578  0.35542824  1
  O  O65  1  0.60344422  0.32856314  0.14457176  1
  O  O66  1  0.32856314  0.60344422  0.64457176  1
  O  O67  1  0.39655578  0.67143686  0.85542824  1
  O  O68  1  0.94253565  0.54070852  0.41671439  1
  O  O69  1  0.45929148  0.05746435  0.08328561  1
  O  O70  1  0.05746435  0.45929148  0.58328561  1
  O  O71  1  0.54070852  0.94253565  0.91671439  1
  O  O72  1  0.85779293  0.35703551  0.24100215  1
  O  O73  1  0.64296449  0.14220707  0.25899785  1
  O  O74  1  0.14220707  0.64296449  0.75899785  1
  O  O75  1  0.35703551  0.85779293  0.74100215  1
  O  O76  1  0.82505640  0.26551544  0.43029537  1
  O  O77  1  0.73448456  0.17494360  0.06970463  1
  O  O78  1  0.17494360  0.73448456  0.56970463  1
  O  O79  1  0.26551544  0.82505640  0.93029537  1
  O  O80  1  0.02078795  0.70171789  0.23646232  1
  O  O81  1  0.29828211  0.97921205  0.26353768  1
  O  O82  1  0.97921205  0.29828211  0.76353768  1
  O  O83  1  0.70171789  0.02078795  0.73646232  1
  O  O84  1  0.05969429  0.50323404  0.12332373  1
  O  O85  1  0.49676596  0.94030571  0.37667627  1
  O  O86  1  0.94030571  0.49676596  0.87667627  1
  O  O87  1  0.50323404  0.05969429  0.62332373  1
  O  O88  1  0.82800557  0.52377159  0.07689528  1
  O  O89  1  0.47622841  0.17199443  0.42310472  1
  O  O90  1  0.17199443  0.47622841  0.92310472  1
  O  O91  1  0.52377159  0.82800557  0.57689528  1
  O  O92  1  0.06442596  0.72578262  0.03216468  1
  O  O93  1  0.27421738  0.93557404  0.46783532  1
  O  O94  1  0.93557404  0.27421738  0.96783532  1
  O  O95  1  0.72578262  0.06442596  0.53216468  1
  O  O96  1  0.34599196  0.56242399  0.44697689  1
  O  O97  1  0.43757601  0.65400804  0.05302311  1
  O  O98  1  0.65400804  0.43757601  0.55302311  1
  O  O99  1  0.56242399  0.34599196  0.94697689  1
  O  O100  1  0.20532138  0.68635994  0.36553172  1
  O  O101  1  0.31364006  0.79467862  0.13446828  1
  O  O102  1  0.79467862  0.31364006  0.63446828  1
  O  O103  1  0.68635994  0.20532138  0.86553172  1
  O  O104  1  0.12546030  0.41951600  0.29711509  1
  O  O105  1  0.58048400  0.87453970  0.20288491  1
  O  O106  1  0.87453970  0.58048400  0.70288491  1
  O  O107  1  0.41951600  0.12546030  0.79711509  1
  O  O108  1  0.37539365  0.62460635  0.25000000  1
  O  O109  1  0.62460635  0.37539365  0.75000000  1
