# generated using pymatgen
data_MnBiO3
_symmetry_space_group_name_H-M   'P 1'
_cell_length_a   5.57817686
_cell_length_b   9.81660814
_cell_length_c   10.02221539
_cell_angle_alpha   111.39234822
_cell_angle_beta   90.00000000
_cell_angle_gamma   90.00000000
_symmetry_Int_Tables_number   1
_chemical_formula_structural   MnBiO3
_chemical_formula_sum   'Mn8 Bi8 O24'
_cell_volume   510.99412830
_cell_formula_units_Z   8
loop_
 _symmetry_equiv_pos_site_id
 _symmetry_equiv_pos_as_xyz
  1  'x, y, z'
loop_
 _atom_site_type_symbol
 _atom_site_label
 _atom_site_symmetry_multiplicity
 _atom_site_fract_x
 _atom_site_fract_y
 _atom_site_fract_z
 _atom_site_occupancy
  Mn  Mn0  1  0.00000000  0.00000000  0.00000000  1
  Mn  Mn1  1  0.50000000  0.00000000  0.50000000  1
  Mn  Mn2  1  0.00000000  0.50000000  0.50000000  1
  Mn  Mn3  1  0.50000000  0.50000000  0.00000000  1
  Mn  Mn4  1  0.97595842  0.25334567  0.74179308  1
  Mn  Mn5  1  0.47595842  0.74665433  0.75820692  1
  Mn  Mn6  1  0.02404158  0.74665433  0.25820692  1
  Mn  Mn7  1  0.52404158  0.25334567  0.24179308  1
  Bi  Bi8  1  0.52148873  0.37717645  0.64143540  1
  Bi  Bi9  1  0.02148873  0.62282355  0.85856460  1
  Bi  Bi10  1  0.47851127  0.62282355  0.35856460  1
  Bi  Bi11  1  0.97851127  0.37717645  0.14143540  1
  Bi  Bi12  1  0.96898019  0.11255965  0.37584423  1
  Bi  Bi13  1  0.46898019  0.88744035  0.12415577  1
  Bi  Bi14  1  0.03101981  0.88744035  0.62415577  1
  Bi  Bi15  1  0.53101981  0.11255965  0.87584423  1
  O  O16  1  0.06100091  0.66457797  0.44182626  1
  O  O17  1  0.56100091  0.33542203  0.05817374  1
  O  O18  1  0.93899909  0.33542203  0.55817374  1
  O  O19  1  0.43899909  0.66457797  0.94182626  1
  O  O20  1  0.06394110  0.86830211  0.10853675  1
  O  O21  1  0.56394110  0.13169789  0.39146325  1
  O  O22  1  0.93605890  0.13169789  0.89146325  1
  O  O23  1  0.43605890  0.86830211  0.60853675  1
  O  O24  1  0.17297682  0.85546034  0.83581731  1
  O  O25  1  0.67297682  0.14453966  0.66418269  1
  O  O26  1  0.82702318  0.14453966  0.16418269  1
  O  O27  1  0.32702318  0.85546034  0.33581731  1
  O  O28  1  0.66899647  0.89856034  0.89623755  1
  O  O29  1  0.16899647  0.10143966  0.60376245  1
  O  O30  1  0.33100353  0.10143966  0.10376245  1
  O  O31  1  0.83100353  0.89856034  0.39623755  1
  O  O32  1  0.73664637  0.60960989  0.67245818  1
  O  O33  1  0.23664637  0.39039011  0.82754182  1
  O  O34  1  0.26335363  0.39039011  0.32754182  1
  O  O35  1  0.76335363  0.60960989  0.17245818  1
  O  O36  1  0.75314215  0.42056086  0.34097354  1
  O  O37  1  0.25314215  0.57943914  0.15902646  1
  O  O38  1  0.24685785  0.57943914  0.65902646  1
  O  O39  1  0.74685785  0.42056086  0.84097354  1
