# generated using pymatgen
data_Ca2B5H3O11
_symmetry_space_group_name_H-M   'P 1'
_cell_length_a   6.37697594
_cell_length_b   6.37697594
_cell_length_c   11.86252108
_cell_angle_alpha   97.31906917
_cell_angle_beta   99.26823738
_cell_angle_gamma   117.60797857
_symmetry_Int_Tables_number   1
_chemical_formula_structural   Ca2B5H3O11
_chemical_formula_sum   'Ca4 B10 H6 O22'
_cell_volume   410.48089917
_cell_formula_units_Z   2
loop_
 _symmetry_equiv_pos_site_id
 _symmetry_equiv_pos_as_xyz
  1  'x, y, z'
loop_
 _atom_site_type_symbol
 _atom_site_label
 _atom_site_symmetry_multiplicity
 _atom_site_fract_x
 _atom_site_fract_y
 _atom_site_fract_z
 _atom_site_occupancy
  Ca  Ca0  1  0.54558546  0.64402980  0.38623433  1
  Ca  Ca1  1  0.24220453  0.84064887  0.88623433  1
  Ca  Ca2  1  0.72410008  0.54582836  0.08881428  1
  Ca  Ca3  1  0.04298592  0.36471420  0.58881428  1
  B  B4  1  0.13366264  0.44845235  0.10008775  1
  B  B5  1  0.15163540  0.96642511  0.60008775  1
  B  B6  1  0.83763035  0.01124222  0.06299443  1
  B  B7  1  0.55175221  0.22536408  0.56299443  1
  B  B8  1  0.43023255  0.89561766  0.13191282  1
  B  B9  1  0.73629516  0.70168027  0.63191282  1
  B  B10  1  0.76099632  0.85105680  0.84052656  1
  B  B11  1  0.48946976  0.07953024  0.34052656  1
  B  B12  1  0.26579065  0.17193522  0.18141215  1
  B  B13  1  0.50947693  0.91562150  0.68141215  1
  H  H14  1  0.96053751  0.82558158  0.29380387  1
  H  H15  1  0.96822229  0.33326636  0.79380387  1
  H  H16  1  0.99955908  0.58446739  0.35749354  1
  H  H17  1  0.27302616  0.35793447  0.85749354  1
  H  H18  1  0.22219098  0.69232617  0.47461412  1
  H  H19  1  0.28228795  0.25242314  0.97461412  1
  O  O20  1  0.89564259  0.26300406  0.05600723  1
  O  O21  1  0.29300318  0.16036465  0.55600723  1
  O  O22  1  0.85217400  0.65622957  0.29538521  1
  O  O23  1  0.13915564  0.44321121  0.79538521  1
  O  O24  1  0.39890069  0.09929951  0.10844667  1
  O  O25  1  0.50914717  0.70954598  0.60844667  1
  O  O26  1  0.58347639  0.85541236  0.06311322  1
  O  O27  1  0.70770086  0.47963682  0.56311322  1
  O  O28  1  0.00557721  0.01087966  0.16152957  1
  O  O29  1  0.65064991  0.15595235  0.66152957  1
  O  O30  1  0.31731890  0.41709023  0.15957581  1
  O  O31  1  0.24248558  0.84225691  0.65957581  1
  O  O32  1  0.59170346  0.92337557  0.80853262  1
  O  O33  1  0.38515705  0.21682915  0.30853262  1
  O  O34  1  0.50981846  0.91864567  0.25951498  1
  O  O35  1  0.84086931  0.74969652  0.75951498  1
  O  O36  1  0.87298357  0.88404159  0.95533217  1
  O  O37  1  0.57129058  0.08234860  0.45533217  1
  O  O38  1  0.17661403  0.67103667  0.08190619  1
  O  O39  1  0.91086953  0.90529216  0.58190619  1
  O  O40  1  0.12666639  0.54352891  0.41258248  1
  O  O41  1  0.36905356  0.28591608  0.91258248  1
