# generated using pymatgen
data_ThTeWO7
_symmetry_space_group_name_H-M   'P 1'
_cell_length_a   4.09562273
_cell_length_b   8.68141149
_cell_length_c   15.68315021
_cell_angle_alpha   90.00000000
_cell_angle_beta   92.72236470
_cell_angle_gamma   90.00000000
_symmetry_Int_Tables_number   1
_chemical_formula_structural   ThTeWO7
_chemical_formula_sum   'Th4 Te4 W4 O28'
_cell_volume   556.99740508
_cell_formula_units_Z   4
loop_
 _symmetry_equiv_pos_site_id
 _symmetry_equiv_pos_as_xyz
  1  'x, y, z'
loop_
 _atom_site_type_symbol
 _atom_site_label
 _atom_site_symmetry_multiplicity
 _atom_site_fract_x
 _atom_site_fract_y
 _atom_site_fract_z
 _atom_site_occupancy
  Th  Th0  1  0.49685909  0.86326577  0.72440602  1
  Th  Th1  1  0.50314091  0.36326577  0.77559398  1
  Th  Th2  1  0.50314091  0.13673423  0.27559398  1
  Th  Th3  1  0.49685909  0.63673423  0.22440602  1
  Te  Te4  1  0.07579779  0.07455484  0.89155679  1
  Te  Te5  1  0.92420221  0.57455484  0.60844321  1
  Te  Te6  1  0.92420221  0.92544516  0.10844321  1
  Te  Te7  1  0.07579779  0.42544516  0.39155679  1
  W  W8  1  0.41183627  0.65168444  0.94471542  1
  W  W9  1  0.58816373  0.15168444  0.55528458  1
  W  W10  1  0.58816373  0.34831556  0.05528458  1
  W  W11  1  0.41183627  0.84831556  0.44471542  1
  O  O12  1  0.49836110  0.58621473  0.06535508  1
  O  O13  1  0.50163890  0.08621473  0.43464492  1
  O  O14  1  0.50163890  0.41378527  0.93464492  1
  O  O15  1  0.49836110  0.91378527  0.56535508  1
  O  O16  1  0.51073420  0.09723774  0.84637576  1
  O  O17  1  0.48926580  0.59723774  0.65362424  1
  O  O18  1  0.48926580  0.90276226  0.15362424  1
  O  O19  1  0.51073420  0.40276226  0.34637576  1
  O  O20  1  0.97072366  0.64628051  0.94508174  1
  O  O21  1  0.02927634  0.14628051  0.55491826  1
  O  O22  1  0.02927634  0.35371949  0.05491826  1
  O  O23  1  0.97072366  0.85371949  0.44508174  1
  O  O24  1  0.00902682  0.26812241  0.83108234  1
  O  O25  1  0.99097318  0.76812241  0.66891766  1
  O  O26  1  0.99097318  0.73187759  0.16891766  1
  O  O27  1  0.00902682  0.23187759  0.33108234  1
  O  O28  1  0.00658203  0.93099903  0.79921465  1
  O  O29  1  0.99341797  0.43099903  0.70078535  1
  O  O30  1  0.99341797  0.06900097  0.20078535  1
  O  O31  1  0.00658203  0.56900097  0.29921465  1
  O  O32  1  0.47485778  0.85606212  0.96041998  1
  O  O33  1  0.52514222  0.35606212  0.53958002  1
  O  O34  1  0.52514222  0.14393788  0.03958002  1
  O  O35  1  0.47485778  0.64393788  0.46041998  1
  O  O36  1  0.46607817  0.64063699  0.82308096  1
  O  O37  1  0.53392183  0.14063699  0.67691904  1
  O  O38  1  0.53392183  0.35936301  0.17691904  1
  O  O39  1  0.46607817  0.85936301  0.32308096  1
