# generated using pymatgen
data_Th6Cd23
_symmetry_space_group_name_H-M   'P 1'
_cell_length_a   10.00793781
_cell_length_b   10.00793781
_cell_length_c   10.00793781
_cell_angle_alpha   60.00000000
_cell_angle_beta   60.00000000
_cell_angle_gamma   60.00000000
_symmetry_Int_Tables_number   1
_chemical_formula_structural   Th6Cd23
_chemical_formula_sum   'Th6 Cd23'
_cell_volume   708.79198160
_cell_formula_units_Z   1
loop_
 _symmetry_equiv_pos_site_id
 _symmetry_equiv_pos_as_xyz
  1  'x, y, z'
loop_
 _atom_site_type_symbol
 _atom_site_label
 _atom_site_symmetry_multiplicity
 _atom_site_fract_x
 _atom_site_fract_y
 _atom_site_fract_z
 _atom_site_occupancy
  Th  Th0  1  0.69349364  0.30650636  0.30650636  1
  Th  Th1  1  0.69349364  0.30650636  0.69349364  1
  Th  Th2  1  0.69349364  0.69349364  0.30650636  1
  Th  Th3  1  0.30650636  0.69349364  0.69349364  1
  Th  Th4  1  0.30650636  0.69349364  0.30650636  1
  Th  Th5  1  0.30650636  0.30650636  0.69349364  1
  Cd  Cd6  1  -0.00000000  -0.00000000  0.00000000  1
  Cd  Cd7  1  0.50000000  -0.00000000  0.00000000  1
  Cd  Cd8  1  0.50000000  -0.00000000  0.50000000  1
  Cd  Cd9  1  0.50000000  0.50000000  0.00000000  1
  Cd  Cd10  1  -0.00000000  0.50000000  0.50000000  1
  Cd  Cd11  1  -0.00000000  0.50000000  0.00000000  1
  Cd  Cd12  1  -0.00000000  -0.00000000  0.50000000  1
  Cd  Cd13  1  0.64121699  0.11959434  0.11959434  1
  Cd  Cd14  1  0.11959434  0.64121699  0.11959434  1
  Cd  Cd15  1  0.11959434  0.11959434  0.64121699  1
  Cd  Cd16  1  0.11959434  0.11959434  0.11959434  1
  Cd  Cd17  1  0.35878301  0.88040566  0.88040566  1
  Cd  Cd18  1  0.88040566  0.35878301  0.88040566  1
  Cd  Cd19  1  0.88040566  0.88040566  0.35878301  1
  Cd  Cd20  1  0.88040566  0.88040566  0.88040566  1
  Cd  Cd21  1  0.00074917  0.33308361  0.33308361  1
  Cd  Cd22  1  0.33308361  0.00074917  0.33308361  1
  Cd  Cd23  1  0.33308361  0.33308361  0.00074917  1
  Cd  Cd24  1  0.33308361  0.33308361  0.33308361  1
  Cd  Cd25  1  0.99925083  0.66691639  0.66691639  1
  Cd  Cd26  1  0.66691639  0.99925083  0.66691639  1
  Cd  Cd27  1  0.66691639  0.66691639  0.99925083  1
  Cd  Cd28  1  0.66691639  0.66691639  0.66691639  1
