# generated using pymatgen
data_Na5Al(HO)8
_symmetry_space_group_name_H-M   'P 1'
_cell_length_a   9.52065033
_cell_length_b   9.52065033
_cell_length_c   9.68939350
_cell_angle_alpha   90.00000000
_cell_angle_beta   90.00000000
_cell_angle_gamma   90.00000000
_symmetry_Int_Tables_number   1
_chemical_formula_structural   Na5Al(HO)8
_chemical_formula_sum   'Na20 Al4 H32 O32'
_cell_volume   878.27358957
_cell_formula_units_Z   4
loop_
 _symmetry_equiv_pos_site_id
 _symmetry_equiv_pos_as_xyz
  1  'x, y, z'
loop_
 _atom_site_type_symbol
 _atom_site_label
 _atom_site_symmetry_multiplicity
 _atom_site_fract_x
 _atom_site_fract_y
 _atom_site_fract_z
 _atom_site_occupancy
  Na  Na0  1  0.37924741  0.86899936  0.48307126  1
  Na  Na1  1  0.62075259  0.13100064  0.98307126  1
  Na  Na2  1  0.36899936  0.12075259  0.73307126  1
  Na  Na3  1  0.63100064  0.87924741  0.23307126  1
  Na  Na4  1  0.13100064  0.62075259  0.01692874  1
  Na  Na5  1  0.86899936  0.37924741  0.51692874  1
  Na  Na6  1  0.12075259  0.36899936  0.26692874  1
  Na  Na7  1  0.87924741  0.63100064  0.76692874  1
  Na  Na8  1  0.11497994  0.62719518  0.52833864  1
  Na  Na9  1  0.88502006  0.37280482  0.02833864  1
  Na  Na10  1  0.12719518  0.38502006  0.77833864  1
  Na  Na11  1  0.87280482  0.61497994  0.27833864  1
  Na  Na12  1  0.37280482  0.88502006  0.97166136  1
  Na  Na13  1  0.62719518  0.11497994  0.47166136  1
  Na  Na14  1  0.38502006  0.12719518  0.22166136  1
  Na  Na15  1  0.61497994  0.87280482  0.72166136  1
  Na  Na16  1  0.87651137  0.87651137  0.50000000  1
  Na  Na17  1  0.12348863  0.12348863  -0.00000000  1
  Na  Na18  1  0.37651137  0.62348863  0.75000000  1
  Na  Na19  1  0.62348863  0.37651137  0.25000000  1
  Al  Al20  1  0.13204600  0.86795400  0.25000000  1
  Al  Al21  1  0.86795400  0.13204600  0.75000000  1
  Al  Al22  1  0.36795400  0.36795400  0.50000000  1
  Al  Al23  1  0.63204600  0.63204600  -0.00000000  1
  H  H24  1  0.89482511  0.95003309  0.20237345  1
  H  H25  1  0.10517489  0.04996691  0.70237345  1
  H  H26  1  0.45003309  0.60517489  0.45237345  1
  H  H27  1  0.54996691  0.39482511  0.95237345  1
  H  H28  1  0.04996691  0.10517489  0.29762655  1
  H  H29  1  0.95003309  0.89482511  0.79762655  1
  H  H30  1  0.60517489  0.45003309  0.54762655  1
  H  H31  1  0.39482511  0.54996691  0.04762655  1
  H  H32  1  0.36365377  0.78381868  0.19490738  1
  H  H33  1  0.63634623  0.21618132  0.69490738  1
  H  H34  1  0.28381868  0.13634623  0.44490738  1
  H  H35  1  0.71618132  0.86365377  0.94490738  1
  H  H36  1  0.21618132  0.63634623  0.30509262  1
  H  H37  1  0.78381868  0.36365377  0.80509262  1
  H  H38  1  0.13634623  0.28381868  0.55509262  1
  H  H39  1  0.86365377  0.71618132  0.05509262  1
  H  H40  1  0.13504687  0.96551381  0.48042714  1
  H  H41  1  0.86495313  0.03448619  0.98042714  1
  H  H42  1  0.46551381  0.36495313  0.73042714  1
  H  H43  1  0.53448619  0.63504687  0.23042714  1
  H  H44  1  0.03448619  0.86495313  0.01957286  1
  H  H45  1  0.96551381  0.13504687  0.51957286  1
  H  H46  1  0.36495313  0.46551381  0.26957286  1
  H  H47  1  0.63504687  0.53448619  0.76957286  1
  H  H48  1  0.63333560  0.76701572  0.46243029  1
  H  H49  1  0.36666440  0.23298428  0.96243029  1
  H  H50  1  0.26701572  0.86666440  0.71243029  1
  H  H51  1  0.73298428  0.13333560  0.21243029  1
  H  H52  1  0.23298428  0.36666440  0.03756971  1
  H  H53  1  0.76701572  0.63333560  0.53756971  1
  H  H54  1  0.86666440  0.26701572  0.28756971  1
  H  H55  1  0.13333560  0.73298428  0.78756971  1
  O  O56  1  0.92646948  0.86227248  0.24285537  1
  O  O57  1  0.07353052  0.13772752  0.74285537  1
  O  O58  1  0.36227248  0.57353052  0.49285537  1
  O  O59  1  0.63772752  0.42646948  0.99285537  1
  O  O60  1  0.13772752  0.07353052  0.25714463  1
  O  O61  1  0.86227248  0.92646948  0.75714463  1
  O  O62  1  0.57353052  0.36227248  0.50714463  1
  O  O63  1  0.42646948  0.63772752  0.00714463  1
  O  O64  1  0.33660831  0.87122039  0.24048568  1
  O  O65  1  0.66339169  0.12877961  0.74048568  1
  O  O66  1  0.37122039  0.16339169  0.49048568  1
  O  O67  1  0.62877961  0.83660831  0.99048568  1
  O  O68  1  0.12877961  0.66339169  0.25951432  1
  O  O69  1  0.87122039  0.33660831  0.75951432  1
  O  O70  1  0.16339169  0.37122039  0.50951432  1
  O  O71  1  0.83660831  0.62877961  0.00951432  1
  O  O72  1  0.13056479  0.86745452  0.45323841  1
  O  O73  1  0.86943521  0.13254548  0.95323841  1
  O  O74  1  0.36745452  0.36943521  0.70323841  1
  O  O75  1  0.63254548  0.63056479  0.20323841  1
  O  O76  1  0.13254548  0.86943521  0.04676159  1
  O  O77  1  0.86745452  0.13056479  0.54676159  1
  O  O78  1  0.36943521  0.36745452  0.29676159  1
  O  O79  1  0.63056479  0.63254548  0.79676159  1
  O  O80  1  0.62271913  0.86736137  0.47742722  1
  O  O81  1  0.37728087  0.13263863  0.97742722  1
  O  O82  1  0.36736137  0.87728087  0.72742722  1
  O  O83  1  0.63263863  0.12271913  0.22742722  1
  O  O84  1  0.13263863  0.37728087  0.02257278  1
  O  O85  1  0.86736137  0.62271913  0.52257278  1
  O  O86  1  0.87728087  0.36736137  0.27257278  1
  O  O87  1  0.12271913  0.63263863  0.77257278  1
