# generated using pymatgen
data_K3VMo3H4O15
_symmetry_space_group_name_H-M   'P 1'
_cell_length_a   9.50735404
_cell_length_b   10.01049768
_cell_length_c   10.01049768
_cell_angle_alpha   82.03560808
_cell_angle_beta   61.71118313
_cell_angle_gamma   61.71118313
_symmetry_Int_Tables_number   1
_chemical_formula_structural   K3VMo3H4O15
_chemical_formula_sum   'K6 V2 Mo6 H8 O30'
_cell_volume   734.19004369
_cell_formula_units_Z   2
loop_
 _symmetry_equiv_pos_site_id
 _symmetry_equiv_pos_as_xyz
  1  'x, y, z'
loop_
 _atom_site_type_symbol
 _atom_site_label
 _atom_site_symmetry_multiplicity
 _atom_site_fract_x
 _atom_site_fract_y
 _atom_site_fract_z
 _atom_site_occupancy
  K  K0  1  0.50000000  -0.00000000  -0.00000000  1
  K  K1  1  0.76863375  0.59051487  0.98342372  1
  K  K2  1  0.76863375  0.98342372  0.59051487  1
  K  K3  1  0.23136625  0.40948513  0.01657628  1
  K  K4  1  0.23136625  0.01657628  0.40948513  1
  K  K5  1  0.00000000  0.50000000  0.50000000  1
  V  V6  1  0.99950585  0.11745760  0.11745760  1
  V  V7  1  0.00049415  0.88254240  0.88254240  1
  Mo  Mo8  1  0.53784288  0.26856544  0.26856544  1
  Mo  Mo9  1  0.46215712  0.73143456  0.73143456  1
  Mo  Mo10  1  0.77461047  0.24060276  0.89311822  1
  Mo  Mo11  1  0.77461047  0.89311822  0.24060276  1
  Mo  Mo12  1  0.22538953  0.75939724  0.10688178  1
  Mo  Mo13  1  0.22538953  0.10688178  0.75939724  1
  H  H14  1  0.81826170  0.42636136  0.25918887  1
  H  H15  1  0.81826170  0.25918887  0.42636136  1
  H  H16  1  0.18173830  0.57363864  0.74081113  1
  H  H17  1  0.18173830  0.74081113  0.57363864  1
  H  H18  1  0.77149274  0.58417216  0.32271741  1
  H  H19  1  0.77149274  0.32271741  0.58417216  1
  H  H20  1  0.22850726  0.41582784  0.67728259  1
  H  H21  1  0.22850726  0.67728259  0.41582784  1
  O  O22  1  0.78686383  0.25371270  0.25371270  1
  O  O23  1  0.21313617  0.74628730  0.74628730  1
  O  O24  1  0.13919809  0.14772886  0.14772886  1
  O  O25  1  0.86080191  0.85227114  0.85227114  1
  O  O26  1  0.62285624  0.20979148  0.86568781  1
  O  O27  1  0.62285624  0.86568781  0.20979148  1
  O  O28  1  0.37714376  0.79020852  0.13431219  1
  O  O29  1  0.37714376  0.13431219  0.79020852  1
  O  O30  1  0.99957586  0.23013350  0.94332766  1
  O  O31  1  0.99957586  0.94332766  0.23013350  1
  O  O32  1  0.00042414  0.76986650  0.05667234  1
  O  O33  1  0.00042414  0.05667234  0.76986650  1
  O  O34  1  0.38874540  0.23579927  0.23579927  1
  O  O35  1  0.61125460  0.76420073  0.76420073  1
  O  O36  1  0.61439652  0.36864715  0.08616849  1
  O  O37  1  0.61439652  0.08616849  0.36864715  1
  O  O38  1  0.38560348  0.63135285  0.91383151  1
  O  O39  1  0.38560348  0.91383151  0.63135285  1
  O  O40  1  0.80874803  0.06260749  0.06260749  1
  O  O41  1  0.19125197  0.93739251  0.93739251  1
  O  O42  1  0.39473999  0.41629984  0.41629984  1
  O  O43  1  0.60526001  0.58370016  0.58370016  1
  O  O44  1  0.80462544  0.38188137  0.77587396  1
  O  O45  1  0.80462544  0.77587396  0.38188137  1
  O  O46  1  0.19537456  0.61811863  0.22412604  1
  O  O47  1  0.19537456  0.22412604  0.61811863  1
  O  O48  1  0.85584389  0.50697542  0.23410082  1
  O  O49  1  0.85584389  0.23410082  0.50697542  1
  O  O50  1  0.14415611  0.49302458  0.76589918  1
  O  O51  1  0.14415611  0.76589918  0.49302458  1
