# generated using pymatgen
data_TcP2H18(C3Br)2
_symmetry_space_group_name_H-M   'P 1'
_cell_length_a   9.89262810
_cell_length_b   10.64404880
_cell_length_c   17.06822150
_cell_angle_alpha   76.77629078
_cell_angle_beta   73.15421561
_cell_angle_gamma   62.30904232
_symmetry_Int_Tables_number   1
_chemical_formula_structural   TcP2H18(C3Br)2
_chemical_formula_sum   'Tc4 P8 H72 C24 Br8'
_cell_volume   1513.69431137
_cell_formula_units_Z   4
loop_
 _symmetry_equiv_pos_site_id
 _symmetry_equiv_pos_as_xyz
  1  'x, y, z'
loop_
 _atom_site_type_symbol
 _atom_site_label
 _atom_site_symmetry_multiplicity
 _atom_site_fract_x
 _atom_site_fract_y
 _atom_site_fract_z
 _atom_site_occupancy
  Tc  Tc0  1  0.82266277  0.25000000  0.75000000  1
  Tc  Tc1  1  0.17733723  0.75000000  0.25000000  1
  Tc  Tc2  1  0.60163377  0.25000000  0.75000000  1
  Tc  Tc3  1  0.39836623  0.75000000  0.25000000  1
  P  P4  1  0.79533761  0.48774278  0.68038667  1
  P  P5  1  0.96346707  0.01225722  0.81961333  1
  P  P6  1  0.20466239  0.51225722  0.31961333  1
  P  P7  1  0.03653293  0.98774278  0.18038667  1
  P  P8  1  0.65614871  0.15342517  0.62077522  1
  P  P9  1  0.43034910  0.34657483  0.87922478  1
  P  P10  1  0.34385129  0.84657483  0.37922478  1
  P  P11  1  0.56965090  0.65342517  0.12077522  1
  H  H12  1  0.07530733  0.42203307  0.64696756  1
  H  H13  1  0.14430795  0.07796693  0.85303244  1
  H  H14  1  0.92469267  0.57796693  0.35303244  1
  H  H15  1  0.85569205  0.92203307  0.14696756  1
  H  H16  1  0.96237951  0.61166360  0.63839006  1
  H  H17  1  0.21243318  0.88833640  0.86160994  1
  H  H18  1  0.03762049  0.38833640  0.36160994  1
  H  H19  1  0.78756682  0.11166360  0.13839006  1
  H  H20  1  0.97901113  0.51208297  0.73782375  1
  H  H21  1  0.22891785  0.98791703  0.76217625  1
  H  H22  1  0.02098887  0.48791703  0.26217625  1
  H  H23  1  0.77108215  0.01208297  0.23782375  1
  H  H24  1  0.63999952  0.63883182  0.79050016  1
  H  H25  1  0.06933150  0.86116818  0.70949984  1
  H  H26  1  0.36000048  0.36116818  0.20949984  1
  H  H27  1  0.93066850  0.13883182  0.29050016  1
  H  H28  1  0.66871067  0.74077534  0.69304490  1
  H  H29  1  0.10253091  0.75922466  0.80695510  1
  H  H30  1  0.33128933  0.25922466  0.30695510  1
  H  H31  1  0.89746909  0.24077534  0.19304490  1
  H  H32  1  0.52996792  0.66666904  0.71566694  1
  H  H33  1  0.91230391  0.83333096  0.78433306  1
  H  H34  1  0.47003208  0.33333096  0.28433306  1
  H  H35  1  0.08769609  0.16666904  0.21566694  1
  H  H36  1  0.86757209  0.44998015  0.53639260  1
  H  H37  1  0.85394484  0.05001985  0.96360740  1
  H  H38  1  0.13242791  0.55001985  0.46360740  1
  H  H39  1  0.14605516  0.94998015  0.03639260  1
  H  H40  1  0.66171819  0.55701187  0.56853315  1
  H  H41  1  0.78726321  0.94298813  0.93146685  1
  H  H42  1  0.33828181  0.44298813  0.43146685  1
  H  H43  1  0.21273679  0.05701187  0.06853315  1
  H  H44  1  0.79708637  0.63441969  0.54933237  1
  H  H45  1  0.98083843  0.86558031  0.95066763  1
  H  H46  1  0.20291363  0.36558031  0.45066763  1
  H  H47  1  0.01916157  0.13441969  0.04933237  1
  H  H48  1  0.78844815  0.90031708  0.66098773  1
  H  H49  1  0.34975296  0.59968292  0.83901227  1
  H  H50  1  0.21155185  0.09968292  0.33901227  1
  H  H51  1  0.65024704  0.40031708  0.16098773  1
  H  H52  1  0.79151195  0.93933286  0.55201259  1
  H  H53  1  0.28285740  0.56066714  0.94798741  1
  H  H54  1  0.20848805  0.06066714  0.44798741  1
  H  H55  1  0.71714260  0.43933286  0.05201259  1
  H  H56  1  0.92014700  0.97000809  0.59274333  1
  H  H57  1  0.48289842  0.52999191  0.90725667  1
  H  H58  1  0.07985300  0.02999191  0.40725667  1
  H  H59  1  0.51710158  0.47000809  0.09274333  1
  H  H60  1  0.62070618  0.36049601  0.51896793  1
  H  H61  1  0.50017012  0.13950399  0.98103207  1
  H  H62  1  0.37929382  0.63950399  0.48103207  1
  H  H63  1  0.49982988  0.86049601  0.01896793  1
  H  H64  1  0.82298002  0.23687001  0.51096563  1
  H  H65  1  0.57081565  0.26312999  0.98903437  1
  H  H66  1  0.17701998  0.76312999  0.48903437  1
  H  H67  1  0.42918435  0.73687001  0.01096563  1
  H  H68  1  0.69683692  0.19895558  0.47249735  1
  H  H69  1  0.36828985  0.30104442  0.02750265  1
  H  H70  1  0.30316308  0.80104442  0.52750265  1
  H  H71  1  0.63171015  0.69895558  0.97249735  1
  H  H72  1  0.44086700  0.08323010  0.66591754  1
  H  H73  1  0.19001464  0.41676990  0.83408246  1
  H  H74  1  0.55913300  0.91676990  0.33408246  1
  H  H75  1  0.80998536  0.58323010  0.16591754  1
  H  H76  1  0.38995150  0.25000134  0.60164332  1
  H  H77  1  0.24159615  0.24999866  0.89835668  1
  H  H78  1  0.61004850  0.74999866  0.39835668  1
  H  H79  1  0.75840385  0.75000134  0.10164332  1
  H  H80  1  0.51379561  0.08638366  0.55659176  1
  H  H81  1  0.15677103  0.41361634  0.94340824  1
  H  H82  1  0.48620439  0.91361634  0.44340824  1
  H  H83  1  0.84322897  0.58638366  0.05659176  1
  C  C84  1  0.97081107  0.50992309  0.67552451  1
  C  C85  1  0.15625867  0.99007691  0.82447549  1
  C  C86  1  0.02918893  0.49007691  0.32447549  1
  C  C87  1  0.84374133  0.00992309  0.17552451  1
  C  C88  1  0.64297162  0.64939640  0.72470417  1
  C  C89  1  0.01707219  0.85060360  0.77529583  1
  C  C90  1  0.35702838  0.35060360  0.27529583  1
  C  C91  1  0.98292781  0.14939640  0.22470417  1
  C  C92  1  0.77889094  0.53667944  0.57270126  1
  C  C93  1  0.88827164  0.96332056  0.92729874  1
  C  C94  1  0.22110906  0.46332056  0.42729874  1
  C  C95  1  0.11172836  0.03667944  0.07270126  1
  C  C96  1  0.80402425  0.97194166  0.60538887  1
  C  C97  1  0.38135479  0.52805834  0.89461113  1
  C  C98  1  0.19597575  0.02805834  0.39461113  1
  C  C99  1  0.61864521  0.47194166  0.10538887  1
  C  C100  1  0.70361931  0.24760682  0.52091642  1
  C  C101  1  0.47214255  0.25239318  0.97908358  1
  C  C102  1  0.29638069  0.75239318  0.47908358  1
  C  C103  1  0.52785745  0.74760682  0.02091642  1
  C  C104  1  0.48242841  0.14237810  0.61062115  1
  C  C105  1  0.23542766  0.35762190  0.88937885  1
  C  C106  1  0.51757159  0.85762190  0.38937885  1
  C  C107  1  0.76457234  0.64237810  0.11062115  1
  Br  Br108  1  0.03876259  0.15777632  0.62328608  1
  Br  Br109  1  0.81982499  0.34222368  0.87671392  1
  Br  Br110  1  0.96123741  0.84222368  0.37671392  1
  Br  Br111  1  0.18017501  0.65777632  0.12328608  1
  Br  Br112  1  0.41434663  0.47985506  0.68106222  1
  Br  Br113  1  0.57526392  0.02014494  0.81893778  1
  Br  Br114  1  0.58565337  0.52014494  0.31893778  1
  Br  Br115  1  0.42473608  0.97985506  0.18106222  1
