# generated using pymatgen
data_NaZn(BH4)3
_symmetry_space_group_name_H-M   'P 1'
_cell_length_a   5.00648976
_cell_length_b   8.24129910
_cell_length_c   17.45617435
_cell_angle_alpha   98.90967035
_cell_angle_beta   90.00000000
_cell_angle_gamma   90.00000000
_symmetry_Int_Tables_number   1
_chemical_formula_structural   NaZn(BH4)3
_chemical_formula_sum   'Na4 Zn4 B12 H48'
_cell_volume   711.55077708
_cell_formula_units_Z   4
loop_
 _symmetry_equiv_pos_site_id
 _symmetry_equiv_pos_as_xyz
  1  'x, y, z'
loop_
 _atom_site_type_symbol
 _atom_site_label
 _atom_site_symmetry_multiplicity
 _atom_site_fract_x
 _atom_site_fract_y
 _atom_site_fract_z
 _atom_site_occupancy
  Na  Na0  1  0.10811238  0.29903995  0.15631439  1
  Na  Na1  1  0.60811238  0.70096005  0.34368561  1
  Na  Na2  1  0.89188762  0.70096005  0.84368561  1
  Na  Na3  1  0.39188762  0.29903995  0.65631439  1
  Zn  Zn4  1  0.48979971  0.76917544  0.10572522  1
  Zn  Zn5  1  0.98979971  0.23082456  0.39427478  1
  Zn  Zn6  1  0.51020029  0.23082456  0.89427478  1
  Zn  Zn7  1  0.01020029  0.76917544  0.60572522  1
  B  B8  1  0.11806371  0.26686589  0.51669745  1
  B  B9  1  0.61806371  0.73313411  0.98330255  1
  B  B10  1  0.88193629  0.73313411  0.48330255  1
  B  B11  1  0.38193629  0.26686589  0.01669745  1
  B  B12  1  0.79848642  0.59012778  0.67528180  1
  B  B13  1  0.29848642  0.40987222  0.82471820  1
  B  B14  1  0.20151358  0.40987222  0.32471820  1
  B  B15  1  0.70151358  0.59012778  0.17528180  1
  B  B16  1  0.20568601  0.96738596  0.14698538  1
  B  B17  1  0.70568601  0.03261404  0.35301462  1
  B  B18  1  0.79431399  0.03261404  0.85301462  1
  B  B19  1  0.29431399  0.96738596  0.64698538  1
  H  H20  1  0.00431631  0.22043486  0.57078909  1
  H  H21  1  0.50431631  0.77956514  0.92921091  1
  H  H22  1  0.99568369  0.77956514  0.42921091  1
  H  H23  1  0.49568369  0.22043486  0.07078909  1
  H  H24  1  0.95547655  0.36063145  0.49155886  1
  H  H25  1  0.45547655  0.63936855  0.00844114  1
  H  H26  1  0.04452345  0.63936855  0.50844114  1
  H  H27  1  0.54452345  0.36063145  0.99155886  1
  H  H28  1  0.17534146  0.13925102  0.47106504  1
  H  H29  1  0.67534146  0.86074898  0.02893496  1
  H  H30  1  0.82465854  0.86074898  0.52893496  1
  H  H31  1  0.32465854  0.13925102  0.97106504  1
  H  H32  1  0.32491645  0.34295968  0.53036493  1
  H  H33  1  0.82491645  0.65704032  0.96963507  1
  H  H34  1  0.67508355  0.65704032  0.46963507  1
  H  H35  1  0.17508355  0.34295968  0.03036493  1
  H  H36  1  0.84305939  0.50722771  0.72566174  1
  H  H37  1  0.34305939  0.49277229  0.77433826  1
  H  H38  1  0.15694061  0.49277229  0.27433826  1
  H  H39  1  0.65694061  0.50722771  0.22566174  1
  H  H40  1  0.76653164  0.73487988  0.70489711  1
  H  H41  1  0.26653164  0.26512012  0.79510289  1
  H  H42  1  0.23346836  0.26512012  0.29510289  1
  H  H43  1  0.73346836  0.73487988  0.20489711  1
  H  H44  1  0.60971399  0.54343919  0.63410260  1
  H  H45  1  0.10971399  0.45656081  0.86589740  1
  H  H46  1  0.39028601  0.45656081  0.36589740  1
  H  H47  1  0.89028601  0.54343919  0.13410260  1
  H  H48  1  0.00941873  0.56651691  0.63570407  1
  H  H49  1  0.50941873  0.43348309  0.86429593  1
  H  H50  1  0.99058127  0.43348309  0.36429593  1
  H  H51  1  0.49058127  0.56651691  0.13570407  1
  H  H52  1  0.14907749  0.81751525  0.14057137  1
  H  H53  1  0.64907749  0.18248475  0.35942863  1
  H  H54  1  0.85092251  0.18248475  0.85942863  1
  H  H55  1  0.35092251  0.81751525  0.64057137  1
  H  H56  1  0.09895649  0.01898962  0.09328282  1
  H  H57  1  0.59895649  0.98101038  0.40671718  1
  H  H58  1  0.90104351  0.98101038  0.90671718  1
  H  H59  1  0.40104351  0.01898962  0.59328282  1
  H  H60  1  0.45107034  0.99699756  0.14461660  1
  H  H61  1  0.95107034  0.00300244  0.35538340  1
  H  H62  1  0.54892966  0.00300244  0.85538340  1
  H  H63  1  0.04892966  0.99699756  0.64461660  1
  H  H64  1  0.13205894  0.02359464  0.21168329  1
  H  H65  1  0.63205894  0.97640536  0.28831671  1
  H  H66  1  0.86794106  0.97640536  0.78831671  1
  H  H67  1  0.36794106  0.02359464  0.71168329  1
