# generated using pymatgen
data_Mg2Nb2BiO8
_symmetry_space_group_name_H-M   'P 1'
_cell_length_a   5.37346227
_cell_length_b   6.04734494
_cell_length_c   10.70588810
_cell_angle_alpha   106.39857127
_cell_angle_beta   92.20973511
_cell_angle_gamma   89.92362121
_symmetry_Int_Tables_number   1
_chemical_formula_structural   Mg2Nb2BiO8
_chemical_formula_sum   'Mg4 Nb4 Bi2 O16'
_cell_volume   333.47322460
_cell_formula_units_Z   2
loop_
 _symmetry_equiv_pos_site_id
 _symmetry_equiv_pos_as_xyz
  1  'x, y, z'
loop_
 _atom_site_type_symbol
 _atom_site_label
 _atom_site_symmetry_multiplicity
 _atom_site_fract_x
 _atom_site_fract_y
 _atom_site_fract_z
 _atom_site_occupancy
  Mg  Mg0  1  0.76386260  0.42275820  0.54467098  1
  Mg  Mg1  1  0.73874372  0.87792498  0.45426210  1
  Mg  Mg2  1  0.23784115  0.58153447  0.45424576  1
  Mg  Mg3  1  0.26405724  0.12613856  0.54576285  1
  Nb  Nb4  1  0.73102221  0.29404999  0.24983308  1
  Nb  Nb5  1  0.77281260  0.04424249  0.74890478  1
  Nb  Nb6  1  0.27157199  0.70991395  0.74862359  1
  Nb  Nb7  1  0.23046669  0.96031317  0.25001777  1
  Bi  Bi8  1  0.75047124  0.69793750  0.99909639  1
  Bi  Bi9  1  0.25278352  0.30556166  0.99871886  1
  O  O10  1  0.03555683  0.16458020  0.15293106  1
  O  O11  1  0.46858050  0.01091627  0.84540070  1
  O  O12  1  0.96921135  0.84082657  0.84648948  1
  O  O13  1  0.53481440  0.99272361  0.15314185  1
  O  O14  1  0.61523535  0.45180587  0.12445478  1
  O  O15  1  0.88985871  0.32782415  0.87137543  1
  O  O16  1  0.38965775  0.55014928  0.87336338  1
  O  O17  1  0.11469107  0.67747666  0.12709569  1
  O  O18  1  0.44104012  0.29592591  0.37268471  1
  O  O19  1  0.05946709  0.91901224  0.62382974  1
  O  O20  1  0.37212837  0.84191210  0.39384741  1
  O  O21  1  0.12969738  0.44588560  0.60518285  1
  O  O22  1  0.62963125  0.16318635  0.60500449  1
  O  O23  1  0.87173553  0.55715866  0.39314360  1
  O  O24  1  0.94028995  0.08303892  0.37298306  1
  O  O25  1  0.56032240  0.70830462  0.62518863  1
