# generated using pymatgen
data_CaCO3
_symmetry_space_group_name_H-M   'P 1'
_cell_length_a   6.39363948
_cell_length_b   7.69701171
_cell_length_c   12.74171358
_cell_angle_alpha   93.77095417
_cell_angle_beta   98.92079196
_cell_angle_gamma   106.22137207
_symmetry_Int_Tables_number   1
_chemical_formula_structural   CaCO3
_chemical_formula_sum   'Ca10 C10 O30'
_cell_volume   590.85205324
_cell_formula_units_Z   10
loop_
 _symmetry_equiv_pos_site_id
 _symmetry_equiv_pos_as_xyz
  1  'x, y, z'
loop_
 _atom_site_type_symbol
 _atom_site_label
 _atom_site_symmetry_multiplicity
 _atom_site_fract_x
 _atom_site_fract_y
 _atom_site_fract_z
 _atom_site_occupancy
  Ca  Ca0  1  0.66369395  0.35028010  0.44255125  1
  Ca  Ca1  1  0.33630605  0.64971990  0.55744875  1
  Ca  Ca2  1  0.22722289  0.12013104  0.61862136  1
  Ca  Ca3  1  0.77277711  0.87986896  0.38137864  1
  Ca  Ca4  1  0.97319827  0.51817515  0.21247358  1
  Ca  Ca5  1  0.02680173  0.48182485  0.78752642  1
  Ca  Ca6  1  0.08964809  0.07126202  0.17228941  1
  Ca  Ca7  1  0.91035191  0.92873798  0.82771059  1
  Ca  Ca8  1  0.48740961  0.24894498  0.97851242  1
  Ca  Ca9  1  0.51259039  0.75105502  0.02148758  1
  C  C10  1  0.50189964  0.47972627  0.21070460  1
  C  C11  1  0.49810036  0.52027373  0.78929540  1
  C  C12  1  0.12367804  0.32165370  0.40097268  1
  C  C13  1  0.87632196  0.67834630  0.59902732  1
  C  C14  1  0.94188977  0.26284805  0.99386221  1
  C  C15  1  0.05811023  0.73715195  0.00613779  1
  C  C16  1  0.44997444  0.97109854  0.79940329  1
  C  C17  1  0.55002556  0.02890146  0.20059671  1
  C  C18  1  0.78342437  0.16087294  0.61559575  1
  C  C19  1  0.21657563  0.83912706  0.38440425  1
  O  O20  1  0.09522209  0.18836636  0.97848284  1
  O  O21  1  0.90477791  0.81163364  0.02151716  1
  O  O22  1  0.57756581  0.49530821  0.11988221  1
  O  O23  1  0.42243419  0.50469179  0.88011779  1
  O  O24  1  0.29736783  0.40527139  0.21216693  1
  O  O25  1  0.70263217  0.59472861  0.78783307  1
  O  O26  1  0.85153495  0.11804573  0.52857468  1
  O  O27  1  0.14846505  0.88195427  0.47142532  1
  O  O28  1  0.64886292  0.54011141  0.29812196  1
  O  O29  1  0.35113708  0.45988859  0.70187804  1
  O  O30  1  0.29702951  0.33631394  0.47390841  1
  O  O31  1  0.70297049  0.66368606  0.52609159  1
  O  O32  1  0.04203187  0.45967317  0.39758808  1
  O  O33  1  0.95796813  0.54032683  0.60241192  1
  O  O34  1  0.86404070  0.24600500  0.08324089  1
  O  O35  1  0.13595930  0.75399500  0.91675911  1
  O  O36  1  0.32683518  0.08084180  0.80372009  1
  O  O37  1  0.67316482  0.91915820  0.19627991  1
  O  O38  1  0.44909349  0.87953096  0.71179433  1
  O  O39  1  0.55090651  0.12046904  0.28820567  1
  O  O40  1  0.58148140  0.96372321  0.88810324  1
  O  O41  1  0.41851860  0.03627679  0.11189676  1
  O  O42  1  0.60276263  0.20392850  0.60751581  1
  O  O43  1  0.39723737  0.79607150  0.39248419  1
  O  O44  1  0.85386303  0.34429224  0.92231376  1
  O  O45  1  0.14613697  0.65570776  0.07768624  1
  O  O46  1  0.03090328  0.17719632  0.33594429  1
  O  O47  1  0.96909672  0.82280368  0.66405571  1
  O  O48  1  0.91249298  0.17264537  0.70764319  1
  O  O49  1  0.08750702  0.82735463  0.29235681  1
