# generated using pymatgen
data_CsCaP3(HO5)2
_symmetry_space_group_name_H-M   'P 1'
_cell_length_a   9.23046387
_cell_length_b   10.12579764
_cell_length_c   12.47368926
_cell_angle_alpha   90.00003809
_cell_angle_beta   89.99991705
_cell_angle_gamma   117.02023360
_symmetry_Int_Tables_number   1
_chemical_formula_structural   CsCaP3(HO5)2
_chemical_formula_sum   'Cs4 Ca4 P12 H8 O40'
_cell_volume   1038.60497051
_cell_formula_units_Z   4
loop_
 _symmetry_equiv_pos_site_id
 _symmetry_equiv_pos_as_xyz
  1  'x, y, z'
loop_
 _atom_site_type_symbol
 _atom_site_label
 _atom_site_symmetry_multiplicity
 _atom_site_fract_x
 _atom_site_fract_y
 _atom_site_fract_z
 _atom_site_occupancy
  Cs  Cs0  1  0.92297614  0.45336940  0.79131514  1
  Cs  Cs1  1  0.07702586  0.04663297  0.29131608  1
  Cs  Cs2  1  0.07702209  0.54663071  0.20868502  1
  Cs  Cs3  1  0.92297432  0.95336737  0.70868476  1
  Ca  Ca4  1  0.40170711  0.21223380  0.60188069  1
  Ca  Ca5  1  0.59829023  0.28776315  0.10188557  1
  Ca  Ca6  1  0.59828768  0.78776178  0.39811294  1
  Ca  Ca7  1  0.40170945  0.71223707  0.89811778  1
  P  P8  1  0.89776688  0.66230630  0.48129126  1
  P  P9  1  0.10223262  0.83769478  0.98129213  1
  P  P10  1  0.10223272  0.33769467  0.51870799  1
  P  P11  1  0.89776732  0.16230557  0.01870958  1
  P  P12  1  0.31992542  0.63481876  0.61270361  1
  P  P13  1  0.68007759  0.86518156  0.11270450  1
  P  P14  1  0.68007640  0.36518231  0.38729494  1
  P  P15  1  0.31992442  0.13481878  0.88729752  1
  P  P16  1  0.25970700  0.34816729  0.01703812  1
  P  P17  1  0.74029335  0.15183071  0.51703674  1
  P  P18  1  0.74029391  0.65183230  0.98296264  1
  P  P19  1  0.25970730  0.84816763  0.48296186  1
  H  H20  1  0.44474598  0.51548484  0.23667218  1
  H  H21  1  0.55525408  0.98451474  0.73667285  1
  H  H22  1  0.55525416  0.48451504  0.76332721  1
  H  H23  1  0.44474593  0.01548512  0.26332714  1
  H  H24  1  0.35676188  0.47737195  0.34778421  1
  H  H25  1  0.64323843  0.02262840  0.84778451  1
  H  H26  1  0.64323795  0.52262845  0.65221568  1
  H  H27  1  0.35676206  0.97737208  0.15221588  1
  O  O28  1  0.11304678  0.33933989  0.39874493  1
  O  O29  1  0.88695299  0.16065991  0.89874522  1
  O  O30  1  0.88695179  0.66065988  0.60125461  1
  O  O31  1  0.11304780  0.83934088  0.10125542  1
  O  O32  1  0.18176143  0.26335422  0.58300734  1
  O  O33  1  0.81823876  0.23664560  0.08300795  1
  O  O34  1  0.81823852  0.73664588  0.41699320  1
  O  O35  1  0.18176235  0.76335417  0.91699286  1
  O  O36  1  0.15598345  0.50452004  0.56248461  1
  O  O37  1  0.84401815  0.99547988  0.06248478  1
  O  O38  1  0.84401849  0.49548185  0.43751389  1
  O  O39  1  0.15598367  0.00451989  0.93751486  1
  O  O40  1  0.31544432  0.11419957  0.76850268  1
  O  O41  1  0.68455610  0.38580025  0.26850247  1
  O  O42  1  0.68455575  0.88579934  0.23149646  1
  O  O43  1  0.31544587  0.61420120  0.73149730  1
  O  O44  1  0.53386100  0.84682299  0.04983368  1
  O  O45  1  0.46613841  0.65317688  0.54983219  1
  O  O46  1  0.46613784  0.15317676  0.95016739  1
  O  O47  1  0.53386112  0.34682343  0.45016723  1
  O  O48  1  0.71864257  0.22498205  0.40666232  1
  O  O49  1  0.28135712  0.27501714  0.90666286  1
  O  O50  1  0.28135674  0.77501738  0.59333703  1
  O  O51  1  0.71864250  0.72498256  0.09333807  1
  O  O52  1  0.75060056  0.01339470  0.48596896  1
  O  O53  1  0.24939885  0.48660454  0.98597046  1
  O  O54  1  0.24939863  0.98660500  0.51403067  1
  O  O55  1  0.75060157  0.51339633  0.01403209  1
  O  O56  1  0.61935755  0.64575038  0.89938793  1
  O  O57  1  0.38064415  0.85424926  0.39938868  1
  O  O58  1  0.38064419  0.35425002  0.10061189  1
  O  O59  1  0.61935502  0.14575024  0.60061113  1
  O  O60  1  0.08509314  0.22796742  0.06235829  1
  O  O61  1  0.91490691  0.27203344  0.56235664  1
  O  O62  1  0.91490665  0.77203268  0.93764324  1
  O  O63  1  0.08509352  0.72796722  0.43764270  1
  O  O64  1  0.42393050  0.06032727  0.19919709  1
  O  O65  1  0.57606722  0.43967244  0.69919611  1
  O  O66  1  0.57606946  0.93967236  0.80080290  1
  O  O67  1  0.42393029  0.56032752  0.30080333  1
