# generated using pymatgen
data_Zn3As2
_symmetry_space_group_name_H-M   'P 1'
_cell_length_a   10.35983239
_cell_length_b   10.35983239
_cell_length_c   10.35983239
_cell_angle_alpha   109.47122063
_cell_angle_beta   109.47122063
_cell_angle_gamma   109.47122063
_symmetry_Int_Tables_number   1
_chemical_formula_structural   Zn3As2
_chemical_formula_sum   'Zn24 As16'
_cell_volume   855.92615333
_cell_formula_units_Z   8
loop_
 _symmetry_equiv_pos_site_id
 _symmetry_equiv_pos_as_xyz
  1  'x, y, z'
loop_
 _atom_site_type_symbol
 _atom_site_label
 _atom_site_symmetry_multiplicity
 _atom_site_fract_x
 _atom_site_fract_y
 _atom_site_fract_z
 _atom_site_occupancy
  Zn  Zn0  1  0.97846939  0.72984733  0.96770745  1
  Zn  Zn1  1  0.73786012  0.77015267  0.24862206  1
  Zn  Zn2  1  0.52153061  0.98923806  0.25137794  1
  Zn  Zn3  1  0.76213988  0.51076194  0.53229255  1
  Zn  Zn4  1  0.72984733  0.96770745  0.97846939  1
  Zn  Zn5  1  0.77015267  0.24862206  0.73786012  1
  Zn  Zn6  1  0.98923806  0.25137794  0.52153061  1
  Zn  Zn7  1  0.51076194  0.53229255  0.76213988  1
  Zn  Zn8  1  0.96770745  0.97846939  0.72984733  1
  Zn  Zn9  1  0.24862206  0.73786012  0.77015267  1
  Zn  Zn10  1  0.25137794  0.52153061  0.98923806  1
  Zn  Zn11  1  0.53229255  0.76213988  0.51076194  1
  Zn  Zn12  1  0.02153061  0.27015267  0.03229255  1
  Zn  Zn13  1  0.26213988  0.22984733  0.75137794  1
  Zn  Zn14  1  0.47846939  0.01076194  0.74862206  1
  Zn  Zn15  1  0.23786012  0.48923806  0.46770745  1
  Zn  Zn16  1  0.27015267  0.03229255  0.02153061  1
  Zn  Zn17  1  0.22984733  0.75137794  0.26213988  1
  Zn  Zn18  1  0.01076194  0.74862206  0.47846939  1
  Zn  Zn19  1  0.48923806  0.46770745  0.23786012  1
  Zn  Zn20  1  0.03229255  0.02153061  0.27015267  1
  Zn  Zn21  1  0.75137794  0.26213988  0.22984733  1
  Zn  Zn22  1  0.74862206  0.47846939  0.01076194  1
  Zn  Zn23  1  0.46770745  0.23786012  0.48923806  1
  As  As24  1  -0.00000000  0.50000000  0.00000000  1
  As  As25  1  -0.00000000  -0.00000000  0.50000000  1
  As  As26  1  0.50000000  -0.00000000  0.00000000  1
  As  As27  1  0.50000000  0.50000000  0.50000000  1
  As  As28  1  0.26026213  0.75000000  0.51026213  1
  As  As29  1  0.23973787  0.25000000  0.98973787  1
  As  As30  1  0.75000000  0.51026213  0.26026213  1
  As  As31  1  0.25000000  0.98973787  0.23973787  1
  As  As32  1  0.51026213  0.26026213  0.75000000  1
  As  As33  1  0.98973787  0.23973787  0.25000000  1
  As  As34  1  0.73973787  0.25000000  0.48973787  1
  As  As35  1  0.76026213  0.75000000  0.01026213  1
  As  As36  1  0.25000000  0.48973787  0.73973787  1
  As  As37  1  0.75000000  0.01026213  0.76026213  1
  As  As38  1  0.48973787  0.73973787  0.25000000  1
  As  As39  1  0.01026213  0.76026213  0.75000000  1
