# generated using pymatgen
data_TbP2H9O11
_symmetry_space_group_name_H-M   'P 1'
_cell_length_a   6.62549072
_cell_length_b   11.52054795
_cell_length_c   11.90512787
_cell_angle_alpha   90.00000000
_cell_angle_beta   91.06071999
_cell_angle_gamma   90.00000000
_symmetry_Int_Tables_number   1
_chemical_formula_structural   TbP2H9O11
_chemical_formula_sum   'Tb4 P8 H36 O44'
_cell_volume   908.55416233
_cell_formula_units_Z   4
loop_
 _symmetry_equiv_pos_site_id
 _symmetry_equiv_pos_as_xyz
  1  'x, y, z'
loop_
 _atom_site_type_symbol
 _atom_site_label
 _atom_site_symmetry_multiplicity
 _atom_site_fract_x
 _atom_site_fract_y
 _atom_site_fract_z
 _atom_site_occupancy
  Tb  Tb0  1  0.74508372  0.91770853  0.66392894  1
  Tb  Tb1  1  0.24508372  0.58229147  0.16392894  1
  Tb  Tb2  1  0.25491628  0.08229147  0.33607106  1
  Tb  Tb3  1  0.75491628  0.41770853  0.83607106  1
  P  P4  1  0.24843909  0.04843704  0.63876423  1
  P  P5  1  0.74843909  0.45156296  0.13876423  1
  P  P6  1  0.75156091  0.95156296  0.36123577  1
  P  P7  1  0.25156091  0.54843704  0.86123577  1
  P  P8  1  0.01626507  0.13383051  0.83420036  1
  P  P9  1  0.51626507  0.36616949  0.33420036  1
  P  P10  1  0.98373493  0.86616949  0.16579964  1
  P  P11  1  0.48373493  0.63383051  0.66579964  1
  H  H12  1  0.81578348  0.11462200  0.49769790  1
  H  H13  1  0.31578348  0.38537800  0.99769790  1
  H  H14  1  0.18421652  0.88537800  0.50230210  1
  H  H15  1  0.68421652  0.61462200  0.00230210  1
  H  H16  1  0.20588268  0.79405789  0.94429529  1
  H  H17  1  0.70588268  0.70594211  0.44429529  1
  H  H18  1  0.79411732  0.20594211  0.05570471  1
  H  H19  1  0.29411732  0.29405789  0.55570471  1
  H  H20  1  0.59354085  0.13424580  0.54110662  1
  H  H21  1  0.09354085  0.36575420  0.04110662  1
  H  H22  1  0.40645915  0.86575420  0.45889338  1
  H  H23  1  0.90645915  0.63424580  0.95889338  1
  H  H24  1  0.39045800  0.86067745  0.89216696  1
  H  H25  1  0.89045800  0.63932255  0.39216696  1
  H  H26  1  0.60954200  0.13932255  0.10783304  1
  H  H27  1  0.10954200  0.36067745  0.60783304  1
  H  H28  1  0.88695339  0.66621159  0.68805419  1
  H  H29  1  0.38695339  0.83378841  0.18805419  1
  H  H30  1  0.11304661  0.33378841  0.31194581  1
  H  H31  1  0.61304661  0.16621159  0.81194581  1
  H  H32  1  0.75240869  0.88557894  0.91726342  1
  H  H33  1  0.25240869  0.61442106  0.41726342  1
  H  H34  1  0.24759131  0.11442106  0.08273658  1
  H  H35  1  0.74759131  0.38557894  0.58273658  1
  H  H36  1  0.70082588  0.76046973  0.87603966  1
  H  H37  1  0.20082588  0.73953027  0.37603966  1
  H  H38  1  0.29917412  0.23953027  0.12396034  1
  H  H39  1  0.79917412  0.26046973  0.62396034  1
  H  H40  1  0.17697033  0.98930071  0.92630108  1
  H  H41  1  0.67697033  0.51069929  0.42630108  1
  H  H42  1  0.82302967  0.01069929  0.07369892  1
  H  H43  1  0.32302967  0.48930071  0.57369892  1
  H  H44  1  0.08627277  0.74195714  0.70013060  1
  H  H45  1  0.58627277  0.75804286  0.20013060  1
  H  H46  1  0.91372723  0.25804286  0.29986940  1
  H  H47  1  0.41372723  0.24195714  0.79986940  1
  O  O48  1  0.07968321  0.95931262  0.62022106  1
  O  O49  1  0.57968321  0.54068738  0.12022106  1
  O  O50  1  0.92031679  0.04068738  0.37977894  1
  O  O51  1  0.42031679  0.45931262  0.87977894  1
  O  O52  1  0.43995551  0.99923510  0.69153387  1
  O  O53  1  0.93995551  0.50076490  0.19153387  1
  O  O54  1  0.56004449  0.00076490  0.30846613  1
  O  O55  1  0.06004449  0.49923510  0.80846613  1
  O  O56  1  0.29378805  0.11899944  0.53215105  1
  O  O57  1  0.79378805  0.38100056  0.03215105  1
  O  O58  1  0.70621195  0.88100056  0.46784895  1
  O  O59  1  0.20621195  0.61899944  0.96784895  1
  O  O60  1  0.14550059  0.07767720  0.93280176  1
  O  O61  1  0.64550059  0.42232280  0.43280176  1
  O  O62  1  0.85449941  0.92232280  0.06719824  1
  O  O63  1  0.35449941  0.57767720  0.56719824  1
  O  O64  1  0.83830128  0.05766574  0.80051126  1
  O  O65  1  0.33830128  0.44233426  0.30051126  1
  O  O66  1  0.16169872  0.94233426  0.19948874  1
  O  O67  1  0.66169872  0.55766574  0.69948874  1
  O  O68  1  0.97048503  0.25727281  0.86576126  1
  O  O69  1  0.47048503  0.24272719  0.36576126  1
  O  O70  1  0.02951497  0.74272719  0.13423874  1
  O  O71  1  0.52951497  0.75727281  0.63423874  1
  O  O72  1  0.16623750  0.14504915  0.72781224  1
  O  O73  1  0.66623750  0.35495085  0.22781224  1
  O  O74  1  0.83376250  0.85495085  0.27218776  1
  O  O75  1  0.33376250  0.64504915  0.77218776  1
  O  O76  1  0.73494606  0.12308805  0.56704643  1
  O  O77  1  0.23494606  0.37691195  0.06704643  1
  O  O78  1  0.26505394  0.87691195  0.43295357  1
  O  O79  1  0.76505394  0.62308805  0.93295357  1
  O  O80  1  0.67791167  0.84389913  0.85725712  1
  O  O81  1  0.17791167  0.65610087  0.35725712  1
  O  O82  1  0.32208833  0.15610087  0.14274288  1
  O  O83  1  0.82208833  0.34389913  0.64274288  1
  O  O84  1  0.94574883  0.74362634  0.67470313  1
  O  O85  1  0.44574883  0.75637366  0.17470313  1
  O  O86  1  0.05425117  0.25637366  0.32529687  1
  O  O87  1  0.55425117  0.24362634  0.82529687  1
  O  O88  1  0.24673415  0.86812065  0.91072875  1
  O  O89  1  0.74673415  0.63187935  0.41072875  1
  O  O90  1  0.75326585  0.13187935  0.08927125  1
  O  O91  1  0.25326585  0.36812065  0.58927125  1
