# generated using pymatgen
data_AgH36S8I2(N3O4)3
_symmetry_space_group_name_H-M   'P 1'
_cell_length_a   12.70359343
_cell_length_b   12.70359343
_cell_length_c   12.70359343
_cell_angle_alpha   96.05575147
_cell_angle_beta   116.56750718
_cell_angle_gamma   116.56750718
_symmetry_Int_Tables_number   1
_chemical_formula_structural   AgH36S8I2(N3O4)3
_chemical_formula_sum   'Ag2 H72 S16 I4 N18 O24'
_cell_volume   1515.69946860
_cell_formula_units_Z   2
loop_
 _symmetry_equiv_pos_site_id
 _symmetry_equiv_pos_as_xyz
  1  'x, y, z'
loop_
 _atom_site_type_symbol
 _atom_site_label
 _atom_site_symmetry_multiplicity
 _atom_site_fract_x
 _atom_site_fract_y
 _atom_site_fract_z
 _atom_site_occupancy
  Ag  Ag0  1  0.50000000  0.75000000  0.25000000  1
  Ag  Ag1  1  0.00000000  -0.00000000  -0.00000000  1
  H  H2  1  0.43486688  0.21279507  0.65115443  1
  H  H3  1  0.93835937  0.53720493  0.47207181  1
  H  H4  1  0.56513312  0.21628756  0.77792819  1
  H  H5  1  0.06164063  0.53371244  0.59884557  1
  H  H6  1  0.56164063  0.34884557  0.78371244  1
  H  H7  1  0.93486688  0.40115443  0.46279507  1
  H  H8  1  0.43835937  0.22207181  0.78720493  1
  H  H9  1  0.06513312  0.52792819  0.46628756  1
  H  H10  1  0.43237444  0.45800315  0.01758510  1
  H  H11  1  0.05958195  0.29199685  0.22437130  1
  H  H12  1  0.56762556  0.58521065  0.02562870  1
  H  H13  1  0.94041805  0.16478935  0.23241490  1
  H  H14  1  0.44041805  0.98241490  0.41478935  1
  H  H15  1  0.93237444  0.76758510  0.70800315  1
  H  H16  1  0.55958195  0.97437130  0.54199685  1
  H  H17  1  0.06762556  0.77562870  0.83521065  1
  H  H18  1  0.43816733  0.45507852  0.88890485  1
  H  H19  1  0.93382632  0.29492148  0.23308880  1
  H  H20  1  0.56183267  0.45073752  0.01691120  1
  H  H21  1  0.06617368  0.29926248  0.36109515  1
  H  H22  1  0.56617368  0.11109515  0.54926248  1
  H  H23  1  0.93816733  0.63890485  0.70507852  1
  H  H24  1  0.43382632  0.98308880  0.54492148  1
  H  H25  1  0.06183267  0.76691120  0.70073752  1
  H  H26  1  0.24167941  0.41160645  0.17948384  1
  H  H27  1  0.26787739  0.33839355  0.08007296  1
  H  H28  1  0.75832059  0.93780443  0.16992704  1
  H  H29  1  0.73212261  0.81219557  0.07051616  1
  H  H30  1  0.23212261  0.82051616  0.06219557  1
  H  H31  1  0.74167941  0.92948384  0.66160645  1
  H  H32  1  0.76787739  0.83007296  0.58839355  1
  H  H33  1  0.25832059  0.91992704  0.18780443  1
  H  H34  1  0.40645051  0.44591074  0.23029491  1
  H  H35  1  0.28438416  0.30408926  0.21053977  1
  H  H36  1  0.59354949  0.82384439  0.03946023  1
  H  H37  1  0.71561584  0.92615561  0.01970509  1
  H  H38  1  0.21561584  0.76970509  0.17615561  1
  H  H39  1  0.90645051  0.98029491  0.69591074  1
  H  H40  1  0.78438416  0.96053977  0.55408926  1
  H  H41  1  0.09354949  0.78946023  0.07384439  1
  H  H42  1  0.99394820  0.93525683  0.46624421  1
  H  H43  1  0.03098738  0.81474317  0.30869137  1
  H  H44  1  0.00605180  0.47229601  0.94130863  1
  H  H45  1  0.96901262  0.27770399  0.78375579  1
  H  H46  1  0.46901262  0.53375579  0.52770399  1
  H  H47  1  0.49394820  0.21624421  0.18525683  1
  H  H48  1  0.53098738  0.05869137  0.06474317  1
  H  H49  1  0.50605180  0.69130863  0.72229601  1
  H  H50  1  0.00744018  0.07058716  0.46028800  1
  H  H51  1  0.88970084  0.67941284  0.18685302  1
  H  H52  1  0.99255982  0.45284782  0.06314698  1
  H  H53  1  0.11029916  0.29715218  0.78971200  1
  H  H54  1  0.61029916  0.53971200  0.54715218  1
  H  H55  1  0.50744018  0.21028800  0.32058716  1
  H  H56  1  0.38970084  0.93685302  0.92941284  1
  H  H57  1  0.49255982  0.81314698  0.70284782  1
  H  H58  1  0.14985471  0.06231125  0.50335324  1
  H  H59  1  0.94104200  0.68768875  0.33754346  1
  H  H60  1  0.85014529  0.35349854  0.91245654  1
  H  H61  1  0.05895800  0.39650146  0.74664676  1
  H  H62  1  0.55895800  0.49664676  0.64650146  1
  H  H63  1  0.64985471  0.25335324  0.31231125  1
  H  H64  1  0.44104200  0.08754346  0.93768875  1
  H  H65  1  0.35014529  0.66245654  0.60349854  1
  H  H66  1  0.09339532  0.06087930  0.60367601  1
  H  H67  1  0.04279671  0.68912070  0.28251602  1
  H  H68  1  0.90660468  0.51028070  0.96748398  1
  H  H69  1  0.95720329  0.23971930  0.64632399  1
  H  H70  1  0.45720329  0.39632399  0.48971930  1
  H  H71  1  0.59339532  0.35367601  0.31087930  1
  H  H72  1  0.54279671  0.03251602  0.93912070  1
  H  H73  1  0.40660468  0.71748398  0.76028070  1
  S  S74  1  0.72321345  0.75228004  0.31128928  1
  S  S75  1  0.05900924  0.99771996  0.22093341  1
  S  S76  1  0.27678655  0.58807583  0.02906659  1
  S  S77  1  0.94099076  0.16192417  0.93871072  1
  S  S78  1  0.44099076  0.68871072  0.41192417  1
  S  S79  1  0.22321345  0.06128928  0.00228004  1
  S  S80  1  0.55900924  0.97093341  0.24771996  1
  S  S81  1  0.77678655  0.77906659  0.83807583  1
  S  S82  1  0.72663164  0.62904295  0.39986262  1
  S  S83  1  0.27081968  0.12095705  0.34758869  1
  S  S84  1  0.27336836  0.67323099  0.90241131  1
  S  S85  1  0.72918032  0.07676901  0.85013738  1
  S  S86  1  0.22918032  0.60013738  0.32676901  1
  S  S87  1  0.22663164  0.14986262  0.87904295  1
  S  S88  1  0.77081968  0.09758869  0.37095705  1
  S  S89  1  0.77336836  0.65241131  0.92323099  1
  I  I90  1  0.24974200  0.87500000  0.62474200  1
  I  I91  1  0.75025800  0.37500000  0.62525800  1
  I  I92  1  0.25025800  0.37525800  0.62500000  1
  I  I93  1  0.74974200  0.37474200  0.12500000  1
  N  N94  1  0.50000000  0.25000000  0.75000000  1
  N  N95  1  -0.00000000  0.50000000  0.50000000  1
  N  N96  1  0.50000000  0.48777242  0.98777242  1
  N  N97  1  0.00000000  0.26222758  0.26222758  1
  N  N98  1  0.50000000  0.01222758  0.51222758  1
  N  N99  1  -0.00000000  0.73777242  0.73777242  1
  N  N100  1  0.29847062  0.37500000  0.17347062  1
  N  N101  1  0.70152938  0.87500000  0.07652938  1
  N  N102  1  0.20152938  0.82652938  0.12500000  1
  N  N103  1  0.79847062  0.92347062  0.62500000  1
  N  N104  1  0.06262712  0.03307775  0.50915959  1
  N  N105  1  0.97608184  0.71692225  0.27954937  1
  N  N106  1  0.93737288  0.44653247  0.97045063  1
  N  N107  1  0.02391816  0.30346753  0.74084041  1
  N  N108  1  0.52391816  0.49084041  0.55346753  1
  N  N109  1  0.56262712  0.25915959  0.28307775  1
  N  N110  1  0.47608184  0.02954937  0.96692225  1
  N  N111  1  0.43737288  0.72045063  0.69653247  1
  O  O112  1  0.59331356  0.49973849  0.31630355  1
  O  O113  1  0.31656507  0.25026151  0.34357507  1
  O  O114  1  0.40668644  0.72298999  0.90642493  1
  O  O115  1  0.68343493  0.02701001  0.93369645  1
  O  O116  1  0.18343493  0.68369645  0.27701001  1
  O  O117  1  0.09331356  0.06630355  0.74973849  1
  O  O118  1  0.81656507  0.09357507  0.50026151  1
  O  O119  1  0.90668644  0.65642493  0.97298999  1
  O  O120  1  0.85209400  0.62748440  0.42709279  1
  O  O121  1  0.29960840  0.12251560  0.47460960  1
  O  O122  1  0.14790600  0.57499879  0.77539040  1
  O  O123  1  0.70039160  0.17500121  0.82290721  1
  O  O124  1  0.20039160  0.57290721  0.42500121  1
  O  O125  1  0.35209400  0.17709279  0.87748440  1
  O  O126  1  0.79960840  0.22460960  0.37251560  1
  O  O127  1  0.64790600  0.52539040  0.82499879  1
  O  O128  1  0.73917428  0.67544125  0.52105389  1
  O  O129  1  0.34561264  0.07455875  0.31373303  1
  O  O130  1  0.26082572  0.78187961  0.93626697  1
  O  O131  1  0.65438736  0.96812039  0.72894611  1
  O  O132  1  0.15438736  0.47894611  0.21812039  1
  O  O133  1  0.23917428  0.27105389  0.92544125  1
  O  O134  1  0.84561264  0.06373303  0.32455875  1
  O  O135  1  0.76082572  0.68626697  0.03187961  1
