# generated using pymatgen
data_LaSn
_symmetry_space_group_name_H-M   'P 1'
_cell_length_a   11.98028054
_cell_length_b   12.59525423
_cell_length_c   12.59525423
_cell_angle_alpha   88.90916151
_cell_angle_beta   90.00000000
_cell_angle_gamma   90.00000000
_symmetry_Int_Tables_number   1
_chemical_formula_structural   LaSn
_chemical_formula_sum   'La30 Sn30'
_cell_volume   1900.21240674
_cell_formula_units_Z   30
loop_
 _symmetry_equiv_pos_site_id
 _symmetry_equiv_pos_as_xyz
  1  'x, y, z'
loop_
 _atom_site_type_symbol
 _atom_site_label
 _atom_site_symmetry_multiplicity
 _atom_site_fract_x
 _atom_site_fract_y
 _atom_site_fract_z
 _atom_site_occupancy
  La  La0  1  0.73209645  0.50000000  0.50000000  1
  La  La1  1  0.26790355  0.50000000  0.50000000  1
  La  La2  1  0.50000000  0.83761012  0.83761012  1
  La  La3  1  0.50000000  0.16238988  0.16238988  1
  La  La4  1  0.50000000  0.31250565  0.68749435  1
  La  La5  1  0.50000000  0.68749435  0.31250565  1
  La  La6  1  0.00000000  0.90759443  0.71916368  1
  La  La7  1  0.00000000  0.09240557  0.28083632  1
  La  La8  1  0.00000000  0.71916368  0.90759443  1
  La  La9  1  0.00000000  0.28083632  0.09240557  1
  La  La10  1  0.00000000  0.23353812  0.56389185  1
  La  La11  1  0.00000000  0.76646188  0.43610815  1
  La  La12  1  0.00000000  0.56389185  0.23353812  1
  La  La13  1  0.00000000  0.43610815  0.76646188  1
  La  La14  1  0.67321948  0.81921816  0.55506131  1
  La  La15  1  0.67321948  0.18078184  0.44493869  1
  La  La16  1  0.32678052  0.55506131  0.81921816  1
  La  La17  1  0.32678052  0.44493869  0.18078184  1
  La  La18  1  0.32678052  0.18078184  0.44493869  1
  La  La19  1  0.32678052  0.81921816  0.55506131  1
  La  La20  1  0.67321948  0.44493869  0.18078184  1
  La  La21  1  0.67321948  0.55506131  0.81921816  1
  La  La22  1  0.73870281  0.06471662  0.74175737  1
  La  La23  1  0.73870281  0.93528338  0.25824263  1
  La  La24  1  0.26129719  0.74175737  0.06471662  1
  La  La25  1  0.26129719  0.25824263  0.93528338  1
  La  La26  1  0.26129719  0.93528338  0.25824263  1
  La  La27  1  0.26129719  0.06471662  0.74175737  1
  La  La28  1  0.73870281  0.25824263  0.93528338  1
  La  La29  1  0.73870281  0.74175737  0.06471662  1
  Sn  Sn30  1  0.50000000  0.61834792  0.61834792  1
  Sn  Sn31  1  0.50000000  0.38165208  0.38165208  1
  Sn  Sn32  1  0.86953798  -0.00000000  0.50000000  1
  Sn  Sn33  1  0.13046202  0.50000000  -0.00000000  1
  Sn  Sn34  1  0.13046202  -0.00000000  0.50000000  1
  Sn  Sn35  1  0.86953798  0.50000000  -0.00000000  1
  Sn  Sn36  1  0.76445730  0.32053470  0.67946530  1
  Sn  Sn37  1  0.76445730  0.67946530  0.32053470  1
  Sn  Sn38  1  0.23554270  0.67946530  0.32053470  1
  Sn  Sn39  1  0.23554270  0.32053470  0.67946530  1
  Sn  Sn40  1  0.50000000  0.03146184  0.61351347  1
  Sn  Sn41  1  0.50000000  0.96853816  0.38648653  1
  Sn  Sn42  1  0.50000000  0.61351347  0.03146184  1
  Sn  Sn43  1  0.50000000  0.38648653  0.96853816  1
  Sn  Sn44  1  0.50000000  0.12354970  0.87645030  1
  Sn  Sn45  1  0.50000000  0.87645030  0.12354970  1
  Sn  Sn46  1  0.68076509  -0.00000000  -0.00000000  1
  Sn  Sn47  1  0.31923491  -0.00000000  -0.00000000  1
  Sn  Sn48  1  0.76457820  0.81412767  0.81412767  1
  Sn  Sn49  1  0.76457820  0.18587233  0.18587233  1
  Sn  Sn50  1  0.23542180  0.81412767  0.81412767  1
  Sn  Sn51  1  0.23542180  0.18587233  0.18587233  1
  Sn  Sn52  1  0.87382321  0.66166452  0.66166452  1
  Sn  Sn53  1  0.87382321  0.33833548  0.33833548  1
  Sn  Sn54  1  0.12617679  0.66166452  0.66166452  1
  Sn  Sn55  1  0.12617679  0.33833548  0.33833548  1
  Sn  Sn56  1  0.00000000  0.50000000  0.50000000  1
  Sn  Sn57  1  0.00000000  -0.00000000  -0.00000000  1
  Sn  Sn58  1  0.00000000  0.17081995  0.82918005  1
  Sn  Sn59  1  0.00000000  0.82918005  0.17081995  1
