# generated using pymatgen
data_Pr2Co7
_symmetry_space_group_name_H-M   'P 1'
_cell_length_a   5.06443052
_cell_length_b   5.06443052
_cell_length_c   24.47908087
_cell_angle_alpha   90.00000000
_cell_angle_beta   90.00000000
_cell_angle_gamma   119.91365510
_symmetry_Int_Tables_number   1
_chemical_formula_structural   Pr2Co7
_chemical_formula_sum   'Pr8 Co28'
_cell_volume   544.20707251
_cell_formula_units_Z   4
loop_
 _symmetry_equiv_pos_site_id
 _symmetry_equiv_pos_as_xyz
  1  'x, y, z'
loop_
 _atom_site_type_symbol
 _atom_site_label
 _atom_site_symmetry_multiplicity
 _atom_site_fract_x
 _atom_site_fract_y
 _atom_site_fract_z
 _atom_site_occupancy
  Pr  Pr0  1  0.33331139  0.66668861  0.02746516  1
  Pr  Pr1  1  0.66668861  0.33331139  0.97253484  1
  Pr  Pr2  1  0.66668861  0.33331139  0.52746516  1
  Pr  Pr3  1  0.33331139  0.66668861  0.47253484  1
  Pr  Pr4  1  0.33333490  0.66666510  0.17257101  1
  Pr  Pr5  1  0.66666510  0.33333490  0.82742899  1
  Pr  Pr6  1  0.66666510  0.33333490  0.67257101  1
  Pr  Pr7  1  0.33333490  0.66666510  0.32742899  1
  Co  Co8  1  0.83433899  0.66875748  0.41144742  1
  Co  Co9  1  0.83431072  0.16568928  0.41150164  1
  Co  Co10  1  0.33124252  0.16566101  0.41144742  1
  Co  Co11  1  0.16566101  0.33124252  0.58855258  1
  Co  Co12  1  0.16568928  0.83431072  0.58849836  1
  Co  Co13  1  0.66875748  0.83433899  0.58855258  1
  Co  Co14  1  0.16566101  0.33124252  0.91144742  1
  Co  Co15  1  0.16568928  0.83431072  0.91150164  1
  Co  Co16  1  0.66875748  0.83433899  0.91144742  1
  Co  Co17  1  0.83433899  0.66875748  0.08855258  1
  Co  Co18  1  0.83431072  0.16568928  0.08849836  1
  Co  Co19  1  0.33124252  0.16566101  0.08855258  1
  Co  Co20  1  0.83419867  0.66835960  0.25000000  1
  Co  Co21  1  0.83414358  0.16585642  0.25000000  1
  Co  Co22  1  0.33164040  0.16580133  0.25000000  1
  Co  Co23  1  0.16580133  0.33164040  0.75000000  1
  Co  Co24  1  0.16585642  0.83414358  0.75000000  1
  Co  Co25  1  0.66835960  0.83419867  0.75000000  1
  Co  Co26  1  0.00000000  -0.00000000  0.50000000  1
  Co  Co27  1  0.00000000  -0.00000000  -0.00000000  1
  Co  Co28  1  0.00020874  0.99979126  0.66816762  1
  Co  Co29  1  0.99979126  0.00020874  0.33183238  1
  Co  Co30  1  0.99979126  0.00020874  0.16816762  1
  Co  Co31  1  0.00020874  0.99979126  0.83183238  1
  Co  Co32  1  0.33310356  0.66689644  0.83129365  1
  Co  Co33  1  0.66689644  0.33310356  0.16870635  1
  Co  Co34  1  0.66689644  0.33310356  0.33129365  1
  Co  Co35  1  0.33310356  0.66689644  0.66870635  1
