# generated using pymatgen
data_AgH20S6N5O9
_symmetry_space_group_name_H-M   'P 1'
_cell_length_a   10.22742378
_cell_length_b   11.09223193
_cell_length_c   16.19549092
_cell_angle_alpha   90.00000000
_cell_angle_beta   94.12461203
_cell_angle_gamma   90.00000000
_symmetry_Int_Tables_number   1
_chemical_formula_structural   AgH20S6N5O9
_chemical_formula_sum   'Ag4 H80 S24 N20 O36'
_cell_volume   1832.53812652
_cell_formula_units_Z   4
loop_
 _symmetry_equiv_pos_site_id
 _symmetry_equiv_pos_as_xyz
  1  'x, y, z'
loop_
 _atom_site_type_symbol
 _atom_site_label
 _atom_site_symmetry_multiplicity
 _atom_site_fract_x
 _atom_site_fract_y
 _atom_site_fract_z
 _atom_site_occupancy
  Ag  Ag0  1  0.16979726  0.06456384  0.54007335  1
  Ag  Ag1  1  0.83020274  0.56456384  0.95992665  1
  Ag  Ag2  1  0.83020274  0.93543616  0.45992665  1
  Ag  Ag3  1  0.16979726  0.43543616  0.04007335  1
  H  H4  1  0.12559610  0.88135266  0.77917473  1
  H  H5  1  0.87440390  0.38135266  0.72082527  1
  H  H6  1  0.87440390  0.11864734  0.22082527  1
  H  H7  1  0.12559610  0.61864734  0.27917473  1
  H  H8  1  0.11837439  0.97717267  0.86176669  1
  H  H9  1  0.88162561  0.47717267  0.63823331  1
  H  H10  1  0.88162561  0.02282733  0.13823331  1
  H  H11  1  0.11837439  0.52282733  0.36176669  1
  H  H12  1  0.02154351  0.00092524  0.77727847  1
  H  H13  1  0.97845649  0.50092524  0.72272153  1
  H  H14  1  0.97845649  0.99907476  0.22272153  1
  H  H15  1  0.02154351  0.49907476  0.27727847  1
  H  H16  1  0.99466496  0.87923166  0.83897749  1
  H  H17  1  0.00533504  0.37923166  0.66102251  1
  H  H18  1  0.00533504  0.12076834  0.16102251  1
  H  H19  1  0.99466496  0.62076834  0.33897749  1
  H  H20  1  0.48954271  0.05868934  0.80730230  1
  H  H21  1  0.51045729  0.55868934  0.69269770  1
  H  H22  1  0.51045729  0.94131066  0.19269770  1
  H  H23  1  0.48954271  0.44131066  0.30730230  1
  H  H24  1  0.61401171  0.05283602  0.88622427  1
  H  H25  1  0.38598829  0.55283602  0.61377573  1
  H  H26  1  0.38598829  0.94716398  0.11377573  1
  H  H27  1  0.61401171  0.44716398  0.38622427  1
  H  H28  1  0.64811638  0.08623075  0.78744545  1
  H  H29  1  0.35188362  0.58623075  0.71255455  1
  H  H30  1  0.35188362  0.91376925  0.21255455  1
  H  H31  1  0.64811638  0.41376925  0.28744545  1
  H  H32  1  0.56454351  0.18538746  0.84141938  1
  H  H33  1  0.43545649  0.68538746  0.65858062  1
  H  H34  1  0.43545649  0.81461254  0.15858062  1
  H  H35  1  0.56454351  0.31461254  0.34141938  1
  H  H36  1  0.49855161  0.13350820  0.60238275  1
  H  H37  1  0.50144839  0.63350820  0.89761725  1
  H  H38  1  0.50144839  0.86649180  0.39761725  1
  H  H39  1  0.49855161  0.36649180  0.10238275  1
  H  H40  1  0.52588296  0.26544435  0.65523453  1
  H  H41  1  0.47411704  0.76544435  0.84476547  1
  H  H42  1  0.47411704  0.73455565  0.34476547  1
  H  H43  1  0.52588296  0.23455565  0.15523453  1
  H  H44  1  0.64151298  0.21094093  0.59609982  1
  H  H45  1  0.35848702  0.71094093  0.90390018  1
  H  H46  1  0.35848702  0.78905907  0.40390018  1
  H  H47  1  0.64151298  0.28905907  0.09609982  1
  H  H48  1  0.49450408  0.26442256  0.55045362  1
  H  H49  1  0.50549592  0.76442256  0.94954638  1
  H  H50  1  0.50549592  0.73557744  0.44954638  1
  H  H51  1  0.49450408  0.23557744  0.05045362  1
  H  H52  1  0.18805387  0.16101924  0.32397368  1
  H  H53  1  0.81194613  0.66101924  0.17602632  1
  H  H54  1  0.81194613  0.83898076  0.67602632  1
  H  H55  1  0.18805387  0.33898076  0.82397368  1
  H  H56  1  0.30416000  0.25781789  0.36208294  1
  H  H57  1  0.69584000  0.75781789  0.13791706  1
  H  H58  1  0.69584000  0.74218211  0.63791706  1
  H  H59  1  0.30416000  0.24218211  0.86208294  1
  H  H60  1  0.33604630  0.16640086  0.28262854  1
  H  H61  1  0.66395370  0.66640086  0.21737146  1
  H  H62  1  0.66395370  0.83359914  0.71737146  1
  H  H63  1  0.33604630  0.33359914  0.78262854  1
  H  H64  1  0.23028344  0.28247075  0.26718997  1
  H  H65  1  0.76971656  0.78247075  0.23281003  1
  H  H66  1  0.76971656  0.71752925  0.73281003  1
  H  H67  1  0.23028344  0.21752925  0.76718997  1
  H  H68  1  0.98747964  0.30626343  0.44053673  1
  H  H69  1  0.01252036  0.80626343  0.05946327  1
  H  H70  1  0.01252036  0.69373657  0.55946327  1
  H  H71  1  0.98747964  0.19373657  0.94053673  1
  H  H72  1  0.87999345  0.23279685  0.49890670  1
  H  H73  1  0.12000655  0.73279685  0.00109330  1
  H  H74  1  0.12000655  0.76720315  0.50109330  1
  H  H75  1  0.87999345  0.26720315  0.99890670  1
  H  H76  1  0.83724986  0.36367871  0.45310229  1
  H  H77  1  0.16275014  0.86367871  0.04689771  1
  H  H78  1  0.16275014  0.63632129  0.54689771  1
  H  H79  1  0.83724986  0.13632129  0.95310229  1
  H  H80  1  0.85104903  0.23770185  0.39383217  1
  H  H81  1  0.14895097  0.73770185  0.10616783  1
  H  H82  1  0.14895097  0.76229815  0.60616783  1
  H  H83  1  0.85104903  0.26229815  0.89383217  1
  S  S84  1  0.05212313  0.03327711  0.39671474  1
  S  S85  1  0.94787687  0.53327711  0.10328526  1
  S  S86  1  0.94787687  0.96672289  0.60328526  1
  S  S87  1  0.05212313  0.46672289  0.89671474  1
  S  S88  1  0.18909259  0.28489073  0.59172925  1
  S  S89  1  0.81090741  0.78489073  0.90827075  1
  S  S90  1  0.81090741  0.71510927  0.40827075  1
  S  S91  1  0.18909259  0.21510927  0.09172925  1
  S  S92  1  0.38598540  0.95328411  0.58390416  1
  S  S93  1  0.61401460  0.45328411  0.91609584  1
  S  S94  1  0.61401460  0.04671589  0.41609584  1
  S  S95  1  0.38598540  0.54671589  0.08390416  1
  S  S96  1  0.13731682  0.89611278  0.33317030  1
  S  S97  1  0.86268318  0.39611278  0.16682970  1
  S  S98  1  0.86268318  0.10388722  0.66682970  1
  S  S99  1  0.13731682  0.60388722  0.83317030  1
  S  S100  1  0.24835931  0.38498511  0.49631870  1
  S  S101  1  0.75164069  0.88498511  0.00368130  1
  S  S102  1  0.75164069  0.61501489  0.50368130  1
  S  S103  1  0.24835931  0.11501489  0.99631870  1
  S  S104  1  0.35979072  0.91095237  0.70393681  1
  S  S105  1  0.64020928  0.41095237  0.79606319  1
  S  S106  1  0.64020928  0.08904763  0.29606319  1
  S  S107  1  0.35979072  0.58904763  0.20393681  1
  N  N108  1  0.06492472  0.93276363  0.81410078  1
  N  N109  1  0.93507528  0.43276363  0.68589922  1
  N  N110  1  0.93507528  0.06723637  0.18589922  1
  N  N111  1  0.06492472  0.56723637  0.31410078  1
  N  N112  1  0.57905691  0.09499619  0.83148090  1
  N  N113  1  0.42094309  0.59499619  0.66851910  1
  N  N114  1  0.42094309  0.90500381  0.16851910  1
  N  N115  1  0.57905691  0.40500381  0.33148090  1
  N  N116  1  0.54039735  0.21935786  0.60068950  1
  N  N117  1  0.45960265  0.71935786  0.89931050  1
  N  N118  1  0.45960265  0.78064214  0.39931050  1
  N  N119  1  0.54039735  0.28064214  0.10068950  1
  N  N120  1  0.26428045  0.21693792  0.30808877  1
  N  N121  1  0.73571955  0.71693792  0.19191123  1
  N  N122  1  0.73571955  0.78306208  0.69191123  1
  N  N123  1  0.26428045  0.28306208  0.80808877  1
  N  N124  1  0.88931407  0.28385864  0.44593777  1
  N  N125  1  0.11068593  0.78385864  0.05406223  1
  N  N126  1  0.11068593  0.71614136  0.55406223  1
  N  N127  1  0.88931407  0.21614136  0.94593777  1
  O  O128  1  0.03420289  0.85419532  0.27110317  1
  O  O129  1  0.96579711  0.35419532  0.22889683  1
  O  O130  1  0.96579711  0.14580468  0.72889683  1
  O  O131  1  0.03420289  0.64580468  0.77110317  1
  O  O132  1  0.25056063  0.94992779  0.29475373  1
  O  O133  1  0.74943937  0.44992779  0.20524627  1
  O  O134  1  0.74943937  0.05007221  0.70524627  1
  O  O135  1  0.25056063  0.55007221  0.79475373  1
  O  O136  1  0.18093610  0.79795081  0.39182071  1
  O  O137  1  0.81906390  0.29795081  0.10817929  1
  O  O138  1  0.81906390  0.20204919  0.60817929  1
  O  O139  1  0.18093610  0.70204919  0.89182071  1
  O  O140  1  0.14058855  0.38732952  0.42891523  1
  O  O141  1  0.85941145  0.88732952  0.07108477  1
  O  O142  1  0.85941145  0.61267048  0.57108477  1
  O  O143  1  0.14058855  0.11267048  0.92891523  1
  O  O144  1  0.27572234  0.50997132  0.52691025  1
  O  O145  1  0.72427766  0.00997132  0.97308975  1
  O  O146  1  0.72427766  0.49002868  0.47308975  1
  O  O147  1  0.27572234  0.99002868  0.02691025  1
  O  O148  1  0.36772683  0.33004630  0.46430109  1
  O  O149  1  0.63227317  0.83004630  0.03569891  1
  O  O150  1  0.63227317  0.66995370  0.53569891  1
  O  O151  1  0.36772683  0.16995370  0.96430109  1
  O  O152  1  0.47942672  0.84381017  0.73810322  1
  O  O153  1  0.52057328  0.34381017  0.76189678  1
  O  O154  1  0.52057328  0.15618983  0.26189678  1
  O  O155  1  0.47942672  0.65618983  0.23810322  1
  O  O156  1  0.34275716  0.02141296  0.75398636  1
  O  O157  1  0.65724284  0.52141296  0.74601364  1
  O  O158  1  0.65724284  0.97858704  0.24601364  1
  O  O159  1  0.34275716  0.47858704  0.25398636  1
  O  O160  1  0.24329309  0.83095964  0.70463963  1
  O  O161  1  0.75670691  0.33095964  0.79536037  1
  O  O162  1  0.75670691  0.16904036  0.29536037  1
  O  O163  1  0.24329309  0.66904036  0.20463963  1
