# generated using pymatgen
data_CaB2H10O
_symmetry_space_group_name_H-M   'P 1'
_cell_length_a   5.95846059
_cell_length_b   8.10362404
_cell_length_c   11.79592939
_cell_angle_alpha   90.00000000
_cell_angle_beta   90.00000000
_cell_angle_gamma   90.00000000
_symmetry_Int_Tables_number   1
_chemical_formula_structural   CaB2H10O
_chemical_formula_sum   'Ca4 B8 H40 O4'
_cell_volume   569.56791894
_cell_formula_units_Z   4
loop_
 _symmetry_equiv_pos_site_id
 _symmetry_equiv_pos_as_xyz
  1  'x, y, z'
loop_
 _atom_site_type_symbol
 _atom_site_label
 _atom_site_symmetry_multiplicity
 _atom_site_fract_x
 _atom_site_fract_y
 _atom_site_fract_z
 _atom_site_occupancy
  Ca  Ca0  1  0.75000000  0.15522934  0.91049466  1
  Ca  Ca1  1  0.75000000  0.65522934  0.58950534  1
  Ca  Ca2  1  0.25000000  0.84477066  0.08950534  1
  Ca  Ca3  1  0.25000000  0.34477066  0.41049466  1
  B  B4  1  0.75000000  0.43150984  0.77061857  1
  B  B5  1  0.75000000  0.93150984  0.72938143  1
  B  B6  1  0.25000000  0.56849016  0.22938143  1
  B  B7  1  0.25000000  0.06849016  0.27061857  1
  B  B8  1  0.75000000  0.37989008  0.42492081  1
  B  B9  1  0.75000000  0.87989008  0.07507919  1
  B  B10  1  0.25000000  0.62010992  0.57507919  1
  B  B11  1  0.25000000  0.12010992  0.92492081  1
  H  H12  1  0.61949885  0.37655317  0.11251074  1
  H  H13  1  0.88050115  0.87655317  0.38748926  1
  H  H14  1  0.11949885  0.62344683  0.88748926  1
  H  H15  1  0.38050115  0.12344683  0.61251074  1
  H  H16  1  0.38050115  0.62344683  0.88748926  1
  H  H17  1  0.11949885  0.12344683  0.61251074  1
  H  H18  1  0.88050115  0.37655317  0.11251074  1
  H  H19  1  0.61949885  0.87655317  0.38748926  1
  H  H20  1  0.57820815  0.37305830  0.81172247  1
  H  H21  1  0.92179185  0.87305830  0.68827753  1
  H  H22  1  0.07820815  0.62694170  0.18827753  1
  H  H23  1  0.42179185  0.12694170  0.31172247  1
  H  H24  1  0.42179185  0.62694170  0.18827753  1
  H  H25  1  0.07820815  0.12694170  0.31172247  1
  H  H26  1  0.92179185  0.37305830  0.81172247  1
  H  H27  1  0.57820815  0.87305830  0.68827753  1
  H  H28  1  0.75000000  0.39650132  0.66966091  1
  H  H29  1  0.75000000  0.89650132  0.83033909  1
  H  H30  1  0.25000000  0.60349868  0.33033909  1
  H  H31  1  0.25000000  0.10349868  0.16966091  1
  H  H32  1  0.75000000  0.58116758  0.78801798  1
  H  H33  1  0.75000000  0.08116758  0.71198202  1
  H  H34  1  0.25000000  0.41883242  0.21198202  1
  H  H35  1  0.25000000  0.91883242  0.28801798  1
  H  H36  1  0.59285637  0.34005997  0.48615821  1
  H  H37  1  0.90714363  0.84005997  0.01384179  1
  H  H38  1  0.09285637  0.65994003  0.51384179  1
  H  H39  1  0.40714363  0.15994003  0.98615821  1
  H  H40  1  0.40714363  0.65994003  0.51384179  1
  H  H41  1  0.09285637  0.15994003  0.98615821  1
  H  H42  1  0.90714363  0.34005997  0.48615821  1
  H  H43  1  0.59285637  0.84005997  0.01384179  1
  H  H44  1  0.75000000  0.52858533  0.40629836  1
  H  H45  1  0.75000000  0.02858533  0.09370164  1
  H  H46  1  0.25000000  0.47141467  0.59370164  1
  H  H47  1  0.25000000  0.97141467  0.90629836  1
  H  H48  1  0.75000000  0.30517646  0.33556852  1
  H  H49  1  0.75000000  0.80517646  0.16443148  1
  H  H50  1  0.25000000  0.69482354  0.66443148  1
  H  H51  1  0.25000000  0.19482354  0.83556852  1
  O  O52  1  0.75000000  0.35233058  0.06522576  1
  O  O53  1  0.75000000  0.85233058  0.43477424  1
  O  O54  1  0.25000000  0.64766942  0.93477424  1
  O  O55  1  0.25000000  0.14766942  0.56522576  1
