# generated using pymatgen
data_UAgTeO7
_symmetry_space_group_name_H-M   'P 1'
_cell_length_a   7.25193169
_cell_length_b   12.37818283
_cell_length_c   14.25355349
_cell_angle_alpha   90.00000000
_cell_angle_beta   90.00000000
_cell_angle_gamma   90.00000000
_symmetry_Int_Tables_number   1
_chemical_formula_structural   UAgTeO7
_chemical_formula_sum   'U8 Ag8 Te8 O56'
_cell_volume   1279.48072434
_cell_formula_units_Z   8
loop_
 _symmetry_equiv_pos_site_id
 _symmetry_equiv_pos_as_xyz
  1  'x, y, z'
loop_
 _atom_site_type_symbol
 _atom_site_label
 _atom_site_symmetry_multiplicity
 _atom_site_fract_x
 _atom_site_fract_y
 _atom_site_fract_z
 _atom_site_occupancy
  U  U0  1  0.63956410  0.00242547  0.18183243  1
  U  U1  1  0.13956410  0.49757453  0.81816757  1
  U  U2  1  0.36043590  0.50242547  0.31816757  1
  U  U3  1  0.86043590  0.99757453  0.68183243  1
  U  U4  1  0.36043590  0.99757453  0.81816757  1
  U  U5  1  0.86043590  0.50242547  0.18183243  1
  U  U6  1  0.63956410  0.49757453  0.68183243  1
  U  U7  1  0.13956410  0.00242547  0.31816757  1
  Ag  Ag8  1  0.40321511  0.73671039  0.49683822  1
  Ag  Ag9  1  0.90321511  0.76328961  0.50316178  1
  Ag  Ag10  1  0.59678489  0.23671039  0.00316178  1
  Ag  Ag11  1  0.09678489  0.26328961  -0.00316178  1
  Ag  Ag12  1  0.59678489  0.26328961  0.50316178  1
  Ag  Ag13  1  0.09678489  0.23671039  0.49683822  1
  Ag  Ag14  1  0.40321511  0.76328961  -0.00316178  1
  Ag  Ag15  1  0.90321511  0.73671039  0.00316178  1
  Te  Te16  1  0.64227661  0.94834772  0.42695344  1
  Te  Te17  1  0.14227661  0.55165228  0.57304656  1
  Te  Te18  1  0.35772339  0.44834772  0.07304656  1
  Te  Te19  1  0.85772339  0.05165228  0.92695344  1
  Te  Te20  1  0.35772339  0.05165228  0.57304656  1
  Te  Te21  1  0.85772339  0.44834772  0.42695344  1
  Te  Te22  1  0.64227661  0.55165228  0.92695344  1
  Te  Te23  1  0.14227661  0.94834772  0.07304656  1
  O  O24  1  0.81744128  0.00094901  0.33871233  1
  O  O25  1  0.31744128  0.49905099  0.66128767  1
  O  O26  1  0.18255872  0.50094901  0.16128767  1
  O  O27  1  0.68255872  0.99905099  0.83871233  1
  O  O28  1  0.18255872  0.99905099  0.66128767  1
  O  O29  1  0.68255872  0.50094901  0.33871233  1
  O  O30  1  0.81744128  0.49905099  0.83871233  1
  O  O31  1  0.31744128  0.00094901  0.16128767  1
  O  O32  1  0.63993618  0.14469149  0.20713748  1
  O  O33  1  0.13993618  0.35530851  0.79286252  1
  O  O34  1  0.36006382  0.64469149  0.29286252  1
  O  O35  1  0.86006382  0.85530851  0.70713748  1
  O  O36  1  0.36006382  0.85530851  0.79286252  1
  O  O37  1  0.86006382  0.64469149  0.20713748  1
  O  O38  1  0.63993618  0.35530851  0.70713748  1
  O  O39  1  0.13993618  0.14469149  0.29286252  1
  O  O40  1  0.57199988  0.08982025  0.48553673  1
  O  O41  1  0.07199988  0.41017975  0.51446327  1
  O  O42  1  0.42800012  0.58982025  0.01446327  1
  O  O43  1  0.92800012  0.91017975  0.98553673  1
  O  O44  1  0.42800012  0.91017975  0.51446327  1
  O  O45  1  0.92800012  0.58982025  0.48553673  1
  O  O46  1  0.57199988  0.41017975  0.98553673  1
  O  O47  1  0.07199988  0.08982025  0.01446327  1
  O  O48  1  0.62634664  0.86224549  0.14560430  1
  O  O49  1  0.12634664  0.63775451  0.85439570  1
  O  O50  1  0.37365336  0.36224549  0.35439570  1
  O  O51  1  0.87365336  0.13775451  0.64560430  1
  O  O52  1  0.37365336  0.13775451  0.85439570  1
  O  O53  1  0.87365336  0.36224549  0.14560430  1
  O  O54  1  0.62634664  0.63775451  0.64560430  1
  O  O55  1  0.12634664  0.86224549  0.35439570  1
  O  O56  1  0.82596477  0.93391125  0.52650933  1
  O  O57  1  0.32596477  0.56608875  0.47349067  1
  O  O58  1  0.17403523  0.43391125  0.97349067  1
  O  O59  1  0.67403523  0.06608875  0.02650933  1
  O  O60  1  0.17403523  0.06608875  0.47349067  1
  O  O61  1  0.67403523  0.43391125  0.52650933  1
  O  O62  1  0.82596477  0.56608875  0.02650933  1
  O  O63  1  0.32596477  0.93391125  0.97349067  1
  O  O64  1  0.46950442  0.97014721  0.32651036  1
  O  O65  1  0.96950442  0.52985279  0.67348964  1
  O  O66  1  0.53049558  0.47014721  0.17348964  1
  O  O67  1  0.03049558  0.02985279  0.82651036  1
  O  O68  1  0.53049558  0.02985279  0.67348964  1
  O  O69  1  0.03049558  0.47014721  0.32651036  1
  O  O70  1  0.46950442  0.52985279  0.82651036  1
  O  O71  1  0.96950442  0.97014721  0.17348964  1
  O  O72  1  0.65843375  0.79101413  0.41804898  1
  O  O73  1  0.15843375  0.70898587  0.58195102  1
  O  O74  1  0.34156625  0.29101413  0.08195102  1
  O  O75  1  0.84156625  0.20898587  0.91804898  1
  O  O76  1  0.34156625  0.20898587  0.58195102  1
  O  O77  1  0.84156625  0.29101413  0.41804898  1
  O  O78  1  0.65843375  0.70898587  0.91804898  1
  O  O79  1  0.15843375  0.79101413  0.08195102  1
