# generated using pymatgen
data_Y5Si4
_symmetry_space_group_name_H-M   'P 1'
_cell_length_a   7.48039784
_cell_length_b   7.67358114
_cell_length_c   14.67189630
_cell_angle_alpha   90.00000000
_cell_angle_beta   93.34652244
_cell_angle_gamma   90.00000000
_symmetry_Int_Tables_number   1
_chemical_formula_structural   Y5Si4
_chemical_formula_sum   'Y20 Si16'
_cell_volume   840.75182882
_cell_formula_units_Z   4
loop_
 _symmetry_equiv_pos_site_id
 _symmetry_equiv_pos_as_xyz
  1  'x, y, z'
loop_
 _atom_site_type_symbol
 _atom_site_label
 _atom_site_symmetry_multiplicity
 _atom_site_fract_x
 _atom_site_fract_y
 _atom_site_fract_z
 _atom_site_occupancy
  Y  Y0  1  0.00401613  0.81986298  0.40142728  1
  Y  Y1  1  0.49598387  0.31986298  0.59857272  1
  Y  Y2  1  0.99598387  0.18013702  0.59857272  1
  Y  Y3  1  0.50401613  0.68013702  0.40142728  1
  Y  Y4  1  0.02028086  0.18227735  0.90063610  1
  Y  Y5  1  0.47971914  0.68227735  0.09936390  1
  Y  Y6  1  0.97971914  0.81772265  0.09936390  1
  Y  Y7  1  0.52028086  0.31772265  0.90063610  1
  Y  Y8  1  0.17228862  0.67825326  0.87805600  1
  Y  Y9  1  0.32771138  0.17825326  0.12194400  1
  Y  Y10  1  0.82771138  0.32174674  0.12194400  1
  Y  Y11  1  0.67228862  0.82174674  0.87805600  1
  Y  Y12  1  0.14552314  0.66527424  0.61975658  1
  Y  Y13  1  0.35447686  0.16527424  0.38024342  1
  Y  Y14  1  0.85447686  0.33472576  0.38024342  1
  Y  Y15  1  0.64552314  0.83472576  0.61975658  1
  Y  Y16  1  0.32660292  0.00641414  0.74656485  1
  Y  Y17  1  0.17339708  0.50641414  0.25343515  1
  Y  Y18  1  0.67339708  0.99358586  0.25343515  1
  Y  Y19  1  0.82660292  0.49358586  0.74656485  1
  Si  Si20  1  0.35246849  0.97185130  0.95925489  1
  Si  Si21  1  0.14753151  0.47185130  0.04074511  1
  Si  Si22  1  0.64753151  0.02814870  0.04074511  1
  Si  Si23  1  0.85246849  0.52814870  0.95925489  1
  Si  Si24  1  0.29707460  0.96533605  0.54262080  1
  Si  Si25  1  0.20292540  0.46533605  0.45737920  1
  Si  Si26  1  0.70292540  0.03466395  0.45737920  1
  Si  Si27  1  0.79707460  0.53466395  0.54262080  1
  Si  Si28  1  0.45357843  0.60781855  0.75195181  1
  Si  Si29  1  0.04642157  0.10781855  0.24804819  1
  Si  Si30  1  0.54642157  0.39218145  0.24804819  1
  Si  Si31  1  0.95357843  0.89218145  0.75195181  1
  Si  Si32  1  0.28792838  0.87131628  0.24799775  1
  Si  Si33  1  0.21207162  0.37131628  0.75200225  1
  Si  Si34  1  0.71207162  0.12868372  0.75200225  1
  Si  Si35  1  0.78792838  0.62868372  0.24799775  1
