# generated using pymatgen
data_TmZn5
_symmetry_space_group_name_H-M   'P 1'
_cell_length_a   8.89588515
_cell_length_b   8.89588515
_cell_length_c   8.98395330
_cell_angle_alpha   90.00000000
_cell_angle_beta   90.00000000
_cell_angle_gamma   120.02514803
_symmetry_Int_Tables_number   1
_chemical_formula_structural   TmZn5
_chemical_formula_sum   'Tm6 Zn30'
_cell_volume   615.55426181
_cell_formula_units_Z   6
loop_
 _symmetry_equiv_pos_site_id
 _symmetry_equiv_pos_as_xyz
  1  'x, y, z'
loop_
 _atom_site_type_symbol
 _atom_site_label
 _atom_site_symmetry_multiplicity
 _atom_site_fract_x
 _atom_site_fract_y
 _atom_site_fract_z
 _atom_site_occupancy
  Tm  Tm0  1  0.80660149  0.61318413  0.75000000  1
  Tm  Tm1  1  0.80654034  0.19345966  0.75000000  1
  Tm  Tm2  1  0.38681587  0.19339851  0.75000000  1
  Tm  Tm3  1  0.19339851  0.38681587  0.25000000  1
  Tm  Tm4  1  0.19345966  0.80654034  0.25000000  1
  Tm  Tm5  1  0.61318413  0.80660149  0.25000000  1
  Zn  Zn6  1  0.00000000  0.00000000  0.50000000  1
  Zn  Zn7  1  0.00000000  0.00000000  0.00000000  1
  Zn  Zn8  1  0.66666700  0.33333300  0.51567150  1
  Zn  Zn9  1  0.33333300  0.66666700  0.48432850  1
  Zn  Zn10  1  0.33333300  0.66666700  0.01567150  1
  Zn  Zn11  1  0.66666700  0.33333300  0.98432850  1
  Zn  Zn12  1  0.50000000  0.00000000  0.50000000  1
  Zn  Zn13  1  0.50000000  0.50000000  0.50000000  1
  Zn  Zn14  1  0.00000000  0.50000000  0.50000000  1
  Zn  Zn15  1  0.50000000  0.00000000  0.00000000  1
  Zn  Zn16  1  0.50000000  0.50000000  0.00000000  1
  Zn  Zn17  1  0.00000000  0.50000000  -0.00000000  1
  Zn  Zn18  1  0.43254003  0.86503645  0.75000000  1
  Zn  Zn19  1  0.43251858  0.56748142  0.75000000  1
  Zn  Zn20  1  0.13496355  0.56745997  0.75000000  1
  Zn  Zn21  1  0.56745997  0.13496355  0.25000000  1
  Zn  Zn22  1  0.56748142  0.43251858  0.25000000  1
  Zn  Zn23  1  0.86503645  0.43254003  0.25000000  1
  Zn  Zn24  1  0.15913406  0.31835094  0.59128586  1
  Zn  Zn25  1  0.15917311  0.84082689  0.59124641  1
  Zn  Zn26  1  0.68164906  0.84086594  0.59128586  1
  Zn  Zn27  1  0.84086594  0.68164906  0.40871414  1
  Zn  Zn28  1  0.84082689  0.15917311  0.40875359  1
  Zn  Zn29  1  0.31835094  0.15913406  0.40871414  1
  Zn  Zn30  1  0.84086594  0.68164906  0.09128586  1
  Zn  Zn31  1  0.84082689  0.15917311  0.09124641  1
  Zn  Zn32  1  0.31835094  0.15913406  0.09128586  1
  Zn  Zn33  1  0.15913406  0.31835094  0.90871414  1
  Zn  Zn34  1  0.15917311  0.84082689  0.90875359  1
  Zn  Zn35  1  0.68164906  0.84086594  0.90871414  1
