# generated using pymatgen
data_Cd3(BO2)7
_symmetry_space_group_name_H-M   'P 1'
_cell_length_a   8.86746408
_cell_length_b   8.86746408
_cell_length_c   8.86746430
_cell_angle_alpha   60.41886111
_cell_angle_beta   60.41886111
_cell_angle_gamma   60.41885725
_symmetry_Int_Tables_number   1
_chemical_formula_structural   Cd3(BO2)7
_chemical_formula_sum   'Cd6 B14 O28'
_cell_volume   497.71101900
_cell_formula_units_Z   2
loop_
 _symmetry_equiv_pos_site_id
 _symmetry_equiv_pos_as_xyz
  1  'x, y, z'
loop_
 _atom_site_type_symbol
 _atom_site_label
 _atom_site_symmetry_multiplicity
 _atom_site_fract_x
 _atom_site_fract_y
 _atom_site_fract_z
 _atom_site_occupancy
  Cd  Cd0  1  0.95561747  0.95149534  0.54605755  1
  Cd  Cd1  1  0.95149534  0.54605755  0.95561747  1
  Cd  Cd2  1  0.54605755  0.95561747  0.95149534  1
  Cd  Cd3  1  0.45561747  0.04605755  0.45149534  1
  Cd  Cd4  1  0.04605755  0.45149534  0.45561747  1
  Cd  Cd5  1  0.45149534  0.45561747  0.04605755  1
  B  B6  1  0.25446932  0.74608703  0.75021373  1
  B  B7  1  0.74608703  0.75021373  0.25446932  1
  B  B8  1  0.75021373  0.25446932  0.74608703  1
  B  B9  1  0.75446932  0.25021373  0.24608703  1
  B  B10  1  0.25021373  0.24608703  0.75446932  1
  B  B11  1  0.24608703  0.75446932  0.25021373  1
  B  B12  1  0.27068440  0.57107765  0.57129027  1
  B  B13  1  0.57107765  0.57129027  0.27068440  1
  B  B14  1  0.57129027  0.27068440  0.57107765  1
  B  B15  1  0.77068440  0.07129027  0.07107765  1
  B  B16  1  0.07129027  0.07107765  0.77068440  1
  B  B17  1  0.07107765  0.77068440  0.07129027  1
  B  B18  1  0.60323205  0.60323205  0.60323205  1
  B  B19  1  0.10323205  0.10323205  0.10323205  1
  O  O20  1  0.78320284  0.78320284  0.78320284  1
  O  O21  1  0.28320284  0.28320284  0.28320284  1
  O  O22  1  0.48563403  0.48563403  0.48563403  1
  O  O23  1  0.98563403  0.98563403  0.98563403  1
  O  O24  1  0.75451771  0.44588970  0.61829911  1
  O  O25  1  0.44588970  0.61829911  0.75451771  1
  O  O26  1  0.61829911  0.75451771  0.44588970  1
  O  O27  1  0.25451771  0.11829911  0.94588970  1
  O  O28  1  0.11829911  0.94588970  0.25451771  1
  O  O29  1  0.94588970  0.25451771  0.11829911  1
  O  O30  1  0.43353649  0.74066612  0.20625870  1
  O  O31  1  0.74066612  0.20625870  0.43353649  1
  O  O32  1  0.20625870  0.43353649  0.74066612  1
  O  O33  1  0.93353649  0.70625870  0.24066612  1
  O  O34  1  0.70625870  0.24066612  0.93353649  1
  O  O35  1  0.24066612  0.93353649  0.70625870  1
  O  O36  1  0.18728083  0.62416001  0.43586326  1
  O  O37  1  0.62416001  0.43586326  0.18728083  1
  O  O38  1  0.43586326  0.18728083  0.62416001  1
  O  O39  1  0.68728083  0.93586326  0.12416001  1
  O  O40  1  0.93586326  0.12416001  0.68728083  1
  O  O41  1  0.12416001  0.68728083  0.93586326  1
  O  O42  1  0.60885227  0.22073140  0.73628270  1
  O  O43  1  0.22073140  0.73628270  0.60885227  1
  O  O44  1  0.73628270  0.60885227  0.22073140  1
  O  O45  1  0.10885227  0.23628270  0.72073140  1
  O  O46  1  0.23628270  0.72073140  0.10885227  1
  O  O47  1  0.72073140  0.10885227  0.23628270  1
