# generated using pymatgen
data_Sr2CoCuSO3
_symmetry_space_group_name_H-M   'P 1'
_cell_length_a   3.89527441
_cell_length_b   3.90093358
_cell_length_c   16.01504541
_cell_angle_alpha   89.96382825
_cell_angle_beta   89.92292323
_cell_angle_gamma   89.84377614
_symmetry_Int_Tables_number   1
_chemical_formula_structural   Sr2CoCuSO3
_chemical_formula_sum   'Sr4 Co2 Cu2 S2 O6'
_cell_volume   243.35075342
_cell_formula_units_Z   2
loop_
 _symmetry_equiv_pos_site_id
 _symmetry_equiv_pos_as_xyz
  1  'x, y, z'
loop_
 _atom_site_type_symbol
 _atom_site_label
 _atom_site_symmetry_multiplicity
 _atom_site_fract_x
 _atom_site_fract_y
 _atom_site_fract_z
 _atom_site_occupancy
  Sr  Sr0  1  0.75005385  0.75015205  0.19048056  1
  Sr  Sr1  1  0.25066882  0.25072908  0.80927892  1
  Sr  Sr2  1  0.74954704  0.74981365  0.41390270  1
  Sr  Sr3  1  0.24599944  0.24470480  0.58974030  1
  Co  Co4  1  0.24865105  0.25039914  0.31600161  1
  Co  Co5  1  0.74979273  0.74951285  0.69136826  1
  Cu  Cu6  1  0.75016749  0.25001849  0.99983600  1
  Cu  Cu7  1  0.24992686  0.75007405  0.99953846  1
  S  S8  1  0.24993922  0.25001869  0.08720125  1
  S  S9  1  0.75034475  0.75025769  0.91333211  1
  O  O10  1  0.75010267  0.24980432  0.28844593  1
  O  O11  1  0.25021343  0.74991675  0.28907876  1
  O  O12  1  0.25153097  0.75041555  0.71098835  1
  O  O13  1  0.75049582  0.25168628  0.71039732  1
  O  O14  1  0.25061963  0.24945375  0.42847694  1
  O  O15  1  0.75194722  0.75304285  0.56193251  1
