# generated using pymatgen
data_LaZnCrBiO6
_symmetry_space_group_name_H-M   'P 1'
_cell_length_a   5.65460763
_cell_length_b   6.54227016
_cell_length_c   7.67421932
_cell_angle_alpha   90.00000000
_cell_angle_beta   93.76616721
_cell_angle_gamma   90.00000000
_symmetry_Int_Tables_number   1
_chemical_formula_structural   LaZnCrBiO6
_chemical_formula_sum   'La2 Zn2 Cr2 Bi2 O12'
_cell_volume   283.28674312
_cell_formula_units_Z   2
loop_
 _symmetry_equiv_pos_site_id
 _symmetry_equiv_pos_as_xyz
  1  'x, y, z'
loop_
 _atom_site_type_symbol
 _atom_site_label
 _atom_site_symmetry_multiplicity
 _atom_site_fract_x
 _atom_site_fract_y
 _atom_site_fract_z
 _atom_site_occupancy
  La  La0  1  0.02734844  0.89694531  0.74485433  1
  La  La1  1  0.52734844  0.60305469  0.24485433  1
  Zn  Zn2  1  0.52221146  0.61294056  0.77060667  1
  Zn  Zn3  1  0.02221146  0.88705944  0.27060667  1
  Cr  Cr4  1  0.51505002  0.03412940  0.48936928  1
  Cr  Cr5  1  0.01505002  0.46587060  0.98936928  1
  Bi  Bi6  1  0.53099915  0.07716321  0.00658424  1
  Bi  Bi7  1  0.03099915  0.42283679  0.50658424  1
  O  O8  1  0.10562076  0.51530905  0.22787288  1
  O  O9  1  0.12700048  0.22895536  0.92508692  1
  O  O10  1  0.20780417  0.13564006  0.55534563  1
  O  O11  1  0.28979521  0.66201385  0.94562492  1
  O  O12  1  0.31507328  0.65361674  0.55812910  1
  O  O13  1  0.35909403  0.94212294  0.27652703  1
  O  O14  1  0.60562076  0.98469095  0.72787288  1
  O  O15  1  0.62700048  0.27104464  0.42508692  1
  O  O16  1  0.70780417  0.36435994  0.05534563  1
  O  O17  1  0.78979521  0.83798615  0.44562492  1
  O  O18  1  0.81507328  0.84638326  0.05812910  1
  O  O19  1  0.85909403  0.55787706  0.77652703  1
