# generated using pymatgen
data_K3Pt2(SO4)6
_symmetry_space_group_name_H-M   'P 1'
_cell_length_a   9.82271912
_cell_length_b   10.46763844
_cell_length_c   12.89974707
_cell_angle_alpha   105.13605548
_cell_angle_beta   90.00000000
_cell_angle_gamma   117.98202715
_symmetry_Int_Tables_number   1
_chemical_formula_structural   K3Pt2(SO4)6
_chemical_formula_sum   'K6 Pt4 S12 O48'
_cell_volume   1118.93044240
_cell_formula_units_Z   2
loop_
 _symmetry_equiv_pos_site_id
 _symmetry_equiv_pos_as_xyz
  1  'x, y, z'
loop_
 _atom_site_type_symbol
 _atom_site_label
 _atom_site_symmetry_multiplicity
 _atom_site_fract_x
 _atom_site_fract_y
 _atom_site_fract_z
 _atom_site_occupancy
  K  K0  1  0.89191838  0.34581724  0.08964888  1
  K  K1  1  0.54610114  0.65418276  0.41035112  1
  K  K2  1  0.10808162  0.65418276  0.91035112  1
  K  K3  1  0.45389886  0.34581724  0.58964888  1
  K  K4  1  0.30482200  0.00000000  0.75000000  1
  K  K5  1  0.69517800  1.00000000  0.25000000  1
  Pt  Pt6  1  0.05778005  0.60784009  0.45858950  1
  Pt  Pt7  1  0.44993997  0.39215991  0.04141050  1
  Pt  Pt8  1  0.94221995  0.39215991  0.54141050  1
  Pt  Pt9  1  0.55006003  0.60784009  0.95858950  1
  S  S10  1  0.23031756  0.95234567  0.41959920  1
  S  S11  1  0.27797189  0.04765433  0.08040080  1
  S  S12  1  0.76968244  0.04765433  0.58040080  1
  S  S13  1  0.72202811  0.95234567  0.91959920  1
  S  S14  1  0.70649555  0.37931549  0.37093599  1
  S  S15  1  0.32718006  0.62068451  0.12906401  1
  S  S16  1  0.29350445  0.62068451  0.62906401  1
  S  S17  1  0.67281994  0.37931549  0.87093599  1
  S  S18  1  0.91167699  0.67448830  0.66672977  1
  S  S19  1  0.23718869  0.32551170  0.83327023  1
  S  S20  1  0.08832301  0.32551170  0.33327023  1
  S  S21  1  0.76281131  0.67448830  0.16672977  1
  O  O22  1  0.28931639  0.01133206  0.53600454  1
  O  O23  1  0.27798432  0.98866794  0.96399546  1
  O  O24  1  0.71068361  0.98866794  0.46399546  1
  O  O25  1  0.72201568  0.01133206  0.03600454  1
  O  O26  1  0.36006365  0.01746484  0.35703633  1
  O  O27  1  0.34259882  0.98253516  0.14296367  1
  O  O28  1  0.63993635  0.98253516  0.64296367  1
  O  O29  1  0.65740118  0.01746484  0.85703633  1
  O  O30  1  0.11797151  0.99896670  0.39103016  1
  O  O31  1  0.11900482  0.00103330  0.10896983  1
  O  O32  1  0.88202849  0.00103330  0.60896984  1
  O  O33  1  0.88099518  0.99896670  0.89103017  1
  O  O34  1  0.15848545  0.78170087  0.37792578  1
  O  O35  1  0.37678459  0.21829913  0.12207422  1
  O  O36  1  0.84151455  0.21829913  0.62207422  1
  O  O37  1  0.62321541  0.78170087  0.87792578  1
  O  O38  1  0.84209395  0.54392770  0.38870922  1
  O  O39  1  0.29816625  0.45607230  0.11129078  1
  O  O40  1  0.15790605  0.45607230  0.61129078  1
  O  O41  1  0.70183375  0.54392770  0.88870922  1
  O  O42  1  0.72710285  0.32824167  0.47118783  1
  O  O43  1  0.39886117  0.67175833  0.02881217  1
  O  O44  1  0.27289715  0.67175833  0.52881217  1
  O  O45  1  0.60113883  0.32824167  0.97118783  1
  O  O46  1  0.56396930  0.38781973  0.37696333  1
  O  O47  1  0.17614957  0.61218027  0.12303667  1
  O  O48  1  0.43603070  0.61218027  0.62303667  1
  O  O49  1  0.82385043  0.38781973  0.87696333  1
  O  O50  1  0.71709043  0.28048431  0.27282486  1
  O  O51  1  0.43660612  0.71951569  0.22717514  1
  O  O52  1  0.28290957  0.71951569  0.72717514  1
  O  O53  1  0.56339388  0.28048431  0.77282486  1
  O  O54  1  0.91941477  0.53027270  0.67441850  1
  O  O55  1  0.38914207  0.46972730  0.82558150  1
  O  O56  1  0.08058523  0.46972730  0.32558150  1
  O  O57  1  0.61085793  0.53027270  0.17441850  1
  O  O58  1  0.03247235  0.74428497  0.59065852  1
  O  O59  1  0.28818738  0.25571503  0.90934148  1
  O  O60  1  0.96752765  0.25571503  0.40934148  1
  O  O61  1  0.71181262  0.74428497  0.09065852  1
  O  O62  1  0.97313085  0.78204003  0.77312038  1
  O  O63  1  0.19109082  0.21795997  0.72687962  1
  O  O64  1  0.02686915  0.21795997  0.22687962  1
  O  O65  1  0.80890918  0.78204003  0.27312038  1
  O  O66  1  0.75646028  0.62788494  0.61856432  1
  O  O67  1  0.12857533  0.37211506  0.88143568  1
  O  O68  1  0.24353972  0.37211506  0.38143568  1
  O  O69  1  0.87142467  0.62788494  0.11856432  1
