# generated using pymatgen
data_Al6CuP4(H4O7)4
_symmetry_space_group_name_H-M   'P 1'
_cell_length_a   7.50042791
_cell_length_b   7.71579037
_cell_length_c   10.03399898
_cell_angle_alpha   68.88105107
_cell_angle_beta   69.39619222
_cell_angle_gamma   65.52727520
_symmetry_Int_Tables_number   1
_chemical_formula_structural   Al6CuP4(H4O7)4
_chemical_formula_sum   'Al6 Cu1 P4 H16 O28'
_cell_volume   478.76852885
_cell_formula_units_Z   1
loop_
 _symmetry_equiv_pos_site_id
 _symmetry_equiv_pos_as_xyz
  1  'x, y, z'
loop_
 _atom_site_type_symbol
 _atom_site_label
 _atom_site_symmetry_multiplicity
 _atom_site_fract_x
 _atom_site_fract_y
 _atom_site_fract_z
 _atom_site_occupancy
  Al  Al0  1  0.71697169  0.82169223  0.24744519  1
  Al  Al1  1  0.28302831  0.17830777  0.75255481  1
  Al  Al2  1  0.25007016  0.81336284  0.72668169  1
  Al  Al3  1  0.74992984  0.18663716  0.27331831  1
  Al  Al4  1  0.75484660  0.49875411  0.75523388  1
  Al  Al5  1  0.24515340  0.50124589  0.24476612  1
  Cu  Cu6  1  0.00000000  0.00000000  0.00000000  1
  P  P7  1  0.65052290  0.61000098  0.05819001  1
  P  P8  1  0.34947710  0.38999902  0.94180999  1
  P  P9  1  0.15991315  0.60994704  0.54400345  1
  P  P10  1  0.84008685  0.39005296  0.45599655  1
  H  H11  1  0.13704272  0.94940309  0.25185004  1
  H  H12  1  0.86295728  0.05059691  0.74814996  1
  H  H13  1  0.86255325  0.83132454  0.83376257  1
  H  H14  1  0.13744675  0.16867546  0.16623743  1
  H  H15  1  0.35498979  0.87291214  0.40765101  1
  H  H16  1  0.64501021  0.12708786  0.59234899  1
  H  H17  1  0.60223644  0.92122516  0.67701166  1
  H  H18  1  0.39776356  0.07877484  0.32298834  1
  H  H19  1  0.84635923  0.84112905  0.43939695  1
  H  H20  1  0.15364077  0.15887095  0.56060305  1
  H  H21  1  0.34776561  0.82443547  0.95057200  1
  H  H22  1  0.65223439  0.17556453  0.04942800  1
  H  H23  1  0.02137488  0.65737572  0.08344853  1
  H  H24  1  0.97862512  0.34262428  0.91655147  1
  H  H25  1  0.58139685  0.71706205  0.56940982  1
  H  H26  1  0.41860315  0.28293795  0.43059018  1
  O  O27  1  0.93510120  0.63711340  0.61852849  1
  O  O28  1  0.06489880  0.36288660  0.38147151  1
  O  O29  1  0.19417403  0.65248878  0.37544083  1
  O  O30  1  0.80582597  0.34751122  0.62455917  1
  O  O31  1  0.72747401  0.64052995  0.88871516  1
  O  O32  1  0.27252599  0.35947005  0.11128484  1
  O  O33  1  0.94071301  0.92204814  0.80218697  1
  O  O34  1  0.05928699  0.07795186  0.19781303  1
  O  O35  1  0.76347847  0.92853563  0.36956577  1
  O  O36  1  0.23652153  0.07146437  0.63043423  1
  O  O37  1  0.26659640  0.91869650  0.87796958  1
  O  O38  1  0.73340360  0.08130350  0.12203042  1
  O  O39  1  0.70480299  0.59910730  0.39499007  1
  O  O40  1  0.29519701  0.40089270  0.60500993  1
  O  O41  1  0.68208613  0.76923062  0.09587759  1
  O  O42  1  0.31791387  0.23076938  0.90412241  1
  O  O43  1  0.01504433  0.72076368  0.15502327  1
  O  O44  1  0.98495567  0.27923632  0.84497673  1
  O  O45  1  0.42699146  0.94546305  0.31338864  1
  O  O46  1  0.57300854  0.05453695  0.68661136  1
  O  O47  1  0.21917450  0.59461124  0.86874331  1
  O  O48  1  0.78082550  0.40538876  0.13125669  1
  O  O49  1  0.53931610  0.71226953  0.67490697  1
  O  O50  1  0.46068390  0.28773047  0.32509303  1
  O  O51  1  0.22168243  0.76503048  0.56701438  1
  O  O52  1  0.77831757  0.23496952  0.43298562  1
  O  O53  1  0.42342530  0.63412976  0.10273581  1
  O  O54  1  0.57657470  0.36587024  0.89726419  1
