# generated using pymatgen
data_Tm11Cd45
_symmetry_space_group_name_H-M   'P 1'
_cell_length_a   15.38242340
_cell_length_b   15.38242340
_cell_length_c   15.38242340
_cell_angle_alpha   60.00000000
_cell_angle_beta   60.00000000
_cell_angle_gamma   60.00000000
_symmetry_Int_Tables_number   1
_chemical_formula_structural   Tm11Cd45
_chemical_formula_sum   'Tm22 Cd90'
_cell_volume   2573.70807897
_cell_formula_units_Z   2
loop_
 _symmetry_equiv_pos_site_id
 _symmetry_equiv_pos_as_xyz
  1  'x, y, z'
loop_
 _atom_site_type_symbol
 _atom_site_label
 _atom_site_symmetry_multiplicity
 _atom_site_fract_x
 _atom_site_fract_y
 _atom_site_fract_z
 _atom_site_occupancy
  Tm  Tm0  1  0.00000000  0.00000000  0.00000000  1
  Tm  Tm1  1  0.36119833  0.66620931  0.98629618  1
  Tm  Tm2  1  0.36119833  0.98629618  0.98629618  1
  Tm  Tm3  1  0.36119833  0.98629618  0.66620931  1
  Tm  Tm4  1  0.66620931  0.36119833  0.98629618  1
  Tm  Tm5  1  0.98629618  0.36119833  0.66620931  1
  Tm  Tm6  1  0.98629618  0.36119833  0.98629618  1
  Tm  Tm7  1  0.98629618  0.98629618  0.36119833  1
  Tm  Tm8  1  0.98629618  0.66620931  0.36119833  1
  Tm  Tm9  1  0.66620931  0.98629618  0.36119833  1
  Tm  Tm10  1  0.98629618  0.98629618  0.66620931  1
  Tm  Tm11  1  0.66620931  0.98629618  0.98629618  1
  Tm  Tm12  1  0.98629618  0.66620931  0.98629618  1
  Tm  Tm13  1  0.75000000  0.75000000  0.75000000  1
  Tm  Tm14  1  0.21931911  0.59356030  0.59356030  1
  Tm  Tm15  1  0.59356030  0.21931911  0.59356030  1
  Tm  Tm16  1  0.59356030  0.59356030  0.21931911  1
  Tm  Tm17  1  0.59356030  0.59356030  0.59356030  1
  Tm  Tm18  1  0.98499177  0.33833608  0.33833608  1
  Tm  Tm19  1  0.33833608  0.98499177  0.33833608  1
  Tm  Tm20  1  0.33833608  0.33833608  0.98499177  1
  Tm  Tm21  1  0.33833608  0.33833608  0.33833608  1
  Cd  Cd22  1  0.25028324  0.91657225  0.91657225  1
  Cd  Cd23  1  0.91657225  0.25028324  0.91657225  1
  Cd  Cd24  1  0.91657225  0.91657225  0.25028324  1
  Cd  Cd25  1  0.91657225  0.91657225  0.91657225  1
  Cd  Cd26  1  0.74037031  0.08654323  0.08654323  1
  Cd  Cd27  1  0.08654323  0.74037031  0.08654323  1
  Cd  Cd28  1  0.08654323  0.08654323  0.74037031  1
  Cd  Cd29  1  0.08654323  0.08654323  0.08654323  1
  Cd  Cd30  1  0.15598629  0.84401371  0.84401371  1
  Cd  Cd31  1  0.15598629  0.84401371  0.15598629  1
  Cd  Cd32  1  0.15598629  0.15598629  0.84401371  1
  Cd  Cd33  1  0.84401371  0.15598629  0.15598629  1
  Cd  Cd34  1  0.84401371  0.15598629  0.84401371  1
  Cd  Cd35  1  0.84401371  0.84401371  0.15598629  1
  Cd  Cd36  1  0.98258855  0.79910514  0.60915315  1
  Cd  Cd37  1  0.98258855  0.60915315  0.60915315  1
  Cd  Cd38  1  0.98258855  0.60915315  0.79910514  1
  Cd  Cd39  1  0.79910514  0.98258855  0.60915315  1
  Cd  Cd40  1  0.60915315  0.98258855  0.79910514  1
  Cd  Cd41  1  0.60915315  0.98258855  0.60915315  1
  Cd  Cd42  1  0.60915315  0.60915315  0.98258855  1
  Cd  Cd43  1  0.60915315  0.79910514  0.98258855  1
  Cd  Cd44  1  0.79910514  0.60915315  0.98258855  1
  Cd  Cd45  1  0.60915315  0.60915315  0.79910514  1
  Cd  Cd46  1  0.79910514  0.60915315  0.60915315  1
  Cd  Cd47  1  0.60915315  0.79910514  0.60915315  1
  Cd  Cd48  1  0.48968022  0.83677326  0.83677326  1
  Cd  Cd49  1  0.83677326  0.48968022  0.83677326  1
  Cd  Cd50  1  0.83677326  0.83677326  0.48968022  1
  Cd  Cd51  1  0.83677326  0.83677326  0.83677326  1
  Cd  Cd52  1  0.13678164  0.38949637  0.73686099  1
  Cd  Cd53  1  0.13678164  0.73686099  0.73686099  1
  Cd  Cd54  1  0.13678164  0.73686099  0.38949637  1
  Cd  Cd55  1  0.38949637  0.13678164  0.73686099  1
  Cd  Cd56  1  0.73686099  0.13678164  0.38949637  1
  Cd  Cd57  1  0.73686099  0.13678164  0.73686099  1
  Cd  Cd58  1  0.73686099  0.73686099  0.13678164  1
  Cd  Cd59  1  0.73686099  0.38949637  0.13678164  1
  Cd  Cd60  1  0.38949637  0.73686099  0.13678164  1
  Cd  Cd61  1  0.73686099  0.73686099  0.38949637  1
  Cd  Cd62  1  0.38949637  0.73686099  0.73686099  1
  Cd  Cd63  1  0.73686099  0.38949637  0.73686099  1
  Cd  Cd64  1  0.50000000  0.50000000  0.50000000  1
  Cd  Cd65  1  0.73111010  0.54994764  0.35947113  1
  Cd  Cd66  1  0.73111010  0.35947113  0.35947113  1
  Cd  Cd67  1  0.73111010  0.35947113  0.54994764  1
  Cd  Cd68  1  0.54994764  0.73111010  0.35947113  1
  Cd  Cd69  1  0.35947113  0.73111010  0.54994764  1
  Cd  Cd70  1  0.35947113  0.73111010  0.35947113  1
  Cd  Cd71  1  0.35947113  0.35947113  0.73111010  1
  Cd  Cd72  1  0.35947113  0.54994764  0.73111010  1
  Cd  Cd73  1  0.54994764  0.35947113  0.73111010  1
  Cd  Cd74  1  0.35947113  0.35947113  0.54994764  1
  Cd  Cd75  1  0.54994764  0.35947113  0.35947113  1
  Cd  Cd76  1  0.35947113  0.54994764  0.35947113  1
  Cd  Cd77  1  0.85884118  0.16673935  0.48720973  1
  Cd  Cd78  1  0.85884118  0.48720973  0.48720973  1
  Cd  Cd79  1  0.85884118  0.48720973  0.16673935  1
  Cd  Cd80  1  0.16673935  0.85884118  0.48720973  1
  Cd  Cd81  1  0.48720973  0.85884118  0.16673935  1
  Cd  Cd82  1  0.48720973  0.85884118  0.48720973  1
  Cd  Cd83  1  0.48720973  0.48720973  0.85884118  1
  Cd  Cd84  1  0.48720973  0.16673935  0.85884118  1
  Cd  Cd85  1  0.16673935  0.48720973  0.85884118  1
  Cd  Cd86  1  0.48720973  0.48720973  0.16673935  1
  Cd  Cd87  1  0.16673935  0.48720973  0.48720973  1
  Cd  Cd88  1  0.48720973  0.16673935  0.48720973  1
  Cd  Cd89  1  0.25000000  0.25000000  0.25000000  1
  Cd  Cd90  1  0.49031478  0.16989507  0.16989507  1
  Cd  Cd91  1  0.16989507  0.49031478  0.16989507  1
  Cd  Cd92  1  0.16989507  0.16989507  0.49031478  1
  Cd  Cd93  1  0.16989507  0.16989507  0.16989507  1
  Cd  Cd94  1  0.41119304  0.08880696  0.08880696  1
  Cd  Cd95  1  0.41119304  0.08880696  0.41119304  1
  Cd  Cd96  1  0.41119304  0.41119304  0.08880696  1
  Cd  Cd97  1  0.08880696  0.41119304  0.41119304  1
  Cd  Cd98  1  0.08880696  0.41119304  0.08880696  1
  Cd  Cd99  1  0.08880696  0.08880696  0.41119304  1
  Cd  Cd100  1  0.59501640  0.93339033  0.23579663  1
  Cd  Cd101  1  0.59501640  0.23579663  0.23579663  1
  Cd  Cd102  1  0.59501640  0.23579663  0.93339033  1
  Cd  Cd103  1  0.93339033  0.59501640  0.23579663  1
  Cd  Cd104  1  0.23579663  0.59501640  0.93339033  1
  Cd  Cd105  1  0.23579663  0.59501640  0.23579663  1
  Cd  Cd106  1  0.23579663  0.23579663  0.59501640  1
  Cd  Cd107  1  0.23579663  0.93339033  0.59501640  1
  Cd  Cd108  1  0.93339033  0.23579663  0.59501640  1
  Cd  Cd109  1  0.23579663  0.23579663  0.93339033  1
  Cd  Cd110  1  0.93339033  0.23579663  0.23579663  1
  Cd  Cd111  1  0.23579663  0.93339033  0.23579663  1
