# generated using pymatgen
data_InH10C2SeCl3O2
_symmetry_space_group_name_H-M   'P 1'
_cell_length_a   11.00601823
_cell_length_b   11.22612227
_cell_length_c   17.71816126
_cell_angle_alpha   90.00000000
_cell_angle_beta   90.00000000
_cell_angle_gamma   90.00000000
_symmetry_Int_Tables_number   1
_chemical_formula_structural   InH10C2SeCl3O2
_chemical_formula_sum   'In8 H80 C16 Se8 Cl24 O16'
_cell_volume   2189.16575528
_cell_formula_units_Z   8
loop_
 _symmetry_equiv_pos_site_id
 _symmetry_equiv_pos_as_xyz
  1  'x, y, z'
loop_
 _atom_site_type_symbol
 _atom_site_label
 _atom_site_symmetry_multiplicity
 _atom_site_fract_x
 _atom_site_fract_y
 _atom_site_fract_z
 _atom_site_occupancy
  In  In0  1  0.24723132  0.48357046  0.31904900  1
  In  In1  1  0.74723132  0.51642954  0.18095100  1
  In  In2  1  0.75276868  0.01642954  0.81904900  1
  In  In3  1  0.25276868  0.98357046  0.68095100  1
  In  In4  1  0.75276868  0.51642954  0.68095100  1
  In  In5  1  0.25276868  0.48357046  0.81904900  1
  In  In6  1  0.24723132  0.98357046  0.18095100  1
  In  In7  1  0.74723132  0.01642954  0.31904900  1
  H  H8  1  0.06131418  0.37318470  0.22507329  1
  H  H9  1  0.56131418  0.62681530  0.27492671  1
  H  H10  1  0.93868582  0.12681530  0.72507329  1
  H  H11  1  0.43868582  0.87318470  0.77492671  1
  H  H12  1  0.93868582  0.62681530  0.77492671  1
  H  H13  1  0.43868582  0.37318470  0.72507329  1
  H  H14  1  0.06131418  0.87318470  0.27492671  1
  H  H15  1  0.56131418  0.12681530  0.22507329  1
  H  H16  1  0.14154305  0.26804831  0.26224240  1
  H  H17  1  0.64154305  0.73195169  0.23775760  1
  H  H18  1  0.85845695  0.23195169  0.76224240  1
  H  H19  1  0.35845695  0.76804831  0.73775760  1
  H  H20  1  0.85845695  0.73195169  0.73775760  1
  H  H21  1  0.35845695  0.26804831  0.76224240  1
  H  H22  1  0.14154305  0.76804831  0.23775760  1
  H  H23  1  0.64154305  0.23195169  0.26224240  1
  H  H24  1  0.16604935  0.45635313  0.53331533  1
  H  H25  1  0.66604935  0.54364687  0.96668467  1
  H  H26  1  0.83395065  0.04364687  0.03331533  1
  H  H27  1  0.33395065  0.95635313  0.46668467  1
  H  H28  1  0.83395065  0.54364687  0.46668467  1
  H  H29  1  0.33395065  0.45635313  0.03331533  1
  H  H30  1  0.16604935  0.95635313  0.96668467  1
  H  H31  1  0.66604935  0.04364687  0.53331533  1
  H  H32  1  0.29757947  0.38073150  0.57054533  1
  H  H33  1  0.79757947  0.61926850  0.92945467  1
  H  H34  1  0.70242053  0.11926850  0.07054533  1
  H  H35  1  0.20242053  0.88073150  0.42945467  1
  H  H36  1  0.70242053  0.61926850  0.42945467  1
  H  H37  1  0.20242053  0.38073150  0.07054533  1
  H  H38  1  0.29757947  0.88073150  0.92945467  1
  H  H39  1  0.79757947  0.11926850  0.57054533  1
  H  H40  1  0.31723755  0.50881707  0.51006201  1
  H  H41  1  0.81723755  0.49118293  0.98993799  1
  H  H42  1  0.68276245  0.99118293  0.01006201  1
  H  H43  1  0.18276245  0.00881707  0.48993799  1
  H  H44  1  0.68276245  0.49118293  0.48993799  1
  H  H45  1  0.18276245  0.50881707  0.01006201  1
  H  H46  1  0.31723755  0.00881707  0.98993799  1
  H  H47  1  0.81723755  0.99118293  0.51006201  1
  H  H48  1  0.44362057  0.21084840  0.39704245  1
  H  H49  1  0.94362057  0.78915160  0.10295755  1
  H  H50  1  0.55637943  0.28915160  0.89704245  1
  H  H51  1  0.05637943  0.71084840  0.60295755  1
  H  H52  1  0.55637943  0.78915160  0.60295755  1
  H  H53  1  0.05637943  0.21084840  0.89704245  1
  H  H54  1  0.44362057  0.71084840  0.10295755  1
  H  H55  1  0.94362057  0.28915160  0.39704245  1
  H  H56  1  0.45087138  0.25011603  0.49583566  1
  H  H57  1  0.95087138  0.74988397  0.00416434  1
  H  H58  1  0.54912862  0.24988397  0.99583566  1
  H  H59  1  0.04912862  0.75011603  0.50416434  1
  H  H60  1  0.54912862  0.74988397  0.50416434  1
  H  H61  1  0.04912862  0.25011603  0.99583566  1
  H  H62  1  0.45087138  0.75011603  0.00416434  1
  H  H63  1  0.95087138  0.24988397  0.49583566  1
  H  H64  1  0.48513389  0.36079093  0.42424541  1
  H  H65  1  0.98513389  0.63920907  0.07575459  1
  H  H66  1  0.51486611  0.13920907  0.92424541  1
  H  H67  1  0.01486611  0.86079093  0.57575459  1
  H  H68  1  0.51486611  0.63920907  0.57575459  1
  H  H69  1  0.01486611  0.36079093  0.92424541  1
  H  H70  1  0.48513389  0.86079093  0.07575459  1
  H  H71  1  0.98513389  0.13920907  0.42424541  1
  H  H72  1  0.37489249  0.27414390  0.25439669  1
  H  H73  1  0.87489249  0.72585610  0.24560331  1
  H  H74  1  0.62510751  0.22585610  0.75439669  1
  H  H75  1  0.12510751  0.77414390  0.74560331  1
  H  H76  1  0.62510751  0.72585610  0.74560331  1
  H  H77  1  0.12510751  0.27414390  0.75439669  1
  H  H78  1  0.37489249  0.77414390  0.24560331  1
  H  H79  1  0.87489249  0.22585610  0.25439669  1
  H  H80  1  0.43527967  0.38673551  0.21402559  1
  H  H81  1  0.93527967  0.61326449  0.28597441  1
  H  H82  1  0.56472033  0.11326449  0.71402559  1
  H  H83  1  0.06472033  0.88673551  0.78597441  1
  H  H84  1  0.56472033  0.61326449  0.78597441  1
  H  H85  1  0.06472033  0.38673551  0.71402559  1
  H  H86  1  0.43527967  0.88673551  0.28597441  1
  H  H87  1  0.93527967  0.11326449  0.21402559  1
  C  C88  1  0.43134577  0.28188839  0.43873364  1
  C  C89  1  0.93134577  0.71811161  0.06126636  1
  C  C90  1  0.56865423  0.21811161  0.93873364  1
  C  C91  1  0.06865423  0.78188839  0.56126636  1
  C  C92  1  0.56865423  0.71811161  0.56126636  1
  C  C93  1  0.06865423  0.28188839  0.93873364  1
  C  C94  1  0.43134577  0.78188839  0.06126636  1
  C  C95  1  0.93134577  0.21811161  0.43873364  1
  C  C96  1  0.26076466  0.43114256  0.52295976  1
  C  C97  1  0.76076466  0.56885744  0.97704024  1
  C  C98  1  0.73923534  0.06885744  0.02295976  1
  C  C99  1  0.23923534  0.93114256  0.47704024  1
  C  C100  1  0.73923534  0.56885744  0.47704024  1
  C  C101  1  0.23923534  0.43114256  0.02295976  1
  C  C102  1  0.26076466  0.93114256  0.97704024  1
  C  C103  1  0.76076466  0.06885744  0.52295976  1
  Se  Se104  1  0.25827924  0.32155398  0.43701124  1
  Se  Se105  1  0.75827924  0.67844602  0.06298876  1
  Se  Se106  1  0.74172076  0.17844602  0.93701124  1
  Se  Se107  1  0.24172076  0.82155398  0.56298876  1
  Se  Se108  1  0.74172076  0.67844602  0.56298876  1
  Se  Se109  1  0.24172076  0.32155398  0.93701124  1
  Se  Se110  1  0.25827924  0.82155398  0.06298876  1
  Se  Se111  1  0.75827924  0.17844602  0.43701124  1
  Cl  Cl112  1  0.42267834  0.60438539  0.36520102  1
  Cl  Cl113  1  0.92267834  0.39561461  0.13479898  1
  Cl  Cl114  1  0.57732166  0.89561461  0.86520102  1
  Cl  Cl115  1  0.07732166  0.10438539  0.63479898  1
  Cl  Cl116  1  0.57732166  0.39561461  0.63479898  1
  Cl  Cl117  1  0.07732166  0.60438539  0.86520102  1
  Cl  Cl118  1  0.42267834  0.10438539  0.13479898  1
  Cl  Cl119  1  0.92267834  0.89561461  0.36520102  1
  Cl  Cl120  1  0.23343792  0.60292840  0.20052602  1
  Cl  Cl121  1  0.73343792  0.39707160  0.29947398  1
  Cl  Cl122  1  0.76656208  0.89707160  0.70052602  1
  Cl  Cl123  1  0.26656208  0.10292840  0.79947398  1
  Cl  Cl124  1  0.76656208  0.39707160  0.79947398  1
  Cl  Cl125  1  0.26656208  0.60292840  0.70052602  1
  Cl  Cl126  1  0.23343792  0.10292840  0.29947398  1
  Cl  Cl127  1  0.73343792  0.89707160  0.20052602  1
  Cl  Cl128  1  0.06688091  0.58247009  0.37795044  1
  Cl  Cl129  1  0.56688091  0.41752991  0.12204956  1
  Cl  Cl130  1  0.93311909  0.91752991  0.87795044  1
  Cl  Cl131  1  0.43311909  0.08247009  0.62204956  1
  Cl  Cl132  1  0.93311909  0.41752991  0.62204956  1
  Cl  Cl133  1  0.43311909  0.58247009  0.87795044  1
  Cl  Cl134  1  0.06688091  0.08247009  0.12204956  1
  Cl  Cl135  1  0.56688091  0.91752991  0.37795044  1
  O  O136  1  0.11004561  0.34993825  0.26979485  1
  O  O137  1  0.61004561  0.65006175  0.23020515  1
  O  O138  1  0.88995439  0.15006175  0.76979485  1
  O  O139  1  0.38995439  0.84993825  0.73020515  1
  O  O140  1  0.88995439  0.65006175  0.73020515  1
  O  O141  1  0.38995439  0.34993825  0.76979485  1
  O  O142  1  0.11004561  0.84993825  0.23020515  1
  O  O143  1  0.61004561  0.15006175  0.26979485  1
  O  O144  1  0.38539464  0.36103101  0.25790370  1
  O  O145  1  0.88539464  0.63896899  0.24209630  1
  O  O146  1  0.61460536  0.13896899  0.75790370  1
  O  O147  1  0.11460536  0.86103101  0.74209630  1
  O  O148  1  0.61460536  0.63896899  0.74209630  1
  O  O149  1  0.11460536  0.36103101  0.75790370  1
  O  O150  1  0.38539464  0.86103101  0.24209630  1
  O  O151  1  0.88539464  0.13896899  0.25790370  1
