# generated using pymatgen
data_Zn3P2(H2O3)4
_symmetry_space_group_name_H-M   'P 1'
_cell_length_a   5.14555959
_cell_length_b   10.84089493
_cell_length_c   18.68283738
_cell_angle_alpha   90.00000000
_cell_angle_beta   90.00000000
_cell_angle_gamma   90.00000000
_symmetry_Int_Tables_number   1
_chemical_formula_structural   Zn3P2(H2O3)4
_chemical_formula_sum   'Zn12 P8 H32 O48'
_cell_volume   1042.17483194
_cell_formula_units_Z   4
loop_
 _symmetry_equiv_pos_site_id
 _symmetry_equiv_pos_as_xyz
  1  'x, y, z'
loop_
 _atom_site_type_symbol
 _atom_site_label
 _atom_site_symmetry_multiplicity
 _atom_site_fract_x
 _atom_site_fract_y
 _atom_site_fract_z
 _atom_site_occupancy
  Zn  Zn0  1  0.28844783  0.64503869  0.99813091  1
  Zn  Zn1  1  0.21155217  0.14503869  0.50186909  1
  Zn  Zn2  1  0.71155217  0.35496131  0.49813091  1
  Zn  Zn3  1  0.78844783  0.85496131  0.00186909  1
  Zn  Zn4  1  0.71155217  0.35496131  0.00186909  1
  Zn  Zn5  1  0.78844783  0.85496131  0.49813091  1
  Zn  Zn6  1  0.28844783  0.64503869  0.50186909  1
  Zn  Zn7  1  0.21155217  0.14503869  0.99813091  1
  Zn  Zn8  1  0.91879987  0.73199265  0.25000000  1
  Zn  Zn9  1  0.58120013  0.23199265  0.25000000  1
  Zn  Zn10  1  0.08120013  0.26800735  0.75000000  1
  Zn  Zn11  1  0.41879987  0.76800735  0.75000000  1
  P  P12  1  0.77137407  0.60314216  0.09373411  1
  P  P13  1  0.72862593  0.10314216  0.40626589  1
  P  P14  1  0.22862593  0.39685784  0.59373411  1
  P  P15  1  0.27137407  0.89685784  0.90626589  1
  P  P16  1  0.22862593  0.39685784  0.90626589  1
  P  P17  1  0.27137407  0.89685784  0.59373411  1
  P  P18  1  0.77137407  0.60314216  0.40626589  1
  P  P19  1  0.72862593  0.10314216  0.09373411  1
  H  H20  1  0.37877887  0.61080127  0.29051067  1
  H  H21  1  0.12122113  0.11080127  0.20948933  1
  H  H22  1  0.62122113  0.38919873  0.79051067  1
  H  H23  1  0.87877887  0.88919873  0.70948933  1
  H  H24  1  0.62122113  0.38919873  0.70948933  1
  H  H25  1  0.87877887  0.88919873  0.79051067  1
  H  H26  1  0.37877887  0.61080127  0.20948933  1
  H  H27  1  0.12122113  0.11080127  0.29051067  1
  H  H28  1  0.46519505  0.86472742  0.25000000  1
  H  H29  1  0.03480495  0.36472742  0.25000000  1
  H  H30  1  0.53480495  0.13527258  0.75000000  1
  H  H31  1  0.96519505  0.63527258  0.75000000  1
  H  H32  1  0.68146732  0.96682727  0.25000000  1
  H  H33  1  0.81853268  0.46682727  0.25000000  1
  H  H34  1  0.31853268  0.03317273  0.75000000  1
  H  H35  1  0.18146732  0.53317273  0.75000000  1
  H  H36  1  0.04559320  0.88990176  0.14294166  1
  H  H37  1  0.45440680  0.38990176  0.35705834  1
  H  H38  1  0.95440680  0.11009824  0.64294166  1
  H  H39  1  0.54559320  0.61009824  0.85705834  1
  H  H40  1  0.95440680  0.11009824  0.85705834  1
  H  H41  1  0.54559320  0.61009824  0.64294166  1
  H  H42  1  0.04559320  0.88990176  0.35705834  1
  H  H43  1  0.45440680  0.38990176  0.14294166  1
  H  H44  1  0.16156337  0.75696833  0.13441527  1
  H  H45  1  0.33843663  0.25696833  0.36558473  1
  H  H46  1  0.83843663  0.24303167  0.63441527  1
  H  H47  1  0.66156337  0.74303167  0.86558473  1
  H  H48  1  0.83843663  0.24303167  0.86558473  1
  H  H49  1  0.66156337  0.74303167  0.63441527  1
  H  H50  1  0.16156337  0.75696833  0.36558473  1
  H  H51  1  0.33843663  0.25696833  0.13441527  1
  O  O52  1  0.63354096  0.69607208  0.03946371  1
  O  O53  1  0.86645904  0.19607208  0.46053629  1
  O  O54  1  0.36645904  0.30392792  0.53946371  1
  O  O55  1  0.13354096  0.80392792  0.96053629  1
  O  O56  1  0.36645904  0.30392792  0.96053629  1
  O  O57  1  0.13354096  0.80392792  0.53946371  1
  O  O58  1  0.63354096  0.69607208  0.46053629  1
  O  O59  1  0.86645904  0.19607208  0.03946371  1
  O  O60  1  0.34390688  0.52614265  0.92265047  1
  O  O61  1  0.15609312  0.02614265  0.57734953  1
  O  O62  1  0.65609312  0.47385735  0.42265047  1
  O  O63  1  0.84390688  0.97385735  0.07734953  1
  O  O64  1  0.65609312  0.47385735  0.07734953  1
  O  O65  1  0.84390688  0.97385735  0.42265047  1
  O  O66  1  0.34390688  0.52614265  0.57734953  1
  O  O67  1  0.15609312  0.02614265  0.92265047  1
  O  O68  1  0.06778482  0.61332731  0.08041379  1
  O  O69  1  0.43221518  0.11332731  0.41958621  1
  O  O70  1  0.93221518  0.38667269  0.58041379  1
  O  O71  1  0.56778482  0.88667269  0.91958621  1
  O  O72  1  0.93221518  0.38667269  0.91958621  1
  O  O73  1  0.56778482  0.88667269  0.58041379  1
  O  O74  1  0.06778482  0.61332731  0.41958621  1
  O  O75  1  0.43221518  0.11332731  0.08041379  1
  O  O76  1  0.70940673  0.63543335  0.17172810  1
  O  O77  1  0.79059327  0.13543335  0.32827190  1
  O  O78  1  0.29059327  0.36456665  0.67172810  1
  O  O79  1  0.20940673  0.86456665  0.82827190  1
  O  O80  1  0.29059327  0.36456665  0.82827190  1
  O  O81  1  0.20940673  0.86456665  0.67172810  1
  O  O82  1  0.70940673  0.63543335  0.32827190  1
  O  O83  1  0.79059327  0.13543335  0.17172810  1
  O  O84  1  0.25562652  0.60289901  0.25000000  1
  O  O85  1  0.24437348  0.10289901  0.25000000  1
  O  O86  1  0.74437348  0.39710099  0.75000000  1
  O  O87  1  0.75562652  0.89710099  0.75000000  1
  O  O88  1  0.65325086  0.87814360  0.25000000  1
  O  O89  1  0.84674914  0.37814360  0.25000000  1
  O  O90  1  0.34674914  0.12185640  0.75000000  1
  O  O91  1  0.15325086  0.62185640  0.75000000  1
  O  O92  1  0.14287041  0.82502405  0.16905762  1
  O  O93  1  0.35712959  0.32502405  0.33094238  1
  O  O94  1  0.85712959  0.17497595  0.66905762  1
  O  O95  1  0.64287041  0.67497595  0.83094238  1
  O  O96  1  0.85712959  0.17497595  0.83094238  1
  O  O97  1  0.64287041  0.67497595  0.66905762  1
  O  O98  1  0.14287041  0.82502405  0.33094238  1
  O  O99  1  0.35712959  0.32502405  0.16905762  1
