# generated using pymatgen
data_KVH6SeO9
_symmetry_space_group_name_H-M   'P 1'
_cell_length_a   6.46622403
_cell_length_b   6.69985775
_cell_length_c   10.14113913
_cell_angle_alpha   90.00000000
_cell_angle_beta   90.00000000
_cell_angle_gamma   107.79449592
_symmetry_Int_Tables_number   1
_chemical_formula_structural   KVH6SeO9
_chemical_formula_sum   'K2 V2 H12 Se2 O18'
_cell_volume   418.32366607
_cell_formula_units_Z   2
loop_
 _symmetry_equiv_pos_site_id
 _symmetry_equiv_pos_as_xyz
  1  'x, y, z'
loop_
 _atom_site_type_symbol
 _atom_site_label
 _atom_site_symmetry_multiplicity
 _atom_site_fract_x
 _atom_site_fract_y
 _atom_site_fract_z
 _atom_site_occupancy
  K  K0  1  0.30498650  0.81697226  0.65432188  1
  K  K1  1  0.69501350  0.18302774  0.15432188  1
  V  V2  1  0.61139685  0.38813221  0.50494532  1
  V  V3  1  0.38860315  0.61186779  0.00494532  1
  H  H4  1  0.76422441  0.68608605  0.71162636  1
  H  H5  1  0.23577559  0.31391395  0.21162636  1
  H  H6  1  0.11581490  0.92004491  0.35805310  1
  H  H7  1  0.88418510  0.07995509  0.85805310  1
  H  H8  1  0.98384297  0.68454117  0.36224153  1
  H  H9  1  0.01615703  0.31545883  0.86224153  1
  H  H10  1  0.67302815  0.25498205  0.76734970  1
  H  H11  1  0.32697185  0.74501795  0.26734970  1
  H  H12  1  0.79312338  0.81593126  0.58241158  1
  H  H13  1  0.20687662  0.18406874  0.08241158  1
  H  H14  1  0.53712726  0.66300076  0.27042749  1
  H  H15  1  0.46287274  0.33699924  0.77042749  1
  Se  Se16  1  0.06950008  0.26571627  0.50111663  1
  Se  Se17  1  0.93049992  0.73428373  0.00111663  1
  O  O18  1  0.46308698  0.85722403  0.95284856  1
  O  O19  1  0.53691302  0.14277597  0.45284856  1
  O  O20  1  0.32121267  0.46637192  0.86695025  1
  O  O21  1  0.67878733  0.53362808  0.36695025  1
  O  O22  1  0.45128144  0.72966688  0.21320658  1
  O  O23  1  0.54871856  0.27033312  0.71320658  1
  O  O24  1  0.30544260  0.31135008  0.12475412  1
  O  O25  1  0.69455740  0.68864992  0.62475412  1
  O  O26  1  0.91966052  0.41666224  0.55870855  1
  O  O27  1  0.08033948  0.58333776  0.05870855  1
  O  O28  1  0.32155696  0.43071713  0.53601697  1
  O  O29  1  0.67844304  0.56928287  0.03601697  1
  O  O30  1  0.01778391  0.04587854  0.58553742  1
  O  O31  1  0.98221609  0.95412146  0.08553742  1
  O  O32  1  0.95771670  0.77898134  0.84031392  1
  O  O33  1  0.04228330  0.22101866  0.34031392  1
  O  O34  1  0.13331917  0.78091294  0.36987003  1
  O  O35  1  0.86668083  0.21908706  0.86987003  1
