# generated using pymatgen
data_Na3V5(H12O13)2
_symmetry_space_group_name_H-M   'P 1'
_cell_length_a   10.70228808
_cell_length_b   11.49078561
_cell_length_c   11.92206604
_cell_angle_alpha   109.02492673
_cell_angle_beta   103.78123603
_cell_angle_gamma   111.75982023
_symmetry_Int_Tables_number   1
_chemical_formula_structural   Na3V5(H12O13)2
_chemical_formula_sum   'Na6 V10 H48 O52'
_cell_volume   1174.73632378
_cell_formula_units_Z   2
loop_
 _symmetry_equiv_pos_site_id
 _symmetry_equiv_pos_as_xyz
  1  'x, y, z'
loop_
 _atom_site_type_symbol
 _atom_site_label
 _atom_site_symmetry_multiplicity
 _atom_site_fract_x
 _atom_site_fract_y
 _atom_site_fract_z
 _atom_site_occupancy
  Na  Na0  1  0.19333427  0.90086352  0.59335789  1
  Na  Na1  1  0.80666573  0.09913648  0.40664211  1
  Na  Na2  1  0.63428052  0.47877003  0.10701150  1
  Na  Na3  1  0.36571948  0.52122997  0.89298850  1
  Na  Na4  1  0.88257084  0.49599650  0.37084861  1
  Na  Na5  1  0.11742916  0.50400350  0.62915139  1
  V  V6  1  0.13478361  0.99128355  0.29407573  1
  V  V7  1  0.86521639  0.00871645  0.70592427  1
  V  V8  1  0.88779383  0.97321623  0.07335187  1
  V  V9  1  0.11220617  0.02678377  0.92664813  1
  V  V10  1  0.65523901  0.95837658  0.84864743  1
  V  V11  1  0.34476099  0.04162342  0.15135257  1
  V  V12  1  0.79070198  0.75502791  0.77751492  1
  V  V13  1  0.20929802  0.24497209  0.22248508  1
  V  V14  1  0.02783680  0.77077545  0.00254261  1
  V  V15  1  0.97216320  0.22922455  0.99745739  1
  H  H16  1  0.87484325  0.22375429  0.23006769  1
  H  H17  1  0.12515675  0.77624571  0.76993231  1
  H  H18  1  0.71330975  0.18130689  0.22145981  1
  H  H19  1  0.28669025  0.81869311  0.77854019  1
  H  H20  1  0.94097551  0.62310917  0.17839813  1
  H  H21  1  0.05902449  0.37689083  0.82160187  1
  H  H22  1  0.93206213  0.47620772  0.13123256  1
  H  H23  1  0.06793787  0.52379228  0.86876744  1
  H  H24  1  0.68722413  0.62202644  0.94200339  1
  H  H25  1  0.31277587  0.37797356  0.05799661  1
  H  H26  1  0.60177190  0.46049547  0.85041672  1
  H  H27  1  0.39822810  0.53950453  0.14958328  1
  H  H28  1  0.61666237  0.52947112  0.34334537  1
  H  H29  1  0.38333763  0.47052888  0.65665463  1
  H  H30  1  0.54484271  0.36546201  0.27411817  1
  H  H31  1  0.45515729  0.63453799  0.72588183  1
  H  H32  1  0.83732380  0.78209229  0.22421341  1
  H  H33  1  0.16267620  0.21790771  0.77578659  1
  H  H34  1  0.71199098  0.77342147  0.26972002  1
  H  H35  1  0.28800902  0.22657853  0.73027998  1
  H  H36  1  0.89530570  0.76016096  0.54363833  1
  H  H37  1  0.10469430  0.23983904  0.45636167  1
  H  H38  1  0.88667642  0.74902671  0.40684399  1
  H  H39  1  0.11332358  0.25097329  0.59315601  1
  H  H40  1  0.63640572  0.21371703  0.97893506  1
  H  H41  1  0.36359428  0.78628297  0.02106494  1
  H  H42  1  0.47997063  0.16653558  0.98475161  1
  H  H43  1  0.52002937  0.83346442  0.01524839  1
  H  H44  1  0.20897812  0.63552955  0.47672448  1
  H  H45  1  0.79102188  0.36447045  0.52327552  1
  H  H46  1  0.16190217  0.48167397  0.38429817  1
  H  H47  1  0.83809783  0.51832603  0.61570183  1
  H  H48  1  0.32919867  0.78152513  0.41594021  1
  H  H49  1  0.67080133  0.21847487  0.58405979  1
  H  H50  1  0.44131641  0.85785583  0.56414166  1
  H  H51  1  0.55868359  0.14214417  0.43585834  1
  H  H52  1  0.44139099  0.18386125  0.67252135  1
  H  H53  1  0.55860901  0.81613875  0.32747865  1
  H  H54  1  0.45881641  0.17437856  0.80477087  1
  H  H55  1  0.54118359  0.82562144  0.19522913  1
  H  H56  1  0.25761753  0.75788032  0.20703758  1
  H  H57  1  0.74238247  0.24211968  0.79296242  1
  H  H58  1  0.20494869  0.60470620  0.19028815  1
  H  H59  1  0.79505131  0.39529380  0.80971185  1
  H  H60  1  0.62550374  0.71454002  0.50009566  1
  H  H61  1  0.37449626  0.28545998  0.49990434  1
  H  H62  1  0.46079165  0.59998752  0.39890653  1
  H  H63  1  0.53920835  0.40001248  0.60109347  1
  O  O64  1  0.14134207  0.98005606  0.42804633  1
  O  O65  1  0.85865793  0.01994394  0.57195367  1
  O  O66  1  0.99037605  0.17855588  0.14722048  1
  O  O67  1  0.00962395  0.82144412  0.85277952  1
  O  O68  1  0.95788462  0.59782037  0.92233816  1
  O  O69  1  0.04211538  0.40217963  0.07766184  1
  O  O70  1  0.68304019  0.97784815  0.70641848  1
  O  O71  1  0.31695981  0.02215185  0.29358152  1
  O  O72  1  0.80743486  0.81378261  0.65310832  1
  O  O73  1  0.19256514  0.18621739  0.34689168  1
  O  O74  1  0.72464589  0.58291166  0.69784966  1
  O  O75  1  0.27535411  0.41708834  0.30215034  1
  O  O76  1  0.89961121  0.99366642  0.90625140  1
  O  O77  1  0.10038879  0.00633358  0.09374860  1
  O  O78  1  0.62779347  0.77324351  0.77633501  1
  O  O79  1  0.37220653  0.22675649  0.22366499  1
  O  O80  1  0.48721597  0.93096681  0.82401628  1
  O  O81  1  0.51278403  0.06903319  0.17598372  1
  O  O82  1  0.04101977  0.79953761  0.16684276  1
  O  O83  1  0.95898023  0.20046239  0.83315724  1
  O  O84  1  0.83774409  0.78127918  0.96355502  1
  O  O85  1  0.16225591  0.21872082  0.03644498  1
  O  O86  1  0.92755334  0.96711330  0.22015867  1
  O  O87  1  0.07244666  0.03288670  0.77984133  1
  O  O88  1  0.71019129  0.94974467  0.01899513  1
  O  O89  1  0.28980871  0.05025533  0.98100487  1
  O  O90  1  0.22672415  0.84175588  0.04610569  1
  O  O91  1  0.77327585  0.15824412  0.95389431  1
  O  O92  1  0.81788881  0.24332242  0.28091462  1
  O  O93  1  0.18211119  0.75667758  0.71908538  1
  O  O94  1  0.88779898  0.52930903  0.17280184  1
  O  O95  1  0.11220102  0.47069097  0.82719816  1
  O  O96  1  0.60683161  0.53172632  0.92604458  1
  O  O97  1  0.39316839  0.46827368  0.07395542  1
  O  O98  1  0.63542589  0.45272798  0.29888168  1
  O  O99  1  0.36457411  0.54727202  0.70111832  1
  O  O100  1  0.77233519  0.72616066  0.25434053  1
  O  O101  1  0.22766481  0.27383934  0.74565947  1
  O  O102  1  0.94087060  0.74111745  0.48182341  1
  O  O103  1  0.05912940  0.25888255  0.51817659  1
  O  O104  1  0.55554608  0.23694132  0.97310819  1
  O  O105  1  0.44445392  0.76305868  0.02689181  1
  O  O106  1  0.12985054  0.53700344  0.44040798  1
  O  O107  1  0.87014946  0.46299656  0.55959202  1
  O  O108  1  0.33686348  0.81023401  0.50663439  1
  O  O109  1  0.66313652  0.18976599  0.49336561  1
  O  O110  1  0.38666860  0.13785504  0.71474669  1
  O  O111  1  0.61333140  0.86214496  0.28525331  1
  O  O112  1  0.28655240  0.70228689  0.24366914  1
  O  O113  1  0.71344760  0.29771311  0.75633086  1
  O  O114  1  0.55754767  0.66492082  0.40756081  1
  O  O115  1  0.44245233  0.33507918  0.59243919  1
