# generated using pymatgen
data_V6O13
_symmetry_space_group_name_H-M   'P 1'
_cell_length_a   3.75509803
_cell_length_b   10.25899262
_cell_length_c   12.16820821
_cell_angle_alpha   100.84051252
_cell_angle_beta   90.00000000
_cell_angle_gamma   90.00000000
_symmetry_Int_Tables_number   1
_chemical_formula_structural   V6O13
_chemical_formula_sum   'V12 O26'
_cell_volume   460.39695750
_cell_formula_units_Z   2
loop_
 _symmetry_equiv_pos_site_id
 _symmetry_equiv_pos_as_xyz
  1  'x, y, z'
loop_
 _atom_site_type_symbol
 _atom_site_label
 _atom_site_symmetry_multiplicity
 _atom_site_fract_x
 _atom_site_fract_y
 _atom_site_fract_z
 _atom_site_occupancy
  V  V0  1  0.46703973  0.99648824  0.85139573  1
  V  V1  1  0.96703973  0.00351176  0.64860427  1
  V  V2  1  0.53296027  0.00351176  0.14860427  1
  V  V3  1  0.03296027  0.99648824  0.35139573  1
  V  V4  1  0.49792952  0.36422783  0.91315826  1
  V  V5  1  0.99792952  0.63577217  0.58684174  1
  V  V6  1  0.50207048  0.63577217  0.08684174  1
  V  V7  1  0.00207048  0.36422783  0.41315826  1
  V  V8  1  0.50156986  0.36640868  0.21484050  1
  V  V9  1  0.00156986  0.63359132  0.28515950  1
  V  V10  1  0.49843014  0.63359132  0.78515950  1
  V  V11  1  0.99843014  0.36640868  0.71484050  1
  O  O12  1  0.48944565  0.00011027  0.68333992  1
  O  O13  1  0.98944565  0.99988973  0.81666008  1
  O  O14  1  0.51055435  0.99988973  0.31666008  1
  O  O15  1  0.01055435  0.00011027  0.18333992  1
  O  O16  1  0.50158570  0.38637452  0.38146222  1
  O  O17  1  0.00158570  0.61362548  0.11853778  1
  O  O18  1  0.49841430  0.61362548  0.61853778  1
  O  O19  1  0.99841430  0.38637452  0.88146222  1
  O  O20  1  0.49859543  0.41161013  0.75413290  1
  O  O21  1  0.99859543  0.58838987  0.74586710  1
  O  O22  1  0.50140457  0.58838987  0.24586710  1
  O  O23  1  0.00140457  0.41161013  0.25413290  1
  O  O24  1  0.50000000  -0.00000000  0.00000000  1
  O  O25  1  0.00000000  -0.00000000  0.50000000  1
  O  O26  1  0.49326003  0.19831192  0.88610936  1
  O  O27  1  0.99326003  0.80168808  0.61389064  1
  O  O28  1  0.50673997  0.80168808  0.11389064  1
  O  O29  1  0.00673997  0.19831192  0.38610936  1
  O  O30  1  0.50794585  0.19836976  0.17761101  1
  O  O31  1  0.00794585  0.80163024  0.32238899  1
  O  O32  1  0.49205415  0.80163024  0.82238899  1
  O  O33  1  0.99205415  0.19836976  0.67761101  1
  O  O34  1  0.50035386  0.40875550  0.06027556  1
  O  O35  1  0.00035386  0.59124450  0.43972444  1
  O  O36  1  0.49964614  0.59124450  0.93972444  1
  O  O37  1  0.99964614  0.40875550  0.56027556  1
