# generated using pymatgen
data_K2FeGe3Se8
_symmetry_space_group_name_H-M   'P 1'
_cell_length_a   7.58193294
_cell_length_b   12.62525459
_cell_length_c   17.84604983
_cell_angle_alpha   90.00000000
_cell_angle_beta   95.95776711
_cell_angle_gamma   90.00000000
_symmetry_Int_Tables_number   1
_chemical_formula_structural   K2FeGe3Se8
_chemical_formula_sum   'K8 Fe4 Ge12 Se32'
_cell_volume   1699.06525956
_cell_formula_units_Z   4
loop_
 _symmetry_equiv_pos_site_id
 _symmetry_equiv_pos_as_xyz
  1  'x, y, z'
loop_
 _atom_site_type_symbol
 _atom_site_label
 _atom_site_symmetry_multiplicity
 _atom_site_fract_x
 _atom_site_fract_y
 _atom_site_fract_z
 _atom_site_occupancy
  K  K0  1  0.74155662  0.75775479  0.20551673  1
  K  K1  1  0.25844338  0.25775479  0.79448327  1
  K  K2  1  0.72289500  0.08070277  0.07955596  1
  K  K3  1  0.27710500  0.58070277  0.92044404  1
  K  K4  1  0.73707039  0.70789422  0.57689413  1
  K  K5  1  0.26292961  0.20789422  0.42310587  1
  K  K6  1  0.75804837  0.04168115  0.69494912  1
  K  K7  1  0.24195163  0.54168115  0.30505088  1
  Fe  Fe8  1  0.49275301  0.89840112  0.90848799  1
  Fe  Fe9  1  0.50724699  0.39840112  0.09151201  1
  Fe  Fe10  1  0.94753718  0.90192638  0.39329333  1
  Fe  Fe11  1  0.05246282  0.40192638  0.60670667  1
  Ge  Ge12  1  0.23374398  0.82815490  0.73512725  1
  Ge  Ge13  1  0.76625602  0.32815490  0.26487275  1
  Ge  Ge14  1  0.24787132  0.85307727  0.07332555  1
  Ge  Ge15  1  0.75212868  0.35307727  0.92667445  1
  Ge  Ge16  1  0.22820395  0.94164564  0.57273386  1
  Ge  Ge17  1  0.77179605  0.44164564  0.42726614  1
  Ge  Ge18  1  0.98759465  0.91812609  0.89350038  1
  Ge  Ge19  1  0.01240535  0.41812609  0.10649962  1
  Ge  Ge20  1  0.18884659  0.96588840  0.23121062  1
  Ge  Ge21  1  0.81115341  0.46588840  0.76878938  1
  Ge  Ge22  1  0.45338588  0.87854851  0.40312284  1
  Ge  Ge23  1  0.54661412  0.37854851  0.59687716  1
  Se  Se24  1  0.94414093  0.80881200  0.77790191  1
  Se  Se25  1  0.05585907  0.30881200  0.22209809  1
  Se  Se26  1  0.52891387  0.81404147  0.03400621  1
  Se  Se27  1  0.47108613  0.31404147  0.96599379  1
  Se  Se28  1  0.00128375  0.78293381  0.99307782  1
  Se  Se29  1  0.99871625  0.28293381  0.00692218  1
  Se  Se30  1  0.25483950  0.02098652  0.90268914  1
  Se  Se31  1  0.74516050  0.52098652  0.09731086  1
  Se  Se32  1  0.72350732  0.02367046  0.89222386  1
  Se  Se33  1  0.27649268  0.52367046  0.10777614  1
  Se  Se34  1  0.47222162  0.75785922  0.81367369  1
  Se  Se35  1  0.52777838  0.25785922  0.18632631  1
  Se  Se36  1  0.20067164  0.75687572  0.60752904  1
  Se  Se37  1  0.79932836  0.25687572  0.39247096  1
  Se  Se38  1  0.27541933  0.01286803  0.70020318  1
  Se  Se39  1  0.72458067  0.51286803  0.29979682  1
  Se  Se40  1  0.55691272  0.52559386  0.68747628  1
  Se  Se41  1  0.44308728  0.02559386  0.31252372  1
  Se  Se42  1  0.21031467  0.03778487  0.10601370  1
  Se  Se43  1  0.78968533  0.53778487  0.89398630  1
  Se  Se44  1  0.22257422  0.77978395  0.19856763  1
  Se  Se45  1  0.77742578  0.27978395  0.80143237  1
  Se  Se46  1  0.50838633  0.97342536  0.52466003  1
  Se  Se47  1  0.49161367  0.47342536  0.47533997  1
  Se  Se48  1  0.01708293  0.52090100  0.49666750  1
  Se  Se49  1  0.98291707  0.02090100  0.50333250  1
  Se  Se50  1  0.08937731  0.50272923  0.72642785  1
  Se  Se51  1  0.91062269  0.00272923  0.27357215  1
  Se  Se52  1  0.28677816  0.27311420  0.60626069  1
  Se  Se53  1  0.71322184  0.77311420  0.39373931  1
  Se  Se54  1  0.18388584  0.77826907  0.40002085  1
  Se  Se55  1  0.81611416  0.27826907  0.59997915  1
