# generated using pymatgen
data_LiCu2BP2(HO5)2
_symmetry_space_group_name_H-M   'P 1'
_cell_length_a   4.82770051
_cell_length_b   8.15443109
_cell_length_c   9.79644531
_cell_angle_alpha   92.11333124
_cell_angle_beta   90.00000000
_cell_angle_gamma   107.21853139
_symmetry_Int_Tables_number   1
_chemical_formula_structural   LiCu2BP2(HO5)2
_chemical_formula_sum   'Li2 Cu4 B2 P4 H4 O20'
_cell_volume   368.09934927
_cell_formula_units_Z   2
loop_
 _symmetry_equiv_pos_site_id
 _symmetry_equiv_pos_as_xyz
  1  'x, y, z'
loop_
 _atom_site_type_symbol
 _atom_site_label
 _atom_site_symmetry_multiplicity
 _atom_site_fract_x
 _atom_site_fract_y
 _atom_site_fract_z
 _atom_site_occupancy
  Li  Li0  1  0.00000000  0.50000000  -0.00000000  1
  Li  Li1  1  0.50000000  0.50000000  0.50000000  1
  Cu  Cu2  1  0.85393696  0.29307541  0.73036133  1
  Cu  Cu3  1  0.56086155  0.70692459  0.76963867  1
  Cu  Cu4  1  0.14606304  0.70692459  0.26963867  1
  Cu  Cu5  1  0.43913845  0.29307541  0.23036133  1
  B  B6  1  0.28219242  0.00000000  0.75000000  1
  B  B7  1  0.71780758  0.00000000  0.25000000  1
  P  P8  1  0.32368127  0.28522055  0.91147851  1
  P  P9  1  0.03846072  0.71477945  0.58852149  1
  P  P10  1  0.67631873  0.71477945  0.08852149  1
  P  P11  1  0.96153928  0.28522055  0.41147851  1
  H  H12  1  0.41785937  0.14842381  0.58886701  1
  H  H13  1  0.26943557  0.85157619  0.91113299  1
  H  H14  1  0.58214063  0.85157619  0.41113299  1
  H  H15  1  0.73056443  0.14842381  0.08886701  1
  O  O16  1  0.15536250  0.10462754  0.84239642  1
  O  O17  1  0.05073496  0.89537246  0.65760358  1
  O  O18  1  0.84463750  0.89537246  0.15760358  1
  O  O19  1  0.94926504  0.10462754  0.34239642  1
  O  O20  1  0.65481160  0.31621662  0.90353285  1
  O  O21  1  0.33859498  0.68378338  0.59646715  1
  O  O22  1  0.34518840  0.68378338  0.09646715  1
  O  O23  1  0.66140502  0.31621662  0.40353285  1
  O  O24  1  0.21896648  0.41983363  0.83359474  1
  O  O25  1  0.79913285  0.58016637  0.66640526  1
  O  O26  1  0.78103352  0.58016637  0.16640526  1
  O  O27  1  0.20086715  0.41983363  0.33359474  1
  O  O28  1  0.22495137  0.29275818  0.06019616  1
  O  O29  1  0.93219319  0.70724182  0.43980384  1
  O  O30  1  0.77504863  0.70724182  0.93980384  1
  O  O31  1  0.06780681  0.29275818  0.56019616  1
  O  O32  1  0.51240156  0.10611189  0.66255993  1
  O  O33  1  0.40628967  0.89388811  0.83744007  1
  O  O34  1  0.48759844  0.89388811  0.33744007  1
  O  O35  1  0.59371033  0.10611189  0.16255993  1
