# generated using pymatgen
data_CrH10SO9
_symmetry_space_group_name_H-M   'P 1'
_cell_length_a   6.06144419
_cell_length_b   6.19519143
_cell_length_c   11.31352196
_cell_angle_alpha   102.67578384
_cell_angle_beta   97.96497167
_cell_angle_gamma   71.55196051
_symmetry_Int_Tables_number   1
_chemical_formula_structural   CrH10SO9
_chemical_formula_sum   'Cr2 H20 S2 O18'
_cell_volume   392.09011873
_cell_formula_units_Z   2
loop_
 _symmetry_equiv_pos_site_id
 _symmetry_equiv_pos_as_xyz
  1  'x, y, z'
loop_
 _atom_site_type_symbol
 _atom_site_label
 _atom_site_symmetry_multiplicity
 _atom_site_fract_x
 _atom_site_fract_y
 _atom_site_fract_z
 _atom_site_occupancy
  Cr  Cr0  1  0.00000000  0.00000000  0.00000000  1
  Cr  Cr1  1  0.00000000  0.50000000  0.50000000  1
  H  H2  1  0.74144605  0.88887866  0.14258625  1
  H  H3  1  0.25855395  0.11112134  0.85741375  1
  H  H4  1  0.75855195  0.71280438  0.01394248  1
  H  H5  1  0.24144805  0.28719562  0.98605752  1
  H  H6  1  0.92610634  0.30414467  0.20044361  1
  H  H7  1  0.07389366  0.69585533  0.79955639  1
  H  H8  1  0.66980138  0.34273146  0.12743349  1
  H  H9  1  0.33019862  0.65726854  0.87256651  1
  H  H10  1  0.55679243  0.60847590  0.38452901  1
  H  H11  1  0.44320757  0.39152410  0.61547099  1
  H  H12  1  0.64108798  0.32761600  0.37152875  1
  H  H13  1  0.35891202  0.67238400  0.62847125  1
  H  H14  1  0.11114784  0.81236823  0.39824806  1
  H  H15  1  0.88885216  0.18763177  0.60175194  1
  H  H16  1  0.83198314  0.86633878  0.37786666  1
  H  H17  1  0.16801686  0.13366122  0.62213334  1
  H  H18  1  0.32646548  0.60319896  0.13122583  1
  H  H19  1  0.67353452  0.39680104  0.86877417  1
  H  H20  1  0.30723030  0.39924771  0.18808903  1
  H  H21  1  0.69276970  0.60075229  0.81191097  1
  S  S22  1  0.36699654  0.00668262  0.28219811  1
  S  S23  1  0.63300346  0.99331738  0.71780189  1
  O  O24  1  0.32199886  0.89245097  0.15426260  1
  O  O25  1  0.67800114  0.10754903  0.84573740  1
  O  O26  1  0.19407816  0.24156155  0.30781551  1
  O  O27  1  0.80592184  0.75843845  0.69218449  1
  O  O28  1  0.35306352  0.85993853  0.36760278  1
  O  O29  1  0.64693648  0.14006147  0.63239722  1
  O  O30  1  0.60810110  0.03414953  0.29657828  1
  O  O31  1  0.39189890  0.96585047  0.70342172  1
  O  O32  1  0.83836643  0.81300963  0.07322724  1
  O  O33  1  0.16163357  0.18699037  0.92677276  1
  O  O34  1  0.84162840  0.29843168  0.11928238  1
  O  O35  1  0.15837160  0.70156832  0.88071762  1
  O  O36  1  0.68837089  0.46989760  0.40045195  1
  O  O37  1  0.31162911  0.53010240  0.59954805  1
  O  O38  1  0.97564899  0.77113402  0.41726472  1
  O  O39  1  0.02435101  0.22886598  0.58273528  1
  O  O40  1  0.37054889  0.43100619  0.12058374  1
  O  O41  1  0.62945111  0.56899381  0.87941626  1
