# generated using pymatgen
data_Zn2SiH2O5
_symmetry_space_group_name_H-M   'P 1'
_cell_length_a   5.19859557
_cell_length_b   8.38296268
_cell_length_c   10.73193898
_cell_angle_alpha   90.00000000
_cell_angle_beta   90.00000000
_cell_angle_gamma   90.00000000
_symmetry_Int_Tables_number   1
_chemical_formula_structural   Zn2SiH2O5
_chemical_formula_sum   'Zn8 Si4 H8 O20'
_cell_volume   467.69395839
_cell_formula_units_Z   4
loop_
 _symmetry_equiv_pos_site_id
 _symmetry_equiv_pos_as_xyz
  1  'x, y, z'
loop_
 _atom_site_type_symbol
 _atom_site_label
 _atom_site_symmetry_multiplicity
 _atom_site_fract_x
 _atom_site_fract_y
 _atom_site_fract_z
 _atom_site_occupancy
  Zn  Zn0  1  0.49873010  0.73857706  0.35339779  1
  Zn  Zn1  1  0.49873010  0.26142294  0.64660221  1
  Zn  Zn2  1  -0.00126990  0.76142294  0.85339779  1
  Zn  Zn3  1  -0.00126990  0.23857706  0.14660221  1
  Zn  Zn4  1  0.99055161  0.83101129  0.17314346  1
  Zn  Zn5  1  0.99055161  0.16898871  0.82685654  1
  Zn  Zn6  1  0.49055161  0.66898871  0.67314346  1
  Zn  Zn7  1  0.49055161  0.33101129  0.32685654  1
  Si  Si8  1  0.00451436  0.53079334  0.35382807  1
  Si  Si9  1  0.00451436  0.46920666  0.64617193  1
  Si  Si10  1  0.50451436  0.96920666  0.85382807  1
  Si  Si11  1  0.50451436  0.03079334  0.14617193  1
  H  H12  1  0.66921153  0.87332809  0.53723049  1
  H  H13  1  0.66921153  0.12667191  0.46276951  1
  H  H14  1  0.16921153  0.62667191  0.03723049  1
  H  H15  1  0.16921153  0.37332809  0.96276951  1
  H  H16  1  0.08093276  0.95418813  0.43780758  1
  H  H17  1  0.08093276  0.04581187  0.56219242  1
  H  H18  1  0.58093276  0.54581187  0.93780758  1
  H  H19  1  0.58093276  0.45418813  0.06219242  1
  O  O20  1  0.12953976  0.70441948  0.31511617  1
  O  O21  1  0.12953976  0.29558052  0.68488383  1
  O  O22  1  0.62953976  0.79558052  0.81511617  1
  O  O23  1  0.62953976  0.20441948  0.18488383  1
  O  O24  1  0.63675491  0.88550226  0.22658974  1
  O  O25  1  0.63675491  0.11449774  0.77341026  1
  O  O26  1  0.13675491  0.61449774  0.72658974  1
  O  O27  1  0.13675491  0.38550226  0.27341026  1
  O  O28  1  0.69219731  0.53329102  0.33261688  1
  O  O29  1  0.69219731  0.46670898  0.66738312  1
  O  O30  1  0.19219731  0.96670898  0.83261688  1
  O  O31  1  0.19219731  0.03329102  0.16738312  1
  O  O32  1  0.51784994  0.80484969  0.52727349  1
  O  O33  1  0.51784994  0.19515031  0.47272651  1
  O  O34  1  0.01784994  0.69515031  0.02727349  1
  O  O35  1  0.01784994  0.30484969  0.97272651  1
  O  O36  1  0.08694849  0.50000000  0.50000000  1
  O  O37  1  0.58694849  -0.00000000  -0.00000000  1
  O  O38  1  0.96518696  -0.00000000  0.50000000  1
  O  O39  1  0.46518696  0.50000000  -0.00000000  1
