# generated using pymatgen
data_Sr3MgFe2S2O5
_symmetry_space_group_name_H-M   'P 1'
_cell_length_a   3.95812589
_cell_length_b   3.95812589
_cell_length_c   14.09979421
_cell_angle_alpha   98.06874337
_cell_angle_beta   98.06874337
_cell_angle_gamma   90.00000000
_symmetry_Int_Tables_number   1
_chemical_formula_structural   Sr3MgFe2S2O5
_chemical_formula_sum   'Sr3 Mg1 Fe2 S2 O5'
_cell_volume   216.50239678
_cell_formula_units_Z   1
loop_
 _symmetry_equiv_pos_site_id
 _symmetry_equiv_pos_as_xyz
  1  'x, y, z'
loop_
 _atom_site_type_symbol
 _atom_site_label
 _atom_site_symmetry_multiplicity
 _atom_site_fract_x
 _atom_site_fract_y
 _atom_site_fract_z
 _atom_site_occupancy
  Sr  Sr0  1  0.50000000  0.50000000  -0.00000000  1
  Sr  Sr1  1  0.63759591  0.63759591  0.27519182  1
  Sr  Sr2  1  0.36240409  0.36240409  0.72480818  1
  Mg  Mg3  1  0.75000000  0.25000000  0.50000000  1
  Fe  Fe4  1  0.06968236  0.06968236  0.13936472  1
  Fe  Fe5  1  0.93031764  0.93031764  0.86063528  1
  S  S6  1  0.19367614  0.19367614  0.38735328  1
  S  S7  1  0.80632386  0.80632386  0.61264672  1
  O  O8  1  0.07913070  0.57913070  0.15826140  1
  O  O9  1  0.58017841  0.08017841  0.16035782  1
  O  O10  1  0.91982159  0.41982159  0.83964218  1
  O  O11  1  0.42086930  0.92086930  0.84173860  1
  O  O12  1  0.00000000  0.00000000  -0.00000000  1
