# generated using pymatgen
data_NaCaPH18SO12
_symmetry_space_group_name_H-M   'P 1'
_cell_length_a   10.85222410
_cell_length_b   10.85222410
_cell_length_c   10.85222410
_cell_angle_alpha   90.00000000
_cell_angle_beta   90.00000000
_cell_angle_gamma   90.00000000
_symmetry_Int_Tables_number   1
_chemical_formula_structural   NaCaPH18SO12
_chemical_formula_sum   'Na4 Ca4 P4 H72 S4 O48'
_cell_volume   1278.07476586
_cell_formula_units_Z   4
loop_
 _symmetry_equiv_pos_site_id
 _symmetry_equiv_pos_as_xyz
  1  'x, y, z'
loop_
 _atom_site_type_symbol
 _atom_site_label
 _atom_site_symmetry_multiplicity
 _atom_site_fract_x
 _atom_site_fract_y
 _atom_site_fract_z
 _atom_site_occupancy
  Na  Na0  1  0.68223651  0.18223651  0.31776349  1
  Na  Na1  1  0.18223651  0.31776349  0.68223651  1
  Na  Na2  1  0.31776349  0.68223651  0.18223651  1
  Na  Na3  1  0.81776349  0.81776349  0.81776349  1
  Ca  Ca4  1  0.43828650  0.43828650  0.43828650  1
  Ca  Ca5  1  0.56171350  0.93828650  0.06171350  1
  Ca  Ca6  1  0.93828650  0.06171350  0.56171350  1
  Ca  Ca7  1  0.06171350  0.56171350  0.93828650  1
  P  P8  1  0.44115606  0.94115606  0.55884394  1
  P  P9  1  0.94115606  0.55884394  0.44115606  1
  P  P10  1  0.55884394  0.44115606  0.94115606  1
  P  P11  1  0.05884394  0.05884394  0.05884394  1
  H  H12  1  0.42509953  0.42900900  0.15706787  1
  H  H13  1  0.84293213  0.92509953  0.07099100  1
  H  H14  1  0.92900900  0.34293213  0.57490047  1
  H  H15  1  0.92509953  0.07099100  0.84293213  1
  H  H16  1  0.34293213  0.57490047  0.92900900  1
  H  H17  1  0.42900900  0.15706787  0.42509953  1
  H  H18  1  0.57490047  0.92900900  0.34293213  1
  H  H19  1  0.15706787  0.42509953  0.42900900  1
  H  H20  1  0.07099100  0.84293213  0.92509953  1
  H  H21  1  0.07490047  0.57099100  0.65706787  1
  H  H22  1  0.65706787  0.07490047  0.57099100  1
  H  H23  1  0.57099100  0.65706787  0.07490047  1
  H  H24  1  0.28507951  0.44001467  0.19862552  1
  H  H25  1  0.80137448  0.78507951  0.05998533  1
  H  H26  1  0.94001467  0.30137448  0.71492049  1
  H  H27  1  0.78507951  0.05998533  0.80137448  1
  H  H28  1  0.30137448  0.71492049  0.94001467  1
  H  H29  1  0.44001467  0.19862552  0.28507951  1
  H  H30  1  0.71492049  0.94001467  0.30137448  1
  H  H31  1  0.19862552  0.28507951  0.44001467  1
  H  H32  1  0.05998533  0.80137448  0.78507951  1
  H  H33  1  0.21492049  0.55998533  0.69862552  1
  H  H34  1  0.69862552  0.21492049  0.55998533  1
  H  H35  1  0.55998533  0.69862552  0.21492049  1
  H  H36  1  0.61513860  0.39728799  0.19321310  1
  H  H37  1  0.80678690  0.11513860  0.10271201  1
  H  H38  1  0.89728799  0.30678690  0.38486140  1
  H  H39  1  0.11513860  0.10271201  0.80678690  1
  H  H40  1  0.30678690  0.38486140  0.89728799  1
  H  H41  1  0.39728799  0.19321310  0.61513860  1
  H  H42  1  0.38486140  0.89728799  0.30678690  1
  H  H43  1  0.19321310  0.61513860  0.39728799  1
  H  H44  1  0.10271201  0.80678690  0.11513860  1
  H  H45  1  0.88486140  0.60271201  0.69321310  1
  H  H46  1  0.69321310  0.88486140  0.60271201  1
  H  H47  1  0.60271201  0.69321310  0.88486140  1
  H  H48  1  0.70758568  0.45969896  0.28830991  1
  H  H49  1  0.71169009  0.20758568  0.04030104  1
  H  H50  1  0.95969896  0.21169009  0.29241432  1
  H  H51  1  0.20758568  0.04030104  0.71169009  1
  H  H52  1  0.21169009  0.29241432  0.95969896  1
  H  H53  1  0.45969896  0.28830991  0.70758568  1
  H  H54  1  0.29241432  0.95969896  0.21169009  1
  H  H55  1  0.28830991  0.70758568  0.45969896  1
  H  H56  1  0.04030104  0.71169009  0.20758568  1
  H  H57  1  0.79241432  0.54030104  0.78830991  1
  H  H58  1  0.78830991  0.79241432  0.54030104  1
  H  H59  1  0.54030104  0.78830991  0.79241432  1
  H  H60  1  0.51600371  0.71921436  0.42186433  1
  H  H61  1  0.57813567  0.01600371  0.78078564  1
  H  H62  1  0.21921436  0.07813567  0.48399629  1
  H  H63  1  0.01600371  0.78078564  0.57813567  1
  H  H64  1  0.07813567  0.48399629  0.21921436  1
  H  H65  1  0.71921436  0.42186433  0.51600371  1
  H  H66  1  0.48399629  0.21921436  0.07813567  1
  H  H67  1  0.42186433  0.51600371  0.71921436  1
  H  H68  1  0.78078564  0.57813567  0.01600371  1
  H  H69  1  0.98399629  0.28078564  0.92186433  1
  H  H70  1  0.92186433  0.98399629  0.28078564  1
  H  H71  1  0.28078564  0.92186433  0.98399629  1
  H  H72  1  0.63497289  0.63913370  0.39348587  1
  H  H73  1  0.60651413  0.13497289  0.86086630  1
  H  H74  1  0.13913370  0.10651413  0.36502711  1
  H  H75  1  0.13497289  0.86086630  0.60651413  1
  H  H76  1  0.10651413  0.36502711  0.13913370  1
  H  H77  1  0.63913370  0.39348587  0.63497289  1
  H  H78  1  0.36502711  0.13913370  0.10651413  1
  H  H79  1  0.39348587  0.63497289  0.63913370  1
  H  H80  1  0.86086630  0.60651413  0.13497289  1
  H  H81  1  0.86502711  0.36086630  0.89348587  1
  H  H82  1  0.89348587  0.86502711  0.36086630  1
  H  H83  1  0.36086630  0.89348587  0.86502711  1
  S  S84  1  0.33138621  0.83138621  0.66861379  1
  S  S85  1  0.83138621  0.66861379  0.33138621  1
  S  S86  1  0.66861379  0.33138621  0.83138621  1
  S  S87  1  0.16861379  0.16861379  0.16861379  1
  O  O88  1  0.56199426  0.97029872  0.62978027  1
  O  O89  1  0.37021973  0.06199426  0.52970128  1
  O  O90  1  0.47029872  0.87021973  0.43800574  1
  O  O91  1  0.06199426  0.52970128  0.37021973  1
  O  O92  1  0.87021973  0.43800574  0.47029872  1
  O  O93  1  0.97029872  0.62978027  0.56199426  1
  O  O94  1  0.43800574  0.47029872  0.87021973  1
  O  O95  1  0.62978027  0.56199426  0.97029872  1
  O  O96  1  0.52970128  0.37021973  0.06199426  1
  O  O97  1  0.93800574  0.02970128  0.12978027  1
  O  O98  1  0.12978027  0.93800574  0.02970128  1
  O  O99  1  0.02970128  0.12978027  0.93800574  1
  O  O100  1  0.36924063  0.46207851  0.22299880  1
  O  O101  1  0.77700120  0.86924063  0.03792149  1
  O  O102  1  0.96207851  0.27700120  0.63075937  1
  O  O103  1  0.86924063  0.03792149  0.77700120  1
  O  O104  1  0.27700120  0.63075937  0.96207851  1
  O  O105  1  0.46207851  0.22299880  0.36924063  1
  O  O106  1  0.63075937  0.96207851  0.27700120  1
  O  O107  1  0.22299880  0.36924063  0.46207851  1
  O  O108  1  0.03792149  0.77700120  0.86924063  1
  O  O109  1  0.13075937  0.53792149  0.72299880  1
  O  O110  1  0.72299880  0.13075937  0.53792149  1
  O  O111  1  0.53792149  0.72299880  0.13075937  1
  O  O112  1  0.64224762  0.39799804  0.28123149  1
  O  O113  1  0.71876851  0.14224762  0.10200196  1
  O  O114  1  0.89799804  0.21876851  0.35775238  1
  O  O115  1  0.14224762  0.10200196  0.71876851  1
  O  O116  1  0.21876851  0.35775238  0.89799804  1
  O  O117  1  0.39799804  0.28123149  0.64224762  1
  O  O118  1  0.35775238  0.89799804  0.21876851  1
  O  O119  1  0.28123149  0.64224762  0.39799804  1
  O  O120  1  0.10200196  0.71876851  0.14224762  1
  O  O121  1  0.85775238  0.60200196  0.78123149  1
  O  O122  1  0.78123149  0.85775238  0.60200196  1
  O  O123  1  0.60200196  0.78123149  0.85775238  1
  O  O124  1  0.54388108  0.63688625  0.39138877  1
  O  O125  1  0.60861123  0.04388108  0.86311375  1
  O  O126  1  0.13688625  0.10861123  0.45611892  1
  O  O127  1  0.04388108  0.86311375  0.60861123  1
  O  O128  1  0.10861123  0.45611892  0.13688625  1
  O  O129  1  0.63688625  0.39138877  0.54388108  1
  O  O130  1  0.45611892  0.13688625  0.10861123  1
  O  O131  1  0.39138877  0.54388108  0.63688625  1
  O  O132  1  0.86311375  0.60861123  0.04388108  1
  O  O133  1  0.95611892  0.36311375  0.89138877  1
  O  O134  1  0.89138877  0.95611892  0.36311375  1
  O  O135  1  0.36311375  0.89138877  0.95611892  1
