# generated using pymatgen
data_KCa7Si3(O4F)3
_symmetry_space_group_name_H-M   'P 1'
_cell_length_a   6.70020078
_cell_length_b   10.92933271
_cell_length_c   10.92933271
_cell_angle_alpha   119.99999472
_cell_angle_beta   90.00000000
_cell_angle_gamma   90.00000000
_symmetry_Int_Tables_number   1
_chemical_formula_structural   KCa7Si3(O4F)3
_chemical_formula_sum   'K2 Ca14 Si6 O24 F6'
_cell_volume   693.11574671
_cell_formula_units_Z   2
loop_
 _symmetry_equiv_pos_site_id
 _symmetry_equiv_pos_as_xyz
  1  'x, y, z'
loop_
 _atom_site_type_symbol
 _atom_site_label
 _atom_site_symmetry_multiplicity
 _atom_site_fract_x
 _atom_site_fract_y
 _atom_site_fract_z
 _atom_site_occupancy
  K  K0  1  0.18933398  0.33333300  0.66666700  1
  K  K1  1  0.68933398  0.66666600  0.33333300  1
  Ca  Ca2  1  0.15253274  0.00000000  -0.00000000  1
  Ca  Ca3  1  0.65253274  0.00000000  -0.00000000  1
  Ca  Ca4  1  0.05479944  0.93853568  0.45740791  1
  Ca  Ca5  1  0.05479944  0.51887222  0.06146432  1
  Ca  Ca6  1  0.05479944  0.54259209  0.48112778  1
  Ca  Ca7  1  0.55479944  0.48112778  0.54259209  1
  Ca  Ca8  1  0.55479944  0.45740791  0.93853568  1
  Ca  Ca9  1  0.55479944  0.06146432  0.51887222  1
  Ca  Ca10  1  0.37236713  0.82501534  0.63173746  1
  Ca  Ca11  1  0.37236713  0.80672213  0.17498466  1
  Ca  Ca12  1  0.37236713  0.36826254  0.19327787  1
  Ca  Ca13  1  0.87236713  0.19327787  0.36826254  1
  Ca  Ca14  1  0.87236713  0.63173746  0.82501534  1
  Ca  Ca15  1  0.87236713  0.17498466  0.80672213  1
  Si  Si16  1  0.35075543  0.15403833  0.81619068  1
  Si  Si17  1  0.35075543  0.66215234  0.84596167  1
  Si  Si18  1  0.35075543  0.18380932  0.33784766  1
  Si  Si19  1  0.85075543  0.33784766  0.18380932  1
  Si  Si20  1  0.85075543  0.81619068  0.15403833  1
  Si  Si21  1  0.85075543  0.84596167  0.66215234  1
  O  O22  1  0.54257013  0.21807033  0.77086934  1
  O  O23  1  0.54257013  0.55279901  0.78192967  1
  O  O24  1  0.54257013  0.22913066  0.44720099  1
  O  O25  1  0.04257013  0.44720099  0.22913066  1
  O  O26  1  0.04257013  0.77086934  0.21807033  1
  O  O27  1  0.04257013  0.78192967  0.55279901  1
  O  O28  1  0.21527560  0.07324184  0.67084752  1
  O  O29  1  0.21527560  0.59760567  0.92675816  1
  O  O30  1  0.21527560  0.32915248  0.40239433  1
  O  O31  1  0.71527560  0.40239433  0.32915248  1
  O  O32  1  0.71527560  0.67084752  0.07324184  1
  O  O33  1  0.71527560  0.92675816  0.59760567  1
  O  O34  1  0.22547645  0.28676108  0.94362674  1
  O  O35  1  0.22547645  0.65686566  0.71323892  1
  O  O36  1  0.22547645  0.05637326  0.34313434  1
  O  O37  1  0.72547645  0.34313434  0.05637326  1
  O  O38  1  0.72547645  0.94362674  0.28676108  1
  O  O39  1  0.72547645  0.71323892  0.65686566  1
  O  O40  1  0.40964026  0.82657679  0.96571203  1
  O  O41  1  0.40964026  0.13913524  0.17342321  1
  O  O42  1  0.40964026  0.03428797  0.86086476  1
  O  O43  1  0.90964026  0.86086476  0.03428797  1
  O  O44  1  0.90964026  0.96571203  0.82657679  1
  O  O45  1  0.90964026  0.17342321  0.13913524  1
  F  F46  1  0.88325665  0.15160823  0.56319758  1
  F  F47  1  0.88325665  0.41158935  0.84839177  1
  F  F48  1  0.88325665  0.43680242  0.58841065  1
  F  F49  1  0.38325665  0.58841065  0.43680242  1
  F  F50  1  0.38325665  0.56319758  0.15160823  1
  F  F51  1  0.38325665  0.84839177  0.41158935  1
