# generated using pymatgen
data_SiO2
_symmetry_space_group_name_H-M   'P 1'
_cell_length_a   12.00934689
_cell_length_b   15.48520197
_cell_length_c   15.48520197
_cell_angle_alpha   90.00000000
_cell_angle_beta   90.00000000
_cell_angle_gamma   90.00000000
_symmetry_Int_Tables_number   1
_chemical_formula_structural   SiO2
_chemical_formula_sum   'Si48 O96'
_cell_volume   2879.73906521
_cell_formula_units_Z   48
loop_
 _symmetry_equiv_pos_site_id
 _symmetry_equiv_pos_as_xyz
  1  'x, y, z'
loop_
 _atom_site_type_symbol
 _atom_site_label
 _atom_site_symmetry_multiplicity
 _atom_site_fract_x
 _atom_site_fract_y
 _atom_site_fract_z
 _atom_site_occupancy
  Si  Si0  1  0.81310257  0.23344078  0.59210806  1
  Si  Si1  1  0.81310257  0.76655922  0.40789194  1
  Si  Si2  1  0.81310257  0.26655922  0.09210806  1
  Si  Si3  1  0.81310257  0.73344078  0.90789194  1
  Si  Si4  1  0.81310257  0.59210806  0.76655922  1
  Si  Si5  1  0.81310257  0.40789194  0.23344078  1
  Si  Si6  1  0.81310257  0.09210806  0.73344078  1
  Si  Si7  1  0.81310257  0.90789194  0.26655922  1
  Si  Si8  1  0.18689743  0.76655922  0.40789194  1
  Si  Si9  1  0.18689743  0.23344078  0.59210806  1
  Si  Si10  1  0.18689743  0.73344078  0.90789194  1
  Si  Si11  1  0.18689743  0.26655922  0.09210806  1
  Si  Si12  1  0.18689743  0.40789194  0.23344078  1
  Si  Si13  1  0.18689743  0.59210806  0.76655922  1
  Si  Si14  1  0.18689743  0.90789194  0.26655922  1
  Si  Si15  1  0.18689743  0.09210806  0.73344078  1
  Si  Si16  1  0.00000000  0.82130821  0.53104845  1
  Si  Si17  1  0.00000000  0.17869179  0.46895155  1
  Si  Si18  1  0.00000000  0.67869179  0.03104845  1
  Si  Si19  1  0.00000000  0.32130821  0.96895155  1
  Si  Si20  1  0.00000000  0.53104845  0.17869179  1
  Si  Si21  1  0.00000000  0.46895155  0.82130821  1
  Si  Si22  1  0.00000000  0.03104845  0.32130821  1
  Si  Si23  1  0.00000000  0.96895155  0.67869179  1
  Si  Si24  1  0.00000000  0.68225773  0.67111235  1
  Si  Si25  1  0.00000000  0.31774227  0.32888765  1
  Si  Si26  1  0.00000000  0.81774227  0.17111235  1
  Si  Si27  1  0.00000000  0.18225773  0.82888765  1
  Si  Si28  1  0.00000000  0.67111235  0.31774227  1
  Si  Si29  1  0.00000000  0.32888765  0.68225773  1
  Si  Si30  1  0.00000000  0.17111235  0.18225773  1
  Si  Si31  1  0.00000000  0.82888765  0.81774227  1
  Si  Si32  1  0.63014983  0.35946611  0.52760166  1
  Si  Si33  1  0.63014983  0.64053389  0.47239834  1
  Si  Si34  1  0.63014983  0.14053389  0.02760166  1
  Si  Si35  1  0.63014983  0.85946611  0.97239834  1
  Si  Si36  1  0.63014983  0.52760166  0.64053389  1
  Si  Si37  1  0.63014983  0.47239834  0.35946611  1
  Si  Si38  1  0.63014983  0.02760166  0.85946611  1
  Si  Si39  1  0.63014983  0.97239834  0.14053389  1
  Si  Si40  1  0.36985017  0.64053389  0.47239834  1
  Si  Si41  1  0.36985017  0.35946611  0.52760166  1
  Si  Si42  1  0.36985017  0.85946611  0.97239834  1
  Si  Si43  1  0.36985017  0.14053389  0.02760166  1
  Si  Si44  1  0.36985017  0.47239834  0.35946611  1
  Si  Si45  1  0.36985017  0.52760166  0.64053389  1
  Si  Si46  1  0.36985017  0.97239834  0.14053389  1
  Si  Si47  1  0.36985017  0.02760166  0.85946611  1
  O  O48  1  0.88788727  0.31558248  0.62486784  1
  O  O49  1  0.88788727  0.68441752  0.37513216  1
  O  O50  1  0.88788727  0.18441752  0.12486784  1
  O  O51  1  0.88788727  0.81558248  0.87513216  1
  O  O52  1  0.88788727  0.62486784  0.68441752  1
  O  O53  1  0.88788727  0.37513216  0.31558248  1
  O  O54  1  0.88788727  0.12486784  0.81558248  1
  O  O55  1  0.88788727  0.87513216  0.18441752  1
  O  O56  1  0.11211273  0.68441752  0.37513216  1
  O  O57  1  0.11211273  0.31558248  0.62486784  1
  O  O58  1  0.11211273  0.81558248  0.87513216  1
  O  O59  1  0.11211273  0.18441752  0.12486784  1
  O  O60  1  0.11211273  0.37513216  0.31558248  1
  O  O61  1  0.11211273  0.62486784  0.68441752  1
  O  O62  1  0.11211273  0.87513216  0.18441752  1
  O  O63  1  0.11211273  0.12486784  0.81558248  1
  O  O64  1  0.70540090  0.27381376  0.54329352  1
  O  O65  1  0.70540090  0.72618624  0.45670648  1
  O  O66  1  0.70540090  0.22618624  0.04329352  1
  O  O67  1  0.70540090  0.77381376  0.95670648  1
  O  O68  1  0.70540090  0.54329352  0.72618624  1
  O  O69  1  0.70540090  0.45670648  0.27381376  1
  O  O70  1  0.70540090  0.04329352  0.77381376  1
  O  O71  1  0.70540090  0.95670648  0.22618624  1
  O  O72  1  0.29459910  0.72618624  0.45670648  1
  O  O73  1  0.29459910  0.27381376  0.54329352  1
  O  O74  1  0.29459910  0.77381376  0.95670648  1
  O  O75  1  0.29459910  0.22618624  0.04329352  1
  O  O76  1  0.29459910  0.45670648  0.27381376  1
  O  O77  1  0.29459910  0.54329352  0.72618624  1
  O  O78  1  0.29459910  0.95670648  0.22618624  1
  O  O79  1  0.29459910  0.04329352  0.77381376  1
  O  O80  1  0.77261037  0.17234015  0.67234015  1
  O  O81  1  0.77261037  0.82765985  0.32765985  1
  O  O82  1  0.77261037  0.32765985  0.17234015  1
  O  O83  1  0.77261037  0.67234015  0.82765985  1
  O  O84  1  0.22738963  0.82765985  0.32765985  1
  O  O85  1  0.22738963  0.17234015  0.67234015  1
  O  O86  1  0.22738963  0.67234015  0.82765985  1
  O  O87  1  0.22738963  0.32765985  0.17234015  1
  O  O88  1  0.88724530  0.17303663  0.52730755  1
  O  O89  1  0.88724530  0.82696337  0.47269245  1
  O  O90  1  0.88724530  0.32696337  0.02730755  1
  O  O91  1  0.88724530  0.67303663  0.97269245  1
  O  O92  1  0.88724530  0.52730755  0.82696337  1
  O  O93  1  0.88724530  0.47269245  0.17303663  1
  O  O94  1  0.88724530  0.02730755  0.67303663  1
  O  O95  1  0.88724530  0.97269245  0.32696337  1
  O  O96  1  0.11275470  0.82696337  0.47269245  1
  O  O97  1  0.11275470  0.17303663  0.52730755  1
  O  O98  1  0.11275470  0.67303663  0.97269245  1
  O  O99  1  0.11275470  0.32696337  0.02730755  1
  O  O100  1  0.11275470  0.47269245  0.17303663  1
  O  O101  1  0.11275470  0.52730755  0.82696337  1
  O  O102  1  0.11275470  0.97269245  0.32696337  1
  O  O103  1  0.11275470  0.02730755  0.67303663  1
  O  O104  1  0.00000000  0.72623772  0.57674141  1
  O  O105  1  0.00000000  0.27376228  0.42325859  1
  O  O106  1  0.00000000  0.77376228  0.07674141  1
  O  O107  1  0.00000000  0.22623772  0.92325859  1
  O  O108  1  0.00000000  0.57674141  0.27376228  1
  O  O109  1  0.00000000  0.42325859  0.72623772  1
  O  O110  1  0.00000000  0.07674141  0.22623772  1
  O  O111  1  0.00000000  0.92325859  0.77376228  1
  O  O112  1  0.00000000  0.90097757  0.59902243  1
  O  O113  1  0.00000000  0.09902243  0.40097757  1
  O  O114  1  0.00000000  0.59902243  0.09902243  1
  O  O115  1  0.00000000  0.40097757  0.90097757  1
  O  O116  1  0.00000000  0.75709987  0.74290013  1
  O  O117  1  0.00000000  0.24290013  0.25709987  1
  O  O118  1  0.00000000  0.74290013  0.24290013  1
  O  O119  1  0.00000000  0.25709987  0.75709987  1
  O  O120  1  0.65678410  0.43197451  0.60132024  1
  O  O121  1  0.65678410  0.56802549  0.39867976  1
  O  O122  1  0.65678410  0.06802549  0.10132024  1
  O  O123  1  0.65678410  0.93197451  0.89867976  1
  O  O124  1  0.65678410  0.60132024  0.56802549  1
  O  O125  1  0.65678410  0.39867976  0.43197451  1
  O  O126  1  0.65678410  0.10132024  0.93197451  1
  O  O127  1  0.65678410  0.89867976  0.06802549  1
  O  O128  1  0.34321590  0.56802549  0.39867976  1
  O  O129  1  0.34321590  0.43197451  0.60132024  1
  O  O130  1  0.34321590  0.93197451  0.89867976  1
  O  O131  1  0.34321590  0.06802549  0.10132024  1
  O  O132  1  0.34321590  0.39867976  0.43197451  1
  O  O133  1  0.34321590  0.60132024  0.56802549  1
  O  O134  1  0.34321590  0.89867976  0.06802549  1
  O  O135  1  0.34321590  0.10132024  0.93197451  1
  O  O136  1  0.50000000  0.33067721  0.53287899  1
  O  O137  1  0.50000000  0.66932279  0.46712101  1
  O  O138  1  0.50000000  0.16932279  0.03287899  1
  O  O139  1  0.50000000  0.83067721  0.96712101  1
  O  O140  1  0.50000000  0.53287899  0.66932279  1
  O  O141  1  0.50000000  0.46712101  0.33067721  1
  O  O142  1  0.50000000  0.03287899  0.83067721  1
  O  O143  1  0.50000000  0.96712101  0.16932279  1
