# generated using pymatgen
data_Li2TeMoO6
_symmetry_space_group_name_H-M   'P 1'
_cell_length_a   5.46134228
_cell_length_b   7.10897232
_cell_length_c   13.24626292
_cell_angle_alpha   90.00000000
_cell_angle_beta   90.00000000
_cell_angle_gamma   94.50094275
_symmetry_Int_Tables_number   1
_chemical_formula_structural   Li2TeMoO6
_chemical_formula_sum   'Li8 Te4 Mo4 O24'
_cell_volume   512.69392962
_cell_formula_units_Z   4
loop_
 _symmetry_equiv_pos_site_id
 _symmetry_equiv_pos_as_xyz
  1  'x, y, z'
loop_
 _atom_site_type_symbol
 _atom_site_label
 _atom_site_symmetry_multiplicity
 _atom_site_fract_x
 _atom_site_fract_y
 _atom_site_fract_z
 _atom_site_occupancy
  Li  Li0  1  0.79965302  0.26569642  0.43111132  1
  Li  Li1  1  0.29965302  0.76569642  0.06888868  1
  Li  Li2  1  0.20034698  0.73430358  0.56888868  1
  Li  Li3  1  0.70034698  0.23430358  0.93111132  1
  Li  Li4  1  0.75776976  0.51629598  0.64655556  1
  Li  Li5  1  0.25776976  0.01629598  0.85344444  1
  Li  Li6  1  0.24223024  0.48370402  0.35344444  1
  Li  Li7  1  0.74223024  0.98370402  0.14655556  1
  Te  Te8  1  0.24811842  0.93369714  0.29286620  1
  Te  Te9  1  0.74811842  0.43369714  0.20713380  1
  Te  Te10  1  0.75188158  0.06630286  0.70713380  1
  Te  Te11  1  0.25188158  0.56630286  0.79286620  1
  Mo  Mo12  1  0.71917644  0.74636766  0.40876422  1
  Mo  Mo13  1  0.21917644  0.24636766  0.09123578  1
  Mo  Mo14  1  0.28082356  0.25363234  0.59123578  1
  Mo  Mo15  1  0.78082356  0.75363234  0.90876422  1
  O  O16  1  0.85892165  0.66316311  0.52029708  1
  O  O17  1  0.35892165  0.16316311  0.97970292  1
  O  O18  1  0.14107835  0.33683689  0.47970292  1
  O  O19  1  0.64107835  0.83683689  0.02029708  1
  O  O20  1  0.80376458  0.99256608  0.40860788  1
  O  O21  1  0.30376458  0.49256608  0.09139212  1
  O  O22  1  0.19623542  0.00743392  0.59139212  1
  O  O23  1  0.69623542  0.50743392  0.90860788  1
  O  O24  1  0.39859646  0.73597350  0.44545110  1
  O  O25  1  0.89859646  0.23597350  0.05454890  1
  O  O26  1  0.60140354  0.26402650  0.55454890  1
  O  O27  1  0.10140354  0.76402650  0.94545110  1
  O  O28  1  0.01621629  0.70979063  0.30786537  1
  O  O29  1  0.51621629  0.20979063  0.19213463  1
  O  O30  1  0.98378371  0.29020937  0.69213463  1
  O  O31  1  0.48378371  0.79020937  0.80786537  1
  O  O32  1  0.13338521  0.96682512  0.15589510  1
  O  O33  1  0.63338521  0.46682512  0.34410490  1
  O  O34  1  0.86661479  0.03317488  0.84410490  1
  O  O35  1  0.36661479  0.53317488  0.65589510  1
  O  O36  1  0.52554947  0.80933776  0.25043177  1
  O  O37  1  0.02554947  0.30933776  0.24956823  1
  O  O38  1  0.47445053  0.19066224  0.74956823  1
  O  O39  1  0.97445053  0.69066224  0.75043177  1
