# generated using pymatgen
data_K2LiV5H10O19
_symmetry_space_group_name_H-M   'P 1'
_cell_length_a   8.69413861
_cell_length_b   10.29334231
_cell_length_c   11.03172883
_cell_angle_alpha   69.16160658
_cell_angle_beta   86.95250197
_cell_angle_gamma   66.23773447
_symmetry_Int_Tables_number   1
_chemical_formula_structural   K2LiV5H10O19
_chemical_formula_sum   'K4 Li2 V10 H20 O38'
_cell_volume   839.74519130
_cell_formula_units_Z   2
loop_
 _symmetry_equiv_pos_site_id
 _symmetry_equiv_pos_as_xyz
  1  'x, y, z'
loop_
 _atom_site_type_symbol
 _atom_site_label
 _atom_site_symmetry_multiplicity
 _atom_site_fract_x
 _atom_site_fract_y
 _atom_site_fract_z
 _atom_site_occupancy
  K  K0  1  0.31586993  0.28969164  0.00966278  1
  K  K1  1  0.68413007  0.71030836  0.99033722  1
  K  K2  1  0.76290158  0.32835488  0.42403911  1
  K  K3  1  0.23709842  0.67164512  0.57596089  1
  Li  Li4  1  0.43925580  0.16268092  0.36185376  1
  Li  Li5  1  0.56074420  0.83731908  0.63814624  1
  V  V6  1  0.18597105  0.00114061  0.98096684  1
  V  V7  1  0.81402895  0.99885939  0.01903316  1
  V  V8  1  0.12657872  0.70768323  0.99908773  1
  V  V9  1  0.87342128  0.29231677  0.00091227  1
  V  V10  1  0.02606661  0.99592168  0.24976803  1
  V  V11  1  0.97393339  0.00407832  0.75023197  1
  V  V12  1  0.33007657  0.70694620  0.22746978  1
  V  V13  1  0.66992343  0.29305380  0.77253022  1
  V  V14  1  0.97065703  0.70286701  0.26790953  1
  V  V15  1  0.02934297  0.29713299  0.73209047  1
  H  H16  1  0.11029945  0.25522536  0.26061388  1
  H  H17  1  0.88970055  0.74477464  0.73938612  1
  H  H18  1  0.12463244  0.41166754  0.22253482  1
  H  H19  1  0.87536756  0.58833246  0.77746518  1
  H  H20  1  0.57629376  0.96491074  0.21987902  1
  H  H21  1  0.42370624  0.03508926  0.78012098  1
  H  H22  1  0.39663062  0.97175974  0.25468004  1
  H  H23  1  0.60336938  0.02824026  0.74531996  1
  H  H24  1  0.26484757  0.98951226  0.45796717  1
  H  H25  1  0.73515243  0.01048774  0.54203283  1
  H  H26  1  0.23736692  0.06521251  0.56034698  1
  H  H27  1  0.76263308  0.93478749  0.43965302  1
  H  H28  1  0.40213240  0.26099240  0.55874402  1
  H  H29  1  0.59786760  0.73900760  0.44125598  1
  H  H30  1  0.33308833  0.40005470  0.42857327  1
  H  H31  1  0.66691167  0.59994530  0.57142673  1
  H  H32  1  0.64033820  0.24730113  0.17822325  1
  H  H33  1  0.35966180  0.75269887  0.82177675  1
  H  H34  1  0.49496857  0.40577020  0.17336651  1
  H  H35  1  0.50503143  0.59422980  0.82663349  1
  O  O36  1  0.88980676  0.59377676  0.36722299  1
  O  O37  1  0.11019324  0.40622324  0.63277701  1
  O  O38  1  0.99480361  0.10584221  0.33574501  1
  O  O39  1  0.00519639  0.89415779  0.66425499  1
  O  O40  1  0.16335226  0.60586177  0.90658872  1
  O  O41  1  0.83664774  0.39413823  0.09341128  1
  O  O42  1  0.18248306  0.87953410  0.87981668  1
  O  O43  1  0.81751694  0.12046590  0.12018332  1
  O  O44  1  0.52173675  0.60111433  0.30068900  1
  O  O45  1  0.47826325  0.39888567  0.69931100  1
  O  O46  1  0.06581800  0.87546197  0.10631708  1
  O  O47  1  0.93418200  0.12453803  0.89368292  1
  O  O48  1  0.20125923  0.61155470  0.32851960  1
  O  O49  1  0.79874077  0.38844530  0.67148040  1
  O  O50  1  0.10118747  0.12236893  0.08610192  1
  O  O51  1  0.89881253  0.87763107  0.91389808  1
  O  O52  1  0.37321667  0.87002624  0.07583393  1
  O  O53  1  0.62678333  0.12997376  0.92416607  1
  O  O54  1  0.76298373  0.86684107  0.14584694  1
  O  O55  1  0.23701627  0.13315893  0.85415306  1
  O  O56  1  0.02040391  0.62260566  0.13381915  1
  O  O57  1  0.97959609  0.37739434  0.86618085  1
  O  O58  1  0.24933186  0.86227705  0.30089849  1
  O  O59  1  0.75066814  0.13772295  0.69910151  1
  O  O60  1  0.32913899  0.62458547  0.09932408  1
  O  O61  1  0.67086101  0.37541453  0.90067592  1
  O  O62  1  0.94087296  0.85707067  0.33856897  1
  O  O63  1  0.05912704  0.14292933  0.66143103  1
  O  O64  1  0.19200117  0.30053480  0.25263675  1
  O  O65  1  0.80799883  0.69946520  0.74736325  1
  O  O66  1  0.47286155  0.02137059  0.25267792  1
  O  O67  1  0.52713845  0.97862941  0.74732208  1
  O  O68  1  0.32560233  0.01180788  0.51395820  1
  O  O69  1  0.67439767  0.98819212  0.48604180  1
  O  O70  1  0.42159083  0.29575733  0.46772576  1
  O  O71  1  0.57840917  0.70424267  0.53227424  1
  O  O72  1  0.54138624  0.29502432  0.22005297  1
  O  O73  1  0.45861376  0.70497568  0.77994703  1
