# generated using pymatgen
data_Na2MgB4(H5N)4
_symmetry_space_group_name_H-M   'P 1'
_cell_length_a   9.32566829
_cell_length_b   9.32566829
_cell_length_c   9.32566829
_cell_angle_alpha   93.32791050
_cell_angle_beta   118.09759340
_cell_angle_gamma   118.09759340
_symmetry_Int_Tables_number   1
_chemical_formula_structural   Na2MgB4(H5N)4
_chemical_formula_sum   'Na4 Mg2 B8 H40 N8'
_cell_volume   588.90476997
_cell_formula_units_Z   2
loop_
 _symmetry_equiv_pos_site_id
 _symmetry_equiv_pos_as_xyz
  1  'x, y, z'
loop_
 _atom_site_type_symbol
 _atom_site_label
 _atom_site_symmetry_multiplicity
 _atom_site_fract_x
 _atom_site_fract_y
 _atom_site_fract_z
 _atom_site_occupancy
  Na  Na0  1  0.00000000  0.50000000  -0.00000000  1
  Na  Na1  1  0.50000000  -0.00000000  -0.00000000  1
  Na  Na2  1  0.00000000  0.50000000  0.50000000  1
  Na  Na3  1  0.50000000  0.50000000  -0.00000000  1
  Mg  Mg4  1  0.25000000  0.12500000  0.37500000  1
  Mg  Mg5  1  0.75000000  0.87500000  0.62500000  1
  B  B6  1  0.46913614  0.24033088  0.19739273  1
  B  B7  1  0.03086386  0.72825659  0.27119474  1
  B  B8  1  0.45706186  0.69739273  0.22825659  1
  B  B9  1  0.04293814  0.77119474  0.74033088  1
  B  B10  1  0.53086386  0.75966912  0.80260727  1
  B  B11  1  0.96913614  0.27174341  0.72880526  1
  B  B12  1  0.54293814  0.30260727  0.77174341  1
  B  B13  1  0.95706186  0.22880526  0.25966912  1
  H  H14  1  0.58994360  0.38708671  0.31179011  1
  H  H15  1  0.91005640  0.72184652  0.29714311  1
  H  H16  1  0.42470341  0.81179011  0.22184652  1
  H  H17  1  0.07529659  0.79714311  0.88708671  1
  H  H18  1  0.41005640  0.61291329  0.68820989  1
  H  H19  1  0.08994360  0.27815348  0.70285689  1
  H  H20  1  0.57529659  0.18820989  0.77815348  1
  H  H21  1  0.92470341  0.20285689  0.11291329  1
  H  H22  1  0.52494593  0.14609934  0.24982121  1
  H  H23  1  0.97505407  0.72487527  0.12115341  1
  H  H24  1  0.60372186  0.74982121  0.22487527  1
  H  H25  1  0.89627814  0.62115341  0.64609934  1
  H  H26  1  0.47505407  0.85390066  0.75017879  1
  H  H27  1  0.02494593  0.27512473  0.87884659  1
  H  H28  1  0.39627814  0.25017879  0.77512473  1
  H  H29  1  0.10372186  0.37884659  0.35390066  1
  H  H30  1  0.46798059  0.25048103  0.06471122  1
  H  H31  1  0.03201941  0.59673062  0.28250044  1
  H  H32  1  0.31423019  0.56471122  0.09673062  1
  H  H33  1  0.18576981  0.78250044  0.75048103  1
  H  H34  1  0.53201941  0.74951897  0.93528878  1
  H  H35  1  0.96798059  0.40326938  0.71749956  1
  H  H36  1  0.68576981  0.43528878  0.90326938  1
  H  H37  1  0.81423019  0.21749956  0.24951897  1
  H  H38  1  0.20323881  0.23104214  0.11271842  1
  H  H39  1  0.29676119  0.90947960  0.52780333  1
  H  H40  1  0.38167628  0.61271842  0.40947960  1
  H  H41  1  0.11832372  0.02780333  0.73104214  1
  H  H42  1  0.79676119  0.76895786  0.88728158  1
  H  H43  1  0.70323881  0.09052040  0.47219667  1
  H  H44  1  0.61832372  0.38728158  0.59052040  1
  H  H45  1  0.88167628  0.97219667  0.26895786  1
  H  H46  1  0.16229612  0.04038724  0.06356176  1
  H  H47  1  0.33770388  0.90126565  0.37809112  1
  H  H48  1  0.52317452  0.56356176  0.40126565  1
  H  H49  1  0.97682548  0.87809112  0.54038724  1
  H  H50  1  0.83770388  0.95961276  0.93643824  1
  H  H51  1  0.66229612  0.09873435  0.62190888  1
  H  H52  1  0.47682548  0.43643824  0.59873435  1
  H  H53  1  0.02317452  0.12190888  0.45961276  1
  N  N54  1  0.25913907  0.16004243  0.16080610  1
  N  N55  1  0.24086093  0.90166703  0.40090336  1
  N  N56  1  0.50076367  0.66080610  0.40166703  1
  N  N57  1  0.99923633  0.90090336  0.66004243  1
  N  N58  1  0.74086093  0.83995757  0.83919390  1
  N  N59  1  0.75913907  0.09833297  0.59909664  1
  N  N60  1  0.49923633  0.33919390  0.59833297  1
  N  N61  1  0.00076367  0.09909664  0.33995757  1
