# generated using pymatgen
data_Y2CoGe6
_symmetry_space_group_name_H-M   'P 1'
_cell_length_a   4.07886892
_cell_length_b   4.00705500
_cell_length_c   10.93652361
_cell_angle_alpha   100.55597405
_cell_angle_beta   90.00000000
_cell_angle_gamma   90.00000000
_symmetry_Int_Tables_number   1
_chemical_formula_structural   Y2CoGe6
_chemical_formula_sum   'Y2 Co1 Ge6'
_cell_volume   175.72421851
_cell_formula_units_Z   1
loop_
 _symmetry_equiv_pos_site_id
 _symmetry_equiv_pos_as_xyz
  1  'x, y, z'
loop_
 _atom_site_type_symbol
 _atom_site_label
 _atom_site_symmetry_multiplicity
 _atom_site_fract_x
 _atom_site_fract_y
 _atom_site_fract_z
 _atom_site_occupancy
  Y  Y0  1  0.50000000  0.22264045  0.44528091  1
  Y  Y1  1  0.50000000  0.88613436  0.77226872  1
  Co  Co2  1  -0.00000000  0.44554242  0.89108484  1
  Ge  Ge3  1  0.50000000  0.49990411  0.99980821  1
  Ge  Ge4  1  0.50000000  0.61653531  0.23307062  1
  Ge  Ge5  1  -0.00000000  0.00090505  0.00181009  1
  Ge  Ge6  1  -0.00000000  0.11852221  0.23704442  1
  Ge  Ge7  1  -0.00000000  0.33896420  0.67792839  1
  Ge  Ge8  1  0.00000000  0.76385190  0.52770381  1
