# generated using pymatgen
data_Ba9Pr6Br34
_symmetry_space_group_name_H-M   'P 1'
_cell_length_a   12.04226550
_cell_length_b   12.04226550
_cell_length_c   14.32423267
_cell_angle_alpha   114.85642875
_cell_angle_beta   114.85642875
_cell_angle_gamma   90.00000000
_symmetry_Int_Tables_number   1
_chemical_formula_structural   Ba9Pr6Br34
_chemical_formula_sum   'Ba9 Pr6 Br34'
_cell_volume   1670.36685827
_cell_formula_units_Z   1
loop_
 _symmetry_equiv_pos_site_id
 _symmetry_equiv_pos_as_xyz
  1  'x, y, z'
loop_
 _atom_site_type_symbol
 _atom_site_label
 _atom_site_symmetry_multiplicity
 _atom_site_fract_x
 _atom_site_fract_y
 _atom_site_fract_z
 _atom_site_occupancy
  Ba  Ba0  1  -0.00000000  0.00000000  0.00000000  1
  Ba  Ba1  1  0.70503864  0.15861997  0.68430496  1
  Ba  Ba2  1  0.97926633  0.52568499  0.68430496  1
  Ba  Ba3  1  0.15861997  0.97926633  0.68430496  1
  Ba  Ba4  1  0.52568499  0.70503864  0.68430496  1
  Ba  Ba5  1  0.29496136  0.84138003  0.31569504  1
  Ba  Ba6  1  0.02073367  0.47431501  0.31569504  1
  Ba  Ba7  1  0.84138003  0.02073367  0.31569504  1
  Ba  Ba8  1  0.47431501  0.29496136  0.31569504  1
  Pr  Pr9  1  0.68760112  0.68760112  0.37520224  1
  Pr  Pr10  1  0.31239888  0.31239888  0.62479776  1
  Pr  Pr11  1  0.60802739  0.17821816  0.00000000  1
  Pr  Pr12  1  0.39197261  0.82178184  0.00000000  1
  Pr  Pr13  1  0.17821816  0.39197261  0.00000000  1
  Pr  Pr14  1  0.82178184  0.60802739  0.00000000  1
  Br  Br15  1  0.42183297  0.92183297  0.84366593  1
  Br  Br16  1  0.92183297  0.42183297  0.84366593  1
  Br  Br17  1  0.57816703  0.07816703  0.15633407  1
  Br  Br18  1  0.07816703  0.57816703  0.15633407  1
  Br  Br19  1  0.25000000  0.75000000  0.50000000  1
  Br  Br20  1  0.75000000  0.25000000  0.50000000  1
  Br  Br21  1  0.70800121  0.00400551  0.83841582  1
  Br  Br22  1  0.13041461  0.83441031  0.83841582  1
  Br  Br23  1  0.00400551  0.13041461  0.83841582  1
  Br  Br24  1  0.83441031  0.70800121  0.83841582  1
  Br  Br25  1  0.29199879  0.99599449  0.16158418  1
  Br  Br26  1  0.86958539  0.16558969  0.16158418  1
  Br  Br27  1  0.99599449  0.86958539  0.16158418  1
  Br  Br28  1  0.16558969  0.29199879  0.16158418  1
  Br  Br29  1  0.85101250  0.95475931  0.52085837  1
  Br  Br30  1  0.66984587  0.56609906  0.52085837  1
  Br  Br31  1  0.95475931  0.66984587  0.52085837  1
  Br  Br32  1  0.56609906  0.85101250  0.52085837  1
  Br  Br33  1  0.14898750  0.04524069  0.47914163  1
  Br  Br34  1  0.33015413  0.43390094  0.47914163  1
  Br  Br35  1  0.04524069  0.33015413  0.47914163  1
  Br  Br36  1  0.43390094  0.14898750  0.47914163  1
  Br  Br37  1  0.78175342  0.35722347  0.00000000  1
  Br  Br38  1  0.21824658  0.64277653  0.00000000  1
  Br  Br39  1  0.35722347  0.21824658  0.00000000  1
  Br  Br40  1  0.64277653  0.78175342  0.00000000  1
  Br  Br41  1  0.41118315  0.55044115  0.24479212  1
  Br  Br42  1  0.83360897  0.69435097  0.24479212  1
  Br  Br43  1  0.55044115  0.83360897  0.24479212  1
  Br  Br44  1  0.69435097  0.41118315  0.24479212  1
  Br  Br45  1  0.58881685  0.44955885  0.75520788  1
  Br  Br46  1  0.16639103  0.30564903  0.75520788  1
  Br  Br47  1  0.44955885  0.16639103  0.75520788  1
  Br  Br48  1  0.30564903  0.58881685  0.75520788  1
