# generated using pymatgen
data_Si(H3C)4
_symmetry_space_group_name_H-M   'P 1'
_cell_length_a   6.86564535
_cell_length_b   8.86151420
_cell_length_c   14.21870535
_cell_angle_alpha   90.00000000
_cell_angle_beta   90.00000000
_cell_angle_gamma   90.00000000
_symmetry_Int_Tables_number   1
_chemical_formula_structural   Si(H3C)4
_chemical_formula_sum   'Si4 H48 C16'
_cell_volume   865.06622916
_cell_formula_units_Z   4
loop_
 _symmetry_equiv_pos_site_id
 _symmetry_equiv_pos_as_xyz
  1  'x, y, z'
loop_
 _atom_site_type_symbol
 _atom_site_label
 _atom_site_symmetry_multiplicity
 _atom_site_fract_x
 _atom_site_fract_y
 _atom_site_fract_z
 _atom_site_occupancy
  Si  Si0  1  0.14442312  0.75000000  0.15497111  1
  Si  Si1  1  0.35557688  0.75000000  0.65497111  1
  Si  Si2  1  0.85557688  0.25000000  0.84502889  1
  Si  Si3  1  0.64442312  0.25000000  0.34502889  1
  H  H4  1  0.39923824  0.57237014  0.09437469  1
  H  H5  1  0.10076176  0.92762986  0.59437469  1
  H  H6  1  0.60076176  0.07237014  0.90562531  1
  H  H7  1  0.89923824  0.42762986  0.40562531  1
  H  H8  1  0.60076176  0.42762986  0.90562531  1
  H  H9  1  0.89923824  0.07237014  0.40562531  1
  H  H10  1  0.39923824  0.92762986  0.09437469  1
  H  H11  1  0.10076176  0.57237014  0.59437469  1
  H  H12  1  0.18526997  0.47272110  0.12791747  1
  H  H13  1  0.31473003  0.02727890  0.62791747  1
  H  H14  1  0.81473003  0.97272110  0.87208253  1
  H  H15  1  0.68526997  0.52727890  0.37208253  1
  H  H16  1  0.81473003  0.52727890  0.87208253  1
  H  H17  1  0.68526997  0.97272110  0.37208253  1
  H  H18  1  0.18526997  0.02727890  0.12791747  1
  H  H19  1  0.31473003  0.47272110  0.62791747  1
  H  H20  1  0.19144498  0.57310868  0.01973041  1
  H  H21  1  0.30855502  0.92689132  0.51973041  1
  H  H22  1  0.80855502  0.07310868  0.98026959  1
  H  H23  1  0.69144498  0.42689132  0.48026959  1
  H  H24  1  0.80855502  0.42689132  0.98026959  1
  H  H25  1  0.69144498  0.07310868  0.48026959  1
  H  H26  1  0.19144498  0.92689132  0.01973041  1
  H  H27  1  0.30855502  0.57310868  0.51973041  1
  H  H28  1  0.38809510  0.75000000  0.28635829  1
  H  H29  1  0.11190490  0.75000000  0.78635829  1
  H  H30  1  0.61190490  0.25000000  0.71364171  1
  H  H31  1  0.88809510  0.25000000  0.21364171  1
  H  H32  1  0.17373265  0.85017349  0.31901435  1
  H  H33  1  0.32626735  0.64982651  0.81901435  1
  H  H34  1  0.82626735  0.35017349  0.68098565  1
  H  H35  1  0.67373265  0.14982651  0.18098565  1
  H  H36  1  0.82626735  0.14982651  0.68098565  1
  H  H37  1  0.67373265  0.35017349  0.18098565  1
  H  H38  1  0.17373265  0.64982651  0.31901435  1
  H  H39  1  0.32626735  0.85017349  0.81901435  1
  H  H40  1  0.81538447  0.75000000  0.07880430  1
  H  H41  1  0.68461553  0.75000000  0.57880430  1
  H  H42  1  0.18461553  0.25000000  0.92119570  1
  H  H43  1  0.31538447  0.25000000  0.42119570  1
  H  H44  1  0.81009704  0.64964157  0.18718607  1
  H  H45  1  0.68990296  0.85035843  0.68718607  1
  H  H46  1  0.18990296  0.14964157  0.81281393  1
  H  H47  1  0.31009704  0.35035843  0.31281393  1
  H  H48  1  0.18990296  0.35035843  0.81281393  1
  H  H49  1  0.31009704  0.14964157  0.31281393  1
  H  H50  1  0.81009704  0.85035843  0.18718607  1
  H  H51  1  0.68990296  0.64964157  0.68718607  1
  C  C52  1  0.23896914  0.57593841  0.09355208  1
  C  C53  1  0.26103086  0.92406159  0.59355208  1
  C  C54  1  0.76103086  0.07593841  0.90644792  1
  C  C55  1  0.73896914  0.42406159  0.40644792  1
  C  C56  1  0.76103086  0.42406159  0.90644792  1
  C  C57  1  0.73896914  0.07593841  0.40644792  1
  C  C58  1  0.23896914  0.92406159  0.09355208  1
  C  C59  1  0.26103086  0.57593841  0.59355208  1
  C  C60  1  0.22797336  0.75000000  0.28156026  1
  C  C61  1  0.27202664  0.75000000  0.78156026  1
  C  C62  1  0.77202664  0.25000000  0.71843974  1
  C  C63  1  0.72797336  0.25000000  0.21843974  1
  C  C64  1  0.86927817  0.75000000  0.15166920  1
  C  C65  1  0.63072183  0.75000000  0.65166920  1
  C  C66  1  0.13072183  0.25000000  0.84833080  1
  C  C67  1  0.36927817  0.25000000  0.34833080  1
