# generated using pymatgen
data_Zn3Cu2H14(SO9)2
_symmetry_space_group_name_H-M   'P 1'
_cell_length_a   5.46371840
_cell_length_b   6.46497116
_cell_length_c   10.83306319
_cell_angle_alpha   94.18648178
_cell_angle_beta   89.59876873
_cell_angle_gamma   90.17397669
_symmetry_Int_Tables_number   1
_chemical_formula_structural   Zn3Cu2H14(SO9)2
_chemical_formula_sum   'Zn3 Cu2 H14 S2 O18'
_cell_volume   381.62232270
_cell_formula_units_Z   1
loop_
 _symmetry_equiv_pos_site_id
 _symmetry_equiv_pos_as_xyz
  1  'x, y, z'
loop_
 _atom_site_type_symbol
 _atom_site_label
 _atom_site_symmetry_multiplicity
 _atom_site_fract_x
 _atom_site_fract_y
 _atom_site_fract_z
 _atom_site_occupancy
  Zn  Zn0  1  -0.00000000  -0.00000000  -0.00000000  1
  Zn  Zn1  1  0.49266593  0.74956044  0.49380650  1
  Zn  Zn2  1  0.50733407  0.25043956  0.50619350  1
  Cu  Cu3  1  -0.00000000  -0.00000000  0.50000000  1
  Cu  Cu4  1  -0.00000000  0.50000000  0.50000000  1
  H  H5  1  0.77862218  0.34501507  0.06795218  1
  H  H6  1  0.22137782  0.65498493  0.93204782  1
  H  H7  1  0.65090078  0.26498588  0.93810907  1
  H  H8  1  0.34909922  0.73501412  0.06189093  1
  H  H9  1  0.81041394  0.67559943  0.86030357  1
  H  H10  1  0.18958606  0.32440057  0.13969643  1
  H  H11  1  0.58520411  0.81088711  0.91260959  1
  H  H12  1  0.41479589  0.18911289  0.08739041  1
  H  H13  1  0.88696734  0.22724441  0.32889735  1
  H  H14  1  0.11303266  0.77275559  0.67110265  1
  H  H15  1  0.30690767  0.00093930  0.32541360  1
  H  H16  1  0.69309233  0.99906070  0.67458640  1
  H  H17  1  0.31402777  0.48899299  0.32649128  1
  H  H18  1  0.68597223  0.51100701  0.67350872  1
  S  S19  1  0.23056707  0.29973116  0.78292486  1
  S  S20  1  0.76943293  0.70026884  0.21707514  1
  O  O21  1  0.21644810  0.27099922  0.64382831  1
  O  O22  1  0.78355190  0.72900078  0.35617169  1
  O  O23  1  0.48953572  0.33950773  0.81871901  1
  O  O24  1  0.51046428  0.66049227  0.18128099  1
  O  O25  1  0.07672205  0.48183049  0.82699404  1
  O  O26  1  0.92327795  0.51816951  0.17300596  1
  O  O27  1  0.13518542  0.10588579  0.83213399  1
  O  O28  1  0.86481458  0.89411421  0.16786601  1
  O  O29  1  0.32031044  0.00262255  0.41514662  1
  O  O30  1  0.67968956  0.99737745  0.58485338  1
  O  O31  1  0.31936602  0.48328011  0.41639594  1
  O  O32  1  0.68063398  0.51671989  0.58360406  1
  O  O33  1  0.86548977  0.23884572  0.41890647  1
  O  O34  1  0.13451023  0.76115428  0.58109353  1
  O  O35  1  0.28688452  0.77982411  0.98079135  1
  O  O36  1  0.71311548  0.22017589  0.01920865  1
  O  O37  1  0.75449541  0.81894106  0.87856178  1
  O  O38  1  0.24550459  0.18105894  0.12143822  1
