# generated using pymatgen
data_Mg(BiO3)2
_symmetry_space_group_name_H-M   'P 1'
_cell_length_a   5.46672539
_cell_length_b   5.81851306
_cell_length_c   7.99415188
_cell_angle_alpha   89.98438278
_cell_angle_beta   89.99907383
_cell_angle_gamma   90.00008538
_symmetry_Int_Tables_number   1
_chemical_formula_structural   Mg(BiO3)2
_chemical_formula_sum   'Mg2 Bi4 O12'
_cell_volume   254.27967679
_cell_formula_units_Z   2
loop_
 _symmetry_equiv_pos_site_id
 _symmetry_equiv_pos_as_xyz
  1  'x, y, z'
loop_
 _atom_site_type_symbol
 _atom_site_label
 _atom_site_symmetry_multiplicity
 _atom_site_fract_x
 _atom_site_fract_y
 _atom_site_fract_z
 _atom_site_occupancy
  Mg  Mg0  1  0.53901808  0.57510405  0.25011473  1
  Mg  Mg1  1  0.03898612  0.92490283  0.74986824  1
  Bi  Bi2  1  0.50943583  0.01011560  0.00096873  1
  Bi  Bi3  1  0.00944112  0.48984050  0.99901258  1
  Bi  Bi4  1  0.01000150  0.48992796  0.50092512  1
  Bi  Bi5  1  0.50999166  0.01013270  0.49905316  1
  O  O6  1  0.66335819  0.33061232  0.43087028  1
  O  O7  1  0.16334097  0.16943532  0.56911620  1
  O  O8  1  0.78027734  0.76440561  0.08217088  1
  O  O9  1  0.28031145  0.73551750  0.91780721  1
  O  O10  1  0.28128565  0.73504072  0.58218654  1
  O  O11  1  0.78128450  0.76501168  0.41780303  1
  O  O12  1  0.16260922  0.16934076  0.93108858  1
  O  O13  1  0.66264917  0.33057091  0.06892602  1
  O  O14  1  0.17436107  0.45959247  0.24995715  1
  O  O15  1  0.67432856  0.04048552  0.75003105  1
  O  O16  1  0.39074976  0.91993458  0.25010984  1
  O  O17  1  0.89075079  0.58008697  0.74988266  1
