# generated using pymatgen
data_GeBiH8C2S4N
_symmetry_space_group_name_H-M   'P 1'
_cell_length_a   6.92835665
_cell_length_b   7.16214744
_cell_length_c   10.95418313
_cell_angle_alpha   90.00000000
_cell_angle_beta   104.87898049
_cell_angle_gamma   90.00000000
_symmetry_Int_Tables_number   1
_chemical_formula_structural   GeBiH8C2S4N
_chemical_formula_sum   'Ge2 Bi2 H16 C4 S8 N2'
_cell_volume   525.34187909
_cell_formula_units_Z   2
loop_
 _symmetry_equiv_pos_site_id
 _symmetry_equiv_pos_as_xyz
  1  'x, y, z'
loop_
 _atom_site_type_symbol
 _atom_site_label
 _atom_site_symmetry_multiplicity
 _atom_site_fract_x
 _atom_site_fract_y
 _atom_site_fract_z
 _atom_site_occupancy
  Ge  Ge0  1  0.21668274  0.81045900  0.34957089  1
  Ge  Ge1  1  0.78331726  0.31045900  0.65042911  1
  Bi  Bi2  1  0.24567063  0.20703326  0.54129712  1
  Bi  Bi3  1  0.75432937  0.70703326  0.45870288  1
  H  H4  1  0.28442246  0.20950146  0.20359263  1
  H  H5  1  0.71557754  0.70950146  0.79640737  1
  H  H6  1  0.33467514  0.43600201  0.18925827  1
  H  H7  1  0.66532486  0.93600201  0.81074173  1
  H  H8  1  0.60548510  0.17390532  0.19123561  1
  H  H9  1  0.39451490  0.67390532  0.80876439  1
  H  H10  1  0.60011566  0.39643306  0.11689117  1
  H  H11  1  0.39988434  0.89643306  0.88310883  1
  H  H12  1  0.49535411  0.19826163  0.02460230  1
  H  H13  1  0.50464589  0.69826163  0.97539770  1
  H  H14  1  0.01986473  0.25095371  0.05029724  1
  H  H15  1  0.98013527  0.75095371  0.94970276  1
  H  H16  1  0.18556665  0.24340488  0.94885669  1
  H  H17  1  0.81443335  0.74340488  0.05114331  1
  H  H18  1  0.11470248  0.46235712  0.00104716  1
  H  H19  1  0.88529752  0.96235712  0.99895284  1
  C  C20  1  0.51884282  0.26463952  0.11682897  1
  C  C21  1  0.48115718  0.76463952  0.88317103  1
  C  C22  1  0.14908653  0.31645153  0.02732036  1
  C  C23  1  0.85091347  0.81645153  0.97267964  1
  S  S24  1  0.04754225  0.07501092  0.30079240  1
  S  S25  1  0.95245775  0.57501092  0.69920760  1
  S  S26  1  0.01180975  0.56619670  0.33797519  1
  S  S27  1  0.98819025  0.06619670  0.66202481  1
  S  S28  1  0.42780184  0.74392727  0.23438361  1
  S  S29  1  0.57219816  0.24392727  0.76561639  1
  S  S30  1  0.60483004  0.36631298  0.44924974  1
  S  S31  1  0.39516996  0.86631298  0.55075026  1
  N  N32  1  0.32101595  0.30700965  0.14207071  1
  N  N33  1  0.67898405  0.80700965  0.85792929  1
