# generated using pymatgen
data_SrLa2Mn3O9
_symmetry_space_group_name_H-M   'P 1'
_cell_length_a   5.53993595
_cell_length_b   5.53993595
_cell_length_c   6.79299216
_cell_angle_alpha   90.00000000
_cell_angle_beta   90.00000000
_cell_angle_gamma   119.99999585
_symmetry_Int_Tables_number   1
_chemical_formula_structural   SrLa2Mn3O9
_chemical_formula_sum   'Sr1 La2 Mn3 O9'
_cell_volume   180.55156240
_cell_formula_units_Z   1
loop_
 _symmetry_equiv_pos_site_id
 _symmetry_equiv_pos_as_xyz
  1  'x, y, z'
loop_
 _atom_site_type_symbol
 _atom_site_label
 _atom_site_symmetry_multiplicity
 _atom_site_fract_x
 _atom_site_fract_y
 _atom_site_fract_z
 _atom_site_occupancy
  Sr  Sr0  1  -0.00000000  0.00000000  -0.00000000  1
  La  La1  1  0.66666700  0.33333300  0.33208979  1
  La  La2  1  0.33333300  0.66666700  0.66791021  1
  Mn  Mn3  1  0.66666700  0.33333300  0.83523284  1
  Mn  Mn4  1  0.33333300  0.66666700  0.16476716  1
  Mn  Mn5  1  -0.00000000  0.00000000  0.50000000  1
  O  O6  1  0.83102298  0.66204595  0.65861831  1
  O  O7  1  0.16897702  0.33795405  0.34138169  1
  O  O8  1  0.83102298  0.16897702  0.65861831  1
  O  O9  1  0.16897702  0.83102298  0.34138169  1
  O  O10  1  0.33795405  0.16897702  0.65861831  1
  O  O11  1  0.66204595  0.83102298  0.34138169  1
  O  O12  1  0.50000000  0.50000000  -0.00000000  1
  O  O13  1  -0.00000000  0.50000000  0.00000000  1
  O  O14  1  0.50000000  0.00000000  0.00000000  1
