# generated using pymatgen
data_U2(Ga3Rh)3
_symmetry_space_group_name_H-M   'P 1'
_cell_length_a   7.61929278
_cell_length_b   7.61929278
_cell_length_c   9.48513302
_cell_angle_alpha   90.00000000
_cell_angle_beta   90.00000000
_cell_angle_gamma   119.68849423
_symmetry_Int_Tables_number   1
_chemical_formula_structural   U2(Ga3Rh)3
_chemical_formula_sum   'U4 Ga18 Rh6'
_cell_volume   478.36353313
_cell_formula_units_Z   2
loop_
 _symmetry_equiv_pos_site_id
 _symmetry_equiv_pos_as_xyz
  1  'x, y, z'
loop_
 _atom_site_type_symbol
 _atom_site_label
 _atom_site_symmetry_multiplicity
 _atom_site_fract_x
 _atom_site_fract_y
 _atom_site_fract_z
 _atom_site_occupancy
  U  U0  1  0.66956132  0.99782067  0.25000000  1
  U  U1  1  0.33043868  0.00217933  0.75000000  1
  U  U2  1  0.99782067  0.66956132  0.25000000  1
  U  U3  1  0.00217933  0.33043868  0.75000000  1
  Ga  Ga4  1  0.12704393  0.12704393  0.25000000  1
  Ga  Ga5  1  0.87295607  0.87295607  0.75000000  1
  Ga  Ga6  1  0.33488814  0.00073162  0.07783514  1
  Ga  Ga7  1  0.66511186  0.99926838  0.92216486  1
  Ga  Ga8  1  0.66511186  0.99926838  0.57783514  1
  Ga  Ga9  1  0.00073162  0.33488814  0.42216486  1
  Ga  Ga10  1  0.33488814  0.00073162  0.42216486  1
  Ga  Ga11  1  0.99926838  0.66511186  0.57783514  1
  Ga  Ga12  1  0.99926838  0.66511186  0.92216486  1
  Ga  Ga13  1  0.00073162  0.33488814  0.07783514  1
  Ga  Ga14  1  0.33346711  0.33346711  0.56545501  1
  Ga  Ga15  1  0.66653289  0.66653289  0.43454499  1
  Ga  Ga16  1  0.66653289  0.66653289  0.06545501  1
  Ga  Ga17  1  0.33346711  0.33346711  0.93454499  1
  Ga  Ga18  1  0.54532642  0.33834596  0.25000000  1
  Ga  Ga19  1  0.45467358  0.66165404  0.75000000  1
  Ga  Ga20  1  0.33834596  0.54532642  0.25000000  1
  Ga  Ga21  1  0.66165404  0.45467358  0.75000000  1
  Rh  Rh22  1  0.32947674  0.67052326  -0.00000000  1
  Rh  Rh23  1  0.67052326  0.32947674  -0.00000000  1
  Rh  Rh24  1  0.67052326  0.32947674  0.50000000  1
  Rh  Rh25  1  0.32947674  0.67052326  0.50000000  1
  Rh  Rh26  1  -0.00000000  -0.00000000  -0.00000000  1
  Rh  Rh27  1  -0.00000000  -0.00000000  0.50000000  1
