# generated using pymatgen
data_TiZn10(B4Rh9)2
_symmetry_space_group_name_H-M   'P 1'
_cell_length_a   2.89884326
_cell_length_b   17.88707822
_cell_length_c   17.88707822
_cell_angle_alpha   90.00000000
_cell_angle_beta   90.00000000
_cell_angle_gamma   90.00000000
_symmetry_Int_Tables_number   1
_chemical_formula_structural   TiZn10(B4Rh9)2
_chemical_formula_sum   'Ti2 Zn20 B16 Rh36'
_cell_volume   927.47784887
_cell_formula_units_Z   2
loop_
 _symmetry_equiv_pos_site_id
 _symmetry_equiv_pos_as_xyz
  1  'x, y, z'
loop_
 _atom_site_type_symbol
 _atom_site_label
 _atom_site_symmetry_multiplicity
 _atom_site_fract_x
 _atom_site_fract_y
 _atom_site_fract_z
 _atom_site_occupancy
  Ti  Ti0  1  0.00000000  0.00000000  0.00000000  1
  Ti  Ti1  1  0.00000000  0.50000000  0.50000000  1
  Zn  Zn2  1  0.00000000  0.05028671  0.55028671  1
  Zn  Zn3  1  0.00000000  0.94971329  0.44971329  1
  Zn  Zn4  1  0.00000000  0.44971329  0.05028671  1
  Zn  Zn5  1  -0.00000000  0.55028671  0.94971329  1
  Zn  Zn6  1  0.00000000  0.18831926  0.03197396  1
  Zn  Zn7  1  -0.00000000  0.81168074  0.96802604  1
  Zn  Zn8  1  0.00000000  0.96802604  0.18831926  1
  Zn  Zn9  1  -0.00000000  0.31168074  0.53197396  1
  Zn  Zn10  1  0.00000000  0.03197396  0.81168074  1
  Zn  Zn11  1  0.00000000  0.68831926  0.46802604  1
  Zn  Zn12  1  -0.00000000  0.53197396  0.68831926  1
  Zn  Zn13  1  0.00000000  0.46802604  0.31168074  1
  Zn  Zn14  1  -0.00000000  0.70942144  0.20942144  1
  Zn  Zn15  1  0.00000000  0.29057856  0.79057856  1
  Zn  Zn16  1  -0.00000000  0.79057856  0.70942144  1
  Zn  Zn17  1  -0.00000000  0.20942144  0.29057856  1
  Zn  Zn18  1  0.00000000  0.16860894  0.66860894  1
  Zn  Zn19  1  -0.00000000  0.83139106  0.33139106  1
  Zn  Zn20  1  -0.00000000  0.33139106  0.16860894  1
  Zn  Zn21  1  0.00000000  0.66860894  0.83139106  1
  B  B22  1  0.00000000  0.03871209  0.33487060  1
  B  B23  1  0.00000000  0.96128791  0.66512940  1
  B  B24  1  0.00000000  0.66512940  0.03871209  1
  B  B25  1  0.00000000  0.46128791  0.83487060  1
  B  B26  1  -0.00000000  0.33487060  0.96128791  1
  B  B27  1  -0.00000000  0.53871209  0.16512940  1
  B  B28  1  -0.00000000  0.83487060  0.53871209  1
  B  B29  1  0.00000000  0.16512940  0.46128791  1
  B  B30  1  0.00000000  0.12646980  0.17021475  1
  B  B31  1  0.00000000  0.87353020  0.82978525  1
  B  B32  1  0.00000000  0.82978525  0.12646980  1
  B  B33  1  0.00000000  0.37353020  0.67021475  1
  B  B34  1  0.00000000  0.17021475  0.87353020  1
  B  B35  1  -0.00000000  0.62646980  0.32978525  1
  B  B36  1  0.00000000  0.67021475  0.62646980  1
  B  B37  1  0.00000000  0.32978525  0.37353020  1
  Rh  Rh38  1  0.50000000  0.08771661  0.25556795  1
  Rh  Rh39  1  0.50000000  0.91228339  0.74443205  1
  Rh  Rh40  1  0.50000000  0.74443205  0.08771661  1
  Rh  Rh41  1  0.50000000  0.41228339  0.75556795  1
  Rh  Rh42  1  0.50000000  0.25556795  0.91228339  1
  Rh  Rh43  1  0.50000000  0.58771661  0.24443205  1
  Rh  Rh44  1  0.50000000  0.75556795  0.58771661  1
  Rh  Rh45  1  0.50000000  0.24443205  0.41228339  1
  Rh  Rh46  1  0.50000000  0.32583678  0.04750221  1
  Rh  Rh47  1  0.50000000  0.67416322  0.95249779  1
  Rh  Rh48  1  0.50000000  0.95249779  0.32583678  1
  Rh  Rh49  1  0.50000000  0.17416322  0.54750221  1
  Rh  Rh50  1  0.50000000  0.04750221  0.67416322  1
  Rh  Rh51  1  0.50000000  0.82583678  0.45249779  1
  Rh  Rh52  1  0.50000000  0.54750221  0.82583678  1
  Rh  Rh53  1  0.50000000  0.45249779  0.17416322  1
  Rh  Rh54  1  0.50000000  0.21143410  0.15887925  1
  Rh  Rh55  1  0.50000000  0.78856590  0.84112075  1
  Rh  Rh56  1  0.50000000  0.84112075  0.21143410  1
  Rh  Rh57  1  0.50000000  0.28856590  0.65887925  1
  Rh  Rh58  1  0.50000000  0.15887925  0.78856590  1
  Rh  Rh59  1  0.50000000  0.71143410  0.34112075  1
  Rh  Rh60  1  0.50000000  0.65887925  0.71143410  1
  Rh  Rh61  1  0.50000000  0.34112075  0.28856590  1
  Rh  Rh62  1  0.50000000  0.06726247  0.09970179  1
  Rh  Rh63  1  0.50000000  0.93273753  0.90029821  1
  Rh  Rh64  1  0.50000000  0.90029821  0.06726247  1
  Rh  Rh65  1  0.50000000  0.43273753  0.59970179  1
  Rh  Rh66  1  0.50000000  0.09970179  0.93273753  1
  Rh  Rh67  1  0.50000000  0.56726247  0.40029821  1
  Rh  Rh68  1  0.50000000  0.59970179  0.56726247  1
  Rh  Rh69  1  0.50000000  0.40029821  0.43273753  1
  Rh  Rh70  1  0.50000000  0.58201025  0.08201025  1
  Rh  Rh71  1  0.50000000  0.41798975  0.91798975  1
  Rh  Rh72  1  0.50000000  0.91798975  0.58201025  1
  Rh  Rh73  1  0.50000000  0.08201025  0.41798975  1
