# generated using pymatgen
data_VZn10(B4Rh9)2
_symmetry_space_group_name_H-M   'P 1'
_cell_length_a   2.88407853
_cell_length_b   17.94363788
_cell_length_c   17.94363788
_cell_angle_alpha   90.00000000
_cell_angle_beta   90.00000000
_cell_angle_gamma   90.00000000
_symmetry_Int_Tables_number   1
_chemical_formula_structural   VZn10(B4Rh9)2
_chemical_formula_sum   'V2 Zn20 B16 Rh36'
_cell_volume   928.59870545
_cell_formula_units_Z   2
loop_
 _symmetry_equiv_pos_site_id
 _symmetry_equiv_pos_as_xyz
  1  'x, y, z'
loop_
 _atom_site_type_symbol
 _atom_site_label
 _atom_site_symmetry_multiplicity
 _atom_site_fract_x
 _atom_site_fract_y
 _atom_site_fract_z
 _atom_site_occupancy
  V  V0  1  -0.00000000  -0.00000000  -0.00000000  1
  V  V1  1  0.00000000  0.50000000  0.50000000  1
  Zn  Zn2  1  0.00000000  0.04999456  0.54999456  1
  Zn  Zn3  1  -0.00000000  0.95000544  0.45000544  1
  Zn  Zn4  1  -0.00000000  0.45000544  0.04999456  1
  Zn  Zn5  1  0.00000000  0.54999456  0.95000544  1
  Zn  Zn6  1  0.00000000  0.18887808  0.03199668  1
  Zn  Zn7  1  -0.00000000  0.81112192  0.96800332  1
  Zn  Zn8  1  -0.00000000  0.96800332  0.18887808  1
  Zn  Zn9  1  -0.00000000  0.31112192  0.53199668  1
  Zn  Zn10  1  0.00000000  0.03199668  0.81112192  1
  Zn  Zn11  1  0.00000000  0.68887808  0.46800332  1
  Zn  Zn12  1  0.00000000  0.53199668  0.68887808  1
  Zn  Zn13  1  -0.00000000  0.46800332  0.31112192  1
  Zn  Zn14  1  -0.00000000  0.70937000  0.20937000  1
  Zn  Zn15  1  0.00000000  0.29063000  0.79063000  1
  Zn  Zn16  1  0.00000000  0.79063000  0.70937000  1
  Zn  Zn17  1  -0.00000000  0.20937000  0.29063000  1
  Zn  Zn18  1  0.00000000  0.16875816  0.66875816  1
  Zn  Zn19  1  -0.00000000  0.83124184  0.33124184  1
  Zn  Zn20  1  -0.00000000  0.33124184  0.16875816  1
  Zn  Zn21  1  0.00000000  0.66875816  0.83124184  1
  B  B22  1  -0.00000000  0.03888971  0.33486396  1
  B  B23  1  0.00000000  0.96111029  0.66513604  1
  B  B24  1  0.00000000  0.66513604  0.03888971  1
  B  B25  1  0.00000000  0.46111029  0.83486396  1
  B  B26  1  -0.00000000  0.33486396  0.96111029  1
  B  B27  1  -0.00000000  0.53888971  0.16513604  1
  B  B28  1  -0.00000000  0.83486396  0.53888971  1
  B  B29  1  0.00000000  0.16513604  0.46111029  1
  B  B30  1  0.00000000  0.12621247  0.16996090  1
  B  B31  1  -0.00000000  0.87378753  0.83003910  1
  B  B32  1  -0.00000000  0.83003910  0.12621247  1
  B  B33  1  -0.00000000  0.37378753  0.66996090  1
  B  B34  1  0.00000000  0.16996090  0.87378753  1
  B  B35  1  0.00000000  0.62621247  0.33003910  1
  B  B36  1  0.00000000  0.66996090  0.62621247  1
  B  B37  1  -0.00000000  0.33003910  0.37378753  1
  Rh  Rh38  1  0.50000000  0.08702346  0.25449623  1
  Rh  Rh39  1  0.50000000  0.91297654  0.74550377  1
  Rh  Rh40  1  0.50000000  0.74550377  0.08702346  1
  Rh  Rh41  1  0.50000000  0.41297654  0.75449623  1
  Rh  Rh42  1  0.50000000  0.25449623  0.91297654  1
  Rh  Rh43  1  0.50000000  0.58702346  0.24550377  1
  Rh  Rh44  1  0.50000000  0.75449623  0.58702346  1
  Rh  Rh45  1  0.50000000  0.24550377  0.41297654  1
  Rh  Rh46  1  0.50000000  0.32627844  0.04739926  1
  Rh  Rh47  1  0.50000000  0.67372156  0.95260074  1
  Rh  Rh48  1  0.50000000  0.95260074  0.32627844  1
  Rh  Rh49  1  0.50000000  0.17372156  0.54739926  1
  Rh  Rh50  1  0.50000000  0.04739926  0.67372156  1
  Rh  Rh51  1  0.50000000  0.82627844  0.45260074  1
  Rh  Rh52  1  0.50000000  0.54739926  0.82627844  1
  Rh  Rh53  1  0.50000000  0.45260074  0.17372156  1
  Rh  Rh54  1  0.50000000  0.21065224  0.15859520  1
  Rh  Rh55  1  0.50000000  0.78934776  0.84140480  1
  Rh  Rh56  1  0.50000000  0.84140480  0.21065224  1
  Rh  Rh57  1  0.50000000  0.28934776  0.65859520  1
  Rh  Rh58  1  0.50000000  0.15859520  0.78934776  1
  Rh  Rh59  1  0.50000000  0.71065224  0.34140480  1
  Rh  Rh60  1  0.50000000  0.65859520  0.71065224  1
  Rh  Rh61  1  0.50000000  0.34140480  0.28934776  1
  Rh  Rh62  1  0.50000000  0.06610901  0.09806936  1
  Rh  Rh63  1  0.50000000  0.93389099  0.90193064  1
  Rh  Rh64  1  0.50000000  0.90193064  0.06610901  1
  Rh  Rh65  1  0.50000000  0.43389099  0.59806936  1
  Rh  Rh66  1  0.50000000  0.09806936  0.93389099  1
  Rh  Rh67  1  0.50000000  0.56610901  0.40193064  1
  Rh  Rh68  1  0.50000000  0.59806936  0.56610901  1
  Rh  Rh69  1  0.50000000  0.40193064  0.43389099  1
  Rh  Rh70  1  0.50000000  0.58214553  0.08214553  1
  Rh  Rh71  1  0.50000000  0.41785447  0.91785447  1
  Rh  Rh72  1  0.50000000  0.91785447  0.58214553  1
  Rh  Rh73  1  0.50000000  0.08214553  0.41785447  1
