# generated using pymatgen
data_RbBi3Se5
_symmetry_space_group_name_H-M   'P 1'
_cell_length_a   4.37272302
_cell_length_b   18.64438346
_cell_length_c   22.70744790
_cell_angle_alpha   73.92555341
_cell_angle_beta   84.47477840
_cell_angle_gamma   83.26562805
_symmetry_Int_Tables_number   1
_chemical_formula_structural   RbBi3Se5
_chemical_formula_sum   'Rb6 Bi18 Se30'
_cell_volume   1762.65657203
_cell_formula_units_Z   6
loop_
 _symmetry_equiv_pos_site_id
 _symmetry_equiv_pos_as_xyz
  1  'x, y, z'
loop_
 _atom_site_type_symbol
 _atom_site_label
 _atom_site_symmetry_multiplicity
 _atom_site_fract_x
 _atom_site_fract_y
 _atom_site_fract_z
 _atom_site_occupancy
  Rb  Rb0  1  0.82656210  0.65436844  0.69250736  1
  Rb  Rb1  1  0.17343790  0.34563156  0.30749264  1
  Rb  Rb2  1  0.52263529  0.66623801  0.28849141  1
  Rb  Rb3  1  0.47736471  0.33376199  0.71150859  1
  Rb  Rb4  1  0.33858381  0.17098341  0.15184898  1
  Rb  Rb5  1  0.66141619  0.82901659  0.84815102  1
  Bi  Bi6  1  0.84312446  0.47360194  0.84014913  1
  Bi  Bi7  1  0.15687554  0.52639806  0.15985087  1
  Bi  Bi8  1  0.61140097  0.71542477  0.06177329  1
  Bi  Bi9  1  0.38859903  0.28457523  0.93822671  1
  Bi  Bi10  1  0.69448321  0.10285516  0.50817842  1
  Bi  Bi11  1  0.30551679  0.89714484  0.49182158  1
  Bi  Bi12  1  0.45640358  0.92673037  0.16046247  1
  Bi  Bi13  1  0.54359642  0.07326963  0.83953753  1
  Bi  Bi14  1  0.77716303  0.39127873  0.05439522  1
  Bi  Bi15  1  0.22283697  0.60872127  0.94560478  1
  Bi  Bi16  1  0.88809544  0.89978895  0.32402017  1
  Bi  Bi17  1  0.11190456  0.10021105  0.67597983  1
  Bi  Bi18  1  0.91130469  0.69238250  0.48500812  1
  Bi  Bi19  1  0.08869531  0.30761750  0.51499188  1
  Bi  Bi20  1  0.50000000  0.50000000  0.50000000  1
  Bi  Bi21  1  0.72505690  0.89181917  0.65806702  1
  Bi  Bi22  1  0.27494310  0.10818083  0.34193298  1
  Bi  Bi23  1  0.00000000  -0.00000000  -0.00000000  1
  Se  Se24  1  0.81343843  0.81192451  0.56119863  1
  Se  Se25  1  0.18656157  0.18807549  0.43880137  1
  Se  Se26  1  0.60328591  0.20012120  0.59330698  1
  Se  Se27  1  0.39671409  0.79987880  0.40669302  1
  Se  Se28  1  0.62997839  0.49763885  0.24240436  1
  Se  Se29  1  0.37002161  0.50236115  0.75759564  1
  Se  Se30  1  0.97018002  0.82494045  0.23469951  1
  Se  Se31  1  0.02981998  0.17505955  0.76530049  1
  Se  Se32  1  0.85818441  0.25107258  0.03255860  1
  Se  Se33  1  0.14181559  0.74892742  0.96744140  1
  Se  Se34  1  0.78745660  0.00212730  0.42295950  1
  Se  Se35  1  0.21254340  0.99787270  0.57704050  1
  Se  Se36  1  0.59214683  0.37697012  0.43873622  1
  Se  Se37  1  0.40785317  0.62302988  0.56126378  1
  Se  Se38  1  0.76419429  0.19142908  0.28018234  1
  Se  Se39  1  0.23580571  0.80857092  0.71981766  1
  Se  Se40  1  0.92424339  0.03033121  0.12118200  1
  Se  Se41  1  0.07575661  0.96966879  0.87881800  1
  Se  Se42  1  0.53238207  0.89029204  0.04494381  1
  Se  Se43  1  0.46761793  0.10970796  0.95505619  1
  Se  Se44  1  0.99933712  0.58134991  0.41997584  1
  Se  Se45  1  0.00066288  0.41865009  0.58002416  1
  Se  Se46  1  0.24821322  0.36541172  0.13816183  1
  Se  Se47  1  0.75178678  0.63458828  0.86183817  1
  Se  Se48  1  0.91710056  0.31760939  0.84818948  1
  Se  Se49  1  0.08289944  0.68239061  0.15181052  1
  Se  Se50  1  0.69147377  0.56507968  0.05197277  1
  Se  Se51  1  0.30852623  0.43492032  0.94802723  1
  Se  Se52  1  0.36741936  0.99563248  0.26952880  1
  Se  Se53  1  0.63258064  0.00436752  0.73047120  1
