# generated using pymatgen
data_NdMn7O12
_symmetry_space_group_name_H-M   'P 1'
_cell_length_a   6.54329247
_cell_length_b   6.54411896
_cell_length_c   6.55662331
_cell_angle_alpha   109.26525698
_cell_angle_beta   109.41281043
_cell_angle_gamma   109.59495513
_symmetry_Int_Tables_number   1
_chemical_formula_structural   NdMn7O12
_chemical_formula_sum   'Nd1 Mn7 O12'
_cell_volume   216.49838703
_cell_formula_units_Z   1
loop_
 _symmetry_equiv_pos_site_id
 _symmetry_equiv_pos_as_xyz
  1  'x, y, z'
loop_
 _atom_site_type_symbol
 _atom_site_label
 _atom_site_symmetry_multiplicity
 _atom_site_fract_x
 _atom_site_fract_y
 _atom_site_fract_z
 _atom_site_occupancy
  Nd  Nd0  1  0.50000000  0.00000000  0.50000000  1
  Mn  Mn1  1  0.50000000  0.50000000  0.00000000  1
  Mn  Mn2  1  0.50000000  0.50000000  0.50000000  1
  Mn  Mn3  1  0.00000000  0.00000000  0.50000000  1
  Mn  Mn4  1  0.00000000  0.00000000  0.00000000  1
  Mn  Mn5  1  0.50000000  0.00000000  0.00000000  1
  Mn  Mn6  1  0.00000000  0.50000000  0.00000000  1
  Mn  Mn7  1  0.00000000  0.50000000  0.50000000  1
  O  O8  1  0.32257095  0.51914900  0.19213213  1
  O  O9  1  0.67742905  0.48085100  0.80786787  1
  O  O10  1  0.32630945  0.13089135  0.80834095  1
  O  O11  1  0.67369055  0.86910865  0.19165905  1
  O  O12  1  0.63223435  0.31225652  0.33089926  1
  O  O13  1  0.36776565  0.68774348  0.66910074  1
  O  O14  1  0.98157798  0.30181643  0.67014902  1
  O  O15  1  0.01842202  0.69818357  0.32985098  1
  O  O16  1  0.19250773  0.82250904  0.01380089  1
  O  O17  1  0.80749227  0.17749096  0.98619911  1
  O  O18  1  0.19805890  0.17119015  0.36905091  1
  O  O19  1  0.80194110  0.82880985  0.63094909  1
