# generated using pymatgen
data_Na2MnFeF7
_symmetry_space_group_name_H-M   'P 1'
_cell_length_a   7.48200462
_cell_length_b   7.61185157
_cell_length_c   7.61185157
_cell_angle_alpha   60.88469252
_cell_angle_beta   60.56270514
_cell_angle_gamma   60.56270514
_symmetry_Int_Tables_number   1
_chemical_formula_structural   Na2MnFeF7
_chemical_formula_sum   'Na4 Mn2 Fe2 F14'
_cell_volume   311.16767622
_cell_formula_units_Z   2
loop_
 _symmetry_equiv_pos_site_id
 _symmetry_equiv_pos_as_xyz
  1  'x, y, z'
loop_
 _atom_site_type_symbol
 _atom_site_label
 _atom_site_symmetry_multiplicity
 _atom_site_fract_x
 _atom_site_fract_y
 _atom_site_fract_z
 _atom_site_occupancy
  Na  Na0  1  0.24740715  0.61585276  0.88933294  1
  Na  Na1  1  0.75259285  0.11066706  0.38414724  1
  Na  Na2  1  0.25087161  0.61226330  0.38773670  1
  Na  Na3  1  0.74912839  0.61226330  0.38773670  1
  Mn  Mn4  1  0.24999034  0.11171164  0.88828836  1
  Mn  Mn5  1  0.75000966  0.11171164  0.88828836  1
  Fe  Fe6  1  0.24947435  0.11209098  0.38896032  1
  Fe  Fe7  1  0.75052565  0.61103968  0.88790902  1
  F  F8  1  0.33706533  0.79637510  0.52949423  1
  F  F9  1  0.66293467  0.47050577  0.20362490  1
  F  F10  1  0.55479065  0.06102679  0.21451548  1
  F  F11  1  0.44520935  0.78548452  0.93897321  1
  F  F12  1  0.83033292  0.78548452  0.93897321  1
  F  F13  1  0.16966708  0.06102679  0.21451548  1
  F  F14  1  0.33052358  0.16320523  0.56063998  1
  F  F15  1  0.66947642  0.43936002  0.83679477  1
  F  F16  1  0.05436879  0.43936002  0.83679477  1
  F  F17  1  0.94563121  0.16320523  0.56063998  1
  F  F18  1  0.00000000  0.99114340  0.00885660  1
  F  F19  1  0.16170053  0.42924179  0.24735715  1
  F  F20  1  0.83829947  0.75264285  0.57075821  1
  F  F21  1  0.50000000  0.23383761  0.76616239  1
