# generated using pymatgen
data_Tl14Cu8(SbSe3)9
_symmetry_space_group_name_H-M   'P 1'
_cell_length_a   4.11143159
_cell_length_b   14.45475278
_cell_length_c   25.96567532
_cell_angle_alpha   95.28038158
_cell_angle_beta   90.00000000
_cell_angle_gamma   90.00000000
_symmetry_Int_Tables_number   1
_chemical_formula_structural   Tl14Cu8(SbSe3)9
_chemical_formula_sum   'Tl14 Cu8 Sb9 Se27'
_cell_volume   1536.58435884
_cell_formula_units_Z   1
loop_
 _symmetry_equiv_pos_site_id
 _symmetry_equiv_pos_as_xyz
  1  'x, y, z'
loop_
 _atom_site_type_symbol
 _atom_site_label
 _atom_site_symmetry_multiplicity
 _atom_site_fract_x
 _atom_site_fract_y
 _atom_site_fract_z
 _atom_site_occupancy
  Tl  Tl0  1  0.50000000  0.72361869  0.82207743  1
  Tl  Tl1  1  0.50000000  0.27638131  0.17792257  1
  Tl  Tl2  1  -0.00000000  0.21319459  0.88713156  1
  Tl  Tl3  1  -0.00000000  0.78680541  0.11286844  1
  Tl  Tl4  1  -0.00000000  0.47561688  0.78067232  1
  Tl  Tl5  1  0.00000000  0.52438312  0.21932768  1
  Tl  Tl6  1  -0.00000000  0.89535221  0.55854282  1
  Tl  Tl7  1  0.00000000  0.10464779  0.44145718  1
  Tl  Tl8  1  0.50000000  0.72313273  0.96228438  1
  Tl  Tl9  1  0.50000000  0.27686727  0.03771562  1
  Tl  Tl10  1  0.00000000  0.22574970  0.75210694  1
  Tl  Tl11  1  0.00000000  0.77425030  0.24789306  1
  Tl  Tl12  1  0.50000000  0.62481850  0.50704399  1
  Tl  Tl13  1  0.50000000  0.37518150  0.49295601  1
  Cu  Cu14  1  0.00000000  0.97379766  0.82416646  1
  Cu  Cu15  1  0.00000000  0.02620234  0.17583354  1
  Cu  Cu16  1  0.50000000  0.96828539  0.88204699  1
  Cu  Cu17  1  0.50000000  0.03171461  0.11795301  1
  Cu  Cu18  1  -0.00000000  0.63976768  0.37450306  1
  Cu  Cu19  1  0.00000000  0.36023232  0.62549694  1
  Cu  Cu20  1  0.50000000  0.46815747  0.63480437  1
  Cu  Cu21  1  0.50000000  0.53184253  0.36519563  1
  Sb  Sb22  1  0.50000000  0.47233951  0.92016934  1
  Sb  Sb23  1  0.50000000  0.52766049  0.07983066  1
  Sb  Sb24  1  -0.00000000  0.67446919  0.66384349  1
  Sb  Sb25  1  -0.00000000  0.32553081  0.33615651  1
  Sb  Sb26  1  0.50000000  0.85326830  0.40633749  1
  Sb  Sb27  1  0.50000000  0.14673170  0.59366251  1
  Sb  Sb28  1  0.00000000  0.00000000  0.00000000  1
  Sb  Sb29  1  0.50000000  0.93639882  0.70094726  1
  Sb  Sb30  1  0.50000000  0.06360118  0.29905274  1
  Se  Se31  1  0.00000000  0.75802458  0.45413677  1
  Se  Se32  1  0.00000000  0.24197542  0.54586323  1
  Se  Se33  1  0.50000000  0.69310519  0.33500874  1
  Se  Se34  1  0.50000000  0.30689481  0.66499126  1
  Se  Se35  1  0.50000000  0.58041957  0.71546910  1
  Se  Se36  1  0.50000000  0.41958043  0.28453090  1
  Se  Se37  1  0.50000000  0.10171824  0.95215464  1
  Se  Se38  1  0.50000000  0.89828176  0.04784536  1
  Se  Se39  1  0.00000000  0.37699155  0.96828298  1
  Se  Se40  1  0.00000000  0.62300845  0.03171702  1
  Se  Se41  1  0.00000000  0.93985990  0.34303568  1
  Se  Se42  1  0.00000000  0.06014010  0.65696432  1
  Se  Se43  1  0.50000000  0.00000000  0.50000000  1
  Se  Se44  1  0.50000000  0.76498496  0.61078493  1
  Se  Se45  1  0.50000000  0.23501504  0.38921507  1
  Se  Se46  1  0.50000000  0.35441012  0.83760708  1
  Se  Se47  1  0.50000000  0.64558988  0.16239292  1
  Se  Se48  1  0.00000000  0.59716908  0.87926587  1
  Se  Se49  1  0.00000000  0.40283092  0.12073413  1
  Se  Se50  1  0.00000000  0.51290415  0.59026688  1
  Se  Se51  1  0.00000000  0.48709585  0.40973312  1
  Se  Se52  1  0.50000000  0.95757437  0.20495854  1
  Se  Se53  1  0.50000000  0.04242563  0.79504146  1
  Se  Se54  1  0.00000000  0.88547851  0.90106092  1
  Se  Se55  1  0.00000000  0.11452149  0.09893908  1
  Se  Se56  1  0.00000000  0.83469125  0.74300789  1
  Se  Se57  1  0.00000000  0.16530875  0.25699211  1
