# generated using pymatgen
data_MoPO4
_symmetry_space_group_name_H-M   'P 1'
_cell_length_a   5.26189651
_cell_length_b   9.66991431
_cell_length_c   14.59898820
_cell_angle_alpha   84.30003864
_cell_angle_beta   79.61775053
_cell_angle_gamma   74.21218521
_symmetry_Int_Tables_number   1
_chemical_formula_structural   MoPO4
_chemical_formula_sum   'Mo8 P8 O32'
_cell_volume   702.10826904
_cell_formula_units_Z   8
loop_
 _symmetry_equiv_pos_site_id
 _symmetry_equiv_pos_as_xyz
  1  'x, y, z'
loop_
 _atom_site_type_symbol
 _atom_site_label
 _atom_site_symmetry_multiplicity
 _atom_site_fract_x
 _atom_site_fract_y
 _atom_site_fract_z
 _atom_site_occupancy
  Mo  Mo0  1  0.16135584  0.23339588  0.98571317  1
  Mo  Mo1  1  0.38046389  0.26660412  0.51428683  1
  Mo  Mo2  1  0.83864416  0.76660412  0.01428683  1
  Mo  Mo3  1  0.50000000  0.50000000  0.00000000  1
  Mo  Mo4  1  0.61953611  0.73339588  0.48571317  1
  Mo  Mo5  1  0.68589376  0.75000000  0.25000000  1
  Mo  Mo6  1  0.31410624  0.25000000  0.75000000  1
  Mo  Mo7  1  0.00000000  0.00000000  0.50000000  1
  P  P8  1  0.05629565  0.56572173  0.85956280  1
  P  P9  1  0.75850782  0.40792766  0.61876614  1
  P  P10  1  0.94370435  0.43427827  0.14043720  1
  P  P11  1  0.21479838  0.90792766  0.11876614  1
  P  P12  1  0.51841881  0.06572173  0.35956280  1
  P  P13  1  0.48158119  0.93427827  0.64043720  1
  P  P14  1  0.24149218  0.59207234  0.38123386  1
  P  P15  1  0.78520162  0.09207234  0.88123386  1
  O  O16  1  0.78706370  0.37541758  0.07282584  1
  O  O17  1  0.85646908  0.93542850  0.91697370  1
  O  O18  1  0.76469488  0.87541758  0.57282584  1
  O  O19  1  0.72659825  0.30902006  0.54541942  1
  O  O20  1  0.22818871  0.39303375  0.07143829  1
  O  O21  1  0.57018988  0.38758676  0.70928339  1
  O  O22  1  0.58103672  0.19097994  0.95458058  1
  O  O23  1  0.95032476  0.85257965  0.13383896  1
  O  O24  1  0.27340175  0.69097994  0.45458058  1
  O  O25  1  0.70887029  0.56457150  0.58302630  1
  O  O26  1  0.84099403  0.60435664  0.13136595  1
  O  O27  1  0.55337034  0.12876501  0.26479964  1
  O  O28  1  0.14353092  0.06457150  0.08302630  1
  O  O29  1  0.06325662  0.35257965  0.63383896  1
  O  O30  1  0.21293630  0.62458242  0.92717416  1
  O  O31  1  0.15900597  0.39564336  0.86863405  1
  O  O32  1  0.05306400  0.62876501  0.76479964  1
  O  O33  1  0.41896328  0.80902006  0.04541942  1
  O  O34  1  0.42328338  0.10435664  0.63136595  1
  O  O35  1  0.44662966  0.87123499  0.73520036  1
  O  O36  1  0.93674338  0.64742035  0.36616104  1
  O  O37  1  0.30733825  0.89303375  0.57143829  1
  O  O38  1  0.04967524  0.14742035  0.86616104  1
  O  O39  1  0.33294097  0.88758676  0.20928339  1
  O  O40  1  0.29112971  0.43542850  0.41697370  1
  O  O41  1  0.23530512  0.12458242  0.42717416  1
  O  O42  1  0.94693600  0.37123499  0.23520036  1
  O  O43  1  0.69266175  0.10696625  0.42856171  1
  O  O44  1  0.77181129  0.60696625  0.92856171  1
  O  O45  1  0.66705903  0.11241324  0.79071661  1
  O  O46  1  0.42981012  0.61241324  0.29071661  1
  O  O47  1  0.57671762  0.89564336  0.36863405  1
