# generated using pymatgen
data_Lu12Fe2Pb3
_symmetry_space_group_name_H-M   'P 1'
_cell_length_a   8.36864656
_cell_length_b   8.36864656
_cell_length_c   8.36864656
_cell_angle_alpha   109.89213530
_cell_angle_beta   109.89213530
_cell_angle_gamma   108.63263185
_symmetry_Int_Tables_number   1
_chemical_formula_structural   Lu12Fe2Pb3
_chemical_formula_sum   'Lu12 Fe2 Pb3'
_cell_volume   451.10135489
_cell_formula_units_Z   1
loop_
 _symmetry_equiv_pos_site_id
 _symmetry_equiv_pos_as_xyz
  1  'x, y, z'
loop_
 _atom_site_type_symbol
 _atom_site_label
 _atom_site_symmetry_multiplicity
 _atom_site_fract_x
 _atom_site_fract_y
 _atom_site_fract_z
 _atom_site_occupancy
  Lu  Lu0  1  0.68705424  0.68705424  0.37410847  1
  Lu  Lu1  1  0.31294576  0.31294576  0.62589153  1
  Lu  Lu2  1  0.31294576  0.68705424  0.00000000  1
  Lu  Lu3  1  0.68705424  0.31294576  -0.00000000  1
  Lu  Lu4  1  0.79021873  0.54232253  0.75210380  1
  Lu  Lu5  1  0.20978127  0.45767747  0.24789620  1
  Lu  Lu6  1  0.79021873  0.03811493  0.24789620  1
  Lu  Lu7  1  0.03811493  0.79021873  0.24789620  1
  Lu  Lu8  1  0.20978127  0.96188507  0.75210380  1
  Lu  Lu9  1  0.96188507  0.20978127  0.75210380  1
  Lu  Lu10  1  0.54232253  0.79021873  0.75210380  1
  Lu  Lu11  1  0.45767747  0.20978127  0.24789620  1
  Fe  Fe12  1  0.62402879  0.62402879  0.00000000  1
  Fe  Fe13  1  0.37597121  0.37597121  -0.00000000  1
  Pb  Pb14  1  0.00000000  0.00000000  -0.00000000  1
  Pb  Pb15  1  0.00000000  0.50000000  0.50000000  1
  Pb  Pb16  1  0.50000000  0.00000000  0.50000000  1
