# generated using pymatgen
data_Lu3CrS6
_symmetry_space_group_name_H-M   'P 1'
_cell_length_a   3.70368342
_cell_length_b   13.04339420
_cell_length_c   15.79745871
_cell_angle_alpha   90.00000000
_cell_angle_beta   90.00000000
_cell_angle_gamma   90.00000000
_symmetry_Int_Tables_number   1
_chemical_formula_structural   Lu3CrS6
_chemical_formula_sum   'Lu12 Cr4 S24'
_cell_volume   763.15315869
_cell_formula_units_Z   4
loop_
 _symmetry_equiv_pos_site_id
 _symmetry_equiv_pos_as_xyz
  1  'x, y, z'
loop_
 _atom_site_type_symbol
 _atom_site_label
 _atom_site_symmetry_multiplicity
 _atom_site_fract_x
 _atom_site_fract_y
 _atom_site_fract_z
 _atom_site_occupancy
  Lu  Lu0  1  0.00000000  0.54965004  0.28100613  1
  Lu  Lu1  1  0.00000000  0.45034996  0.71899387  1
  Lu  Lu2  1  0.50000000  0.95034996  0.78100613  1
  Lu  Lu3  1  0.50000000  0.04965004  0.21899387  1
  Lu  Lu4  1  -0.00000000  0.75178839  0.09791934  1
  Lu  Lu5  1  0.00000000  0.24821161  0.90208066  1
  Lu  Lu6  1  0.50000000  0.74821161  0.59791934  1
  Lu  Lu7  1  0.50000000  0.25178839  0.40208066  1
  Lu  Lu8  1  0.00000000  0.32005882  0.14927394  1
  Lu  Lu9  1  -0.00000000  0.67994118  0.85072606  1
  Lu  Lu10  1  0.50000000  0.17994118  0.64927394  1
  Lu  Lu11  1  0.50000000  0.82005882  0.35072606  1
  Cr  Cr12  1  0.00000000  -0.00000000  0.50000000  1
  Cr  Cr13  1  0.50000000  0.50000000  -0.00000000  1
  Cr  Cr14  1  -0.00000000  0.00000000  -0.00000000  1
  Cr  Cr15  1  0.50000000  0.50000000  0.50000000  1
  S  S16  1  0.00000000  0.12133098  0.10912807  1
  S  S17  1  0.00000000  0.87866902  0.89087193  1
  S  S18  1  0.50000000  0.37866902  0.60912807  1
  S  S19  1  0.50000000  0.62133098  0.39087193  1
  S  S20  1  0.00000000  0.18806360  0.28903710  1
  S  S21  1  0.00000000  0.81193640  0.71096290  1
  S  S22  1  0.50000000  0.31193640  0.78903710  1
  S  S23  1  0.50000000  0.68806360  0.21096290  1
  S  S24  1  0.00000000  0.18181740  0.52262881  1
  S  S25  1  0.00000000  0.81818260  0.47737119  1
  S  S26  1  0.50000000  0.31818260  0.02262881  1
  S  S27  1  0.50000000  0.68181740  0.97737119  1
  S  S28  1  -0.00000000  0.52370430  0.09879055  1
  S  S29  1  0.00000000  0.47629570  0.90120945  1
  S  S30  1  0.50000000  0.97629570  0.59879055  1
  S  S31  1  0.50000000  0.02370430  0.40120945  1
  S  S32  1  -0.00000000  0.10329969  0.75395000  1
  S  S33  1  -0.00000000  0.89670031  0.24605000  1
  S  S34  1  0.50000000  0.39670031  0.25395000  1
  S  S35  1  0.50000000  0.60329969  0.74605000  1
  S  S36  1  0.00000000  0.41513340  0.42315720  1
  S  S37  1  -0.00000000  0.58486660  0.57684280  1
  S  S38  1  0.50000000  0.08486660  0.92315720  1
  S  S39  1  0.50000000  0.91513340  0.07684280  1
