# generated using pymatgen
data_Lu2Be2GeO7
_symmetry_space_group_name_H-M   'P 1'
_cell_length_a   4.76078681
_cell_length_b   7.34584945
_cell_length_c   7.34584945
_cell_angle_alpha   90.00000000
_cell_angle_beta   90.00000000
_cell_angle_gamma   90.00000000
_symmetry_Int_Tables_number   1
_chemical_formula_structural   Lu2Be2GeO7
_chemical_formula_sum   'Lu4 Be4 Ge2 O14'
_cell_volume   256.89921717
_cell_formula_units_Z   2
loop_
 _symmetry_equiv_pos_site_id
 _symmetry_equiv_pos_as_xyz
  1  'x, y, z'
loop_
 _atom_site_type_symbol
 _atom_site_label
 _atom_site_symmetry_multiplicity
 _atom_site_fract_x
 _atom_site_fract_y
 _atom_site_fract_z
 _atom_site_occupancy
  Lu  Lu0  1  0.50628599  0.15785528  0.65785528  1
  Lu  Lu1  1  0.50628599  0.84214472  0.34214472  1
  Lu  Lu2  1  0.49371401  0.65785528  0.84214472  1
  Lu  Lu3  1  0.49371401  0.34214472  0.15785528  1
  Be  Be4  1  0.94706813  0.63576015  0.13576015  1
  Be  Be5  1  0.94706813  0.36423985  0.86423985  1
  Be  Be6  1  0.05293187  0.13576015  0.36423985  1
  Be  Be7  1  0.05293187  0.86423985  0.63576015  1
  Ge  Ge8  1  0.00000000  -0.00000000  0.00000000  1
  Ge  Ge9  1  0.00000000  0.50000000  0.50000000  1
  O  O10  1  0.19637518  -0.00000000  0.50000000  1
  O  O11  1  0.80362482  0.50000000  0.00000000  1
  O  O12  1  0.28053674  0.64252510  0.14252510  1
  O  O13  1  0.28053674  0.35747490  0.85747490  1
  O  O14  1  0.71946326  0.14252510  0.35747490  1
  O  O15  1  0.71946326  0.85747490  0.64252510  1
  O  O16  1  0.22500376  0.08261824  0.17049552  1
  O  O17  1  0.22500376  0.91738176  0.82950448  1
  O  O18  1  0.77499624  0.17049552  0.91738176  1
  O  O19  1  0.77499624  0.41738176  0.67049552  1
  O  O20  1  0.77499624  0.82950448  0.08261824  1
  O  O21  1  0.77499624  0.58261824  0.32950448  1
  O  O22  1  0.22500376  0.32950448  0.41738176  1
  O  O23  1  0.22500376  0.67049552  0.58261824  1
