# generated using pymatgen
data_NaFe(SO4)2
_symmetry_space_group_name_H-M   'P 1'
_cell_length_a   5.19095267
_cell_length_b   14.33634664
_cell_length_c   8.30873874
_cell_angle_alpha   90.00000000
_cell_angle_beta   90.00000000
_cell_angle_gamma   90.00000000
_symmetry_Int_Tables_number   1
_chemical_formula_structural   NaFe(SO4)2
_chemical_formula_sum   'Na4 Fe4 S8 O32'
_cell_volume   618.33049490
_cell_formula_units_Z   4
loop_
 _symmetry_equiv_pos_site_id
 _symmetry_equiv_pos_as_xyz
  1  'x, y, z'
loop_
 _atom_site_type_symbol
 _atom_site_label
 _atom_site_symmetry_multiplicity
 _atom_site_fract_x
 _atom_site_fract_y
 _atom_site_fract_z
 _atom_site_occupancy
  Na  Na0  1  0.75000000  0.57964966  0.91911619  1
  Na  Na1  1  0.25000000  0.42035034  0.08088381  1
  Na  Na2  1  0.25000000  0.92035034  0.41911619  1
  Na  Na3  1  0.75000000  0.07964966  0.58088381  1
  Fe  Fe4  1  0.75000000  0.65267820  0.49626518  1
  Fe  Fe5  1  0.25000000  0.34732180  0.50373482  1
  Fe  Fe6  1  0.25000000  0.84732180  0.99626518  1
  Fe  Fe7  1  0.75000000  0.15267820  0.00373482  1
  S  S8  1  0.75000000  0.83598390  0.74650052  1
  S  S9  1  0.25000000  0.16401610  0.25349948  1
  S  S10  1  0.25000000  0.66401610  0.24650052  1
  S  S11  1  0.75000000  0.33598390  0.75349948  1
  S  S12  1  0.75000000  0.94146849  0.19621261  1
  S  S13  1  0.25000000  0.05853151  0.80378739  1
  S  S14  1  0.25000000  0.55853151  0.69621261  1
  S  S15  1  0.75000000  0.44146849  0.30378739  1
  O  O16  1  0.75000000  0.93531211  0.71752210  1
  O  O17  1  0.25000000  0.06468789  0.28247790  1
  O  O18  1  0.25000000  0.56468789  0.21752210  1
  O  O19  1  0.75000000  0.43531211  0.78247790  1
  O  O20  1  0.75000000  0.97124905  0.36425807  1
  O  O21  1  0.25000000  0.02875095  0.63574193  1
  O  O22  1  0.25000000  0.52875095  0.86425807  1
  O  O23  1  0.75000000  0.47124905  0.13574193  1
  O  O24  1  0.75000000  0.51993740  0.41998359  1
  O  O25  1  0.25000000  0.48006260  0.58001641  1
  O  O26  1  0.25000000  0.98006260  0.91998359  1
  O  O27  1  0.75000000  0.01993740  0.08001641  1
  O  O28  1  0.01557549  0.61749490  0.66785578  1
  O  O29  1  0.98442451  0.38250510  0.33214422  1
  O  O30  1  0.98442451  0.88250510  0.16785578  1
  O  O31  1  0.51557549  0.38250510  0.33214422  1
  O  O32  1  0.01557549  0.11749490  0.83214422  1
  O  O33  1  0.48442451  0.61749490  0.66785578  1
  O  O34  1  0.48442451  0.11749490  0.83214422  1
  O  O35  1  0.51557549  0.88250510  0.16785578  1
  O  O36  1  0.75000000  0.78458709  0.58901497  1
  O  O37  1  0.25000000  0.21541291  0.41098503  1
  O  O38  1  0.25000000  0.71541291  0.08901497  1
  O  O39  1  0.75000000  0.28458709  0.91098503  1
  O  O40  1  0.98229873  0.80466885  0.83912326  1
  O  O41  1  0.01770127  0.19533115  0.16087674  1
  O  O42  1  0.01770127  0.69533115  0.33912326  1
  O  O43  1  0.48229873  0.19533115  0.16087674  1
  O  O44  1  0.98229873  0.30466885  0.66087674  1
  O  O45  1  0.51770127  0.80466885  0.83912326  1
  O  O46  1  0.51770127  0.30466885  0.66087674  1
  O  O47  1  0.48229873  0.69533115  0.33912326  1
