# generated using pymatgen
data_Mn2Fe5(SiO3)8
_symmetry_space_group_name_H-M   'P 1'
_cell_length_a   5.40011598
_cell_length_b   9.47422416
_cell_length_c   18.45646841
_cell_angle_alpha   90.00000000
_cell_angle_beta   90.00000000
_cell_angle_gamma   90.00000000
_symmetry_Int_Tables_number   1
_chemical_formula_structural   Mn2Fe5(SiO3)8
_chemical_formula_sum   'Mn4 Fe10 Si16 O48'
_cell_volume   944.26816250
_cell_formula_units_Z   2
loop_
 _symmetry_equiv_pos_site_id
 _symmetry_equiv_pos_as_xyz
  1  'x, y, z'
loop_
 _atom_site_type_symbol
 _atom_site_label
 _atom_site_symmetry_multiplicity
 _atom_site_fract_x
 _atom_site_fract_y
 _atom_site_fract_z
 _atom_site_occupancy
  Mn  Mn0  1  0.00000000  0.50000000  0.23969992  1
  Mn  Mn1  1  0.00000000  0.50000000  0.76030008  1
  Mn  Mn2  1  0.50000000  0.00000000  0.26030008  1
  Mn  Mn3  1  0.50000000  -0.00000000  0.73969992  1
  Fe  Fe4  1  0.00000000  0.50000000  0.42124138  1
  Fe  Fe5  1  0.00000000  0.50000000  0.57875862  1
  Fe  Fe6  1  0.50000000  0.00000000  0.07875862  1
  Fe  Fe7  1  0.50000000  0.00000000  0.92124138  1
  Fe  Fe8  1  0.00000000  -0.00000000  0.00000000  1
  Fe  Fe9  1  0.50000000  0.50000000  0.50000000  1
  Fe  Fe10  1  0.00000000  0.00000000  0.17853334  1
  Fe  Fe11  1  0.00000000  0.00000000  0.82146666  1
  Fe  Fe12  1  0.50000000  0.50000000  0.32146666  1
  Fe  Fe13  1  0.50000000  0.50000000  0.67853334  1
  Si  Si14  1  0.15237313  0.20301228  0.33412474  1
  Si  Si15  1  0.84762687  0.79698772  0.66587526  1
  Si  Si16  1  0.84762687  0.79698772  0.33412474  1
  Si  Si17  1  0.34762687  0.70301228  0.16587526  1
  Si  Si18  1  0.15237313  0.20301228  0.66587526  1
  Si  Si19  1  0.65237313  0.29698772  0.83412474  1
  Si  Si20  1  0.65237313  0.29698772  0.16587526  1
  Si  Si21  1  0.34762687  0.70301228  0.83412474  1
  Si  Si22  1  0.15920135  0.29017179  0.08325079  1
  Si  Si23  1  0.84079865  0.70982821  0.91674921  1
  Si  Si24  1  0.84079865  0.70982821  0.08325079  1
  Si  Si25  1  0.34079865  0.79017179  0.41674921  1
  Si  Si26  1  0.15920135  0.29017179  0.91674921  1
  Si  Si27  1  0.65920135  0.20982821  0.58325079  1
  Si  Si28  1  0.65920135  0.20982821  0.41674921  1
  Si  Si29  1  0.34079865  0.79017179  0.58325079  1
  O  O30  1  0.16510725  0.34660235  0.00000000  1
  O  O31  1  0.83489275  0.65339765  0.00000000  1
  O  O32  1  0.33489275  0.84660235  0.50000000  1
  O  O33  1  0.66510725  0.15339765  0.50000000  1
  O  O34  1  0.40640979  0.14891683  0.37754034  1
  O  O35  1  0.59359021  0.85108317  0.62245966  1
  O  O36  1  0.59359021  0.85108317  0.37754034  1
  O  O37  1  0.09359021  0.64891683  0.12245966  1
  O  O38  1  0.40640979  0.14891683  0.62245966  1
  O  O39  1  0.90640979  0.35108317  0.87754034  1
  O  O40  1  0.90640979  0.35108317  0.12245966  1
  O  O41  1  0.09359021  0.64891683  0.87754034  1
  O  O42  1  0.66003202  0.10453507  0.00000000  1
  O  O43  1  0.33996798  0.89546493  0.00000000  1
  O  O44  1  0.83996798  0.60453507  0.50000000  1
  O  O45  1  0.16003202  0.39546493  0.50000000  1
  O  O46  1  0.18162355  0.12444341  0.25632927  1
  O  O47  1  0.81837645  0.87555659  0.74367073  1
  O  O48  1  0.81837645  0.87555659  0.25632927  1
  O  O49  1  0.31837645  0.62444341  0.24367073  1
  O  O50  1  0.18162355  0.12444341  0.74367073  1
  O  O51  1  0.68162355  0.37555659  0.75632927  1
  O  O52  1  0.68162355  0.37555659  0.24367073  1
  O  O53  1  0.31837645  0.62444341  0.75632927  1
  O  O54  1  0.15353114  0.37724266  0.33260118  1
  O  O55  1  0.84646886  0.62275734  0.66739882  1
  O  O56  1  0.84646886  0.62275734  0.33260118  1
  O  O57  1  0.34646886  0.87724266  0.16739882  1
  O  O58  1  0.15353114  0.37724266  0.66739882  1
  O  O59  1  0.65353114  0.12275734  0.83260118  1
  O  O60  1  0.65353114  0.12275734  0.16739882  1
  O  O61  1  0.34646886  0.87724266  0.83260118  1
  O  O62  1  0.17076074  0.11741188  0.08845192  1
  O  O63  1  0.82923926  0.88258812  0.91154808  1
  O  O64  1  0.82923926  0.88258812  0.08845192  1
  O  O65  1  0.32923926  0.61741188  0.41154808  1
  O  O66  1  0.17076074  0.11741188  0.91154808  1
  O  O67  1  0.67076074  0.38258812  0.58845192  1
  O  O68  1  0.67076074  0.38258812  0.41154808  1
  O  O69  1  0.32923926  0.61741188  0.58845192  1
  O  O70  1  0.39659797  0.35428114  0.12715390  1
  O  O71  1  0.60340203  0.64571886  0.87284610  1
  O  O72  1  0.60340203  0.64571886  0.12715390  1
  O  O73  1  0.10340203  0.85428114  0.37284610  1
  O  O74  1  0.39659797  0.35428114  0.87284610  1
  O  O75  1  0.89659797  0.14571886  0.62715390  1
  O  O76  1  0.89659797  0.14571886  0.37284610  1
  O  O77  1  0.10340203  0.85428114  0.62715390  1
