# generated using pymatgen
data_EuEr2O4
_symmetry_space_group_name_H-M   'P 1'
_cell_length_a   3.38504145
_cell_length_b   9.98920166
_cell_length_c   11.86974553
_cell_angle_alpha   90.00000000
_cell_angle_beta   90.00000000
_cell_angle_gamma   90.00000000
_symmetry_Int_Tables_number   1
_chemical_formula_structural   EuEr2O4
_chemical_formula_sum   'Eu4 Er8 O16'
_cell_volume   401.36193343
_cell_formula_units_Z   4
loop_
 _symmetry_equiv_pos_site_id
 _symmetry_equiv_pos_as_xyz
  1  'x, y, z'
loop_
 _atom_site_type_symbol
 _atom_site_label
 _atom_site_symmetry_multiplicity
 _atom_site_fract_x
 _atom_site_fract_y
 _atom_site_fract_z
 _atom_site_occupancy
  Eu  Eu0  1  0.75000000  0.75194946  0.35084270  1
  Eu  Eu1  1  0.25000000  0.24805054  0.64915730  1
  Eu  Eu2  1  0.25000000  0.74805054  0.85084270  1
  Eu  Eu3  1  0.75000000  0.25194946  0.14915730  1
  Er  Er4  1  0.75000000  0.92356586  0.61053609  1
  Er  Er5  1  0.25000000  0.07643414  0.38946391  1
  Er  Er6  1  0.25000000  0.57643414  0.11053609  1
  Er  Er7  1  0.75000000  0.42356586  0.88946391  1
  Er  Er8  1  0.75000000  0.42221985  0.38802319  1
  Er  Er9  1  0.25000000  0.57778015  0.61197681  1
  Er  Er10  1  0.25000000  0.07778015  0.88802319  1
  Er  Er11  1  0.75000000  0.92221985  0.11197681  1
  O  O12  1  0.75000000  0.92379277  0.92210983  1
  O  O13  1  0.25000000  0.07620723  0.07789017  1
  O  O14  1  0.25000000  0.57620723  0.42210983  1
  O  O15  1  0.75000000  0.42379277  0.57789017  1
  O  O16  1  0.75000000  0.62654744  0.97956613  1
  O  O17  1  0.25000000  0.37345256  0.02043387  1
  O  O18  1  0.25000000  0.87345256  0.47956613  1
  O  O19  1  0.75000000  0.12654744  0.52043387  1
  O  O20  1  0.75000000  0.71209354  0.67453391  1
  O  O21  1  0.25000000  0.28790646  0.32546609  1
  O  O22  1  0.25000000  0.78790646  0.17453391  1
  O  O23  1  0.75000000  0.21209354  0.82546609  1
  O  O24  1  0.75000000  0.51419926  0.21626921  1
  O  O25  1  0.25000000  0.48580074  0.78373079  1
  O  O26  1  0.25000000  0.98580074  0.71626921  1
  O  O27  1  0.75000000  0.01419926  0.28373079  1
