# generated using pymatgen
data_ErCo9Si4
_symmetry_space_group_name_H-M   'P 1'
_cell_length_a   7.67912534
_cell_length_b   7.67912534
_cell_length_c   7.88313240
_cell_angle_alpha   119.14756554
_cell_angle_beta   119.14756554
_cell_angle_gamma   90.00000000
_symmetry_Int_Tables_number   1
_chemical_formula_structural   ErCo9Si4
_chemical_formula_sum   'Er2 Co18 Si8'
_cell_volume   336.99763535
_cell_formula_units_Z   2
loop_
 _symmetry_equiv_pos_site_id
 _symmetry_equiv_pos_as_xyz
  1  'x, y, z'
loop_
 _atom_site_type_symbol
 _atom_site_label
 _atom_site_symmetry_multiplicity
 _atom_site_fract_x
 _atom_site_fract_y
 _atom_site_fract_z
 _atom_site_occupancy
  Er  Er0  1  0.25000000  0.25000000  0.50000000  1
  Er  Er1  1  0.75000000  0.75000000  0.50000000  1
  Co  Co2  1  -0.00000000  0.50000000  0.00000000  1
  Co  Co3  1  0.50000000  -0.00000000  0.00000000  1
  Co  Co4  1  0.81279618  0.31279618  0.36158553  1
  Co  Co5  1  0.18720382  0.68720382  0.63841447  1
  Co  Co6  1  0.54878935  0.04878935  0.36158553  1
  Co  Co7  1  0.04878935  0.81279618  0.36158553  1
  Co  Co8  1  0.68720382  0.45121065  0.63841447  1
  Co  Co9  1  0.45121065  0.95121065  0.63841447  1
  Co  Co10  1  0.95121065  0.18720382  0.63841447  1
  Co  Co11  1  0.31279618  0.54878935  0.36158553  1
  Co  Co12  1  0.07030151  0.19759716  1.00000000  1
  Co  Co13  1  0.92969849  0.80240284  0.00000000  1
  Co  Co14  1  0.80240284  0.07030151  0.00000000  1
  Co  Co15  1  0.42969849  0.69759716  1.00000000  1
  Co  Co16  1  0.19759716  0.92969849  1.00000000  1
  Co  Co17  1  0.57030151  0.30240284  0.00000000  1
  Co  Co18  1  0.69759716  0.57030151  1.00000000  1
  Co  Co19  1  0.30240284  0.42969849  0.00000000  1
  Si  Si20  1  0.29066259  0.79066259  0.24534111  1
  Si  Si21  1  0.70933741  0.20933741  0.75465889  1
  Si  Si22  1  0.95467852  0.45467852  0.24534111  1
  Si  Si23  1  0.45467852  0.29066259  0.24534111  1
  Si  Si24  1  0.20933741  0.04532148  0.75465889  1
  Si  Si25  1  0.04532148  0.54532148  0.75465889  1
  Si  Si26  1  0.54532148  0.70933741  0.75465889  1
  Si  Si27  1  0.79066259  0.95467852  0.24534111  1
