# generated using pymatgen
data_HoNiPb
_symmetry_space_group_name_H-M   'P 1'
_cell_length_a   4.53054994
_cell_length_b   7.15935518
_cell_length_c   7.88692602
_cell_angle_alpha   90.00000000
_cell_angle_beta   90.00000000
_cell_angle_gamma   90.00000000
_symmetry_Int_Tables_number   1
_chemical_formula_structural   HoNiPb
_chemical_formula_sum   'Ho4 Ni4 Pb4'
_cell_volume   255.81888262
_cell_formula_units_Z   4
loop_
 _symmetry_equiv_pos_site_id
 _symmetry_equiv_pos_as_xyz
  1  'x, y, z'
loop_
 _atom_site_type_symbol
 _atom_site_label
 _atom_site_symmetry_multiplicity
 _atom_site_fract_x
 _atom_site_fract_y
 _atom_site_fract_z
 _atom_site_occupancy
  Ho  Ho0  1  0.75000000  0.98766648  0.29199964  1
  Ho  Ho1  1  0.25000000  0.01233352  0.70800036  1
  Ho  Ho2  1  0.25000000  0.51233352  0.79199964  1
  Ho  Ho3  1  0.75000000  0.48766648  0.20800036  1
  Ni  Ni4  1  0.75000000  0.70921214  0.59008920  1
  Ni  Ni5  1  0.25000000  0.29078786  0.40991080  1
  Ni  Ni6  1  0.25000000  0.79078786  0.09008920  1
  Ni  Ni7  1  0.75000000  0.20921214  0.90991080  1
  Pb  Pb8  1  0.75000000  0.80482795  0.91788302  1
  Pb  Pb9  1  0.25000000  0.19517205  0.08211698  1
  Pb  Pb10  1  0.25000000  0.69517205  0.41788302  1
  Pb  Pb11  1  0.75000000  0.30482795  0.58211698  1
