# generated using pymatgen
data_Dy2Cu(GeO4)2
_symmetry_space_group_name_H-M   'P 1'
_cell_length_a   5.14717108
_cell_length_b   8.20291339
_cell_length_c   8.94351507
_cell_angle_alpha   117.04978729
_cell_angle_beta   106.35897768
_cell_angle_gamma   90.76281829
_symmetry_Int_Tables_number   1
_chemical_formula_structural   Dy2Cu(GeO4)2
_chemical_formula_sum   'Dy4 Cu2 Ge4 O16'
_cell_volume   318.24190609
_cell_formula_units_Z   2
loop_
 _symmetry_equiv_pos_site_id
 _symmetry_equiv_pos_as_xyz
  1  'x, y, z'
loop_
 _atom_site_type_symbol
 _atom_site_label
 _atom_site_symmetry_multiplicity
 _atom_site_fract_x
 _atom_site_fract_y
 _atom_site_fract_z
 _atom_site_occupancy
  Dy  Dy0  1  0.11539846  0.29972741  0.75972578  1
  Dy  Dy1  1  0.35567268  0.54000163  0.24027422  1
  Dy  Dy2  1  0.36576208  0.04398289  0.24164828  1
  Dy  Dy3  1  0.12411380  0.80233461  0.75835172  1
  Cu  Cu4  1  0.54776154  0.92569394  0.58561217  1
  Cu  Cu5  1  0.96214938  0.34008177  0.41438783  1
  Ge  Ge6  1  0.78824664  0.16288680  -0.00000000  1
  Ge  Ge7  1  0.97016375  0.88844733  0.42093536  1
  Ge  Ge8  1  0.54922839  0.46751197  0.57906464  1
  Ge  Ge9  1  0.68799903  0.66649067  -0.00000000  1
  O  O10  1  0.17012134  0.09523348  0.46827412  1
  O  O11  1  0.70184722  0.62695937  0.53172588  1
  O  O12  1  0.48049210  0.06420666  0.81265563  1
  O  O13  1  0.66783647  0.25155103  0.18734437  1
  O  O14  1  0.48043834  0.49211767  -0.00000000  1
  O  O15  1  0.19670618  0.74644759  0.48259415  1
  O  O16  1  0.71411203  0.26385344  0.51740585  1
  O  O17  1  0.00297299  0.75744299  0.18419507  1
  O  O18  1  0.81877792  0.57324793  0.81580493  1
  O  O19  1  0.00124707  0.33675260  -0.00000000  1
  O  O20  1  0.47985893  0.83625141  -0.00000000  1
  O  O21  1  0.59552505  0.83877929  0.33998022  1
  O  O22  1  0.25554484  0.49879907  0.66001978  1
  O  O23  1  0.00902147  0.99629647  -0.00000000  1
  O  O24  1  0.93314366  0.00369350  0.65808502  1
  O  O25  1  0.27505864  0.34560848  0.34191498  1
