# generated using pymatgen
data_LaZnCrMoO6
_symmetry_space_group_name_H-M   'P 1'
_cell_length_a   5.42862500
_cell_length_b   5.57280310
_cell_length_c   7.98731277
_cell_angle_alpha   90.00000000
_cell_angle_beta   89.79762434
_cell_angle_gamma   90.00000000
_symmetry_Int_Tables_number   1
_chemical_formula_structural   LaZnCrMoO6
_chemical_formula_sum   'La2 Zn2 Cr2 Mo2 O12'
_cell_volume   241.63593615
_cell_formula_units_Z   2
loop_
 _symmetry_equiv_pos_site_id
 _symmetry_equiv_pos_as_xyz
  1  'x, y, z'
loop_
 _atom_site_type_symbol
 _atom_site_label
 _atom_site_symmetry_multiplicity
 _atom_site_fract_x
 _atom_site_fract_y
 _atom_site_fract_z
 _atom_site_occupancy
  La  La0  1  0.00639484  0.96012131  0.74971644  1
  La  La1  1  0.50639484  0.53987869  0.24971644  1
  Zn  Zn2  1  0.49648914  0.49984128  0.75271237  1
  Zn  Zn3  1  0.99648914  0.00015872  0.25271237  1
  Cr  Cr4  1  0.49920437  0.00469674  0.50097293  1
  Cr  Cr5  1  0.99920437  0.49530326  0.00097293  1
  Mo  Mo6  1  0.49774367  0.01295710  0.99903468  1
  Mo  Mo7  1  0.99774367  0.48704290  0.49903468  1
  O  O8  1  0.09047260  0.44818539  0.24370922  1
  O  O9  1  0.20892301  0.21716794  0.93938166  1
  O  O10  1  0.20701271  0.20382652  0.55288865  1
  O  O11  1  0.31356500  0.69439467  0.94251764  1
  O  O12  1  0.31226339  0.69201634  0.56445049  1
  O  O13  1  0.36793028  0.96840484  0.25461491  1
  O  O14  1  0.59047260  0.05181461  0.74370922  1
  O  O15  1  0.70892301  0.28283206  0.43938166  1
  O  O16  1  0.70701271  0.29617348  0.05288865  1
  O  O17  1  0.81356500  0.80560533  0.44251764  1
  O  O18  1  0.81226339  0.80798366  0.06445049  1
  O  O19  1  0.86793028  0.53159516  0.75461491  1
