# generated using pymatgen
data_KGdH2C2SO9
_symmetry_space_group_name_H-M   'P 1'
_cell_length_a   6.64761444
_cell_length_b   8.70933226
_cell_length_c   13.89967747
_cell_angle_alpha   90.00000000
_cell_angle_beta   93.94333563
_cell_angle_gamma   90.00000000
_symmetry_Int_Tables_number   1
_chemical_formula_structural   KGdH2C2SO9
_chemical_formula_sum   'K4 Gd4 H8 C8 S4 O36'
_cell_volume   802.83447851
_cell_formula_units_Z   4
loop_
 _symmetry_equiv_pos_site_id
 _symmetry_equiv_pos_as_xyz
  1  'x, y, z'
loop_
 _atom_site_type_symbol
 _atom_site_label
 _atom_site_symmetry_multiplicity
 _atom_site_fract_x
 _atom_site_fract_y
 _atom_site_fract_z
 _atom_site_occupancy
  K  K0  1  0.77215249  0.65253173  0.30114219  1
  K  K1  1  0.22784751  0.34746827  0.69885781  1
  K  K2  1  0.72784751  0.15253173  0.19885781  1
  K  K3  1  0.27215249  0.84746827  0.80114219  1
  Gd  Gd4  1  0.24672638  0.26155237  0.41153716  1
  Gd  Gd5  1  0.75327362  0.73844763  0.58846284  1
  Gd  Gd6  1  0.25327362  0.76155237  0.08846284  1
  Gd  Gd7  1  0.74672638  0.23844763  0.91153716  1
  H  H8  1  0.85829454  0.45462424  0.08034514  1
  H  H9  1  0.14170546  0.54537576  0.91965486  1
  H  H10  1  0.64170546  0.95462424  0.41965486  1
  H  H11  1  0.35829454  0.04537576  0.58034514  1
  H  H12  1  0.87755991  0.95625517  0.42376348  1
  H  H13  1  0.12244009  0.04374483  0.57623652  1
  H  H14  1  0.62244009  0.45625517  0.07623652  1
  H  H15  1  0.37755991  0.54374483  0.92376348  1
  C  C16  1  0.13284549  0.97026522  0.26869282  1
  C  C17  1  0.86715451  0.02973478  0.73130718  1
  C  C18  1  0.36715451  0.47026522  0.23130718  1
  C  C19  1  0.63284549  0.52973478  0.76869282  1
  C  C20  1  0.13556648  0.46534264  0.21975139  1
  C  C21  1  0.86443352  0.53465736  0.78024861  1
  C  C22  1  0.36443352  0.96534264  0.28024861  1
  C  C23  1  0.63556648  0.03465736  0.71975139  1
  S  S24  1  0.23362989  0.66205479  0.47787407  1
  S  S25  1  0.76637011  0.33794521  0.52212593  1
  S  S26  1  0.26637011  0.16205479  0.02212593  1
  S  S27  1  0.73362989  0.83794521  0.97787407  1
  O  O28  1  0.93482000  0.76683636  0.00146911  1
  O  O29  1  0.06518000  0.23316364  0.99853089  1
  O  O30  1  0.56518000  0.26683636  0.49853089  1
  O  O31  1  0.43482000  0.73316364  0.50146911  1
  O  O32  1  0.73714890  0.39855735  0.05370010  1
  O  O33  1  0.26285110  0.60144265  0.94629990  1
  O  O34  1  0.76285110  0.89855735  0.44629990  1
  O  O35  1  0.23714890  0.10144265  0.55370010  1
  O  O36  1  0.45467989  0.55501008  0.17260347  1
  O  O37  1  0.54532011  0.44498992  0.82739653  1
  O  O38  1  0.04532011  0.05501008  0.32739653  1
  O  O39  1  0.95467989  0.94498992  0.67260347  1
  O  O40  1  0.04580526  0.37625023  0.27450852  1
  O  O41  1  0.95419474  0.62374977  0.72549148  1
  O  O42  1  0.45419474  0.87625023  0.22549148  1
  O  O43  1  0.54580526  0.12374977  0.77450852  1
  O  O44  1  0.16922267  0.69018938  0.37592885  1
  O  O45  1  0.83077733  0.30981062  0.62407115  1
  O  O46  1  0.33077733  0.19018938  0.12407115  1
  O  O47  1  0.66922267  0.80981062  0.87592885  1
  O  O48  1  0.05023243  0.55310976  0.15607368  1
  O  O49  1  0.94976757  0.44689024  0.84392632  1
  O  O50  1  0.44976757  0.05310976  0.34392632  1
  O  O51  1  0.55023243  0.94689024  0.65607368  1
  O  O52  1  0.04601107  0.89217919  0.20116434  1
  O  O53  1  0.95398893  0.10782081  0.79883566  1
  O  O54  1  0.45398893  0.39217919  0.29883566  1
  O  O55  1  0.54601107  0.60782081  0.70116434  1
  O  O56  1  0.24564810  0.49229838  0.49743153  1
  O  O57  1  0.75435190  0.50770162  0.50256847  1
  O  O58  1  0.25435190  0.99229838  0.00256847  1
  O  O59  1  0.74564810  0.00770162  0.99743153  1
  O  O60  1  0.58851413  0.76899130  0.04287368  1
  O  O61  1  0.41148587  0.23100870  0.95712632  1
  O  O62  1  0.91148587  0.26899130  0.45712632  1
  O  O63  1  0.08851413  0.73100870  0.54287368  1
