# generated using pymatgen
data_LaBWO6
_symmetry_space_group_name_H-M   'P 1'
_cell_length_a   4.09876338
_cell_length_b   6.11356707
_cell_length_c   9.57482876
_cell_angle_alpha   99.77905000
_cell_angle_beta   90.00000000
_cell_angle_gamma   90.00000000
_symmetry_Int_Tables_number   1
_chemical_formula_structural   LaBWO6
_chemical_formula_sum   'La2 B2 W2 O12'
_cell_volume   236.44056172
_cell_formula_units_Z   2
loop_
 _symmetry_equiv_pos_site_id
 _symmetry_equiv_pos_as_xyz
  1  'x, y, z'
loop_
 _atom_site_type_symbol
 _atom_site_label
 _atom_site_symmetry_multiplicity
 _atom_site_fract_x
 _atom_site_fract_y
 _atom_site_fract_z
 _atom_site_occupancy
  La  La0  1  0.94296376  0.85884475  0.80368968  1
  La  La1  1  0.44296376  0.14115525  0.19631032  1
  B  B2  1  0.52821371  0.61685292  0.99884205  1
  B  B3  1  0.02821371  0.38314708  0.00115795  1
  W  W4  1  0.99008108  0.71271037  0.35531375  1
  W  W5  1  0.49008108  0.28728963  0.64468625  1
  O  O6  1  0.93054339  0.94513024  0.25314295  1
  O  O7  1  0.43054339  0.05486976  0.74685705  1
  O  O8  1  0.92639369  0.77132299  0.54438339  1
  O  O9  1  0.42639369  0.22867701  0.45561661  1
  O  O10  1  0.93856143  0.28074688  0.65978710  1
  O  O11  1  0.43856143  0.71925312  0.34021290  1
  O  O12  1  0.42273642  0.57652562  0.73155740  1
  O  O13  1  0.92273642  0.42347438  0.26844260  1
  O  O14  1  0.42701661  0.82395400  0.99715401  1
  O  O15  1  0.92701661  0.17604600  0.00284599  1
  O  O16  1  0.85708992  0.56715390  0.97035678  1
  O  O17  1  0.35708992  0.43284610  0.02964322  1
