# generated using pymatgen
data_CaVCuHO5
_symmetry_space_group_name_H-M   'P 1'
_cell_length_a   5.85796358
_cell_length_b   7.44304815
_cell_length_c   9.53374323
_cell_angle_alpha   90.00000000
_cell_angle_beta   90.00000000
_cell_angle_gamma   90.00000000
_symmetry_Int_Tables_number   1
_chemical_formula_structural   CaVCuHO5
_chemical_formula_sum   'Ca4 V4 Cu4 H4 O20'
_cell_volume   415.68173949
_cell_formula_units_Z   4
loop_
 _symmetry_equiv_pos_site_id
 _symmetry_equiv_pos_as_xyz
  1  'x, y, z'
loop_
 _atom_site_type_symbol
 _atom_site_label
 _atom_site_symmetry_multiplicity
 _atom_site_fract_x
 _atom_site_fract_y
 _atom_site_fract_z
 _atom_site_occupancy
  Ca  Ca0  1  0.47797070  0.12940295  0.31929766  1
  Ca  Ca1  1  0.02202930  0.87059705  0.81929766  1
  Ca  Ca2  1  0.52202930  0.62940295  0.18070234  1
  Ca  Ca3  1  0.97797070  0.37059705  0.68070234  1
  V  V4  1  0.01226091  0.38336380  0.33658335  1
  V  V5  1  0.48773909  0.61663620  0.83658335  1
  V  V6  1  0.98773909  0.88336380  0.16341665  1
  V  V7  1  0.51226091  0.11663620  0.66341665  1
  Cu  Cu8  1  0.25371288  0.25317343  0.99857920  1
  Cu  Cu9  1  0.24628712  0.74682657  0.49857920  1
  Cu  Cu10  1  0.74628712  0.75317343  0.50142080  1
  Cu  Cu11  1  0.75371288  0.24682657  0.00142080  1
  H  H12  1  0.98793549  0.51299532  0.98294100  1
  H  H13  1  0.51206451  0.48700468  0.48294100  1
  H  H14  1  0.01206451  0.01299532  0.51705900  1
  H  H15  1  0.48793549  0.98700468  0.01705900  1
  O  O16  1  0.06975300  0.20260016  0.44421378  1
  O  O17  1  0.43024700  0.79739984  0.94421378  1
  O  O18  1  0.93024700  0.70260016  0.05578622  1
  O  O19  1  0.56975300  0.29739984  0.55578622  1
  O  O20  1  0.24746608  0.39518965  0.22626592  1
  O  O21  1  0.25253392  0.60481035  0.72626592  1
  O  O22  1  0.75253392  0.89518965  0.27373408  1
  O  O23  1  0.74746608  0.10481035  0.77373408  1
  O  O24  1  0.00752133  0.06750387  0.04125902  1
  O  O25  1  0.49247867  0.93249613  0.54125902  1
  O  O26  1  0.99247867  0.56750387  0.45874098  1
  O  O27  1  0.50752133  0.43249613  0.95874098  1
  O  O28  1  0.49982061  0.10594105  0.06712069  1
  O  O29  1  0.00017939  0.89405895  0.56712069  1
  O  O30  1  0.50017939  0.60594105  0.43287931  1
  O  O31  1  0.99982061  0.39405895  0.93287931  1
  O  O32  1  0.25794271  0.13950876  0.75548277  1
  O  O33  1  0.24205729  0.86049124  0.25548277  1
  O  O34  1  0.74205729  0.63950876  0.74451723  1
  O  O35  1  0.75794271  0.36049124  0.24451723  1
