# generated using pymatgen
data_Cd4AsPI3
_symmetry_space_group_name_H-M   'P 1'
_cell_length_a   13.18286675
_cell_length_b   13.18286675
_cell_length_c   13.18286675
_cell_angle_alpha   90.00000000
_cell_angle_beta   90.00000000
_cell_angle_gamma   90.00000000
_symmetry_Int_Tables_number   1
_chemical_formula_structural   Cd4AsPI3
_chemical_formula_sum   'Cd32 As8 P8 I24'
_cell_volume   2291.02372704
_cell_formula_units_Z   8
loop_
 _symmetry_equiv_pos_site_id
 _symmetry_equiv_pos_as_xyz
  1  'x, y, z'
loop_
 _atom_site_type_symbol
 _atom_site_label
 _atom_site_symmetry_multiplicity
 _atom_site_fract_x
 _atom_site_fract_y
 _atom_site_fract_z
 _atom_site_occupancy
  Cd  Cd0  1  0.21618229  0.21618229  0.21618229  1
  Cd  Cd1  1  0.78381771  0.78381771  0.78381771  1
  Cd  Cd2  1  0.28381771  0.78381771  0.71618229  1
  Cd  Cd3  1  0.78381771  0.71618229  0.28381771  1
  Cd  Cd4  1  0.71618229  0.21618229  0.28381771  1
  Cd  Cd5  1  0.21618229  0.28381771  0.71618229  1
  Cd  Cd6  1  0.71618229  0.28381771  0.78381771  1
  Cd  Cd7  1  0.28381771  0.71618229  0.21618229  1
  Cd  Cd8  1  0.01289756  0.26742676  0.03510489  1
  Cd  Cd9  1  0.98710244  0.73257324  0.96489511  1
  Cd  Cd10  1  0.48710244  0.73257324  0.53510489  1
  Cd  Cd11  1  0.98710244  0.76742676  0.46489511  1
  Cd  Cd12  1  0.03510489  0.01289756  0.26742676  1
  Cd  Cd13  1  0.51289756  0.26742676  0.46489511  1
  Cd  Cd14  1  0.01289756  0.23257324  0.53510489  1
  Cd  Cd15  1  0.96489511  0.98710244  0.73257324  1
  Cd  Cd16  1  0.51289756  0.23257324  0.96489511  1
  Cd  Cd17  1  0.53510489  0.48710244  0.73257324  1
  Cd  Cd18  1  0.48710244  0.76742676  0.03510489  1
  Cd  Cd19  1  0.46489511  0.51289756  0.26742676  1
  Cd  Cd20  1  0.46489511  0.98710244  0.76742676  1
  Cd  Cd21  1  0.53510489  0.01289756  0.23257324  1
  Cd  Cd22  1  0.96489511  0.51289756  0.23257324  1
  Cd  Cd23  1  0.03510489  0.48710244  0.76742676  1
  Cd  Cd24  1  0.26742676  0.03510489  0.01289756  1
  Cd  Cd25  1  0.73257324  0.96489511  0.98710244  1
  Cd  Cd26  1  0.76742676  0.46489511  0.98710244  1
  Cd  Cd27  1  0.23257324  0.53510489  0.01289756  1
  Cd  Cd28  1  0.23257324  0.96489511  0.51289756  1
  Cd  Cd29  1  0.76742676  0.03510489  0.48710244  1
  Cd  Cd30  1  0.73257324  0.53510489  0.48710244  1
  Cd  Cd31  1  0.26742676  0.46489511  0.51289756  1
  As  As32  1  0.10200232  0.10200232  0.10200232  1
  As  As33  1  0.89799768  0.89799768  0.89799768  1
  As  As34  1  0.39799768  0.89799768  0.60200232  1
  As  As35  1  0.89799768  0.60200232  0.39799768  1
  As  As36  1  0.60200232  0.10200232  0.39799768  1
  As  As37  1  0.10200232  0.39799768  0.60200232  1
  As  As38  1  0.60200232  0.39799768  0.89799768  1
  As  As39  1  0.39799768  0.60200232  0.10200232  1
  P  P40  1  0.45180024  0.45180024  0.45180024  1
  P  P41  1  0.54819976  0.54819976  0.54819976  1
  P  P42  1  0.04819976  0.54819976  0.95180024  1
  P  P43  1  0.54819976  0.95180024  0.04819976  1
  P  P44  1  0.95180024  0.45180024  0.04819976  1
  P  P45  1  0.45180024  0.04819976  0.95180024  1
  P  P46  1  0.95180024  0.04819976  0.54819976  1
  P  P47  1  0.04819976  0.95180024  0.45180024  1
  I  I48  1  0.18450584  0.43485971  0.25301650  1
  I  I49  1  0.81549416  0.56514029  0.74698350  1
  I  I50  1  0.31549416  0.56514029  0.75301650  1
  I  I51  1  0.81549416  0.93485971  0.24698350  1
  I  I52  1  0.25301650  0.18450584  0.43485971  1
  I  I53  1  0.68450584  0.43485971  0.24698350  1
  I  I54  1  0.18450584  0.06514029  0.75301650  1
  I  I55  1  0.74698350  0.81549416  0.56514029  1
  I  I56  1  0.68450584  0.06514029  0.74698350  1
  I  I57  1  0.75301650  0.31549416  0.56514029  1
  I  I58  1  0.31549416  0.93485971  0.25301650  1
  I  I59  1  0.24698350  0.68450584  0.43485971  1
  I  I60  1  0.24698350  0.81549416  0.93485971  1
  I  I61  1  0.75301650  0.18450584  0.06514029  1
  I  I62  1  0.74698350  0.68450584  0.06514029  1
  I  I63  1  0.25301650  0.31549416  0.93485971  1
  I  I64  1  0.43485971  0.25301650  0.18450584  1
  I  I65  1  0.56514029  0.74698350  0.81549416  1
  I  I66  1  0.93485971  0.24698350  0.81549416  1
  I  I67  1  0.06514029  0.75301650  0.18450584  1
  I  I68  1  0.06514029  0.74698350  0.68450584  1
  I  I69  1  0.93485971  0.25301650  0.31549416  1
  I  I70  1  0.56514029  0.75301650  0.31549416  1
  I  I71  1  0.43485971  0.24698350  0.68450584  1
