# generated using pymatgen
data_Ba3Yb(BO2)9
_symmetry_space_group_name_H-M   'P 1'
_cell_length_a   7.29011910
_cell_length_b   7.29011910
_cell_length_c   17.52993707
_cell_angle_alpha   90.00000000
_cell_angle_beta   90.00000000
_cell_angle_gamma   120.00000583
_symmetry_Int_Tables_number   1
_chemical_formula_structural   Ba3Yb(BO2)9
_chemical_formula_sum   'Ba6 Yb2 B18 O36'
_cell_volume   806.82660499
_cell_formula_units_Z   2
loop_
 _symmetry_equiv_pos_site_id
 _symmetry_equiv_pos_as_xyz
  1  'x, y, z'
loop_
 _atom_site_type_symbol
 _atom_site_label
 _atom_site_symmetry_multiplicity
 _atom_site_fract_x
 _atom_site_fract_y
 _atom_site_fract_z
 _atom_site_occupancy
  Ba  Ba0  1  0.66666700  0.33333300  0.86817997  1
  Ba  Ba1  1  0.33333300  0.66666700  0.13182003  1
  Ba  Ba2  1  0.33333300  0.66666700  0.36817997  1
  Ba  Ba3  1  0.66666700  0.33333300  0.63182003  1
  Ba  Ba4  1  0.00000000  -0.00000000  0.75000000  1
  Ba  Ba5  1  0.00000000  -0.00000000  0.25000000  1
  Yb  Yb6  1  0.00000000  -0.00000000  0.00000000  1
  Yb  Yb7  1  0.00000000  -0.00000000  0.50000000  1
  B  B8  1  0.54976288  0.83501310  0.91795505  1
  B  B9  1  0.45023712  0.16498690  0.08204495  1
  B  B10  1  0.28525022  0.45023712  0.91795505  1
  B  B11  1  0.45023712  0.16498690  0.41795505  1
  B  B12  1  0.71474978  0.54976288  0.08204495  1
  B  B13  1  0.54976288  0.83501310  0.58204495  1
  B  B14  1  0.16498690  0.71474978  0.91795505  1
  B  B15  1  0.71474978  0.54976288  0.41795505  1
  B  B16  1  0.83501310  0.28525022  0.08204495  1
  B  B17  1  0.28525022  0.45023712  0.58204495  1
  B  B18  1  0.83501310  0.28525022  0.41795505  1
  B  B19  1  0.16498690  0.71474978  0.58204495  1
  B  B20  1  0.50427400  0.62197731  0.75000000  1
  B  B21  1  0.49572600  0.37802269  0.25000000  1
  B  B22  1  0.11770330  0.49572600  0.75000000  1
  B  B23  1  0.88229670  0.50427400  0.25000000  1
  B  B24  1  0.37802269  0.88229670  0.75000000  1
  B  B25  1  0.62197731  0.11770330  0.25000000  1
  O  O26  1  0.54138971  0.83248445  0.75000000  1
  O  O27  1  0.45861029  0.16751555  0.25000000  1
  O  O28  1  0.29109474  0.45861029  0.75000000  1
  O  O29  1  0.70890526  0.54138971  0.25000000  1
  O  O30  1  0.16751555  0.70890526  0.75000000  1
  O  O31  1  0.83248445  0.29109474  0.25000000  1
  O  O32  1  0.92052448  0.33351504  0.75000000  1
  O  O33  1  0.07947552  0.66648496  0.25000000  1
  O  O34  1  0.41299056  0.07947552  0.75000000  1
  O  O35  1  0.58700944  0.92052448  0.25000000  1
  O  O36  1  0.66648496  0.58700944  0.75000000  1
  O  O37  1  0.33351504  0.41299056  0.25000000  1
  O  O38  1  0.74713581  0.99577827  0.91705190  1
  O  O39  1  0.25286419  0.00422173  0.08294810  1
  O  O40  1  0.24864246  0.25286419  0.91705190  1
  O  O41  1  0.25286419  0.00422173  0.41705190  1
  O  O42  1  0.75135754  0.74713581  0.08294810  1
  O  O43  1  0.74713581  0.99577827  0.58294810  1
  O  O44  1  0.00422173  0.75135754  0.91705190  1
  O  O45  1  0.75135754  0.74713581  0.41705190  1
  O  O46  1  0.99577827  0.24864246  0.08294810  1
  O  O47  1  0.24864246  0.25286419  0.58294810  1
  O  O48  1  0.99577827  0.24864246  0.41705190  1
  O  O49  1  0.00422173  0.75135754  0.58294810  1
  O  O50  1  0.49721247  0.62060237  0.91846673  1
  O  O51  1  0.50278753  0.37939763  0.08153327  1
  O  O52  1  0.12338991  0.50278753  0.91846673  1
  O  O53  1  0.50278753  0.37939763  0.41846673  1
  O  O54  1  0.87661009  0.49721247  0.08153327  1
  O  O55  1  0.49721247  0.62060237  0.58153327  1
  O  O56  1  0.37939763  0.87661009  0.91846673  1
  O  O57  1  0.87661009  0.49721247  0.41846673  1
  O  O58  1  0.62060237  0.12338991  0.08153327  1
  O  O59  1  0.12338991  0.50278753  0.58153327  1
  O  O60  1  0.62060237  0.12338991  0.41846673  1
  O  O61  1  0.37939763  0.87661009  0.58153327  1
