# generated using pymatgen
data_Ga2P2H4NO8
_symmetry_space_group_name_H-M   'P 1'
_cell_length_a   8.96204684
_cell_length_b   9.41588629
_cell_length_c   9.41588629
_cell_angle_alpha   87.63377408
_cell_angle_beta   88.00893172
_cell_angle_gamma   88.00893172
_symmetry_Int_Tables_number   1
_chemical_formula_structural   Ga2P2H4NO8
_chemical_formula_sum   'Ga8 P8 H16 N4 O32'
_cell_volume   792.96699469
_cell_formula_units_Z   4
loop_
 _symmetry_equiv_pos_site_id
 _symmetry_equiv_pos_as_xyz
  1  'x, y, z'
loop_
 _atom_site_type_symbol
 _atom_site_label
 _atom_site_symmetry_multiplicity
 _atom_site_fract_x
 _atom_site_fract_y
 _atom_site_fract_z
 _atom_site_occupancy
  Ga  Ga0  1  0.13807512  0.32289851  0.56321384  1
  Ga  Ga1  1  0.86192488  0.67710149  0.43678616  1
  Ga  Ga2  1  0.36192488  0.43678616  0.67710149  1
  Ga  Ga3  1  0.63807512  0.56321384  0.32289851  1
  Ga  Ga4  1  0.36987005  0.90590701  0.82413332  1
  Ga  Ga5  1  0.63012995  0.09409299  0.17586668  1
  Ga  Ga6  1  0.13012995  0.17586668  0.09409299  1
  Ga  Ga7  1  0.86987005  0.82413332  0.90590701  1
  P  P8  1  0.05460590  0.06277422  0.79103108  1
  P  P9  1  0.94539410  0.93722578  0.20896892  1
  P  P10  1  0.44539410  0.20896892  0.93722578  1
  P  P11  1  0.55460590  0.79103108  0.06277422  1
  P  P12  1  0.45584239  0.28457274  0.40572801  1
  P  P13  1  0.54415761  0.71542726  0.59427199  1
  P  P14  1  0.04415761  0.59427199  0.71542726  1
  P  P15  1  0.95584239  0.40572801  0.28457274  1
  H  H16  1  0.21491019  0.88794226  0.52824400  1
  H  H17  1  0.78508981  0.11205774  0.47175600  1
  H  H18  1  0.28508981  0.47175600  0.11205774  1
  H  H19  1  0.71491019  0.52824400  0.88794226  1
  H  H20  1  0.29102579  0.02949037  0.43781983  1
  H  H21  1  0.70897421  0.97050963  0.56218017  1
  H  H22  1  0.20897421  0.56218017  0.97050963  1
  H  H23  1  0.79102579  0.43781983  0.02949037  1
  H  H24  1  0.36098561  0.85636543  0.41860765  1
  H  H25  1  0.63901439  0.14363457  0.58139235  1
  H  H26  1  0.13901439  0.58139235  0.14363457  1
  H  H27  1  0.86098561  0.41860765  0.85636543  1
  H  H28  1  0.19321051  0.91545954  0.35345523  1
  H  H29  1  0.80678949  0.08454046  0.64654477  1
  H  H30  1  0.30678949  0.64654477  0.08454046  1
  H  H31  1  0.69321051  0.35345523  0.91545954  1
  N  N32  1  0.26612978  0.92245612  0.43463725  1
  N  N33  1  0.73387022  0.07754388  0.56536275  1
  N  N34  1  0.23387022  0.56536275  0.07754388  1
  N  N35  1  0.76612978  0.43463725  0.92245612  1
  O  O36  1  0.50956596  0.29633347  0.55930130  1
  O  O37  1  0.49043404  0.70366653  0.44069870  1
  O  O38  1  0.99043404  0.44069870  0.70366653  1
  O  O39  1  0.00956596  0.55930130  0.29633347  1
  O  O40  1  0.29155930  0.23814737  0.40394839  1
  O  O41  1  0.70844070  0.76185263  0.59605161  1
  O  O42  1  0.20844070  0.59605161  0.76185263  1
  O  O43  1  0.79155930  0.40394839  0.23814737  1
  O  O44  1  0.93029876  0.86202225  0.35533513  1
  O  O45  1  0.06970124  0.13797775  0.64466487  1
  O  O46  1  0.56970124  0.64466487  0.13797775  1
  O  O47  1  0.43029876  0.35533513  0.86202225  1
  O  O48  1  0.16600991  0.93378561  0.80860237  1
  O  O49  1  0.83399009  0.06621439  0.19139763  1
  O  O50  1  0.33399009  0.19139763  0.06621439  1
  O  O51  1  0.66600991  0.80860237  0.93378561  1
  O  O52  1  0.43680440  0.08991311  0.83059693  1
  O  O53  1  0.56319560  0.91008689  0.16940307  1
  O  O54  1  0.06319560  0.16940307  0.91008689  1
  O  O55  1  0.93680440  0.83059693  0.08991311  1
  O  O56  1  0.02051579  0.68152430  0.57402394  1
  O  O57  1  0.97948421  0.31847570  0.42597606  1
  O  O58  1  0.47948421  0.42597606  0.31847570  1
  O  O59  1  0.52051579  0.57402394  0.68152430  1
  O  O60  1  0.44611025  0.84102656  0.65868644  1
  O  O61  1  0.55388975  0.15897344  0.34131356  1
  O  O62  1  0.05388975  0.34131356  0.15897344  1
  O  O63  1  0.94611025  0.65868644  0.84102656  1
  O  O64  1  0.10294998  0.00590416  0.19642450  1
  O  O65  1  0.89705002  0.99409584  0.80357550  1
  O  O66  1  0.39705002  0.80357550  0.99409584  1
  O  O67  1  0.60294998  0.19642450  0.00590416  1
