# generated using pymatgen
data_CuAsPb2SO9
_symmetry_space_group_name_H-M   'P 1'
_cell_length_a   5.87610049
_cell_length_b   8.47360194
_cell_length_c   8.65975807
_cell_angle_alpha   111.21334060
_cell_angle_beta   90.00000000
_cell_angle_gamma   90.00000000
_symmetry_Int_Tables_number   1
_chemical_formula_structural   CuAsPb2SO9
_chemical_formula_sum   'Cu2 As2 Pb4 S2 O18'
_cell_volume   401.96715510
_cell_formula_units_Z   2
loop_
 _symmetry_equiv_pos_site_id
 _symmetry_equiv_pos_as_xyz
  1  'x, y, z'
loop_
 _atom_site_type_symbol
 _atom_site_label
 _atom_site_symmetry_multiplicity
 _atom_site_fract_x
 _atom_site_fract_y
 _atom_site_fract_z
 _atom_site_occupancy
  Cu  Cu0  1  0.00000000  -0.00000000  -0.00000000  1
  Cu  Cu1  1  0.50000000  -0.00000000  -0.00000000  1
  As  As2  1  0.75000000  0.97351982  0.66197766  1
  As  As3  1  0.25000000  0.02648018  0.33802234  1
  Pb  Pb4  1  0.75000000  0.69415881  0.23428620  1
  Pb  Pb5  1  0.25000000  0.30584119  0.76571380  1
  Pb  Pb6  1  0.75000000  0.26777099  0.36553893  1
  Pb  Pb7  1  0.25000000  0.73222901  0.63446107  1
  S  S8  1  0.75000000  0.54749092  0.82150818  1
  S  S9  1  0.25000000  0.45250908  0.17849182  1
  O  O10  1  0.99930990  0.00334708  0.78259669  1
  O  O11  1  0.00069010  0.99665292  0.21740331  1
  O  O12  1  0.49930990  0.99665292  0.21740331  1
  O  O13  1  0.50069010  0.00334708  0.78259669  1
  O  O14  1  0.75000000  0.76444841  0.53642694  1
  O  O15  1  0.25000000  0.23555159  0.46357306  1
  O  O16  1  0.75000000  0.73147524  0.92225197  1
  O  O17  1  0.25000000  0.26852476  0.07774803  1
  O  O18  1  0.75000000  0.13724432  0.05933709  1
  O  O19  1  0.25000000  0.86275568  0.94066291  1
  O  O20  1  0.75000000  0.44582990  0.92992203  1
  O  O21  1  0.25000000  0.55417010  0.07007797  1
  O  O22  1  0.75000000  0.11482271  0.56599042  1
  O  O23  1  0.25000000  0.88517729  0.43400958  1
  O  O24  1  0.95856648  0.50343774  0.71116902  1
  O  O25  1  0.04143352  0.49656226  0.28883098  1
  O  O26  1  0.45856648  0.49656226  0.28883098  1
  O  O27  1  0.54143352  0.50343774  0.71116902  1
