# generated using pymatgen
data_Ca2LaMn2O7
_symmetry_space_group_name_H-M   'P 1'
_cell_length_a   3.88101905
_cell_length_b   3.88101905
_cell_length_c   10.12620960
_cell_angle_alpha   101.04806014
_cell_angle_beta   101.04806014
_cell_angle_gamma   90.00000000
_symmetry_Int_Tables_number   1
_chemical_formula_structural   Ca2LaMn2O7
_chemical_formula_sum   'Ca2 La1 Mn2 O7'
_cell_volume   146.81615758
_cell_formula_units_Z   1
loop_
 _symmetry_equiv_pos_site_id
 _symmetry_equiv_pos_as_xyz
  1  'x, y, z'
loop_
 _atom_site_type_symbol
 _atom_site_label
 _atom_site_symmetry_multiplicity
 _atom_site_fract_x
 _atom_site_fract_y
 _atom_site_fract_z
 _atom_site_occupancy
  Ca  Ca0  1  0.31505105  0.31505105  0.63010211  1
  Ca  Ca1  1  0.68494895  0.68494895  0.36989789  1
  La  La2  1  0.50000000  0.50000000  0.00000000  1
  Mn  Mn3  1  0.10188239  0.10188239  0.20376479  1
  Mn  Mn4  1  0.89811761  0.89811761  0.79623521  1
  O  O5  1  -0.00000000  0.00000000  0.00000000  1
  O  O6  1  0.19943979  0.19943979  0.39887959  1
  O  O7  1  0.80056021  0.80056021  0.60112041  1
  O  O8  1  0.09584211  0.59584211  0.19168421  1
  O  O9  1  0.90415789  0.40415789  0.80831579  1
  O  O10  1  0.59584211  0.09584211  0.19168421  1
  O  O11  1  0.40415789  0.90415789  0.80831579  1
