# generated using pymatgen
data_Ba2Lu2CuPtO8
_symmetry_space_group_name_H-M   'P 1'
_cell_length_a   5.67621572
_cell_length_b   13.27454325
_cell_length_c   10.34510689
_cell_angle_alpha   90.00000000
_cell_angle_beta   90.00000000
_cell_angle_gamma   90.00000000
_symmetry_Int_Tables_number   1
_chemical_formula_structural   Ba2Lu2CuPtO8
_chemical_formula_sum   'Ba8 Lu8 Cu4 Pt4 O32'
_cell_volume   779.49522881
_cell_formula_units_Z   4
loop_
 _symmetry_equiv_pos_site_id
 _symmetry_equiv_pos_as_xyz
  1  'x, y, z'
loop_
 _atom_site_type_symbol
 _atom_site_label
 _atom_site_symmetry_multiplicity
 _atom_site_fract_x
 _atom_site_fract_y
 _atom_site_fract_z
 _atom_site_occupancy
  Ba  Ba0  1  0.75000000  0.57721975  0.59311698  1
  Ba  Ba1  1  0.25000000  0.42278025  0.40688302  1
  Ba  Ba2  1  0.25000000  0.92278025  0.09311698  1
  Ba  Ba3  1  0.75000000  0.07721975  0.90688302  1
  Ba  Ba4  1  0.75000000  0.79290001  0.31519085  1
  Ba  Ba5  1  0.25000000  0.20709999  0.68480915  1
  Ba  Ba6  1  0.25000000  0.70709999  0.81519085  1
  Ba  Ba7  1  0.75000000  0.29290001  0.18480915  1
  Lu  Lu8  1  0.75000000  0.58227339  0.98738716  1
  Lu  Lu9  1  0.25000000  0.41772661  0.01261284  1
  Lu  Lu10  1  0.25000000  0.91772661  0.48738716  1
  Lu  Lu11  1  0.75000000  0.08227339  0.51261284  1
  Lu  Lu12  1  0.75000000  0.85935146  0.68731428  1
  Lu  Lu13  1  0.25000000  0.14064854  0.31268572  1
  Lu  Lu14  1  0.25000000  0.64064854  0.18731428  1
  Lu  Lu15  1  0.75000000  0.35935146  0.81268572  1
  Cu  Cu16  1  0.75000000  0.53929016  0.26566732  1
  Cu  Cu17  1  0.25000000  0.46070984  0.73433268  1
  Cu  Cu18  1  0.25000000  0.96070984  0.76566732  1
  Cu  Cu19  1  0.75000000  0.03929016  0.23433268  1
  Pt  Pt20  1  0.75000000  0.80487585  0.96805122  1
  Pt  Pt21  1  0.25000000  0.19512415  0.03194878  1
  Pt  Pt22  1  0.25000000  0.69512415  0.46805122  1
  Pt  Pt23  1  0.75000000  0.30487585  0.53194878  1
  O  O24  1  0.75000000  0.70240350  0.81443651  1
  O  O25  1  0.25000000  0.29759650  0.18556349  1
  O  O26  1  0.25000000  0.79759650  0.31443651  1
  O  O27  1  0.75000000  0.20240350  0.68556349  1
  O  O28  1  0.49081645  0.78721249  0.55761902  1
  O  O29  1  0.50918355  0.21278751  0.44238098  1
  O  O30  1  0.50918355  0.71278751  0.05761902  1
  O  O31  1  0.99081645  0.21278751  0.44238098  1
  O  O32  1  0.49081645  0.28721249  0.94238098  1
  O  O33  1  0.00918355  0.78721249  0.55761902  1
  O  O34  1  0.00918355  0.28721249  0.94238098  1
  O  O35  1  0.99081645  0.71278751  0.05761902  1
  O  O36  1  0.98861995  0.88594906  0.85834427  1
  O  O37  1  0.01138005  0.11405094  0.14165573  1
  O  O38  1  0.01138005  0.61405094  0.35834427  1
  O  O39  1  0.48861995  0.11405094  0.14165573  1
  O  O40  1  0.98861995  0.38594906  0.64165573  1
  O  O41  1  0.51138005  0.88594906  0.85834427  1
  O  O42  1  0.51138005  0.38594906  0.64165573  1
  O  O43  1  0.48861995  0.61405094  0.35834427  1
  O  O44  1  0.49728092  0.99114606  0.63311067  1
  O  O45  1  0.50271908  0.00885394  0.36688933  1
  O  O46  1  0.50271908  0.50885394  0.13311067  1
  O  O47  1  0.99728092  0.00885394  0.36688933  1
  O  O48  1  0.49728092  0.49114606  0.86688933  1
  O  O49  1  0.00271908  0.99114606  0.63311067  1
  O  O50  1  0.00271908  0.49114606  0.86688933  1
  O  O51  1  0.99728092  0.50885394  0.13311067  1
  O  O52  1  0.75000000  0.41158661  0.39035196  1
  O  O53  1  0.25000000  0.58841339  0.60964804  1
  O  O54  1  0.25000000  0.08841339  0.89035196  1
  O  O55  1  0.75000000  0.91158661  0.10964804  1
