# generated using pymatgen
data_ZrAlOs
_symmetry_space_group_name_H-M   'P 1'
_cell_length_a   5.29765798
_cell_length_b   5.29764489
_cell_length_c   8.43653807
_cell_angle_alpha   90.00000000
_cell_angle_beta   90.00000000
_cell_angle_gamma   60.71578847
_symmetry_Int_Tables_number   1
_chemical_formula_structural   ZrAlOs
_chemical_formula_sum   'Zr4 Al4 Os4'
_cell_volume   206.51383505
_cell_formula_units_Z   4
loop_
 _symmetry_equiv_pos_site_id
 _symmetry_equiv_pos_as_xyz
  1  'x, y, z'
loop_
 _atom_site_type_symbol
 _atom_site_label
 _atom_site_symmetry_multiplicity
 _atom_site_fract_x
 _atom_site_fract_y
 _atom_site_fract_z
 _atom_site_occupancy
  Zr  Zr0  1  0.33519394  0.33519938  0.54806842  1
  Zr  Zr1  1  0.67299974  0.67298858  0.42932726  1
  Zr  Zr2  1  0.67299974  0.67298858  0.07067274  1
  Zr  Zr3  1  0.33519394  0.33519938  0.95193158  1
  Al  Al4  1  0.99468467  0.99466773  0.49943134  1
  Al  Al5  1  0.99468467  0.99466773  0.00056866  1
  Al  Al6  1  0.82893748  0.34346759  0.75000000  1
  Al  Al7  1  0.34346214  0.82892016  0.75000000  1
  Os  Os8  1  0.83036404  0.83038874  0.75000000  1
  Os  Os9  1  0.16726959  0.66019021  0.25000000  1
  Os  Os10  1  0.66017338  0.16727335  0.25000000  1
  Os  Os11  1  0.16403668  0.16404858  0.25000000  1
