# generated using pymatgen
data_ZrTaFe4
_symmetry_space_group_name_H-M   'P 1'
_cell_length_a   4.91258748
_cell_length_b   4.91621247
_cell_length_c   7.98884834
_cell_angle_alpha   90.00000000
_cell_angle_beta   90.00047222
_cell_angle_gamma   59.97559395
_symmetry_Int_Tables_number   1
_chemical_formula_structural   ZrTaFe4
_chemical_formula_sum   'Zr2 Ta2 Fe8'
_cell_volume   167.05092717
_cell_formula_units_Z   2
loop_
 _symmetry_equiv_pos_site_id
 _symmetry_equiv_pos_as_xyz
  1  'x, y, z'
loop_
 _atom_site_type_symbol
 _atom_site_label
 _atom_site_symmetry_multiplicity
 _atom_site_fract_x
 _atom_site_fract_y
 _atom_site_fract_z
 _atom_site_occupancy
  Zr  Zr0  1  0.66660124  0.66669938  0.06624136  1
  Zr  Zr1  1  0.33339876  0.33330062  0.93375864  1
  Ta  Ta2  1  0.33341175  0.33329413  0.55694461  1
  Ta  Ta3  1  0.66658825  0.66670587  0.44305539  1
  Fe  Fe4  1  -0.00000000  0.00000000  0.50000000  1
  Fe  Fe5  1  -0.00000000  0.00000000  -0.00000000  1
  Fe  Fe6  1  0.83198599  0.33590993  0.74256306  1
  Fe  Fe7  1  0.33593827  0.83203087  0.74243840  1
  Fe  Fe8  1  0.83198599  0.83210408  0.74256306  1
  Fe  Fe9  1  0.16801401  0.66409007  0.25743694  1
  Fe  Fe10  1  0.66406173  0.16796913  0.25756160  1
  Fe  Fe11  1  0.16801401  0.16789592  0.25743694  1
