# generated using pymatgen
data_Cd5H18C8N20(Cl2O)2
_symmetry_space_group_name_H-M   'P 1'
_cell_length_a   9.32784773
_cell_length_b   10.45161689
_cell_length_c   14.39548035
_cell_angle_alpha   90.00000000
_cell_angle_beta   96.03485566
_cell_angle_gamma   90.00000000
_symmetry_Int_Tables_number   1
_chemical_formula_structural   Cd5H18C8N20(Cl2O)2
_chemical_formula_sum   'Cd10 H36 C16 N40 Cl8 O4'
_cell_volume   1395.65343921
_cell_formula_units_Z   2
loop_
 _symmetry_equiv_pos_site_id
 _symmetry_equiv_pos_as_xyz
  1  'x, y, z'
loop_
 _atom_site_type_symbol
 _atom_site_label
 _atom_site_symmetry_multiplicity
 _atom_site_fract_x
 _atom_site_fract_y
 _atom_site_fract_z
 _atom_site_occupancy
  Cd  Cd0  1  0.02935171  0.46002123  0.11919485  1
  Cd  Cd1  1  0.97064829  0.53997877  0.88080515  1
  Cd  Cd2  1  0.97064829  0.96002123  0.38080515  1
  Cd  Cd3  1  0.02935171  0.03997877  0.61919485  1
  Cd  Cd4  1  0.50000000  -0.00000000  -0.00000000  1
  Cd  Cd5  1  0.50000000  0.50000000  0.50000000  1
  Cd  Cd6  1  0.68843368  0.32201310  0.01552200  1
  Cd  Cd7  1  0.31156632  0.67798690  0.98447800  1
  Cd  Cd8  1  0.31156632  0.82201310  0.48447800  1
  Cd  Cd9  1  0.68843368  0.17798690  0.51552200  1
  H  H10  1  0.03044875  0.70438730  0.03471923  1
  H  H11  1  0.96955125  0.29561270  0.96528077  1
  H  H12  1  0.96955125  0.20438730  0.46528077  1
  H  H13  1  0.03044875  0.79561270  0.53471923  1
  H  H14  1  0.34504804  0.55201882  0.16346779  1
  H  H15  1  0.65495196  0.44798118  0.83653221  1
  H  H16  1  0.65495196  0.05201882  0.33653221  1
  H  H17  1  0.34504804  0.94798118  0.66346779  1
  H  H18  1  0.00292093  0.74907554  0.20751288  1
  H  H19  1  0.99707907  0.25092446  0.79248712  1
  H  H20  1  0.99707907  0.24907554  0.29248712  1
  H  H21  1  0.00292093  0.75092446  0.70751288  1
  H  H22  1  0.14527537  0.83768910  0.25167466  1
  H  H23  1  0.85472463  0.16231090  0.74832534  1
  H  H24  1  0.85472463  0.33768910  0.24832534  1
  H  H25  1  0.14527537  0.66231090  0.75167466  1
  H  H26  1  0.06064730  0.13791330  0.10060524  1
  H  H27  1  0.93935270  0.86208670  0.89939476  1
  H  H28  1  0.93935270  0.63791330  0.39939476  1
  H  H29  1  0.06064730  0.36208670  0.60060524  1
  H  H30  1  0.23317608  0.29623913  0.25991456  1
  H  H31  1  0.76682392  0.70376087  0.74008544  1
  H  H32  1  0.76682392  0.79623913  0.24008544  1
  H  H33  1  0.23317608  0.20376087  0.75991456  1
  H  H34  1  0.49377827  0.03114243  0.37605511  1
  H  H35  1  0.50622173  0.96885757  0.62394489  1
  H  H36  1  0.50622173  0.53114243  0.12394489  1
  H  H37  1  0.49377827  0.46885757  0.87605511  1
  H  H38  1  0.30756736  0.29726719  0.37229721  1
  H  H39  1  0.69243264  0.70273281  0.62770279  1
  H  H40  1  0.69243264  0.79726719  0.12770279  1
  H  H41  1  0.30756736  0.20273281  0.87229721  1
  H  H42  1  0.17066082  0.03409058  0.05144800  1
  H  H43  1  0.82933918  0.96590942  0.94855200  1
  H  H44  1  0.82933918  0.53409058  0.44855200  1
  H  H45  1  0.17066082  0.46590942  0.55144800  1
  C  C46  1  0.36530033  0.38780089  0.09138077  1
  C  C47  1  0.63469967  0.61219911  0.90861923  1
  C  C48  1  0.63469967  0.88780089  0.40861923  1
  C  C49  1  0.36530033  0.11219911  0.59138077  1
  C  C50  1  0.14780703  0.65702857  0.30055989  1
  C  C51  1  0.85219297  0.34297143  0.69944011  1
  C  C52  1  0.85219297  0.15702857  0.19944011  1
  C  C53  1  0.14780703  0.84297143  0.80055989  1
  C  C54  1  0.24928429  0.21336759  0.06780014  1
  C  C55  1  0.75071571  0.78663241  0.93219986  1
  C  C56  1  0.75071571  0.71336759  0.43219986  1
  C  C57  1  0.24928429  0.28663241  0.56780014  1
  C  C58  1  0.22219772  0.46589064  0.32707871  1
  C  C59  1  0.77780228  0.53410936  0.67292129  1
  C  C60  1  0.77780228  0.96589064  0.17292129  1
  C  C61  1  0.22219772  0.03410936  0.82707871  1
  N  N62  1  0.13770380  0.12669995  0.05626017  1
  N  N63  1  0.86229620  0.87330005  0.94373983  1
  N  N64  1  0.86229620  0.62669995  0.44373983  1
  N  N65  1  0.13770380  0.37330005  0.55626017  1
  N  N66  1  0.71103600  0.03791512  0.10515777  1
  N  N67  1  0.28896400  0.96208488  0.89484223  1
  N  N68  1  0.28896400  0.53791512  0.39484223  1
  N  N69  1  0.71103600  0.46208488  0.60515777  1
  N  N70  1  0.23019125  0.33443306  0.32481484  1
  N  N71  1  0.76980875  0.66556694  0.67518516  1
  N  N72  1  0.76980875  0.83443306  0.17518516  1
  N  N73  1  0.23019125  0.16556694  0.82481484  1
  N  N74  1  0.07545141  0.76562226  0.26444636  1
  N  N75  1  0.92454859  0.23437774  0.73555364  1
  N  N76  1  0.92454859  0.26562226  0.23555364  1
  N  N77  1  0.07545141  0.73437774  0.76444636  1
  N  N78  1  0.39688260  0.51684829  0.10975296  1
  N  N79  1  0.60311740  0.48315171  0.89024704  1
  N  N80  1  0.60311740  0.01684829  0.39024704  1
  N  N81  1  0.39688260  0.98315171  0.60975296  1
  N  N82  1  0.45619274  0.30651604  0.05833693  1
  N  N83  1  0.54380726  0.69348396  0.94166307  1
  N  N84  1  0.54380726  0.80651604  0.44166307  1
  N  N85  1  0.45619274  0.19348396  0.55833693  1
  N  N86  1  0.76325942  0.16113142  0.12116028  1
  N  N87  1  0.23674058  0.83886858  0.87883972  1
  N  N88  1  0.23674058  0.66113142  0.37883972  1
  N  N89  1  0.76325942  0.33886858  0.62116028  1
  N  N90  1  0.13351068  0.53611652  0.26426011  1
  N  N91  1  0.86648932  0.46388348  0.73573989  1
  N  N92  1  0.86648932  0.03611652  0.23573989  1
  N  N93  1  0.13351068  0.96388348  0.76426011  1
  N  N94  1  0.38141874  0.19156266  0.04318233  1
  N  N95  1  0.61858126  0.80843734  0.95681767  1
  N  N96  1  0.61858126  0.69156266  0.45681767  1
  N  N97  1  0.38141874  0.30843734  0.54318233  1
  N  N98  1  0.23362774  0.33531146  0.09960159  1
  N  N99  1  0.76637226  0.66468854  0.90039841  1
  N  N100  1  0.76637226  0.83531146  0.40039841  1
  N  N101  1  0.23362774  0.16468854  0.59960159  1
  Cl  Cl102  1  0.63537266  0.34933900  0.38120995  1
  Cl  Cl103  1  0.36462734  0.65066100  0.61879005  1
  Cl  Cl104  1  0.36462734  0.84933900  0.11879005  1
  Cl  Cl105  1  0.63537266  0.15066100  0.88120995  1
  Cl  Cl106  1  0.24096435  0.01766812  0.35983564  1
  Cl  Cl107  1  0.75903565  0.98233188  0.64016436  1
  Cl  Cl108  1  0.75903565  0.51766812  0.14016436  1
  Cl  Cl109  1  0.24096435  0.48233188  0.85983564  1
  O  O110  1  0.08120122  0.62601075  0.02123931  1
  O  O111  1  0.91879878  0.37398925  0.97876069  1
  O  O112  1  0.91879878  0.12601075  0.47876069  1
  O  O113  1  0.08120122  0.87398925  0.52123931  1
