# generated using pymatgen
data_Zr6P2O
_symmetry_space_group_name_H-M   'P 1'
_cell_length_a   3.53652236
_cell_length_b   5.70745822
_cell_length_c   8.43286585
_cell_angle_alpha   88.20695277
_cell_angle_beta   90.00000024
_cell_angle_gamma   71.95187131
_symmetry_Int_Tables_number   1
_chemical_formula_structural   Zr6P2O
_chemical_formula_sum   'Zr6 P2 O1'
_cell_volume   161.75088631
_cell_formula_units_Z   1
loop_
 _symmetry_equiv_pos_site_id
 _symmetry_equiv_pos_as_xyz
  1  'x, y, z'
loop_
 _atom_site_type_symbol
 _atom_site_label
 _atom_site_symmetry_multiplicity
 _atom_site_fract_x
 _atom_site_fract_y
 _atom_site_fract_z
 _atom_site_occupancy
  Zr  Zr0  1  0.86167050  0.27665899  0.45020965  1
  Zr  Zr1  1  0.13832950  0.72334101  0.54979035  1
  Zr  Zr2  1  0.85979489  0.28041022  0.05855373  1
  Zr  Zr3  1  0.14020511  0.71958978  0.94144627  1
  Zr  Zr4  1  0.56267640  0.87464720  0.24557985  1
  Zr  Zr5  1  0.43732360  0.12535280  0.75442015  1
  P  P6  1  0.25350963  0.49298073  0.24869560  1
  P  P7  1  0.74649037  0.50701927  0.75130440  1
  O  O8  1  0.50000000  0.00000000  0.50000000  1
