# generated using pymatgen
data_YTh(BRh)8
_symmetry_space_group_name_H-M   'P 1'
_cell_length_a   5.36300794
_cell_length_b   5.36300794
_cell_length_c   7.55827993
_cell_angle_alpha   90.00000000
_cell_angle_beta   90.00000000
_cell_angle_gamma   90.00000000
_symmetry_Int_Tables_number   1
_chemical_formula_structural   YTh(BRh)8
_chemical_formula_sum   'Y1 Th1 B8 Rh8'
_cell_volume   217.39014508
_cell_formula_units_Z   1
loop_
 _symmetry_equiv_pos_site_id
 _symmetry_equiv_pos_as_xyz
  1  'x, y, z'
loop_
 _atom_site_type_symbol
 _atom_site_label
 _atom_site_symmetry_multiplicity
 _atom_site_fract_x
 _atom_site_fract_y
 _atom_site_fract_z
 _atom_site_occupancy
  Y  Y0  1  0.25000000  0.75000000  0.75000000  1
  Th  Th1  1  0.75000000  0.25000000  0.25000000  1
  B  B2  1  0.58362204  0.75000000  0.40138734  1
  B  B3  1  0.91637796  0.75000000  0.40138734  1
  B  B4  1  0.75000000  0.58192637  0.90019333  1
  B  B5  1  0.75000000  0.91807363  0.90019333  1
  B  B6  1  0.41807363  0.25000000  0.59980667  1
  B  B7  1  0.08192637  0.25000000  0.59980667  1
  B  B8  1  0.25000000  0.41637796  0.09861266  1
  B  B9  1  0.25000000  0.08362204  0.09861266  1
  Rh  Rh10  1  0.00059788  0.75000000  0.10326493  1
  Rh  Rh11  1  0.49940212  0.75000000  0.10326493  1
  Rh  Rh12  1  0.75000000  0.00010728  0.60753474  1
  Rh  Rh13  1  0.75000000  0.49989272  0.60753474  1
  Rh  Rh14  1  -0.00010728  0.25000000  0.89246526  1
  Rh  Rh15  1  0.50010728  0.25000000  0.89246526  1
  Rh  Rh16  1  0.25000000  -0.00059788  0.39673507  1
  Rh  Rh17  1  0.25000000  0.50059788  0.39673507  1
