# generated using pymatgen
data_Y(CrFe5)2
_symmetry_space_group_name_H-M   'P 1'
_cell_length_a   4.68341412
_cell_length_b   6.39559403
_cell_length_c   6.39559403
_cell_angle_alpha   97.34618193
_cell_angle_beta   111.47799069
_cell_angle_gamma   68.52200931
_symmetry_Int_Tables_number   1
_chemical_formula_structural   Y(CrFe5)2
_chemical_formula_sum   'Y1 Cr2 Fe10'
_cell_volume   165.88242502
_cell_formula_units_Z   1
loop_
 _symmetry_equiv_pos_site_id
 _symmetry_equiv_pos_as_xyz
  1  'x, y, z'
loop_
 _atom_site_type_symbol
 _atom_site_label
 _atom_site_symmetry_multiplicity
 _atom_site_fract_x
 _atom_site_fract_y
 _atom_site_fract_z
 _atom_site_occupancy
  Y  Y0  1  -0.00000000  0.00000000  0.00000000  1
  Cr  Cr1  1  0.00000000  0.36838112  0.36838112  1
  Cr  Cr2  1  -0.00000000  0.63161888  0.63161888  1
  Fe  Fe3  1  0.50000000  0.00000000  0.50000000  1
  Fe  Fe4  1  -0.00000000  0.00000000  0.50000000  1
  Fe  Fe5  1  0.50000000  0.50000000  0.00000000  1
  Fe  Fe6  1  -0.00000000  0.50000000  0.00000000  1
  Fe  Fe7  1  0.72591449  0.77408551  0.22591449  1
  Fe  Fe8  1  0.27408551  0.22591449  0.77408551  1
  Fe  Fe9  1  0.50000000  0.77166783  0.77166783  1
  Fe  Fe10  1  0.50000000  0.22833217  0.22833217  1
  Fe  Fe11  1  0.64054607  0.35945393  0.64054607  1
  Fe  Fe12  1  0.35945393  0.64054607  0.35945393  1
