# generated using pymatgen
data_YAlFe
_symmetry_space_group_name_H-M   'P 1'
_cell_length_a   5.40634474
_cell_length_b   5.39503605
_cell_length_c   8.59008199
_cell_angle_alpha   90.00000000
_cell_angle_beta   90.00000000
_cell_angle_gamma   119.92704800
_symmetry_Int_Tables_number   1
_chemical_formula_structural   YAlFe
_chemical_formula_sum   'Y4 Al4 Fe4'
_cell_volume   217.14248987
_cell_formula_units_Z   4
loop_
 _symmetry_equiv_pos_site_id
 _symmetry_equiv_pos_as_xyz
  1  'x, y, z'
loop_
 _atom_site_type_symbol
 _atom_site_label
 _atom_site_symmetry_multiplicity
 _atom_site_fract_x
 _atom_site_fract_y
 _atom_site_fract_z
 _atom_site_occupancy
  Y  Y0  1  0.66484536  0.33239487  0.56474526  1
  Y  Y1  1  0.32615949  0.66306369  0.44847260  1
  Y  Y2  1  0.32615949  0.66306369  0.05152740  1
  Y  Y3  1  0.66484536  0.33239487  0.93525474  1
  Al  Al4  1  0.67302661  0.83651458  0.75000000  1
  Al  Al5  1  0.83687341  0.67458418  0.25000000  1
  Al  Al6  1  0.83682737  0.16222108  0.25000000  1
  Al  Al7  1  0.32793241  0.16393358  0.25000000  1
  Fe  Fe8  1  0.01505001  0.00762871  0.51258315  1
  Fe  Fe9  1  0.01505001  0.00762871  0.98741685  1
  Fe  Fe10  1  0.15663958  0.32273358  0.75000000  1
  Fe  Fe11  1  0.15659089  0.83383846  0.75000000  1
