# generated using pymatgen
data_YLu(BIr)8
_symmetry_space_group_name_H-M   'P 1'
_cell_length_a   5.39752743
_cell_length_b   5.39752743
_cell_length_c   7.45430122
_cell_angle_alpha   90.00000000
_cell_angle_beta   90.00000000
_cell_angle_gamma   90.00000000
_symmetry_Int_Tables_number   1
_chemical_formula_structural   YLu(BIr)8
_chemical_formula_sum   'Y1 Lu1 B8 Ir8'
_cell_volume   217.16841131
_cell_formula_units_Z   1
loop_
 _symmetry_equiv_pos_site_id
 _symmetry_equiv_pos_as_xyz
  1  'x, y, z'
loop_
 _atom_site_type_symbol
 _atom_site_label
 _atom_site_symmetry_multiplicity
 _atom_site_fract_x
 _atom_site_fract_y
 _atom_site_fract_z
 _atom_site_occupancy
  Y  Y0  1  0.25000000  0.75000000  0.75000000  1
  Lu  Lu1  1  0.75000000  0.25000000  0.25000000  1
  B  B2  1  0.57714330  0.75000000  0.40310942  1
  B  B3  1  0.92285670  0.75000000  0.40310942  1
  B  B4  1  0.75000000  0.57774847  0.90355545  1
  B  B5  1  0.75000000  0.92225153  0.90355545  1
  B  B6  1  0.42225153  0.25000000  0.59644455  1
  B  B7  1  0.07774847  0.25000000  0.59644455  1
  B  B8  1  0.25000000  0.42285670  0.09689058  1
  B  B9  1  0.25000000  0.07714330  0.09689058  1
  Ir  Ir10  1  0.00073490  0.75000000  0.10684443  1
  Ir  Ir11  1  0.49926510  0.75000000  0.10684443  1
  Ir  Ir12  1  0.75000000  0.00152863  0.60359281  1
  Ir  Ir13  1  0.75000000  0.49847137  0.60359281  1
  Ir  Ir14  1  0.99847137  0.25000000  0.89640719  1
  Ir  Ir15  1  0.50152863  0.25000000  0.89640719  1
  Ir  Ir16  1  0.25000000  0.99926510  0.39315557  1
  Ir  Ir17  1  0.25000000  0.50073490  0.39315557  1
