# generated using pymatgen
data_Y3(AlFe2)2
_symmetry_space_group_name_H-M   'P 1'
_cell_length_a   5.30499300
_cell_length_b   5.37354075
_cell_length_c   12.78839577
_cell_angle_alpha   89.52997041
_cell_angle_beta   89.96972778
_cell_angle_gamma   120.91916900
_symmetry_Int_Tables_number   1
_chemical_formula_structural   Y3(AlFe2)2
_chemical_formula_sum   'Y6 Al4 Fe8'
_cell_volume   312.73272174
_cell_formula_units_Z   2
loop_
 _symmetry_equiv_pos_site_id
 _symmetry_equiv_pos_as_xyz
  1  'x, y, z'
loop_
 _atom_site_type_symbol
 _atom_site_label
 _atom_site_symmetry_multiplicity
 _atom_site_fract_x
 _atom_site_fract_y
 _atom_site_fract_z
 _atom_site_occupancy
  Y  Y0  1  0.32054823  0.66265257  0.91449403  1
  Y  Y1  1  0.99523212  0.00329259  0.25561123  1
  Y  Y2  1  0.66063086  0.33646896  0.58643798  1
  Y  Y3  1  0.33936914  0.66353104  0.66356202  1
  Y  Y4  1  0.00476788  0.99670741  0.99438877  1
  Y  Y5  1  0.67945177  0.33734743  0.33550597  1
  Al  Al6  1  0.50000000  0.50000000  0.12500000  1
  Al  Al7  1  0.16812509  0.83669629  0.46019164  1
  Al  Al8  1  0.83187491  0.16330371  0.78980836  1
  Al  Al9  1  0.50000000  0.00000000  0.12500000  1
  Fe  Fe10  1  0.16910707  0.33491443  0.45944007  1
  Fe  Fe11  1  0.83089293  0.66508557  0.79055993  1
  Fe  Fe12  1  0.32849932  0.65298500  0.29812756  1
  Fe  Fe13  1  0.00000000  0.00000000  0.62500000  1
  Fe  Fe14  1  0.67150068  0.34701500  0.95187244  1
  Fe  Fe15  1  0.00000000  0.50000000  0.12500000  1
  Fe  Fe16  1  0.66704447  0.83202263  0.45888637  1
  Fe  Fe17  1  0.33295553  0.16797737  0.79111363  1
