# generated using pymatgen
data_Zr2AlSi
_symmetry_space_group_name_H-M   'P 1'
_cell_length_a   3.85445956
_cell_length_b   3.84948636
_cell_length_c   5.44311718
_cell_angle_alpha   90.00000000
_cell_angle_beta   69.26370282
_cell_angle_gamma   90.00000000
_symmetry_Int_Tables_number   1
_chemical_formula_structural   Zr2AlSi
_chemical_formula_sum   'Zr2 Al1 Si1'
_cell_volume   75.53143030
_cell_formula_units_Z   1
loop_
 _symmetry_equiv_pos_site_id
 _symmetry_equiv_pos_as_xyz
  1  'x, y, z'
loop_
 _atom_site_type_symbol
 _atom_site_label
 _atom_site_symmetry_multiplicity
 _atom_site_fract_x
 _atom_site_fract_y
 _atom_site_fract_z
 _atom_site_occupancy
  Zr  Zr0  1  0.14342150  0.75000000  0.71315701  1
  Zr  Zr1  1  0.85628720  0.25000000  0.28742561  1
  Al  Al2  1  0.42056010  0.75000000  0.15887979  1
  Si  Si3  1  0.57973120  0.25000000  0.84053759  1
