# generated using pymatgen
data_Zr2Ti3(PbO3)5
_symmetry_space_group_name_H-M   'P 1'
_cell_length_a   4.01868853
_cell_length_b   19.87734200
_cell_length_c   4.48972095
_cell_angle_alpha   90.08221026
_cell_angle_beta   89.75475949
_cell_angle_gamma   89.99675189
_symmetry_Int_Tables_number   1
_chemical_formula_structural   Zr2Ti3(PbO3)5
_chemical_formula_sum   'Zr2 Ti3 Pb5 O15'
_cell_volume   358.63905425
_cell_formula_units_Z   1
loop_
 _symmetry_equiv_pos_site_id
 _symmetry_equiv_pos_as_xyz
  1  'x, y, z'
loop_
 _atom_site_type_symbol
 _atom_site_label
 _atom_site_symmetry_multiplicity
 _atom_site_fract_x
 _atom_site_fract_y
 _atom_site_fract_z
 _atom_site_occupancy
  Zr  Zr0  1  0.50675191  0.10676166  0.47952069  1
  Zr  Zr1  1  0.50693979  0.89629880  0.47915686  1
  Ti  Ti2  1  0.51222959  0.30812234  0.48664749  1
  Ti  Ti3  1  0.51224348  0.50140066  0.48616823  1
  Ti  Ti4  1  0.51278935  0.69464078  0.48635177  1
  Pb  Pb5  1  0.00097443  0.00070642  0.04020361  1
  Pb  Pb6  1  0.00886641  0.21090370  0.04089802  1
  Pb  Pb7  1  0.01349393  0.40502815  0.04547379  1
  Pb  Pb8  1  0.01372322  0.59753185  0.04514039  1
  Pb  Pb9  1  0.01040764  0.79092837  0.04098690  1
  O  O10  1  0.50941750  0.10647264  0.91863628  1
  O  O11  1  0.50768713  0.30728947  0.87652173  1
  O  O12  1  0.50645493  0.50161722  0.87526028  1
  O  O13  1  0.50750480  0.69571032  0.87643051  1
  O  O14  1  0.50933936  0.89765145  0.91831978  1
  O  O15  1  0.00708677  0.10734728  0.37240028  1
  O  O16  1  0.00484546  0.30869320  0.39366316  1
  O  O17  1  0.00427915  0.50171912  0.39255838  1
  O  O18  1  0.00468055  0.69473908  0.39307431  1
  O  O19  1  0.00709379  0.89614288  0.37142178  1
  O  O20  1  0.50858540  0.00150259  0.39081850  1
  O  O21  1  0.50404402  0.21265398  0.38238721  1
  O  O22  1  0.50262451  0.40529591  0.38070329  1
  O  O23  1  0.50227047  0.59802508  0.38041870  1
  O  O24  1  0.50356643  0.79039704  0.38053806  1
