# generated using pymatgen
data_Y6Cr(GeS7)2
_symmetry_space_group_name_H-M   'P 1'
_cell_length_a   5.79200266
_cell_length_b   9.91124459
_cell_length_c   9.87866519
_cell_angle_alpha   59.56308248
_cell_angle_beta   89.73398343
_cell_angle_gamma   89.90459211
_symmetry_Int_Tables_number   1
_chemical_formula_structural   Y6Cr(GeS7)2
_chemical_formula_sum   'Y6 Cr1 Ge2 S14'
_cell_volume   488.93607778
_cell_formula_units_Z   1
loop_
 _symmetry_equiv_pos_site_id
 _symmetry_equiv_pos_as_xyz
  1  'x, y, z'
loop_
 _atom_site_type_symbol
 _atom_site_label
 _atom_site_symmetry_multiplicity
 _atom_site_fract_x
 _atom_site_fract_y
 _atom_site_fract_z
 _atom_site_occupancy
  Y  Y0  1  0.25463107  0.22887695  0.13135239  1
  Y  Y1  1  0.25168235  0.64305593  0.22493039  1
  Y  Y2  1  0.25230768  0.12779706  0.64410037  1
  Y  Y3  1  0.75556017  0.77374458  0.86739977  1
  Y  Y4  1  0.75049889  0.35333179  0.77615410  1
  Y  Y5  1  0.75316014  0.87079549  0.35468076  1
  Cr  Cr6  1  0.46690786  0.00088278  0.00258166  1
  Ge  Ge7  1  0.82978813  0.33192750  0.33416257  1
  Ge  Ge8  1  0.33572408  0.66746329  0.66654038  1
  S  S9  1  0.71223194  0.15775812  0.09557977  1
  S  S10  1  0.69824636  0.75982106  0.14836593  1
  S  S11  1  0.70055256  0.09106484  0.75755675  1
  S  S12  1  0.21899742  0.83946669  0.90543627  1
  S  S13  1  0.23652640  0.24354486  0.84545053  1
  S  S14  1  0.23270403  0.91047445  0.24457865  1
  S  S15  1  0.44959373  0.33447493  0.33338934  1
  S  S16  1  0.95521725  0.66477062  0.66615309  1
  S  S17  1  0.99315834  0.09648011  0.42053396  1
  S  S18  1  0.99261504  0.48631960  0.09911684  1
  S  S19  1  0.98936474  0.41688698  0.48394386  1
  S  S20  1  0.49786141  0.90278473  0.57898035  1
  S  S21  1  0.49802015  0.51616184  0.90203079  1
  S  S22  1  0.49765028  0.58211582  0.51698147  1
