# generated using pymatgen
data_V2MoO8
_symmetry_space_group_name_H-M   'P 1'
_cell_length_a   3.72321690
_cell_length_b   4.31341683
_cell_length_c   9.72181221
_cell_angle_alpha   89.60595850
_cell_angle_beta   78.89699850
_cell_angle_gamma   89.25526635
_symmetry_Int_Tables_number   1
_chemical_formula_structural   V2MoO8
_chemical_formula_sum   'V2 Mo1 O8'
_cell_volume   153.19340795
_cell_formula_units_Z   1
loop_
 _symmetry_equiv_pos_site_id
 _symmetry_equiv_pos_as_xyz
  1  'x, y, z'
loop_
 _atom_site_type_symbol
 _atom_site_label
 _atom_site_symmetry_multiplicity
 _atom_site_fract_x
 _atom_site_fract_y
 _atom_site_fract_z
 _atom_site_occupancy
  V  V0  1  0.21005937  0.89451036  0.62014038  1
  V  V1  1  0.83172215  0.10415287  0.37907469  1
  Mo  Mo2  1  0.02580541  0.89734204  0.00076371  1
  O  O3  1  0.72718403  0.99089402  0.58189075  1
  O  O4  1  0.31076011  0.00884019  0.41653995  1
  O  O5  1  0.21215291  0.51922246  0.62357910  1
  O  O6  1  0.83159286  0.47935653  0.37477323  1
  O  O7  1  0.11561119  0.99448104  0.80311159  1
  O  O8  1  0.91858385  0.99501954  0.19676150  1
  O  O9  1  0.02760352  0.49782392  0.00128010  1
  O  O10  1  0.52198459  0.98345704  0.99956501  1
