# generated using pymatgen
data_TlIn2GaTe4
_symmetry_space_group_name_H-M   'P 1'
_cell_length_a   7.05413731
_cell_length_b   7.05413731
_cell_length_c   7.05413731
_cell_angle_alpha   75.40866436
_cell_angle_beta   75.48523691
_cell_angle_gamma   119.83127314
_symmetry_Int_Tables_number   1
_chemical_formula_structural   TlIn2GaTe4
_chemical_formula_sum   'Tl1 In2 Ga1 Te4'
_cell_volume   263.48681415
_cell_formula_units_Z   1
loop_
 _symmetry_equiv_pos_site_id
 _symmetry_equiv_pos_as_xyz
  1  'x, y, z'
loop_
 _atom_site_type_symbol
 _atom_site_label
 _atom_site_symmetry_multiplicity
 _atom_site_fract_x
 _atom_site_fract_y
 _atom_site_fract_z
 _atom_site_occupancy
  Tl  Tl0  1  0.25000000  0.25000000  0.00000000  1
  In  In1  1  0.25000000  0.75000000  0.50000000  1
  In  In2  1  0.75000000  0.75000000  0.00000000  1
  Ga  Ga3  1  0.75000000  0.25000000  0.50000000  1
  Te  Te4  1  0.69308309  0.19319165  0.15039617  1
  Te  Te5  1  0.34358783  0.84347926  0.84960383  1
  Te  Te6  1  0.15641217  0.30680835  0.50010857  1
  Te  Te7  1  0.80691691  0.65652074  0.49989143  1
