# generated using pymatgen
data_Y6Fe(SiS7)2
_symmetry_space_group_name_H-M   'P 1'
_cell_length_a   5.64687844
_cell_length_b   9.88061819
_cell_length_c   9.91149625
_cell_angle_alpha   59.88408796
_cell_angle_beta   89.96181409
_cell_angle_gamma   90.04562015
_symmetry_Int_Tables_number   1
_chemical_formula_structural   Y6Fe(SiS7)2
_chemical_formula_sum   'Y6 Fe1 Si2 S14'
_cell_volume   478.35850146
_cell_formula_units_Z   1
loop_
 _symmetry_equiv_pos_site_id
 _symmetry_equiv_pos_as_xyz
  1  'x, y, z'
loop_
 _atom_site_type_symbol
 _atom_site_label
 _atom_site_symmetry_multiplicity
 _atom_site_fract_x
 _atom_site_fract_y
 _atom_site_fract_z
 _atom_site_occupancy
  Y  Y0  1  0.25292933  0.23210508  0.12376579  1
  Y  Y1  1  0.25338460  0.64521899  0.23166579  1
  Y  Y2  1  0.25292874  0.12354072  0.64375037  1
  Y  Y3  1  0.74812016  0.76898747  0.87664742  1
  Y  Y4  1  0.74750094  0.35331375  0.76933051  1
  Y  Y5  1  0.74828746  0.87677614  0.35475395  1
  Fe  Fe6  1  0.48497899  -0.00000851  0.00056089  1
  Si  Si7  1  0.83548113  0.33343266  0.33342904  1
  Si  Si8  1  0.33634500  0.66649645  0.66659398  1
  S  S9  1  0.46340462  0.33338067  0.33330191  1
  S  S10  1  0.96449408  0.66651196  0.66676752  1
  S  S11  1  0.72431595  0.15880812  0.08663618  1
  S  S12  1  0.72426714  0.75484971  0.15891063  1
  S  S13  1  0.72447422  0.08625854  0.75438812  1
  S  S14  1  0.24527819  0.83867592  0.91552913  1
  S  S15  1  0.24595880  0.24527243  0.83846067  1
  S  S16  1  0.24556078  0.91621670  0.24556799  1
  S  S17  1  0.98541528  0.10699743  0.41221482  1
  S  S18  1  0.98534492  0.48091708  0.10705575  1
  S  S19  1  0.98541197  0.41228922  0.48069048  1
  S  S20  1  0.48754384  0.89286022  0.58652250  1
  S  S21  1  0.48721814  0.52039935  0.89284376  1
  S  S22  1  0.48735571  0.58669989  0.52061279  1
