# generated using pymatgen
data_Y11Mg76
_symmetry_space_group_name_H-M   'P 1'
_cell_length_a   9.68490275
_cell_length_b   9.69004659
_cell_length_c   24.51360834
_cell_angle_alpha   82.37007280
_cell_angle_beta   82.37812954
_cell_angle_gamma   109.17156149
_symmetry_Int_Tables_number   1
_chemical_formula_structural   Y11Mg76
_chemical_formula_sum   'Y11 Mg76'
_cell_volume   2115.19848524
_cell_formula_units_Z   1
loop_
 _symmetry_equiv_pos_site_id
 _symmetry_equiv_pos_as_xyz
  1  'x, y, z'
loop_
 _atom_site_type_symbol
 _atom_site_label
 _atom_site_symmetry_multiplicity
 _atom_site_fract_x
 _atom_site_fract_y
 _atom_site_fract_z
 _atom_site_occupancy
  Y  Y0  1  0.00255919  0.00133299  -0.00000000  1
  Y  Y1  1  0.33461523  0.33353226  0.33347659  1
  Y  Y2  1  0.66809282  0.66700984  0.66652341  1
  Y  Y3  1  0.33413304  0.70668941  0.33319590  1
  Y  Y4  1  0.66732994  0.03988631  0.66680410  1
  Y  Y5  1  0.75286524  0.75230092  0.12412907  1
  Y  Y6  1  0.08463652  0.08460966  0.45782578  1
  Y  Y7  1  0.41740568  0.41774143  0.79115660  1
  Y  Y8  1  0.20856328  0.20889903  0.20884340  1
  Y  Y9  1  0.54246230  0.54243544  0.54217422  1
  Y  Y10  1  0.87699331  0.87642898  0.87587093  1
  Mg  Mg11  1  0.81155114  0.63002794  -0.00000000  1
  Mg  Mg12  1  0.14404984  0.96243959  0.33347675  1
  Mg  Mg13  1  0.47752759  0.29591733  0.66652325  1
  Mg  Mg14  1  0.93354874  0.12297682  0.12395326  1
  Mg  Mg15  1  0.26653448  0.45708059  0.45713433  1
  Mg  Mg16  1  0.60041278  0.79040162  0.79055368  1
  Mg  Mg17  1  0.39096746  0.58095630  0.20944632  1
  Mg  Mg18  1  0.72366881  0.91421491  0.54286567  1
  Mg  Mg19  1  0.05750100  0.24692908  0.87604674  1
  Mg  Mg20  1  0.62941720  0.81111335  -0.00000000  1
  Mg  Mg21  1  0.96252793  0.14379076  0.33333140  1
  Mg  Mg22  1  0.29586033  0.47712315  0.66666860  1
  Mg  Mg23  1  0.58084933  0.39019502  0.20944922  1
  Mg  Mg24  1  0.91449384  0.72374036  0.54300288  1
  Mg  Mg25  1  0.24743775  0.05800140  0.87637856  1
  Mg  Mg26  1  0.12381731  0.93438096  0.12362144  1
  Mg  Mg27  1  0.45749672  0.26674324  0.45699712  1
  Mg  Mg28  1  0.79029755  0.59964324  0.79055078  1
  Mg  Mg29  1  0.25012229  0.25006904  0.06051140  1
  Mg  Mg30  1  0.58423020  0.58388169  0.39339801  1
  Mg  Mg31  1  0.91803346  0.91680155  0.72687908  1
  Mg  Mg32  1  0.45983768  0.08869520  0.27020406  1
  Mg  Mg33  1  0.79316107  0.42244940  0.60359686  1
  Mg  Mg34  1  0.12630530  0.75619676  0.93663480  1
  Mg  Mg35  1  0.09010896  0.46067447  0.26996460  1
  Mg  Mg36  1  0.42376195  0.79392386  0.60310309  1
  Mg  Mg37  1  0.75585149  0.12589808  0.93648692  1
  Mg  Mg38  1  0.64491154  0.64367964  0.27312092  1
  Mg  Mg39  1  0.97762921  0.97728070  0.60660199  1
  Mg  Mg40  1  0.31063369  0.31058044  0.93948860  1
  Mg  Mg41  1  0.69233941  0.06238600  0.06351308  1
  Mg  Mg42  1  0.02686504  0.39702695  0.39689691  1
  Mg  Mg43  1  0.36007256  0.73063808  0.73003540  1
  Mg  Mg44  1  0.06294110  0.69283255  0.06336520  1
  Mg  Mg45  1  0.39675793  0.02604626  0.39640314  1
  Mg  Mg46  1  0.73004073  0.35889826  0.72979594  1
  Mg  Mg47  1  0.32001608  0.60474581  0.00000000  1
  Mg  Mg48  1  0.65697723  0.94062242  0.33352808  1
  Mg  Mg49  1  0.99050631  0.27415150  0.66647192  1
  Mg  Mg50  1  0.45505470  0.13158157  0.13093890  1
  Mg  Mg51  1  0.78748559  0.46422380  0.46404686  1
  Mg  Mg52  1  0.12071486  0.79740773  0.79766881  1
  Mg  Mg53  1  0.91838267  0.59507554  0.20233119  1
  Mg  Mg54  1  0.25153345  0.92827166  0.53595314  1
  Mg  Mg55  1  0.58599360  0.26252047  0.86906110  1
  Mg  Mg56  1  0.60441066  0.31947669  0.00000000  1
  Mg  Mg57  1  0.93970712  0.65281029  0.33319952  1
  Mg  Mg58  1  0.27290765  0.98601081  0.66680048  1
  Mg  Mg59  1  0.59400707  0.91832487  0.20265573  1
  Mg  Mg60  1  0.92747982  0.25152324  0.53590821  1
  Mg  Mg61  1  0.26253905  0.58615477  0.86852148  1
  Mg  Mg62  1  0.13106053  0.45467625  0.13147852  1
  Mg  Mg63  1  0.46338703  0.78743045  0.46409179  1
  Mg  Mg64  1  0.79666380  0.12098161  0.79734427  1
  Mg  Mg65  1  0.91339262  0.91349121  0.23865740  1
  Mg  Mg66  1  0.24686456  0.24799569  0.57167872  1
  Mg  Mg67  1  0.58054001  0.58111281  0.90506596  1
  Mg  Mg68  1  0.78544843  0.39326639  0.10658938  1
  Mg  Mg69  1  0.11663443  0.72584632  0.44142543  1
  Mg  Mg70  1  0.45052020  0.05931945  0.77471737  1
  Mg  Mg71  1  0.39410977  0.78575172  0.10635787  1
  Mg  Mg72  1  0.72823993  0.12042508  0.43979185  1
  Mg  Mg73  1  0.06124463  0.45377033  0.77343603  1
  Mg  Mg74  1  0.48560596  0.48617877  0.09493404  1
  Mg  Mg75  1  0.81854228  0.81967341  0.42832128  1
  Mg  Mg76  1  0.15205102  0.15214961  0.76134260  1
  Mg  Mg77  1  0.83468066  0.22720636  0.22656397  1
  Mg  Mg78  1  0.16803078  0.56021594  0.56020815  1
  Mg  Mg79  1  0.50046863  0.89211059  0.89364213  1
  Mg  Mg80  1  0.22523757  0.83403681  0.22528263  1
  Mg  Mg81  1  0.55805886  0.16727075  0.55857457  1
  Mg  Mg82  1  0.89203880  0.49985677  0.89341062  1
  Mg  Mg83  1  0.36970028  0.00002609  0.00000000  1
  Mg  Mg84  1  0.70267738  0.33360206  0.33331172  1
  Mg  Mg85  1  0.03599010  0.66691477  0.66668828  1
  Mg  Mg86  1  0.99987593  0.36928869  0.00000000  1
