# generated using pymatgen
data_V12Ag5O32
_symmetry_space_group_name_H-M   'P 1'
_cell_length_a   7.30030982
_cell_length_b   8.40840488
_cell_length_c   12.44175174
_cell_angle_alpha   105.95164789
_cell_angle_beta   90.00000003
_cell_angle_gamma   64.27146204
_symmetry_Int_Tables_number   1
_chemical_formula_structural   V12Ag5O32
_chemical_formula_sum   'V12 Ag5 O32'
_cell_volume   655.21155730
_cell_formula_units_Z   1
loop_
 _symmetry_equiv_pos_site_id
 _symmetry_equiv_pos_as_xyz
  1  'x, y, z'
loop_
 _atom_site_type_symbol
 _atom_site_label
 _atom_site_symmetry_multiplicity
 _atom_site_fract_x
 _atom_site_fract_y
 _atom_site_fract_z
 _atom_site_occupancy
  V  V0  1  0.96369348  0.32261304  0.45876046  1
  V  V1  1  0.46318111  0.32363777  0.45966272  1
  V  V2  1  0.53670851  0.67700877  0.54005561  1
  V  V3  1  0.03628272  0.67700877  0.54005561  1
  V  V4  1  0.49449407  0.26101186  0.19252266  1
  V  V5  1  0.99338396  0.26323207  0.18944054  1
  V  V6  1  0.00627598  0.73864469  0.80539982  1
  V  V7  1  0.50507934  0.73864469  0.80539982  1
  V  V8  1  0.07463764  0.10072472  0.92128334  1
  V  V9  1  0.57865783  0.09268434  0.91926666  1
  V  V10  1  0.42650408  0.89830153  0.07980689  1
  V  V11  1  0.92519438  0.89830153  0.07980689  1
  Ag  Ag12  1  0.21276862  0.82446276  0.32072983  1
  Ag  Ag13  1  0.71348006  0.82303989  0.32008367  1
  Ag  Ag14  1  0.28515015  0.17759504  0.67970135  1
  Ag  Ag15  1  0.78725480  0.17759504  0.67970135  1
  Ag  Ag16  1  0.35722250  0.53555499  0.97908237  1
  O  O17  1  0.38512068  0.47975863  0.26741795  1
  O  O18  1  0.88498073  0.48003854  0.26795549  1
  O  O19  1  0.11687843  0.51765796  0.73145816  1
  O  O20  1  0.61546361  0.51765796  0.73145816  1
  O  O21  1  0.04430403  0.16139195  0.32358109  1
  O  O22  1  0.54428244  0.16143513  0.32362380  1
  O  O23  1  0.45487866  0.84075696  0.67406412  1
  O  O24  1  0.95436438  0.84075696  0.67406412  1
  O  O25  1  0.47787156  0.29425688  0.04612312  1
  O  O26  1  0.97693832  0.29612336  0.04626003  1
  O  O27  1  0.02599796  0.70190914  0.95740524  1
  O  O28  1  0.52209291  0.70190914  0.95740524  1
  O  O29  1  0.32564181  0.59871638  0.53839267  1
  O  O30  1  0.82567393  0.59865214  0.53816573  1
  O  O31  1  0.17507477  0.40039152  0.46123766  1
  O  O32  1  0.67453371  0.40039152  0.46123766  1
  O  O33  1  0.71492230  0.82015539  0.83070665  1
  O  O34  1  0.21576072  0.81847857  0.82966017  1
  O  O35  1  0.78240074  0.18483030  0.17251091  1
  O  O36  1  0.28276896  0.18483030  0.17251091  1
  O  O37  1  0.14217529  0.96564941  0.07217752  1
  O  O38  1  0.64175279  0.96649442  0.07147865  1
  O  O39  1  0.35695243  0.03592365  0.92917477  1
  O  O40  1  0.85712392  0.03592365  0.92917477  1
  O  O41  1  0.02435375  0.20129250  0.54992251  1
  O  O42  1  0.52425245  0.20149511  0.55015245  1
  O  O43  1  0.47588806  0.79819321  0.44878231  1
  O  O44  1  0.97591873  0.79819321  0.44878231  1
  O  O45  1  0.02885441  0.19229118  0.81623835  1
  O  O46  1  0.52907985  0.19184029  0.81644731  1
  O  O47  1  0.47122117  0.80777156  0.18578527  1
  O  O48  1  0.97100727  0.80777156  0.18578527  1
