# generated using pymatgen
data_Te4Au(OF5)4
_symmetry_space_group_name_H-M   'P 1'
_cell_length_a   5.82330873
_cell_length_b   8.81549900
_cell_length_c   10.52503375
_cell_angle_alpha   66.20893973
_cell_angle_beta   92.75174867
_cell_angle_gamma   86.55334716
_symmetry_Int_Tables_number   1
_chemical_formula_structural   Te4Au(OF5)4
_chemical_formula_sum   'Te4 Au1 O4 F20'
_cell_volume   491.95157708
_cell_formula_units_Z   1
loop_
 _symmetry_equiv_pos_site_id
 _symmetry_equiv_pos_as_xyz
  1  'x, y, z'
loop_
 _atom_site_type_symbol
 _atom_site_label
 _atom_site_symmetry_multiplicity
 _atom_site_fract_x
 _atom_site_fract_y
 _atom_site_fract_z
 _atom_site_occupancy
  Te  Te0  1  0.25537061  0.36759707  0.74501560  1
  Te  Te1  1  0.25933081  0.11233164  0.25326670  1
  Te  Te2  1  0.74462939  0.63240293  0.25498440  1
  Te  Te3  1  0.74066919  0.88766836  0.74673330  1
  Au  Au4  1  0.50000000  0.00000000  -0.00000000  1
  O  O5  1  0.25007139  0.13022226  0.85441156  1
  O  O6  1  0.28519548  0.97842232  0.14601651  1
  O  O7  1  0.74992861  0.86977774  0.14558844  1
  O  O8  1  0.71480452  0.02157768  0.85398349  1
  F  F9  1  0.41008876  0.32924698  0.60778686  1
  F  F10  1  0.10875897  0.94289709  0.38247647  1
  F  F11  1  0.58991124  0.67075302  0.39221314  1
  F  F12  1  0.89124103  0.05710291  0.61752353  1
  F  F13  1  0.08870588  0.41172097  0.87651036  1
  F  F14  1  0.41067525  0.28535660  0.12405559  1
  F  F15  1  0.91129412  0.58827903  0.12348964  1
  F  F16  1  0.58932475  0.71464340  0.87594441  1
  F  F17  1  0.53787514  0.37073114  0.83928060  1
  F  F18  1  0.97122546  0.20882981  0.15761709  1
  F  F19  1  0.46212486  0.62926886  0.16071940  1
  F  F20  1  0.02877454  0.79117019  0.84238291  1
  F  F21  1  0.97486683  0.36942002  0.65057168  1
  F  F22  1  0.54182356  0.01724798  0.35571409  1
  F  F23  1  0.02513317  0.63057998  0.34942832  1
  F  F24  1  0.45817644  0.98275202  0.64428591  1
  F  F25  1  0.26241545  0.59583610  0.64279601  1
  F  F26  1  0.22461453  0.24000318  0.35684947  1
  F  F27  1  0.73758455  0.40416390  0.35720399  1
  F  F28  1  0.77538547  0.75999682  0.64315053  1
