# generated using pymatgen
data_Tb4Si7
_symmetry_space_group_name_H-M   'P 1'
_cell_length_a   4.10291917
_cell_length_b   3.99524719
_cell_length_c   13.62148958
_cell_angle_alpha   90.00000000
_cell_angle_beta   89.76625502
_cell_angle_gamma   90.00000000
_symmetry_Int_Tables_number   1
_chemical_formula_structural   Tb4Si7
_chemical_formula_sum   'Tb4 Si7'
_cell_volume   223.28400022
_cell_formula_units_Z   1
loop_
 _symmetry_equiv_pos_site_id
 _symmetry_equiv_pos_as_xyz
  1  'x, y, z'
loop_
 _atom_site_type_symbol
 _atom_site_label
 _atom_site_symmetry_multiplicity
 _atom_site_fract_x
 _atom_site_fract_y
 _atom_site_fract_z
 _atom_site_occupancy
  Tb  Tb0  1  0.01074698  0.75000000  0.37637835  1
  Tb  Tb1  1  0.51780229  0.25000000  0.87299325  1
  Tb  Tb2  1  0.51620102  0.75000000  0.12125837  1
  Tb  Tb3  1  0.00795752  0.25000000  0.62252808  1
  Si  Si4  1  0.51315672  0.25000000  0.29122657  1
  Si  Si5  1  0.02739463  0.75000000  0.77929782  1
  Si  Si6  1  0.01448452  0.25000000  0.20788470  1
  Si  Si7  1  0.50931454  0.25000000  0.46257181  1
  Si  Si8  1  0.01299565  0.75000000  0.94879094  1
  Si  Si9  1  0.01964044  0.25000000  0.03825726  1
  Si  Si10  1  0.50830569  0.75000000  0.56101284  1
