# generated using pymatgen
data_TbEu4S5
_symmetry_space_group_name_H-M   'P 1'
_cell_length_a   4.09024172
_cell_length_b   14.74122651
_cell_length_c   4.09024172
_cell_angle_alpha   97.97464021
_cell_angle_beta   90.00000000
_cell_angle_gamma   82.02535979
_symmetry_Int_Tables_number   1
_chemical_formula_structural   TbEu4S5
_chemical_formula_sum   'Tb1 Eu4 S5'
_cell_volume   241.82846241
_cell_formula_units_Z   1
loop_
 _symmetry_equiv_pos_site_id
 _symmetry_equiv_pos_as_xyz
  1  'x, y, z'
loop_
 _atom_site_type_symbol
 _atom_site_label
 _atom_site_symmetry_multiplicity
 _atom_site_fract_x
 _atom_site_fract_y
 _atom_site_fract_z
 _atom_site_occupancy
  Tb  Tb0  1  -0.00000000  -0.00000000  -0.00000000  1
  Eu  Eu1  1  0.40057142  0.19885715  0.59942858  1
  Eu  Eu2  1  0.80048006  0.39903988  0.19951994  1
  Eu  Eu3  1  0.19951994  0.60096012  0.80048006  1
  Eu  Eu4  1  0.59942858  0.80114285  0.40057142  1
  S  S5  1  0.09635303  0.80729393  0.90364697  1
  S  S6  1  0.50000000  0.00000000  0.50000000  1
  S  S7  1  0.90364697  0.19270607  0.09635303  1
  S  S8  1  0.30015936  0.39968127  0.69984064  1
  S  S9  1  0.69984064  0.60031873  0.30015936  1
