# generated using pymatgen
data_SrYGa3O7
_symmetry_space_group_name_H-M   'P 1'
_cell_length_a   5.29835158
_cell_length_b   8.01826120
_cell_length_c   8.01826120
_cell_angle_alpha   91.64900874
_cell_angle_beta   90.00000000
_cell_angle_gamma   90.00000000
_symmetry_Int_Tables_number   1
_chemical_formula_structural   SrYGa3O7
_chemical_formula_sum   'Sr2 Y2 Ga6 O14'
_cell_volume   340.50326387
_cell_formula_units_Z   2
loop_
 _symmetry_equiv_pos_site_id
 _symmetry_equiv_pos_as_xyz
  1  'x, y, z'
loop_
 _atom_site_type_symbol
 _atom_site_label
 _atom_site_symmetry_multiplicity
 _atom_site_fract_x
 _atom_site_fract_y
 _atom_site_fract_z
 _atom_site_occupancy
  Sr  Sr0  1  0.50846313  0.33745899  0.16254101  1
  Sr  Sr1  1  0.50846313  0.66254101  0.83745899  1
  Y  Y2  1  0.48210585  0.15961511  0.65961511  1
  Y  Y3  1  0.48210585  0.84038489  0.34038489  1
  Ga  Ga4  1  0.96470534  0.13914556  0.36085444  1
  Ga  Ga5  1  0.03264644  0.34984410  0.84984410  1
  Ga  Ga6  1  0.96470534  0.86085444  0.63914556  1
  Ga  Ga7  1  0.03264644  0.65015590  0.15015590  1
  Ga  Ga8  1  0.00825010  0.50000000  0.50000000  1
  Ga  Ga9  1  0.00825010  0.00000000  0.00000000  1
  O  O10  1  0.17565218  0.50000000  0.00000000  1
  O  O11  1  0.77853344  0.00000000  0.50000000  1
  O  O12  1  0.30812595  0.12362178  0.37637822  1
  O  O13  1  0.69190818  0.34054961  0.84054961  1
  O  O14  1  0.30812595  0.87637822  0.62362178  1
  O  O15  1  0.69190818  0.65945039  0.15945039  1
  O  O16  1  0.79561392  0.33541638  0.41840815  1
  O  O17  1  0.21773719  0.15515726  0.89828640  1
  O  O18  1  0.79561392  0.66458362  0.58159185  1
  O  O19  1  0.21773719  0.84484274  0.10171360  1
  O  O20  1  0.21773719  0.60171360  0.34484274  1
  O  O21  1  0.79561392  0.91840815  0.83541638  1
  O  O22  1  0.21773719  0.39828640  0.65515726  1
  O  O23  1  0.79561392  0.08159185  0.16458362  1
