# generated using pymatgen
data_Ti2VNi9
_symmetry_space_group_name_H-M   'P 1'
_cell_length_a   5.04610830
_cell_length_b   5.04910610
_cell_length_c   24.86948808
_cell_angle_alpha   90.00000000
_cell_angle_beta   90.00000000
_cell_angle_gamma   59.98034596
_symmetry_Int_Tables_number   1
_chemical_formula_structural   Ti2VNi9
_chemical_formula_sum   'Ti8 V4 Ni36'
_cell_volume   548.63371958
_cell_formula_units_Z   4
loop_
 _symmetry_equiv_pos_site_id
 _symmetry_equiv_pos_as_xyz
  1  'x, y, z'
loop_
 _atom_site_type_symbol
 _atom_site_label
 _atom_site_symmetry_multiplicity
 _atom_site_fract_x
 _atom_site_fract_y
 _atom_site_fract_z
 _atom_site_occupancy
  Ti  Ti0  1  0.66663273  0.66668363  0.41660004  1
  Ti  Ti1  1  0.66663273  0.66668363  0.75006696  1
  Ti  Ti2  1  -0.00001504  0.00000752  0.16675755  1
  Ti  Ti3  1  0.99999051  0.00000475  0.49978600  1
  Ti  Ti4  1  0.00000413  -0.00000207  0.83327351  1
  Ti  Ti5  1  -0.00001504  0.00000752  -0.00009055  1
  Ti  Ti6  1  0.00000413  -0.00000207  0.33339249  1
  Ti  Ti7  1  0.99999051  0.00000475  0.66688100  1
  V  V8  1  0.33336128  0.33331936  0.25014875  1
  V  V9  1  0.33340402  0.33329799  0.58333300  1
  V  V10  1  0.33336128  0.33331936  0.91651825  1
  V  V11  1  0.66654549  0.66672725  0.08333300  1
  Ni  Ni12  1  0.34106058  0.82946971  0.24991809  1
  Ni  Ni13  1  0.34091764  0.82954118  0.58333300  1
  Ni  Ni14  1  0.34106058  0.82946971  0.91674891  1
  Ni  Ni15  1  0.82945931  0.82939905  0.24992692  1
  Ni  Ni16  1  0.82953597  0.82949601  0.58333300  1
  Ni  Ni17  1  0.82945931  0.82939905  0.91674008  1
  Ni  Ni18  1  0.82945931  0.34114163  0.24992692  1
  Ni  Ni19  1  0.82953597  0.34096803  0.58333300  1
  Ni  Ni20  1  0.82945931  0.34114163  0.91674008  1
  Ni  Ni21  1  0.65939621  0.17030189  0.08333300  1
  Ni  Ni22  1  0.65895842  0.17052079  0.41665764  1
  Ni  Ni23  1  0.65895842  0.17052079  0.75000936  1
  Ni  Ni24  1  0.17035879  0.17042474  0.08333300  1
  Ni  Ni25  1  0.17051869  0.17055446  0.41665800  1
  Ni  Ni26  1  0.17051869  0.17055446  0.75000900  1
  Ni  Ni27  1  0.17035879  0.65921647  0.08333300  1
  Ni  Ni28  1  0.17051869  0.65892685  0.41665800  1
  Ni  Ni29  1  0.17051869  0.65892685  0.75000900  1
  Ni  Ni30  1  0.49967684  0.00068328  0.16680471  1
  Ni  Ni31  1  0.49903379  0.00192264  0.50045961  1
  Ni  Ni32  1  0.49884186  0.00226703  0.83386938  1
  Ni  Ni33  1  0.00069336  0.49965332  0.16680133  1
  Ni  Ni34  1  0.00193563  0.49903219  0.50045966  1
  Ni  Ni35  1  0.00229097  0.49885451  0.83386586  1
  Ni  Ni36  1  0.49967684  0.49963988  0.16680471  1
  Ni  Ni37  1  0.49903379  0.49904356  0.50045961  1
  Ni  Ni38  1  0.49884186  0.49889111  0.83386938  1
  Ni  Ni39  1  0.49967684  0.00068328  0.99986229  1
  Ni  Ni40  1  0.49884186  0.00226703  0.33279662  1
  Ni  Ni41  1  0.49903379  0.00192264  0.66620739  1
  Ni  Ni42  1  0.00069336  0.49965332  0.99986567  1
  Ni  Ni43  1  0.00229097  0.49885451  0.33280014  1
  Ni  Ni44  1  0.00193563  0.49903219  0.66620734  1
  Ni  Ni45  1  0.49884186  0.49889111  0.33279662  1
  Ni  Ni46  1  0.49903379  0.49904356  0.66620739  1
  Ni  Ni47  1  0.49967684  0.49963988  0.99986229  1
