# generated using pymatgen
data_Tc3Os
_symmetry_space_group_name_H-M   'P 1'
_cell_length_a   2.76438948
_cell_length_b   2.76438948
_cell_length_c   8.76812498
_cell_angle_alpha   90.00000000
_cell_angle_beta   90.00000000
_cell_angle_gamma   120.00017223
_symmetry_Int_Tables_number   1
_chemical_formula_structural   Tc3Os
_chemical_formula_sum   'Tc3 Os1'
_cell_volume   58.02766185
_cell_formula_units_Z   1
loop_
 _symmetry_equiv_pos_site_id
 _symmetry_equiv_pos_as_xyz
  1  'x, y, z'
loop_
 _atom_site_type_symbol
 _atom_site_label
 _atom_site_symmetry_multiplicity
 _atom_site_fract_x
 _atom_site_fract_y
 _atom_site_fract_z
 _atom_site_occupancy
  Tc  Tc0  1  0.66666397  0.33333603  0.87500000  1
  Tc  Tc1  1  0.33332883  0.66667117  0.12599951  1
  Tc  Tc2  1  0.33332883  0.66667117  0.62400049  1
  Os  Os3  1  0.66667837  0.33332163  0.37500000  1
