# generated using pymatgen
data_Ti8Mn3(B4Ru9)2
_symmetry_space_group_name_H-M   'P 1'
_cell_length_a   2.96924590
_cell_length_b   17.60240634
_cell_length_c   17.60250284
_cell_angle_alpha   89.67379725
_cell_angle_beta   90.00000000
_cell_angle_gamma   90.00000000
_symmetry_Int_Tables_number   1
_chemical_formula_structural   Ti8Mn3(B4Ru9)2
_chemical_formula_sum   'Ti16 Mn6 B16 Ru36'
_cell_volume   919.99526492
_cell_formula_units_Z   2
loop_
 _symmetry_equiv_pos_site_id
 _symmetry_equiv_pos_as_xyz
  1  'x, y, z'
loop_
 _atom_site_type_symbol
 _atom_site_label
 _atom_site_symmetry_multiplicity
 _atom_site_fract_x
 _atom_site_fract_y
 _atom_site_fract_z
 _atom_site_occupancy
  Ti  Ti0  1  -0.00000000  0.80188390  0.30186877  1
  Ti  Ti1  1  -0.00000000  0.19811610  0.69813123  1
  Ti  Ti2  1  0.00000000  0.69897841  0.80101650  1
  Ti  Ti3  1  -0.00000000  0.30102159  0.19898350  1
  Ti  Ti4  1  -0.00000000  0.68547583  0.53430723  1
  Ti  Ti5  1  -0.00000000  0.31452417  0.46569277  1
  Ti  Ti6  1  0.00000000  0.81313110  0.03498664  1
  Ti  Ti7  1  0.00000000  0.18686890  0.96501336  1
  Ti  Ti8  1  -0.00000000  0.53497975  0.31310198  1
  Ti  Ti9  1  -0.00000000  0.46502025  0.68689802  1
  Ti  Ti10  1  -0.00000000  0.03429893  0.18542755  1
  Ti  Ti11  1  0.00000000  0.96570107  0.81457245  1
  Ti  Ti12  1  -0.00000000  0.67151201  0.17151679  1
  Ti  Ti13  1  0.00000000  0.32848799  0.82848321  1
  Ti  Ti14  1  -0.00000000  0.50000000  0.50000000  1
  Ti  Ti15  1  -0.00000000  -0.00000000  -0.00000000  1
  Mn  Mn16  1  0.00000000  0.95282338  0.54720257  1
  Mn  Mn17  1  -0.00000000  0.04717662  0.45279743  1
  Mn  Mn18  1  -0.00000000  0.54600657  0.04597454  1
  Mn  Mn19  1  0.00000000  0.45399343  0.95402546  1
  Mn  Mn20  1  -0.00000000  0.82880962  0.67128232  1
  Mn  Mn21  1  0.00000000  0.17119038  0.32871768  1
  B  B22  1  -0.00000000  0.67002155  0.37881774  1
  B  B23  1  -0.00000000  0.32997845  0.62118226  1
  B  B24  1  -0.00000000  0.83025908  0.87825218  1
  B  B25  1  -0.00000000  0.16974092  0.12174782  1
  B  B26  1  -0.00000000  0.37823137  0.33025225  1
  B  B27  1  0.00000000  0.62176863  0.66974775  1
  B  B28  1  -0.00000000  0.87882052  0.17001123  1
  B  B29  1  -0.00000000  0.12117948  0.82998877  1
  B  B30  1  -0.00000000  0.83611538  0.46327858  1
  B  B31  1  -0.00000000  0.16388462  0.53672142  1
  B  B32  1  -0.00000000  0.66405198  0.96343290  1
  B  B33  1  -0.00000000  0.33594802  0.03656710  1
  B  B34  1  -0.00000000  0.46345507  0.16404374  1
  B  B35  1  -0.00000000  0.53654493  0.83595626  1
  B  B36  1  -0.00000000  0.96325049  0.33610620  1
  B  B37  1  -0.00000000  0.03674951  0.66389380  1
  Ru  Ru38  1  0.50000000  0.92027331  0.42025069  1
  Ru  Ru39  1  0.50000000  0.07972669  0.57974931  1
  Ru  Ru40  1  0.50000000  0.58087606  0.91912539  1
  Ru  Ru41  1  0.50000000  0.41912394  0.08087461  1
  Ru  Ru42  1  0.50000000  0.59767021  0.43092762  1
  Ru  Ru43  1  0.50000000  0.40232979  0.56907238  1
  Ru  Ru44  1  0.50000000  0.90152184  0.92962475  1
  Ru  Ru45  1  0.50000000  0.09847816  0.07037525  1
  Ru  Ru46  1  0.50000000  0.42963297  0.40151091  1
  Ru  Ru47  1  0.50000000  0.57036703  0.59848909  1
  Ru  Ru48  1  0.50000000  0.93095381  0.09767647  1
  Ru  Ru49  1  0.50000000  0.06904619  0.90232353  1
  Ru  Ru50  1  0.50000000  0.83197611  0.55272956  1
  Ru  Ru51  1  0.50000000  0.16802389  0.44727044  1
  Ru  Ru52  1  0.50000000  0.66760449  0.05092955  1
  Ru  Ru53  1  0.50000000  0.33239551  0.94907045  1
  Ru  Ru54  1  0.50000000  0.55093954  0.16760189  1
  Ru  Ru55  1  0.50000000  0.44906046  0.83239811  1
  Ru  Ru56  1  0.50000000  0.05273350  0.33198196  1
  Ru  Ru57  1  0.50000000  0.94726650  0.66801804  1
  Ru  Ru58  1  0.50000000  0.75515528  0.41975430  1
  Ru  Ru59  1  0.50000000  0.24484472  0.58024570  1
  Ru  Ru60  1  0.50000000  0.74510533  0.91644905  1
  Ru  Ru61  1  0.50000000  0.25489467  0.08355095  1
  Ru  Ru62  1  0.50000000  0.41648158  0.24510843  1
  Ru  Ru63  1  0.50000000  0.58351842  0.75489157  1
  Ru  Ru64  1  0.50000000  0.91976770  0.25514717  1
  Ru  Ru65  1  0.50000000  0.08023230  0.74485283  1
  Ru  Ru66  1  0.50000000  0.66759450  0.28961492  1
  Ru  Ru67  1  0.50000000  0.33240550  0.71038508  1
  Ru  Ru68  1  0.50000000  0.83382033  0.78596106  1
  Ru  Ru69  1  0.50000000  0.16617967  0.21403894  1
  Ru  Ru70  1  0.50000000  0.28594811  0.33383733  1
  Ru  Ru71  1  0.50000000  0.71405189  0.66616267  1
  Ru  Ru72  1  0.50000000  0.78961986  0.16762032  1
  Ru  Ru73  1  0.50000000  0.21038014  0.83237968  1
