# generated using pymatgen
data_Mg9Si5
_symmetry_space_group_name_H-M   'P 1'
_cell_length_a   7.19134867
_cell_length_b   7.18761576
_cell_length_c   12.82310338
_cell_angle_alpha   106.18944226
_cell_angle_beta   89.99906842
_cell_angle_gamma   120.00880398
_symmetry_Int_Tables_number   1
_chemical_formula_structural   Mg9Si5
_chemical_formula_sum   'Mg18 Si10'
_cell_volume   543.39584394
_cell_formula_units_Z   2
loop_
 _symmetry_equiv_pos_site_id
 _symmetry_equiv_pos_as_xyz
  1  'x, y, z'
loop_
 _atom_site_type_symbol
 _atom_site_label
 _atom_site_symmetry_multiplicity
 _atom_site_fract_x
 _atom_site_fract_y
 _atom_site_fract_z
 _atom_site_occupancy
  Mg  Mg0  1  0.79775917  0.09346307  0.67841175  1
  Mg  Mg1  1  0.16029322  0.10316639  0.51789519  1
  Mg  Mg2  1  0.58585465  0.41866867  0.67824497  1
  Mg  Mg3  1  0.41444179  0.61132396  0.51786485  1
  Mg  Mg4  1  0.26029936  0.88030487  0.67842569  1
  Mg  Mg5  1  0.90681954  0.35745037  0.51794163  1
  Mg  Mg6  1  0.08436289  0.88018923  0.17840363  1
  Mg  Mg7  1  0.91476162  0.35706378  0.01785063  1
  Mg  Mg8  1  0.29708336  0.41877137  0.17822247  1
  Mg  Mg9  1  0.66102677  0.61111161  0.01788552  1
  Mg  Mg10  1  0.76007342  0.09347898  0.17841349  1
  Mg  Mg11  1  0.40710104  0.10292108  0.01794997  1
  Mg  Mg12  1  0.06200850  0.62121227  0.35737968  1
  Mg  Mg13  1  0.02348943  0.62135492  0.85740200  1
  Mg  Mg14  1  0.73670237  0.83436337  0.35738212  1
  Mg  Mg15  1  0.23512027  0.29489226  0.85756834  1
  Mg  Mg16  1  0.52419055  0.29502408  0.35755926  1
  Mg  Mg17  1  0.56187101  0.83421824  0.85736437  1
  Si  Si18  1  0.98850590  0.01430326  0.00318993  1
  Si  Si19  1  0.10454013  0.24395211  0.34717822  1
  Si  Si20  1  0.83298053  0.70004480  0.53253365  1
  Si  Si21  1  0.91046825  0.85661080  0.76708036  1
  Si  Si22  1  0.71703243  0.47051603  0.18869835  1
  Si  Si23  1  0.21803160  0.47087364  0.68871353  1
  Si  Si24  1  0.33094214  0.69937443  0.03252519  1
  Si  Si25  1  0.60344381  0.24351265  0.84718570  1
  Si  Si26  1  0.49054520  0.01495877  0.50319320  1
  Si  Si27  1  0.41051105  0.85675298  0.26726332  1
