# generated using pymatgen
data_Y20Cu6(Pb3Se14)3
_symmetry_space_group_name_H-M   'P 1'
_cell_length_a   9.21634834
_cell_length_b   15.07808698
_cell_length_c   16.38397567
_cell_angle_alpha   77.52088463
_cell_angle_beta   104.67081422
_cell_angle_gamma   78.01884984
_symmetry_Int_Tables_number   1
_chemical_formula_structural   Y20Cu6(Pb3Se14)3
_chemical_formula_sum   'Y20 Cu6 Pb9 Se42'
_cell_volume   2065.93464197
_cell_formula_units_Z   1
loop_
 _symmetry_equiv_pos_site_id
 _symmetry_equiv_pos_as_xyz
  1  'x, y, z'
loop_
 _atom_site_type_symbol
 _atom_site_label
 _atom_site_symmetry_multiplicity
 _atom_site_fract_x
 _atom_site_fract_y
 _atom_site_fract_z
 _atom_site_occupancy
  Y  Y0  1  0.70496980  0.38912373  0.53470286  1
  Y  Y1  1  0.54596489  0.21345931  0.69898805  1
  Y  Y2  1  0.87363806  0.55256312  0.36868008  1
  Y  Y3  1  0.36637545  0.05334253  0.86177535  1
  Y  Y4  1  0.20226059  0.88577374  0.02761517  1
  Y  Y5  1  0.03580812  0.72160357  0.19832412  1
  Y  Y6  1  0.67397025  0.16357898  0.33631478  1
  Y  Y7  1  0.51899535  0.99898396  0.51123693  1
  Y  Y8  1  0.84288563  0.32944674  0.17200689  1
  Y  Y9  1  0.33503486  0.83594212  0.67041924  1
  Y  Y10  1  0.17348569  0.67120615  0.83715272  1
  Y  Y11  1  0.00705419  0.49978304  0.00390871  1
  Y  Y12  1  0.30316578  0.60166000  0.46410487  1
  Y  Y13  1  0.13937434  0.43379502  0.63149956  1
  Y  Y14  1  0.46960333  0.76962012  0.29678551  1
  Y  Y15  1  0.97212443  0.26584269  0.79569921  1
  Y  Y16  1  0.80269111  0.09966037  0.96239634  1
  Y  Y17  1  0.63578270  0.93538528  0.12847635  1
  Y  Y18  1  0.74531299  0.81233929  0.88029714  1
  Y  Y19  1  0.06542045  0.13172241  0.56172880  1
  Cu  Cu20  1  0.53250072  0.98142681  0.30393020  1
  Cu  Cu21  1  0.19479485  0.65198539  0.63691097  1
  Cu  Cu22  1  0.86403342  0.31426277  0.97019043  1
  Cu  Cu23  1  0.03215065  0.48399939  0.80496697  1
  Cu  Cu24  1  0.69783691  0.14728136  0.13836634  1
  Cu  Cu25  1  0.36459023  0.81667679  0.47229844  1
  Pb  Pb26  1  0.93560674  0.87339824  0.46097891  1
  Pb  Pb27  1  0.76834083  0.70694889  0.62623520  1
  Pb  Pb28  1  0.09989734  0.03873046  0.29158826  1
  Pb  Pb29  1  0.59615664  0.54185636  0.78920482  1
  Pb  Pb30  1  0.43105299  0.37318816  0.95649432  1
  Pb  Pb31  1  0.26445619  0.20556130  0.12258576  1
  Pb  Pb32  1  0.25195036  0.30260298  0.39167679  1
  Pb  Pb33  1  0.58401595  0.63532740  0.05933074  1
  Pb  Pb34  1  0.41894429  0.46863024  0.22602017  1
  Se  Se35  1  0.80854144  0.04124102  0.51103299  1
  Se  Se36  1  0.63448181  0.86795493  0.68325253  1
  Se  Se37  1  0.96946928  0.20077998  0.34952761  1
  Se  Se38  1  0.47532691  0.70756558  0.84377475  1
  Se  Se39  1  0.29871815  0.53650481  0.00766465  1
  Se  Se40  1  0.13260872  0.36944157  0.17525847  1
  Se  Se41  1  0.42453226  0.40953289  0.58498473  1
  Se  Se42  1  0.26120076  0.24562954  0.75114524  1
  Se  Se43  1  0.58992660  0.57950903  0.41713916  1
  Se  Se44  1  0.09441134  0.08115052  0.92177148  1
  Se  Se45  1  0.92475358  0.91318963  0.08461985  1
  Se  Se46  1  0.75582892  0.74493239  0.25055817  1
  Se  Se47  1  0.18918286  0.78921682  0.34511421  1
  Se  Se48  1  0.02327466  0.61926098  0.51122211  1
  Se  Se49  1  0.35609835  0.95510906  0.17647073  1
  Se  Se50  1  0.85745313  0.45549858  0.67903924  1
  Se  Se51  1  0.69040560  0.28561071  0.84205155  1
  Se  Se52  1  0.52170214  0.12182082  0.01053192  1
  Se  Se53  1  0.21767079  0.99515420  0.72057818  1
  Se  Se54  1  0.04680613  0.82295051  0.89296437  1
  Se  Se55  1  0.37249715  0.15431455  0.56125280  1
  Se  Se56  1  0.88390180  0.66631633  0.04884744  1
  Se  Se57  1  0.73245747  0.48666207  0.22849846  1
  Se  Se58  1  0.56451740  0.32032329  0.39507813  1
  Se  Se59  1  0.82663797  0.20243698  0.65000984  1
  Se  Se60  1  0.65484837  0.02886996  0.82393834  1
  Se  Se61  1  0.98861077  0.36304840  0.49155111  1
  Se  Se62  1  0.49308590  0.86870151  0.98359128  1
  Se  Se63  1  0.31808457  0.70484088  0.15553240  1
  Se  Se64  1  0.15104315  0.53853514  0.32049607  1
  Se  Se65  1  0.21189682  0.96216259  0.49362613  1
  Se  Se66  1  0.04273863  0.79081067  0.65887908  1
  Se  Se67  1  0.38014308  0.12211263  0.32949410  1
  Se  Se68  1  0.87505058  0.62821426  0.82640755  1
  Se  Se69  1  0.71082478  0.45616881  0.99332319  1
  Se  Se70  1  0.54416302  0.29068004  0.15924770  1
  Se  Se71  1  0.77151977  0.00735579  0.26895100  1
  Se  Se72  1  0.60413441  0.84478985  0.43854347  1
  Se  Se73  1  0.93685470  0.17472499  0.10296420  1
  Se  Se74  1  0.43609894  0.67678473  0.60239217  1
  Se  Se75  1  0.27032906  0.51103688  0.76974753  1
  Se  Se76  1  0.10108913  0.34351434  0.93486805  1
