# generated using pymatgen
data_TaTiFeO6
_symmetry_space_group_name_H-M   'P 1'
_cell_length_a   4.71073741
_cell_length_b   4.71073741
_cell_length_c   9.10699009
_cell_angle_alpha   90.00000000
_cell_angle_beta   90.00000000
_cell_angle_gamma   90.00000000
_symmetry_Int_Tables_number   1
_chemical_formula_structural   TaTiFeO6
_chemical_formula_sum   'Ta2 Ti2 Fe2 O12'
_cell_volume   202.09364462
_cell_formula_units_Z   2
loop_
 _symmetry_equiv_pos_site_id
 _symmetry_equiv_pos_as_xyz
  1  'x, y, z'
loop_
 _atom_site_type_symbol
 _atom_site_label
 _atom_site_symmetry_multiplicity
 _atom_site_fract_x
 _atom_site_fract_y
 _atom_site_fract_z
 _atom_site_occupancy
  Ta  Ta0  1  0.50000000  0.50000000  0.83394963  1
  Ta  Ta1  1  -0.00000000  -0.00000000  0.33394963  1
  Ti  Ti2  1  0.50000000  0.50000000  0.49906754  1
  Ti  Ti3  1  -0.00000000  -0.00000000  0.99906754  1
  Fe  Fe4  1  0.50000000  0.50000000  0.16771943  1
  Fe  Fe5  1  -0.00000000  -0.00000000  0.66771943  1
  O  O6  1  0.19202508  0.80797492  0.16550795  1
  O  O7  1  0.20053363  0.79946637  0.49612555  1
  O  O8  1  0.19717682  0.80282318  0.83799820  1
  O  O9  1  0.80797492  0.19202508  0.16550795  1
  O  O10  1  0.79946637  0.20053363  0.49612555  1
  O  O11  1  0.80282318  0.19717682  0.83799820  1
  O  O12  1  0.30282318  0.30282318  0.33799820  1
  O  O13  1  0.30797492  0.30797492  0.66550795  1
  O  O14  1  0.29946637  0.29946637  -0.00387445  1
  O  O15  1  0.69717682  0.69717682  0.33799820  1
  O  O16  1  0.69202508  0.69202508  0.66550795  1
  O  O17  1  0.70053363  0.70053363  -0.00387445  1
