# generated using pymatgen
data_TaFeO4
_symmetry_space_group_name_H-M   'P 1'
_cell_length_a   4.73995865
_cell_length_b   4.73995865
_cell_length_c   9.23303041
_cell_angle_alpha   90.00000000
_cell_angle_beta   90.00000000
_cell_angle_gamma   90.54084915
_symmetry_Int_Tables_number   1
_chemical_formula_structural   TaFeO4
_chemical_formula_sum   'Ta3 Fe3 O12'
_cell_volume   207.43117312
_cell_formula_units_Z   3
loop_
 _symmetry_equiv_pos_site_id
 _symmetry_equiv_pos_as_xyz
  1  'x, y, z'
loop_
 _atom_site_type_symbol
 _atom_site_label
 _atom_site_symmetry_multiplicity
 _atom_site_fract_x
 _atom_site_fract_y
 _atom_site_fract_z
 _atom_site_occupancy
  Ta  Ta0  1  -0.00000000  -0.00000000  0.66261018  1
  Ta  Ta1  1  0.50000000  0.50000000  0.84251944  1
  Ta  Ta2  1  -0.00000000  -0.00000000  0.32151842  1
  Fe  Fe3  1  0.50000000  0.50000000  0.49627405  1
  Fe  Fe4  1  -0.00000000  -0.00000000  -0.00026530  1
  Fe  Fe5  1  0.50000000  0.50000000  0.17270854  1
  O  O6  1  0.19666140  0.80333860  0.16977511  1
  O  O7  1  0.80333860  0.19666140  0.16977511  1
  O  O8  1  0.30185578  0.30185578  0.67080559  1
  O  O9  1  0.69814422  0.69814422  0.67080559  1
  O  O10  1  0.80139539  0.19860461  0.82865112  1
  O  O11  1  0.19860461  0.80139539  0.82865112  1
  O  O12  1  0.70065178  0.70065178  0.33544643  1
  O  O13  1  0.29934822  0.29934822  0.33544643  1
  O  O14  1  0.19254940  0.80745060  0.50263259  1
  O  O15  1  0.80745060  0.19254940  0.50263259  1
  O  O16  1  0.30261983  0.30261983  0.99500648  1
  O  O17  1  0.69738017  0.69738017  0.99500648  1
