# generated using pymatgen
data_La7SmMn3Fe5O24
_symmetry_space_group_name_H-M   'P 1'
_cell_length_a   7.90945137
_cell_length_b   7.87479561
_cell_length_c   7.90945137
_cell_angle_alpha   90.00400005
_cell_angle_beta   89.99501564
_cell_angle_gamma   89.99599995
_symmetry_Int_Tables_number   1
_chemical_formula_structural   La7SmMn3Fe5O24
_chemical_formula_sum   'La7 Sm1 Mn3 Fe5 O24'
_cell_volume   492.64264965
_cell_formula_units_Z   1
loop_
 _symmetry_equiv_pos_site_id
 _symmetry_equiv_pos_as_xyz
  1  'x, y, z'
loop_
 _atom_site_type_symbol
 _atom_site_label
 _atom_site_symmetry_multiplicity
 _atom_site_fract_x
 _atom_site_fract_y
 _atom_site_fract_z
 _atom_site_occupancy
  La  La0  1  0.24985692  0.25121205  0.24986704  1
  La  La1  1  0.24986980  0.25124648  0.75013020  1
  La  La2  1  0.24988199  0.74881139  0.24984705  1
  La  La3  1  0.24988100  0.74877827  0.75011900  1
  La  La4  1  0.75013296  0.25121205  0.75014308  1
  La  La5  1  0.75012418  0.74876463  0.24987582  1
  La  La6  1  0.75015295  0.74881139  0.75011801  1
  Sm  Sm7  1  0.75002033  0.25106942  0.24997967  1
  Mn  Mn8  1  0.99971081  0.49970690  0.00028919  1
  Mn  Mn9  1  0.99972226  0.49973834  0.49972384  1
  Mn  Mn10  1  0.50027616  0.49973834  0.00027774  1
  Fe  Fe11  1  0.99970465  0.00030076  0.00029535  1
  Fe  Fe12  1  0.99972931  0.00027825  0.49972016  1
  Fe  Fe13  1  0.50027984  0.00027825  0.00027069  1
  Fe  Fe14  1  0.50027729  0.00028202  0.49972271  1
  Fe  Fe15  1  0.50029288  0.49971512  0.49970712  1
  O  O16  1  0.24971597  0.00007676  0.00005628  1
  O  O17  1  0.24963525  0.00007264  0.49994140  1
  O  O18  1  0.24946883  0.49995692  0.00006302  1
  O  O19  1  0.25273498  0.49996434  0.49992252  1
  O  O20  1  0.75028720  0.00127016  0.00125477  1
  O  O21  1  0.75037847  0.00126715  0.49874387  1
  O  O22  1  0.75052734  0.49865918  0.00136516  1
  O  O23  1  0.74732452  0.49868487  0.49864796  1
  O  O24  1  0.99872516  0.25001164  0.00127484  1
  O  O25  1  0.99870760  0.24919856  0.49869093  1
  O  O26  1  0.99994307  0.75004514  0.00005693  1
  O  O27  1  0.99995402  0.75085028  0.49993633  1
  O  O28  1  0.50130907  0.24919856  0.00129240  1
  O  O29  1  0.50124785  0.24956704  0.49875215  1
  O  O30  1  0.50006367  0.75085028  0.00004598  1
  O  O31  1  0.50005866  0.75043077  0.49994134  1
  O  O32  1  0.99874523  0.00127016  0.24971280  1
  O  O33  1  0.99994372  0.00007676  0.75028403  1
  O  O34  1  0.99863484  0.49865918  0.24947266  1
  O  O35  1  0.99993698  0.49995692  0.75053117  1
  O  O36  1  0.50125613  0.00126715  0.24962153  1
  O  O37  1  0.50005860  0.00007264  0.75036475  1
  O  O38  1  0.50135204  0.49868487  0.25267548  1
  O  O39  1  0.50007748  0.49996434  0.74726502  1
