# generated using pymatgen
data_Sr3FeMoO7
_symmetry_space_group_name_H-M   'P 1'
_cell_length_a   4.03660815
_cell_length_b   4.03660815
_cell_length_c   10.73980705
_cell_angle_alpha   79.16814537
_cell_angle_beta   79.16814537
_cell_angle_gamma   90.00000000
_symmetry_Int_Tables_number   1
_chemical_formula_structural   Sr3FeMoO7
_chemical_formula_sum   'Sr3 Fe1 Mo1 O7'
_cell_volume   168.70314932
_cell_formula_units_Z   1
loop_
 _symmetry_equiv_pos_site_id
 _symmetry_equiv_pos_as_xyz
  1  'x, y, z'
loop_
 _atom_site_type_symbol
 _atom_site_label
 _atom_site_symmetry_multiplicity
 _atom_site_fract_x
 _atom_site_fract_y
 _atom_site_fract_z
 _atom_site_occupancy
  Sr  Sr0  1  0.31401680  0.31401680  0.37196639  1
  Sr  Sr1  1  0.67945778  0.67945778  0.64108443  1
  Sr  Sr2  1  0.51282938  0.51282938  0.97434124  1
  Fe  Fe3  1  0.10376576  0.10376576  0.79246848  1
  Mo  Mo4  1  0.90318522  0.90318522  0.19362955  1
  O  O5  1  0.19902057  0.19902057  0.60195887  1
  O  O6  1  0.80733448  0.80733448  0.38533103  1
  O  O7  1  0.59351213  0.09351213  0.81297575  1
  O  O8  1  0.09351213  0.59351213  0.81297575  1
  O  O9  1  0.40019509  0.90019509  0.19960982  1
  O  O10  1  0.90019509  0.40019509  0.19960982  1
  O  O11  1  0.99297557  0.99297557  0.01404887  1
