# generated using pymatgen
data_Tb9Ni24Sn49
_symmetry_space_group_name_H-M   'P 1'
_cell_length_a   10.33349509
_cell_length_b   10.33349509
_cell_length_c   17.03763819
_cell_angle_alpha   90.12717127
_cell_angle_beta   89.87282873
_cell_angle_gamma   109.48765561
_symmetry_Int_Tables_number   1
_chemical_formula_structural   Tb9Ni24Sn49
_chemical_formula_sum   'Tb9 Ni24 Sn49'
_cell_volume   1715.07034128
_cell_formula_units_Z   1
loop_
 _symmetry_equiv_pos_site_id
 _symmetry_equiv_pos_as_xyz
  1  'x, y, z'
loop_
 _atom_site_type_symbol
 _atom_site_label
 _atom_site_symmetry_multiplicity
 _atom_site_fract_x
 _atom_site_fract_y
 _atom_site_fract_z
 _atom_site_occupancy
  Tb  Tb0  1  0.75030599  0.75059008  0.25002846  1
  Tb  Tb1  1  0.24969401  0.24940992  0.74997154  1
  Tb  Tb2  1  0.50000000  0.00000000  0.00000000  1
  Tb  Tb3  1  -0.00000000  0.50000000  0.50000000  1
  Tb  Tb4  1  -0.00000000  0.50000000  0.00000000  1
  Tb  Tb5  1  0.50000000  0.00000000  0.50000000  1
  Tb  Tb6  1  0.24940992  0.24969401  0.25002846  1
  Tb  Tb7  1  0.75059008  0.75030599  0.74997154  1
  Tb  Tb8  1  -0.00000000  0.00000000  0.00000000  1
  Ni  Ni9  1  0.90311096  0.74123853  0.41978759  1
  Ni  Ni10  1  0.40120764  0.24137881  0.92031389  1
  Ni  Ni11  1  0.59879236  0.75862119  0.07968611  1
  Ni  Ni12  1  0.09688904  0.25876147  0.58021241  1
  Ni  Ni13  1  0.25876147  0.09688904  0.41978759  1
  Ni  Ni14  1  0.75862119  0.59879236  0.92031389  1
  Ni  Ni15  1  0.24137881  0.40120764  0.07968611  1
  Ni  Ni16  1  0.74123853  0.90311096  0.58021241  1
  Ni  Ni17  1  -0.00002094  0.67895077  0.16033032  1
  Ni  Ni18  1  0.49836650  0.17838547  0.66069151  1
  Ni  Ni19  1  0.50163350  0.82161453  0.33930849  1
  Ni  Ni20  1  0.00002094  0.32104923  0.83966968  1
  Ni  Ni21  1  0.17838547  0.49836650  0.33930849  1
  Ni  Ni22  1  0.67895077  -0.00002094  0.83966968  1
  Ni  Ni23  1  0.32104923  0.00002094  0.16033032  1
  Ni  Ni24  1  0.82161453  0.50163350  0.66069151  1
  Ni  Ni25  1  0.75989219  0.24010781  0.07952726  1
  Ni  Ni26  1  0.25922202  0.74077798  0.57928598  1
  Ni  Ni27  1  0.74077798  0.25922202  0.42071402  1
  Ni  Ni28  1  0.24010781  0.75989219  0.92047274  1
  Ni  Ni29  1  0.58029179  0.41970821  0.25899089  1
  Ni  Ni30  1  0.08050747  0.91949253  0.76015186  1
  Ni  Ni31  1  0.91949253  0.08050747  0.23984814  1
  Ni  Ni32  1  0.41970821  0.58029179  0.74100911  1
  Sn  Sn33  1  0.74915906  0.50490022  0.37729156  1
  Sn  Sn34  1  0.25866380  0.00325848  0.87187904  1
  Sn  Sn35  1  0.74133620  0.99674152  0.12812096  1
  Sn  Sn36  1  0.25084094  0.49509978  0.62270844  1
  Sn  Sn37  1  0.49509978  0.25084094  0.37729156  1
  Sn  Sn38  1  0.99674152  0.74133620  0.87187904  1
  Sn  Sn39  1  0.00325848  0.25866380  0.12812096  1
  Sn  Sn40  1  0.50490022  0.74915906  0.62270844  1
  Sn  Sn41  1  0.81245058  0.68145861  0.06492128  1
  Sn  Sn42  1  0.31786316  0.19109853  0.56347060  1
  Sn  Sn43  1  0.68213684  0.80890147  0.43652940  1
  Sn  Sn44  1  0.18754942  0.31854139  0.93507872  1
  Sn  Sn45  1  0.19109853  0.31786316  0.43652940  1
  Sn  Sn46  1  0.68145861  0.81245058  0.93507872  1
  Sn  Sn47  1  0.31854139  0.18754942  0.06492128  1
  Sn  Sn48  1  0.80890147  0.68213684  0.56347060  1
  Sn  Sn49  1  0.31553117  0.68446883  0.44161324  1
  Sn  Sn50  1  0.80752826  0.19247174  0.93860808  1
  Sn  Sn51  1  0.19247174  0.80752826  0.06139192  1
  Sn  Sn52  1  0.68446883  0.31553117  0.55838676  1
  Sn  Sn53  1  0.44055577  0.55944423  0.31335982  1
  Sn  Sn54  1  0.93821046  0.06178954  0.80740561  1
  Sn  Sn55  1  0.06178954  0.93821046  0.19259439  1
  Sn  Sn56  1  0.55944423  0.44055577  0.68664018  1
  Sn  Sn57  1  0.44387763  0.81166750  0.18529688  1
  Sn  Sn58  1  0.94239482  0.31263879  0.68411537  1
  Sn  Sn59  1  0.05760518  0.68736121  0.31588463  1
  Sn  Sn60  1  0.55612237  0.18833250  0.81470312  1
  Sn  Sn61  1  0.18833250  0.55612237  0.18529688  1
  Sn  Sn62  1  0.68736121  0.05760518  0.68411537  1
  Sn  Sn63  1  0.31263879  0.94239482  0.31588463  1
  Sn  Sn64  1  0.81166750  0.44387763  0.81470312  1
  Sn  Sn65  1  0.68338563  0.05606252  0.31458835  1
  Sn  Sn66  1  0.18244349  0.55562919  0.81208197  1
  Sn  Sn67  1  0.81755651  0.44437081  0.18791803  1
  Sn  Sn68  1  0.31661437  0.94393748  0.68541165  1
  Sn  Sn69  1  0.55562919  0.18244349  0.18791803  1
  Sn  Sn70  1  0.05606252  0.68338563  0.68541165  1
  Sn  Sn71  1  0.94393748  0.31661437  0.31458835  1
  Sn  Sn72  1  0.44437081  0.81755651  0.81208197  1
  Sn  Sn73  1  0.87056887  0.12943113  0.49818108  1
  Sn  Sn74  1  0.37177623  0.62822377  0.99765831  1
  Sn  Sn75  1  0.62822377  0.37177623  0.00234169  1
  Sn  Sn76  1  0.12943113  0.87056887  0.50181892  1
  Sn  Sn77  1  0.99837208  0.00162792  0.37020699  1
  Sn  Sn78  1  0.49911915  0.50088085  0.86922807  1
  Sn  Sn79  1  0.50088085  0.49911915  0.13077193  1
  Sn  Sn80  1  0.00162792  0.99837208  0.62979301  1
  Sn  Sn81  1  0.50000000  0.50000000  0.50000000  1
