# generated using pymatgen
data_SrPrNiRuO6
_symmetry_space_group_name_H-M   'P 1'
_cell_length_a   5.65553990
_cell_length_b   5.57753928
_cell_length_c   7.89906881
_cell_angle_alpha   90.07396223
_cell_angle_beta   90.00000000
_cell_angle_gamma   90.00000000
_symmetry_Int_Tables_number   1
_chemical_formula_structural   SrPrNiRuO6
_chemical_formula_sum   'Sr2 Pr2 Ni2 Ru2 O12'
_cell_volume   249.16798701
_cell_formula_units_Z   2
loop_
 _symmetry_equiv_pos_site_id
 _symmetry_equiv_pos_as_xyz
  1  'x, y, z'
loop_
 _atom_site_type_symbol
 _atom_site_label
 _atom_site_symmetry_multiplicity
 _atom_site_fract_x
 _atom_site_fract_y
 _atom_site_fract_z
 _atom_site_occupancy
  Sr  Sr0  1  0.03415787  0.49463825  0.24950867  1
  Sr  Sr1  1  0.46584213  0.99463825  0.74950867  1
  Pr  Pr2  1  0.94767751  0.51296265  0.75164982  1
  Pr  Pr3  1  0.55232249  0.01296265  0.25164982  1
  Ni  Ni4  1  0.49390195  0.50148147  0.00079992  1
  Ni  Ni5  1  0.00609805  0.00148147  0.50079992  1
  Ru  Ru6  1  0.49668298  0.50013125  0.49971585  1
  Ru  Ru7  1  0.00331702  0.00013125  0.99971585  1
  O  O8  1  0.48771885  0.58885619  0.25604079  1
  O  O9  1  0.01228115  0.08885619  0.75604079  1
  O  O10  1  0.52133264  0.43375177  0.74442272  1
  O  O11  1  0.97866736  0.93375177  0.24442272  1
  O  O12  1  0.21154261  0.69600570  0.54433090  1
  O  O13  1  0.28845739  0.19600570  0.04433090  1
  O  O14  1  0.77403777  0.28618838  0.46048056  1
  O  O15  1  0.72596223  0.78618838  0.96048056  1
  O  O16  1  0.30018664  0.21241981  0.45533944  1
  O  O17  1  0.19981336  0.71241981  0.95533944  1
  O  O18  1  0.71470801  0.77356453  0.53771131  1
  O  O19  1  0.78529199  0.27356453  0.03771131  1
