# generated using pymatgen
data_TaAlNi
_symmetry_space_group_name_H-M   'P 1'
_cell_length_a   4.91900148
_cell_length_b   5.01238225
_cell_length_c   7.98924334
_cell_angle_alpha   90.00000000
_cell_angle_beta   90.00000000
_cell_angle_gamma   120.62897571
_symmetry_Int_Tables_number   1
_chemical_formula_structural   TaAlNi
_chemical_formula_sum   'Ta4 Al4 Ni4'
_cell_volume   169.50004953
_cell_formula_units_Z   4
loop_
 _symmetry_equiv_pos_site_id
 _symmetry_equiv_pos_as_xyz
  1  'x, y, z'
loop_
 _atom_site_type_symbol
 _atom_site_label
 _atom_site_symmetry_multiplicity
 _atom_site_fract_x
 _atom_site_fract_y
 _atom_site_fract_z
 _atom_site_occupancy
  Ta  Ta0  1  0.66641168  0.33318769  0.55072689  1
  Ta  Ta1  1  0.32650491  0.66327490  0.42984860  1
  Ta  Ta2  1  0.32650491  0.66327490  0.07015140  1
  Ta  Ta3  1  0.66641168  0.33318769  0.94927311  1
  Al  Al4  1  0.98576532  0.99292942  0.48812262  1
  Al  Al5  1  0.98576532  0.99292942  0.01187738  1
  Al  Al6  1  0.18474124  0.35008999  0.75000000  1
  Al  Al7  1  0.18477911  0.83467700  0.75000000  1
  Ni  Ni8  1  0.67568873  0.83786175  0.75000000  1
  Ni  Ni9  1  0.82777594  0.65442103  0.25000000  1
  Ni  Ni10  1  0.82777263  0.17325776  0.25000000  1
  Ni  Ni11  1  0.34187851  0.17090845  0.25000000  1
