# generated using pymatgen
data_SrNdMnO4
_symmetry_space_group_name_H-M   'P 1'
_cell_length_a   3.85694915
_cell_length_b   3.85694915
_cell_length_c   6.95734119
_cell_angle_alpha   73.90770187
_cell_angle_beta   73.90770187
_cell_angle_gamma   90.00000000
_symmetry_Int_Tables_number   1
_chemical_formula_structural   SrNdMnO4
_chemical_formula_sum   'Sr1 Nd1 Mn1 O4'
_cell_volume   95.21440054
_cell_formula_units_Z   1
loop_
 _symmetry_equiv_pos_site_id
 _symmetry_equiv_pos_as_xyz
  1  'x, y, z'
loop_
 _atom_site_type_symbol
 _atom_site_label
 _atom_site_symmetry_multiplicity
 _atom_site_fract_x
 _atom_site_fract_y
 _atom_site_fract_z
 _atom_site_occupancy
  Sr  Sr0  1  0.35469856  0.35469856  0.29060287  1
  Nd  Nd1  1  0.64143354  0.64143354  0.71713292  1
  Mn  Mn2  1  0.99727903  0.99727903  0.00544194  1
  O  O3  1  0.16731942  0.16731942  0.66536117  1
  O  O4  1  0.82273958  0.82273958  0.35452083  1
  O  O5  1  0.50826493  0.00826493  0.98347013  1
  O  O6  1  0.00826493  0.50826493  0.98347013  1
