# generated using pymatgen
data_Sr2La3Fe4CuO15
_symmetry_space_group_name_H-M   'P 1'
_cell_length_a   5.54128817
_cell_length_b   5.54128816
_cell_length_c   11.74248251
_cell_angle_alpha   76.35234900
_cell_angle_beta   90.00000000
_cell_angle_gamma   120.00000004
_symmetry_Int_Tables_number   1
_chemical_formula_structural   Sr2La3Fe4CuO15
_chemical_formula_sum   'Sr2 La3 Fe4 Cu1 O15'
_cell_volume   300.44401041
_cell_formula_units_Z   1
loop_
 _symmetry_equiv_pos_site_id
 _symmetry_equiv_pos_as_xyz
  1  'x, y, z'
loop_
 _atom_site_type_symbol
 _atom_site_label
 _atom_site_symmetry_multiplicity
 _atom_site_fract_x
 _atom_site_fract_y
 _atom_site_fract_z
 _atom_site_occupancy
  Sr  Sr0  1  0.00082021  0.00164042  0.99753937  1
  Sr  Sr1  1  0.19917979  0.39835958  0.40246063  1
  La  La2  1  0.60000000  0.20000000  0.20000000  1
  La  La3  1  0.79835196  0.59670391  0.60494413  1
  La  La4  1  0.40164804  0.80329609  0.79505587  1
  Fe  Fe5  1  0.70036475  0.40072950  0.89890575  1
  Fe  Fe6  1  0.30010432  0.60020864  0.09968704  1
  Fe  Fe7  1  0.89989568  0.79979136  0.30031296  1
  Fe  Fe8  1  0.49963525  -0.00072950  0.50109425  1
  Cu  Cu9  1  0.10000000  0.20000000  0.70000000  1
  O  O10  1  0.89583843  0.30834789  0.79581368  1
  O  O11  1  0.70061677  0.90120054  0.39818270  1
  O  O12  1  0.30416157  0.09165211  0.60418632  1
  O  O13  1  0.49938323  0.49879946  0.00181730  1
  O  O14  1  0.10000000  0.70000000  0.20000000  1
  O  O15  1  0.78749054  0.09165211  0.60418632  1
  O  O16  1  0.60000000  0.70000000  0.20000000  1
  O  O17  1  0.20058377  0.90120054  0.39818270  1
  O  O18  1  0.41250946  0.30834789  0.79581368  1
  O  O19  1  -0.00058377  0.49879946  0.00181730  1
  O  O20  1  0.89583843  0.79167686  0.79581368  1
  O  O21  1  0.70061677  0.40123353  0.39818270  1
  O  O22  1  0.30416157  0.60832314  0.60418632  1
  O  O23  1  0.49938323  0.99876647  0.00181730  1
  O  O24  1  0.10000000  0.20000000  0.20000000  1
