# generated using pymatgen
data_Sr2AlGa3
_symmetry_space_group_name_H-M   'P 1'
_cell_length_a   4.40342224
_cell_length_b   4.40492620
_cell_length_c   9.51733105
_cell_angle_alpha   90.00000000
_cell_angle_beta   90.00000000
_cell_angle_gamma   59.98170322
_symmetry_Int_Tables_number   1
_chemical_formula_structural   Sr2AlGa3
_chemical_formula_sum   'Sr2 Al1 Ga3'
_cell_volume   159.84338770
_cell_formula_units_Z   1
loop_
 _symmetry_equiv_pos_site_id
 _symmetry_equiv_pos_as_xyz
  1  'x, y, z'
loop_
 _atom_site_type_symbol
 _atom_site_label
 _atom_site_symmetry_multiplicity
 _atom_site_fract_x
 _atom_site_fract_y
 _atom_site_fract_z
 _atom_site_occupancy
  Sr  Sr0  1  0.99996473  0.00002675  0.99984559  1
  Sr  Sr1  1  0.99996473  0.00002675  0.50015441  1
  Al  Al2  1  0.66687187  0.66643289  0.25000000  1
  Ga  Ga3  1  0.66688783  0.66651659  0.75000000  1
  Ga  Ga4  1  0.33306436  0.33353328  0.25000000  1
  Ga  Ga5  1  0.33304646  0.33346373  0.75000000  1
