# generated using pymatgen
data_Sr3UFe2O9
_symmetry_space_group_name_H-M   'P 1'
_cell_length_a   5.75181812
_cell_length_b   8.23712690
_cell_length_c   10.06963007
_cell_angle_alpha   65.85744290
_cell_angle_beta   73.40514410
_cell_angle_gamma   90.00000000
_symmetry_Int_Tables_number   1
_chemical_formula_structural   Sr3UFe2O9
_chemical_formula_sum   'Sr6 U2 Fe4 O18'
_cell_volume   413.48129255
_cell_formula_units_Z   2
loop_
 _symmetry_equiv_pos_site_id
 _symmetry_equiv_pos_as_xyz
  1  'x, y, z'
loop_
 _atom_site_type_symbol
 _atom_site_label
 _atom_site_symmetry_multiplicity
 _atom_site_fract_x
 _atom_site_fract_y
 _atom_site_fract_z
 _atom_site_occupancy
  Sr  Sr0  1  0.50000000  0.21838734  0.00000000  1
  Sr  Sr1  1  0.85079896  0.62069029  0.29840107  1
  Sr  Sr2  1  0.14920104  0.91909237  0.70159893  1
  Sr  Sr3  1  0.50000000  0.78161266  1.00000000  1
  Sr  Sr4  1  0.85079896  0.08090763  0.29840107  1
  Sr  Sr5  1  0.14920104  0.37930971  0.70159893  1
  U  U6  1  0.33144448  0.33144448  0.33711004  1
  U  U7  1  0.66855552  0.66855552  0.66288996  1
  Fe  Fe8  1  -0.00000000  0.50000000  0.00000000  1
  Fe  Fe9  1  0.33676653  0.83676653  0.32646595  1
  Fe  Fe10  1  0.66323347  0.16323347  0.67353405  1
  Fe  Fe11  1  -0.00000000  -0.00000000  0.00000000  1
  O  O12  1  0.00000000  0.25274761  1.00000000  1
  O  O13  1  0.33609554  0.58920425  0.32780792  1
  O  O14  1  0.66390446  0.91701317  0.67219208  1
  O  O15  1  0.15821815  0.41496155  0.17007690  1
  O  O16  1  0.50665174  0.75452881  0.49094139  1
  O  O17  1  0.83202327  0.08276159  0.83447782  1
  O  O18  1  0.32829506  0.58503845  0.82992310  1
  O  O19  1  0.66650010  0.91723841  0.16552218  1
  O  O20  1  0.99759412  0.24547119  0.50905861  1
  O  O21  1  1.00000000  0.74725239  0.00000000  1
  O  O22  1  0.33609554  0.08298683  0.32780792  1
  O  O23  1  0.66390446  0.41079575  0.67219208  1
  O  O24  1  0.84178185  0.58503845  0.82992310  1
  O  O25  1  0.16797673  0.91723841  0.16552218  1
  O  O26  1  0.49334826  0.24547119  0.50905861  1
  O  O27  1  0.67170494  0.41496155  0.17007690  1
  O  O28  1  0.00240588  0.75452881  0.49094139  1
  O  O29  1  0.33349990  0.08276159  0.83447782  1
