# generated using pymatgen
data_Sr5CaAl2(O4F)2
_symmetry_space_group_name_H-M   'P 1'
_cell_length_a   6.77312754
_cell_length_b   6.77312754
_cell_length_c   7.39014609
_cell_angle_alpha   62.36203976
_cell_angle_beta   62.36203976
_cell_angle_gamma   89.29617201
_symmetry_Int_Tables_number   1
_chemical_formula_structural   Sr5CaAl2(O4F)2
_chemical_formula_sum   'Sr5 Ca1 Al2 O8 F2'
_cell_volume   257.02482976
_cell_formula_units_Z   1
loop_
 _symmetry_equiv_pos_site_id
 _symmetry_equiv_pos_as_xyz
  1  'x, y, z'
loop_
 _atom_site_type_symbol
 _atom_site_label
 _atom_site_symmetry_multiplicity
 _atom_site_fract_x
 _atom_site_fract_y
 _atom_site_fract_z
 _atom_site_occupancy
  Sr  Sr0  1  0.25229035  0.24770965  0.50000000  1
  Sr  Sr1  1  0.75229035  0.74770965  0.50000000  1
  Sr  Sr2  1  0.16486796  0.33513204  -0.00000000  1
  Sr  Sr3  1  0.66837461  0.16856836  -0.00000000  1
  Sr  Sr4  1  0.33143164  0.83162539  -0.00000000  1
  Ca  Ca5  1  0.82545612  0.67454388  -0.00000000  1
  Al  Al6  1  0.75087334  0.24899432  0.50013234  1
  Al  Al7  1  0.25100568  0.74912666  0.49986766  1
  O  O8  1  0.21015916  0.99561491  0.29422593  1
  O  O9  1  0.50052234  0.70746285  0.29201481  1
  O  O10  1  0.99245751  0.49609683  0.29439308  1
  O  O11  1  0.70951008  0.21314941  0.29439308  1
  O  O12  1  0.79253715  0.99947766  0.70798519  1
  O  O13  1  0.50438509  0.28984084  0.70577407  1
  O  O14  1  0.00390317  0.50754249  0.70560692  1
  O  O15  1  0.28685059  0.79048992  0.70560692  1
  F  F16  1  0.50692513  0.50384027  -0.00000000  1
  F  F17  1  0.99615973  0.99307487  -0.00000000  1
