# generated using pymatgen
data_Sr5ZrTi4O15
_symmetry_space_group_name_H-M   'P 1'
_cell_length_a   4.01592736
_cell_length_b   14.38264863
_cell_length_c   5.63511997
_cell_angle_alpha   101.32221175
_cell_angle_beta   90.00000000
_cell_angle_gamma   90.00000000
_symmetry_Int_Tables_number   1
_chemical_formula_structural   Sr5ZrTi4O15
_chemical_formula_sum   'Sr5 Zr1 Ti4 O15'
_cell_volume   319.14834058
_cell_formula_units_Z   1
loop_
 _symmetry_equiv_pos_site_id
 _symmetry_equiv_pos_as_xyz
  1  'x, y, z'
loop_
 _atom_site_type_symbol
 _atom_site_label
 _atom_site_symmetry_multiplicity
 _atom_site_fract_x
 _atom_site_fract_y
 _atom_site_fract_z
 _atom_site_occupancy
  Sr  Sr0  1  0.50000000  0.78964196  0.89486958  1
  Sr  Sr1  1  0.50000000  0.40146464  0.70073729  1
  Sr  Sr2  1  0.50000000  0.59853536  0.29926271  1
  Sr  Sr3  1  0.50000000  -0.00000000  0.50000000  1
  Sr  Sr4  1  0.50000000  0.21035804  0.10513042  1
  Zr  Zr5  1  0.00000000  -0.00000000  0.00000000  1
  Ti  Ti6  1  0.00000000  0.20481469  0.60238914  1
  Ti  Ti7  1  -0.00000000  0.40215927  0.20108698  1
  Ti  Ti8  1  0.00000000  0.59784073  0.79891302  1
  Ti  Ti9  1  -0.00000000  0.79518531  0.39761086  1
  O  O10  1  0.00000000  0.69652547  0.09535430  1
  O  O11  1  0.00000000  0.30347453  0.90464570  1
  O  O12  1  0.00000000  0.50000000  0.50000000  1
  O  O13  1  -0.00000000  0.89412659  0.68644104  1
  O  O14  1  0.00000000  0.10587341  0.31355896  1
  O  O15  1  0.50000000  0.59861144  0.79925011  1
  O  O16  1  0.50000000  0.20752910  0.60382914  1
  O  O17  1  0.50000000  0.40138856  0.20074989  1
  O  O18  1  0.50000000  0.79247090  0.39617086  1
  O  O19  1  0.50000000  -0.00000000  0.00000000  1
  O  O20  1  -0.00000000  0.69654176  0.60118496  1
  O  O21  1  0.00000000  0.30345824  0.39881504  1
  O  O22  1  0.00000000  0.50000000  0.00000000  1
  O  O23  1  0.00000000  0.89412253  0.20758153  1
  O  O24  1  0.00000000  0.10587747  0.79241847  1
