# generated using pymatgen
data_Sr4Fe2CoNiO12
_symmetry_space_group_name_H-M   'P 1'
_cell_length_a   5.51783529
_cell_length_b   5.51783529
_cell_length_c   9.58206993
_cell_angle_alpha   106.73377051
_cell_angle_beta   90.00000000
_cell_angle_gamma   120.00000000
_symmetry_Int_Tables_number   1
_chemical_formula_structural   Sr4Fe2CoNiO12
_chemical_formula_sum   'Sr4 Fe2 Co1 Ni1 O12'
_cell_volume   238.28242184
_cell_formula_units_Z   1
loop_
 _symmetry_equiv_pos_site_id
 _symmetry_equiv_pos_as_xyz
  1  'x, y, z'
loop_
 _atom_site_type_symbol
 _atom_site_label
 _atom_site_symmetry_multiplicity
 _atom_site_fract_x
 _atom_site_fract_y
 _atom_site_fract_z
 _atom_site_occupancy
  Sr  Sr0  1  0.25098041  0.50196081  0.75294122  1
  Sr  Sr1  1  0.49960151  0.99920302  0.49880453  1
  Sr  Sr2  1  0.00036555  0.00073110  0.00109665  1
  Sr  Sr3  1  0.74913789  0.49827578  0.24741367  1
  Fe  Fe4  1  0.12418534  0.24837067  0.37255601  1
  Fe  Fe5  1  0.87500409  0.75000818  0.62501227  1
  Co  Co6  1  0.62608554  0.25217107  0.87825661  1
  Ni  Ni7  1  0.37523819  0.75047638  0.12571457  1
  O  O8  1  0.49826792  0.49938722  0.50050653  1
  O  O9  1  0.75558406  0.00372718  0.25187031  1
  O  O10  1  0.25770692  0.00515717  0.75260741  1
  O  O11  1  0.98758719  0.49100222  0.99441724  1
  O  O12  1  0.74745025  0.49490049  0.75260741  1
  O  O13  1  0.00111930  0.00223861  0.50050653  1
  O  O14  1  0.50341502  0.00683005  0.99441724  1
  O  O15  1  0.24814313  0.49628625  0.25187031  1
  O  O16  1  0.74745025  0.00515717  0.75260741  1
  O  O17  1  0.00111930  0.49938722  0.50050653  1
  O  O18  1  0.50341502  0.49100222  0.99441724  1
  O  O19  1  0.24814313  0.00372718  0.25187031  1
