# generated using pymatgen
data_La5Sm3Ni7AgO24
_symmetry_space_group_name_H-M   'P 1'
_cell_length_a   7.73237755
_cell_length_b   7.73425215
_cell_length_c   7.73425215
_cell_angle_alpha   89.98684014
_cell_angle_beta   89.99234595
_cell_angle_gamma   90.00765405
_symmetry_Int_Tables_number   1
_chemical_formula_structural   La5Sm3Ni7AgO24
_chemical_formula_sum   'La5 Sm3 Ni7 Ag1 O24'
_cell_volume   462.54041480
_cell_formula_units_Z   1
loop_
 _symmetry_equiv_pos_site_id
 _symmetry_equiv_pos_as_xyz
  1  'x, y, z'
loop_
 _atom_site_type_symbol
 _atom_site_label
 _atom_site_symmetry_multiplicity
 _atom_site_fract_x
 _atom_site_fract_y
 _atom_site_fract_z
 _atom_site_occupancy
  La  La0  1  0.25355635  0.25341605  0.25340668  1
  La  La1  1  0.25358352  0.25342331  0.74657669  1
  La  La2  1  0.25361209  0.74638285  0.25361715  1
  La  La3  1  0.25355635  0.74659332  0.74658395  1
  La  La4  1  0.74681870  0.74663794  0.25336206  1
  Sm  Sm5  1  0.74539440  0.25460744  0.25504229  1
  Sm  Sm6  1  0.74571564  0.25467642  0.74532358  1
  Sm  Sm7  1  0.74539440  0.74495771  0.74539256  1
  Ni  Ni8  1  0.99890602  0.00032613  0.50065174  1
  Ni  Ni9  1  0.99890602  0.49934826  0.99967387  1
  Ni  Ni10  1  0.99874569  0.49946916  0.50053084  1
  Ni  Ni11  1  0.50186325  0.00039077  0.99960923  1
  Ni  Ni12  1  0.50158308  0.00044431  0.50053077  1
  Ni  Ni13  1  0.50158308  0.49946923  0.99955569  1
  Ni  Ni14  1  0.50137806  0.49954796  0.50045204  1
  Ag  Ag15  1  0.99977312  0.00007751  0.99992249  1
  O  O16  1  0.25840302  0.00024857  0.99975143  1
  O  O17  1  0.25071419  0.00025727  0.50033498  1
  O  O18  1  0.25071419  0.49966502  0.99974273  1
  O  O19  1  0.25041108  0.49971099  0.50028901  1
  O  O20  1  0.74251491  0.00307003  0.99692997  1
  O  O21  1  0.74950986  0.00255126  0.50225322  1
  O  O22  1  0.74950986  0.49774678  0.99744874  1
  O  O23  1  0.74978855  0.49712818  0.50287182  1
  O  O24  1  0.99333638  0.25790946  0.99966834  1
  O  O25  1  0.99437822  0.25063771  0.50047566  1
  O  O26  1  0.99616758  0.74181032  0.99666393  1
  O  O27  1  0.99665870  0.74925532  0.50249998  1
  O  O28  1  0.50515041  0.25053954  0.99959279  1
  O  O29  1  0.50633297  0.25033065  0.50039368  1
  O  O30  1  0.50325499  0.74943975  0.99725181  1
  O  O31  1  0.50375303  0.74958386  0.50310688  1
  O  O32  1  0.99616758  0.00333607  0.25818968  1
  O  O33  1  0.99333638  0.00033166  0.74209054  1
  O  O34  1  0.99665870  0.49750002  0.25074468  1
  O  O35  1  0.99437822  0.49952434  0.74936229  1
  O  O36  1  0.50325499  0.00274819  0.25056025  1
  O  O37  1  0.50515041  0.00040721  0.74946046  1
  O  O38  1  0.50375303  0.49689312  0.25041614  1
  O  O39  1  0.50633297  0.49960632  0.74966935  1
