# generated using pymatgen
data_Sr4In17Au15
_symmetry_space_group_name_H-M   'P 1'
_cell_length_a   4.40058486
_cell_length_b   12.85077161
_cell_length_c   15.35853783
_cell_angle_alpha   92.01458059
_cell_angle_beta   90.00000000
_cell_angle_gamma   90.00000000
_symmetry_Int_Tables_number   1
_chemical_formula_structural   Sr4In17Au15
_chemical_formula_sum   'Sr4 In17 Au15'
_cell_volume   868.00247376
_cell_formula_units_Z   1
loop_
 _symmetry_equiv_pos_site_id
 _symmetry_equiv_pos_as_xyz
  1  'x, y, z'
loop_
 _atom_site_type_symbol
 _atom_site_label
 _atom_site_symmetry_multiplicity
 _atom_site_fract_x
 _atom_site_fract_y
 _atom_site_fract_z
 _atom_site_occupancy
  Sr  Sr0  1  0.25000000  0.60877351  0.79507185  1
  Sr  Sr1  1  0.25000000  0.89329846  0.29254255  1
  Sr  Sr2  1  0.75000000  0.39285714  0.20592951  1
  Sr  Sr3  1  0.75000000  0.10301405  0.70783264  1
  In  In4  1  0.25000000  0.72075732  0.52517598  1
  In  In5  1  0.25000000  0.77717431  0.02815572  1
  In  In6  1  0.75000000  0.28040067  0.47086801  1
  In  In7  1  0.75000000  0.22279698  0.97522317  1
  In  In8  1  0.25000000  0.09100315  0.50289507  1
  In  In9  1  0.25000000  0.41150434  0.00331826  1
  In  In10  1  0.75000000  0.91691175  0.50005089  1
  In  In11  1  0.75000000  0.58708794  0.99596066  1
  In  In12  1  0.25000000  0.29795015  0.80368987  1
  In  In13  1  0.25000000  0.18885425  0.29030220  1
  In  In14  1  0.75000000  0.69306627  0.20864468  1
  In  In15  1  0.75000000  0.81182501  0.70888114  1
  In  In16  1  0.75000000  0.39638266  0.68786417  1
  In  In17  1  0.25000000  0.48526634  0.56319202  1
  In  In18  1  0.25000000  0.01964585  0.07766223  1
  In  In19  1  0.75000000  0.52296637  0.41558402  1
  In  In20  1  0.75000000  0.97774448  0.92222590  1
  Au  Au21  1  0.25000000  0.92194116  0.62196701  1
  Au  Au22  1  0.25000000  0.58236485  0.12119135  1
  Au  Au23  1  0.75000000  0.07876177  0.37835775  1
  Au  Au24  1  0.75000000  0.41725078  0.87422111  1
  Au  Au25  1  0.25000000  0.27153739  0.60996512  1
  Au  Au26  1  0.25000000  0.23616935  0.10263192  1
  Au  Au27  1  0.75000000  0.73918927  0.39553186  1
  Au  Au28  1  0.75000000  0.76324021  0.89873179  1
  Au  Au29  1  0.25000000  0.10936539  0.88573128  1
  Au  Au30  1  0.25000000  0.38463814  0.37620922  1
  Au  Au31  1  0.75000000  0.88307975  0.12058322  1
  Au  Au32  1  0.75000000  0.61289163  0.62521398  1
  Au  Au33  1  0.25000000  0.89328623  0.80947361  1
  Au  Au34  1  0.25000000  0.60503092  0.30787600  1
  Au  Au35  1  0.75000000  0.10197214  0.19124425  1
