# generated using pymatgen
data_SrCaMnRuO6
_symmetry_space_group_name_H-M   'P 1'
_cell_length_a   5.64323937
_cell_length_b   7.64812700
_cell_length_c   5.69236765
_cell_angle_alpha   90.00000000
_cell_angle_beta   90.00000000
_cell_angle_gamma   89.38691773
_symmetry_Int_Tables_number   1
_chemical_formula_structural   SrCaMnRuO6
_chemical_formula_sum   'Sr2 Ca2 Mn2 Ru2 O12'
_cell_volume   245.66972616
_cell_formula_units_Z   2
loop_
 _symmetry_equiv_pos_site_id
 _symmetry_equiv_pos_as_xyz
  1  'x, y, z'
loop_
 _atom_site_type_symbol
 _atom_site_label
 _atom_site_symmetry_multiplicity
 _atom_site_fract_x
 _atom_site_fract_y
 _atom_site_fract_z
 _atom_site_occupancy
  Sr  Sr0  1  0.99590718  0.24986443  0.03341393  1
  Sr  Sr1  1  0.50409282  0.25013557  0.53341393  1
  Ca  Ca2  1  0.00503682  0.75063695  0.95515644  1
  Ca  Ca3  1  0.49496318  0.74936305  0.45515644  1
  Mn  Mn4  1  0.50159153  0.99643020  0.99842631  1
  Mn  Mn5  1  0.99840847  0.50356980  0.49842631  1
  Ru  Ru6  1  0.50116140  0.50556977  0.99904240  1
  Ru  Ru7  1  0.99883860  0.99443023  0.49904240  1
  O  O8  1  0.91207093  0.74467162  0.52892169  1
  O  O9  1  0.58792907  0.75532838  0.02892169  1
  O  O10  1  0.06809036  0.25273517  0.48810934  1
  O  O11  1  0.43190964  0.24726483  0.98810934  1
  O  O12  1  0.20260395  0.95343518  0.21955244  1
  O  O13  1  0.29739605  0.54656482  0.71955244  1
  O  O14  1  0.77722519  0.47070609  0.79497844  1
  O  O15  1  0.72277481  0.02929391  0.29497844  1
  O  O16  1  0.79776740  0.03027501  0.78056091  1
  O  O17  1  0.70223260  0.46972499  0.28056091  1
  O  O18  1  0.21900084  0.54597421  0.20183809  1
  O  O19  1  0.28099916  0.95402579  0.70183809  1
