# generated using pymatgen
data_Sr12Tm3Ni5O24
_symmetry_space_group_name_H-M   'P 1'
_cell_length_a   6.76365723
_cell_length_b   6.76365723
_cell_length_c   13.51792611
_cell_angle_alpha   92.64346130
_cell_angle_beta   92.64346130
_cell_angle_gamma   92.66065608
_symmetry_Int_Tables_number   1
_chemical_formula_structural   Sr12Tm3Ni5O24
_chemical_formula_sum   'Sr12 Tm3 Ni5 O24'
_cell_volume   616.35920281
_cell_formula_units_Z   1
loop_
 _symmetry_equiv_pos_site_id
 _symmetry_equiv_pos_as_xyz
  1  'x, y, z'
loop_
 _atom_site_type_symbol
 _atom_site_label
 _atom_site_symmetry_multiplicity
 _atom_site_fract_x
 _atom_site_fract_y
 _atom_site_fract_z
 _atom_site_occupancy
  Sr  Sr0  1  0.61474601  0.88525399  0.12500000  1
  Sr  Sr1  1  0.61795577  0.88204423  0.62500000  1
  Sr  Sr2  1  0.88758479  0.24826597  0.30367242  1
  Sr  Sr3  1  0.87989666  0.25071111  0.81208231  1
  Sr  Sr4  1  0.24928889  0.62010334  0.43791769  1
  Sr  Sr5  1  0.25173403  0.61241521  0.94632758  1
  Sr  Sr6  1  0.12255006  0.74804109  0.18782882  1
  Sr  Sr7  1  0.11958244  0.75340700  0.69184921  1
  Sr  Sr8  1  0.75195891  0.37744994  0.06217118  1
  Sr  Sr9  1  0.74659300  0.38041756  0.55815079  1
  Sr  Sr10  1  0.37792826  0.11946680  0.36684395  1
  Sr  Sr11  1  0.38053320  0.12207174  0.88315605  1
  Tm  Tm12  1  0.24756696  0.25243304  0.62500000  1
  Tm  Tm13  1  0.74918428  0.74976140  0.37218508  1
  Tm  Tm14  1  0.75023860  0.75081572  0.87781492  1
  Ni  Ni15  1  0.49729362  0.49453808  0.24720431  1
  Ni  Ni16  1  0.49924038  0.50151455  0.75170114  1
  Ni  Ni17  1  0.00546192  0.00270638  0.00279569  1
  Ni  Ni18  1  0.99848545  0.00075962  0.49829886  1
  Ni  Ni19  1  0.25263570  0.24736430  0.12500000  1
  O  O20  1  0.53758724  0.21123431  0.20583617  1
  O  O21  1  0.54019748  0.21580068  0.70597868  1
  O  O22  1  0.21751293  0.41215777  0.26496042  1
  O  O23  1  0.21309414  0.41383421  0.77296966  1
  O  O24  1  0.41829706  0.53325082  0.11203447  1
  O  O25  1  0.40670130  0.54249953  0.60296641  1
  O  O26  1  0.03871019  0.90763188  0.35139018  1
  O  O27  1  0.04297544  0.91607278  0.86286082  1
  O  O28  1  0.91576674  0.71520877  0.02138410  1
  O  O29  1  0.90772031  0.71232337  0.51970003  1
  O  O30  1  0.71255942  0.04272481  0.45420142  1
  O  O31  1  0.71090243  0.03974470  0.95730100  1
  O  O32  1  0.46025530  0.78909757  0.29269900  1
  O  O33  1  0.45727519  0.78744058  0.79579858  1
  O  O34  1  0.78479123  0.58423326  0.22861590  1
  O  O35  1  0.78767663  0.59227969  0.73029997  1
  O  O36  1  0.58392722  0.45702456  0.38713918  1
  O  O37  1  0.59236812  0.46128981  0.89860982  1
  O  O38  1  0.96674918  0.08170294  0.13796553  1
  O  O39  1  0.95750047  0.09329870  0.64703359  1
  O  O40  1  0.08616579  0.28690586  0.47703034  1
  O  O41  1  0.08784223  0.28248707  0.98503958  1
  O  O42  1  0.28876569  0.96241276  0.04416383  1
  O  O43  1  0.28419932  0.95980252  0.54402132  1
