# generated using pymatgen
data_Sm2Ga3Ni
_symmetry_space_group_name_H-M   'P 1'
_cell_length_a   4.38887981
_cell_length_b   5.71136966
_cell_length_c   5.61008867
_cell_angle_alpha   97.06724828
_cell_angle_beta   113.02667634
_cell_angle_gamma   67.40447921
_symmetry_Int_Tables_number   1
_chemical_formula_structural   Sm2Ga3Ni
_chemical_formula_sum   'Sm2 Ga3 Ni1'
_cell_volume   119.42493553
_cell_formula_units_Z   1
loop_
 _symmetry_equiv_pos_site_id
 _symmetry_equiv_pos_as_xyz
  1  'x, y, z'
loop_
 _atom_site_type_symbol
 _atom_site_label
 _atom_site_symmetry_multiplicity
 _atom_site_fract_x
 _atom_site_fract_y
 _atom_site_fract_z
 _atom_site_occupancy
  Sm  Sm0  1  0.75147294  0.70882666  0.21177254  1
  Sm  Sm1  1  0.24811760  0.29538026  0.79161546  1
  Ga  Ga2  1  0.45884370  0.69143142  0.60911881  1
  Ga  Ga3  1  0.05359615  0.12227150  0.22946380  1
  Ga  Ga4  1  0.93706001  0.90022469  0.77434471  1
  Ni  Ni5  1  0.55090960  0.28186547  0.38368468  1
