# generated using pymatgen
data_Ni4(GeAs3)3
_symmetry_space_group_name_H-M   'P 1'
_cell_length_a   7.23282494
_cell_length_b   7.23091972
_cell_length_c   7.23282494
_cell_angle_alpha   70.44044284
_cell_angle_beta   71.21249063
_cell_angle_gamma   110.08005596
_symmetry_Int_Tables_number   1
_chemical_formula_structural   Ni4(GeAs3)3
_chemical_formula_sum   'Ni4 Ge3 As9'
_cell_volume   291.12095559
_cell_formula_units_Z   1
loop_
 _symmetry_equiv_pos_site_id
 _symmetry_equiv_pos_as_xyz
  1  'x, y, z'
loop_
 _atom_site_type_symbol
 _atom_site_label
 _atom_site_symmetry_multiplicity
 _atom_site_fract_x
 _atom_site_fract_y
 _atom_site_fract_z
 _atom_site_occupancy
  Ni  Ni0  1  0.00073171  0.50169850  0.99912850  1
  Ni  Ni1  1  0.50082700  0.50169850  0.49903321  1
  Ni  Ni2  1  0.49720492  0.99788815  0.00287387  1
  Ni  Ni3  1  0.00076202  0.99788815  0.49931677  1
  Ge  Ge4  1  0.84923435  0.50451038  0.34472397  1
  Ge  Ge5  1  0.15072373  0.49503975  0.65568398  1
  Ge  Ge6  1  0.84823856  0.19272186  0.65551670  1
  As  As7  1  0.14971166  0.80440628  0.34530538  1
  As  As8  1  0.65729557  0.15322298  0.19176620  1
  As  As9  1  0.34499717  0.84857949  0.80565940  1
  As  As10  1  0.34498918  0.15322298  0.50407258  1
  As  As11  1  0.65423889  0.84857949  0.49641768  1
  As  As12  1  0.49672947  0.34404989  0.84602080  1
  As  As13  1  0.50528770  0.65622184  0.15273553  1
  As  As14  1  0.80895737  0.65622184  0.84906586  1
  As  As15  1  0.19007069  0.34404989  0.15267958  1
