# generated using pymatgen
data_La7Sm(FeO3)8
_symmetry_space_group_name_H-M   'P 1'
_cell_length_a   7.90246438
_cell_length_b   7.90246438
_cell_length_c   7.90246438
_cell_angle_alpha   90.00000000
_cell_angle_beta   90.00000000
_cell_angle_gamma   90.00000000
_symmetry_Int_Tables_number   1
_chemical_formula_structural   La7Sm(FeO3)8
_chemical_formula_sum   'La7 Sm1 Fe8 O24'
_cell_volume   493.50054982
_cell_formula_units_Z   1
loop_
 _symmetry_equiv_pos_site_id
 _symmetry_equiv_pos_as_xyz
  1  'x, y, z'
loop_
 _atom_site_type_symbol
 _atom_site_label
 _atom_site_symmetry_multiplicity
 _atom_site_fract_x
 _atom_site_fract_y
 _atom_site_fract_z
 _atom_site_occupancy
  La  La0  1  0.25000000  0.25000000  0.25000000  1
  La  La1  1  0.25000000  0.25000000  0.75000000  1
  La  La2  1  0.25000000  0.75000000  0.25000000  1
  La  La3  1  0.25000000  0.75000000  0.75000000  1
  La  La4  1  0.75000000  0.25000000  0.75000000  1
  La  La5  1  0.75000000  0.75000000  0.25000000  1
  La  La6  1  0.75000000  0.75000000  0.75000000  1
  Sm  Sm7  1  0.75000000  0.25000000  0.25000000  1
  Fe  Fe8  1  0.99969646  0.00030354  0.00030354  1
  Fe  Fe9  1  0.99969646  0.00030354  0.49969646  1
  Fe  Fe10  1  0.99969646  0.49969646  0.00030354  1
  Fe  Fe11  1  0.99969646  0.49969646  0.49969646  1
  Fe  Fe12  1  0.50030354  0.00030354  0.00030354  1
  Fe  Fe13  1  0.50030354  0.00030354  0.49969646  1
  Fe  Fe14  1  0.50030354  0.49969646  0.00030354  1
  Fe  Fe15  1  0.50030354  0.49969646  0.49969646  1
  O  O16  1  0.25000000  0.00002274  0.00002274  1
  O  O17  1  0.25000000  0.00002274  0.49997726  1
  O  O18  1  0.25000000  0.49997726  0.00002274  1
  O  O19  1  0.25000000  0.49997726  0.49997726  1
  O  O20  1  0.75000000  0.00112281  0.00112281  1
  O  O21  1  0.75000000  0.00112281  0.49887719  1
  O  O22  1  0.75000000  0.49887719  0.00112281  1
  O  O23  1  0.75000000  0.49887719  0.49887719  1
  O  O24  1  0.99887719  0.25000000  0.00112281  1
  O  O25  1  0.99887719  0.25000000  0.49887719  1
  O  O26  1  -0.00002274  0.75000000  0.00002274  1
  O  O27  1  -0.00002274  0.75000000  0.49997726  1
  O  O28  1  0.50112281  0.25000000  0.00112281  1
  O  O29  1  0.50112281  0.25000000  0.49887719  1
  O  O30  1  0.50002274  0.75000000  0.00002274  1
  O  O31  1  0.50002274  0.75000000  0.49997726  1
  O  O32  1  0.99887719  0.00112281  0.25000000  1
  O  O33  1  -0.00002274  0.00002274  0.75000000  1
  O  O34  1  0.99887719  0.49887719  0.25000000  1
  O  O35  1  -0.00002274  0.49997726  0.75000000  1
  O  O36  1  0.50112281  0.00112281  0.25000000  1
  O  O37  1  0.50002274  0.00002274  0.75000000  1
  O  O38  1  0.50112281  0.49887719  0.25000000  1
  O  O39  1  0.50002274  0.49997726  0.75000000  1
