# generated using pymatgen
data_Sc2(WO4)3
_symmetry_space_group_name_H-M   'P 1'
_cell_length_a   5.80723797
_cell_length_b   6.97424600
_cell_length_c   11.04630833
_cell_angle_alpha   105.99840544
_cell_angle_beta   90.00000000
_cell_angle_gamma   90.00000000
_symmetry_Int_Tables_number   1
_chemical_formula_structural   Sc2(WO4)3
_chemical_formula_sum   'Sc4 W6 O24'
_cell_volume   430.06009756
_cell_formula_units_Z   2
loop_
 _symmetry_equiv_pos_site_id
 _symmetry_equiv_pos_as_xyz
  1  'x, y, z'
loop_
 _atom_site_type_symbol
 _atom_site_label
 _atom_site_symmetry_multiplicity
 _atom_site_fract_x
 _atom_site_fract_y
 _atom_site_fract_z
 _atom_site_occupancy
  Sc  Sc0  1  0.66152907  0.31999293  0.90678140  1
  Sc  Sc1  1  0.66152907  0.68000707  0.59321860  1
  Sc  Sc2  1  0.33847093  0.68000707  0.09321860  1
  Sc  Sc3  1  0.33847093  0.31999293  0.40678140  1
  W  W4  1  0.16834894  0.83820604  0.42401052  1
  W  W5  1  0.17773747  0.50000000  0.75000000  1
  W  W6  1  0.16834894  0.16179396  0.07598948  1
  W  W7  1  0.83165106  0.16179396  0.57598948  1
  W  W8  1  0.83165106  0.83820604  0.92401052  1
  W  W9  1  0.82226253  0.50000000  0.25000000  1
  O  O10  1  0.09860990  0.96838798  0.59249984  1
  O  O11  1  0.11667567  0.64364519  0.92843173  1
  O  O12  1  0.10811128  0.30787681  0.25721382  1
  O  O13  1  0.09860990  0.03161202  0.90750016  1
  O  O14  1  0.10811128  0.69212319  0.24278618  1
  O  O15  1  0.11667567  0.35635481  0.57156827  1
  O  O16  1  0.89188872  0.69212319  0.74278618  1
  O  O17  1  0.88332433  0.35635481  0.07156827  1
  O  O18  1  0.90139010  0.03161202  0.40750016  1
  O  O19  1  0.88332433  0.64364519  0.42843173  1
  O  O20  1  0.89188872  0.30787681  0.75721382  1
  O  O21  1  0.90139010  0.96838798  0.09249984  1
  O  O22  1  0.38159715  0.33150294  0.79100558  1
  O  O23  1  0.36560140  0.98097464  0.11084800  1
  O  O24  1  0.37034807  0.64462154  0.45511990  1
  O  O25  1  0.37034807  0.35537846  0.04488010  1
  O  O26  1  0.36560140  0.01902536  0.38915200  1
  O  O27  1  0.38159715  0.66849706  0.70899442  1
  O  O28  1  0.61840285  0.66849706  0.20899442  1
  O  O29  1  0.62965193  0.35537846  0.54488010  1
  O  O30  1  0.63439860  0.01902536  0.88915200  1
  O  O31  1  0.62965193  0.64462154  0.95511990  1
  O  O32  1  0.61840285  0.33150294  0.29100558  1
  O  O33  1  0.63439860  0.98097464  0.61084800  1
