# generated using pymatgen
data_RbEuGeS4
_symmetry_space_group_name_H-M   'P 1'
_cell_length_a   6.80092615
_cell_length_b   6.64454226
_cell_length_c   9.29523434
_cell_angle_alpha   90.00000000
_cell_angle_beta   108.52885185
_cell_angle_gamma   90.00000000
_symmetry_Int_Tables_number   1
_chemical_formula_structural   RbEuGeS4
_chemical_formula_sum   'Rb2 Eu2 Ge2 S8'
_cell_volume   398.26928896
_cell_formula_units_Z   2
loop_
 _symmetry_equiv_pos_site_id
 _symmetry_equiv_pos_as_xyz
  1  'x, y, z'
loop_
 _atom_site_type_symbol
 _atom_site_label
 _atom_site_symmetry_multiplicity
 _atom_site_fract_x
 _atom_site_fract_y
 _atom_site_fract_z
 _atom_site_occupancy
  Rb  Rb0  1  0.76788394  0.24957464  0.56385493  1
  Rb  Rb1  1  0.23211606  0.74957464  0.43614507  1
  Eu  Eu2  1  0.73402901  0.23345102  0.05247552  1
  Eu  Eu3  1  0.26597099  0.73345102  0.94752448  1
  Ge  Ge4  1  0.27983688  0.26384954  0.17298912  1
  Ge  Ge5  1  0.72016312  0.76384954  0.82701088  1
  S  S6  1  0.09096305  0.25415774  0.32583744  1
  S  S7  1  0.90903695  0.75415774  0.67416256  1
  S  S8  1  0.51869294  0.50810062  0.21743739  1
  S  S9  1  0.48130706  0.00810062  0.78256261  1
  S  S10  1  0.50866623  0.49836726  0.79703011  1
  S  S11  1  0.49133377  0.99836726  0.20296989  1
  S  S12  1  0.07524554  0.31559918  0.93615738  1
  S  S13  1  0.92475446  0.81559918  0.06384262  1
