# generated using pymatgen
data_Pr3Si3Ni
_symmetry_space_group_name_H-M   'P 1'
_cell_length_a   4.01108405
_cell_length_b   4.33791590
_cell_length_c   9.53096101
_cell_angle_alpha   76.84596800
_cell_angle_beta   77.85280773
_cell_angle_gamma   90.00000000
_symmetry_Int_Tables_number   1
_chemical_formula_structural   Pr3Si3Ni
_chemical_formula_sum   'Pr3 Si3 Ni1'
_cell_volume   157.66957773
_cell_formula_units_Z   1
loop_
 _symmetry_equiv_pos_site_id
 _symmetry_equiv_pos_as_xyz
  1  'x, y, z'
loop_
 _atom_site_type_symbol
 _atom_site_label
 _atom_site_symmetry_multiplicity
 _atom_site_fract_x
 _atom_site_fract_y
 _atom_site_fract_z
 _atom_site_occupancy
  Pr  Pr0  1  0.99953032  0.99953032  0.00093937  1
  Pr  Pr1  1  0.68492452  0.18492452  0.63015095  1
  Pr  Pr2  1  0.31835292  0.81835292  0.36329417  1
  Si  Si3  1  0.86678964  0.36678964  0.26642072  1
  Si  Si4  1  0.13855297  0.63855297  0.72289407  1
  Si  Si5  1  0.55850642  0.55850642  0.88298715  1
  Ni  Ni6  1  0.43334321  0.43334321  0.13331358  1
