# generated using pymatgen
data_SmU2Se5
_symmetry_space_group_name_H-M   'P 1'
_cell_length_a   7.77460839
_cell_length_b   8.30267013
_cell_length_c   12.31905292
_cell_angle_alpha   90.00000000
_cell_angle_beta   90.00000000
_cell_angle_gamma   90.00000000
_symmetry_Int_Tables_number   1
_chemical_formula_structural   SmU2Se5
_chemical_formula_sum   'Sm4 U8 Se20'
_cell_volume   795.19497504
_cell_formula_units_Z   4
loop_
 _symmetry_equiv_pos_site_id
 _symmetry_equiv_pos_as_xyz
  1  'x, y, z'
loop_
 _atom_site_type_symbol
 _atom_site_label
 _atom_site_symmetry_multiplicity
 _atom_site_fract_x
 _atom_site_fract_y
 _atom_site_fract_z
 _atom_site_occupancy
  Sm  Sm0  1  0.97460839  0.00239337  0.17955999  1
  Sm  Sm1  1  0.02539161  0.50239337  0.82044001  1
  Sm  Sm2  1  0.47460839  0.50239337  0.32044001  1
  Sm  Sm3  1  0.52539161  0.00239337  0.67955999  1
  U  U4  1  0.42368770  0.74846172  0.00717399  1
  U  U5  1  0.07631230  0.74846172  0.50717399  1
  U  U6  1  0.57631230  0.24846172  0.99282601  1
  U  U7  1  0.92368770  0.24846172  0.49282601  1
  U  U8  1  0.52349820  0.50022446  0.67953252  1
  U  U9  1  0.47650180  0.00022446  0.32046748  1
  U  U10  1  0.02349820  0.00022446  0.82046748  1
  U  U11  1  0.97650180  0.50022446  0.17953252  1
  Se  Se12  1  0.66431581  0.54346949  0.90114939  1
  Se  Se13  1  0.82945463  0.95313539  0.40383190  1
  Se  Se14  1  0.33568419  0.04346949  0.09885061  1
  Se  Se15  1  0.17054537  0.45313539  0.59616810  1
  Se  Se16  1  0.32945463  0.45313539  0.09616810  1
  Se  Se17  1  0.16431581  0.04346949  0.59885061  1
  Se  Se18  1  0.67054537  0.95313539  0.90383190  1
  Se  Se19  1  0.83568419  0.54346949  0.40114939  1
  Se  Se20  1  0.03903893  0.75141214  0.00005451  1
  Se  Se21  1  0.46096107  0.75141214  0.50005451  1
  Se  Se22  1  0.96096107  0.25141214  -0.00005451  1
  Se  Se23  1  0.53903893  0.25141214  0.49994549  1
  Se  Se24  1  0.66956503  0.75017359  0.18619822  1
  Se  Se25  1  0.83043497  0.75017359  0.68619822  1
  Se  Se26  1  0.33043497  0.25017359  0.81380178  1
  Se  Se27  1  0.16956503  0.25017359  0.31380178  1
  Se  Se28  1  0.30350029  0.75072982  0.78266123  1
  Se  Se29  1  0.19649971  0.75072982  0.28266123  1
  Se  Se30  1  0.69649971  0.25072982  0.21733877  1
  Se  Se31  1  0.80350029  0.25072982  0.71733877  1
