# generated using pymatgen
data_PrCuSi
_symmetry_space_group_name_H-M   'P 1'
_cell_length_a   4.15396956
_cell_length_b   4.15798691
_cell_length_c   4.16525618
_cell_angle_alpha   90.00000000
_cell_angle_beta   90.00000000
_cell_angle_gamma   59.96908972
_symmetry_Int_Tables_number   1
_chemical_formula_structural   PrCuSi
_chemical_formula_sum   'Pr1 Cu1 Si1'
_cell_volume   62.28499326
_cell_formula_units_Z   1
loop_
 _symmetry_equiv_pos_site_id
 _symmetry_equiv_pos_as_xyz
  1  'x, y, z'
loop_
 _atom_site_type_symbol
 _atom_site_label
 _atom_site_symmetry_multiplicity
 _atom_site_fract_x
 _atom_site_fract_y
 _atom_site_fract_z
 _atom_site_occupancy
  Pr  Pr0  1  0.99995757  0.00006362  -0.00000000  1
  Cu  Cu1  1  0.66642267  0.66674221  0.50000000  1
  Si  Si2  1  0.33351976  0.33319417  0.50000000  1
