# generated using pymatgen
data_Nd2Al3Ga
_symmetry_space_group_name_H-M   'P 1'
_cell_length_a   3.85105273
_cell_length_b   4.51183887
_cell_length_c   7.84166806
_cell_angle_alpha   90.01404950
_cell_angle_beta   90.00000000
_cell_angle_gamma   90.00000000
_symmetry_Int_Tables_number   1
_chemical_formula_structural   Nd2Al3Ga
_chemical_formula_sum   'Nd2 Al3 Ga1'
_cell_volume   136.25156148
_cell_formula_units_Z   1
loop_
 _symmetry_equiv_pos_site_id
 _symmetry_equiv_pos_as_xyz
  1  'x, y, z'
loop_
 _atom_site_type_symbol
 _atom_site_label
 _atom_site_symmetry_multiplicity
 _atom_site_fract_x
 _atom_site_fract_y
 _atom_site_fract_z
 _atom_site_occupancy
  Nd  Nd0  1  0.00000000  0.99992567  0.00210325  1
  Nd  Nd1  1  0.00000000  0.49995069  0.49796957  1
  Al  Al2  1  0.50000000  0.49993901  0.83284907  1
  Al  Al3  1  0.50000000  0.50002223  0.16792459  1
  Al  Al4  1  0.50000000  0.00003482  0.66436340  1
  Ga  Ga5  1  0.50000000  0.99992757  0.33479011  1
