# generated using pymatgen
data_Nd2Y
_symmetry_space_group_name_H-M   'P 1'
_cell_length_a   3.64738661
_cell_length_b   3.64738661
_cell_length_c   9.21347067
_cell_angle_alpha   78.58361294
_cell_angle_beta   78.58361294
_cell_angle_gamma   59.99998793
_symmetry_Int_Tables_number   1
_chemical_formula_structural   Nd2Y
_chemical_formula_sum   'Nd2 Y1'
_cell_volume   103.33961220
_cell_formula_units_Z   1
loop_
 _symmetry_equiv_pos_site_id
 _symmetry_equiv_pos_as_xyz
  1  'x, y, z'
loop_
 _atom_site_type_symbol
 _atom_site_label
 _atom_site_symmetry_multiplicity
 _atom_site_fract_x
 _atom_site_fract_y
 _atom_site_fract_z
 _atom_site_occupancy
  Nd  Nd0  1  0.22436204  0.22436204  0.32691387  1
  Nd  Nd1  1  0.77563796  0.77563796  0.67308613  1
  Y  Y2  1  0.00000000  0.00000000  0.00000000  1
