# generated using pymatgen
data_NbBi2O5F
_symmetry_space_group_name_H-M   'P 1'
_cell_length_a   5.45937006
_cell_length_b   5.47074007
_cell_length_c   17.02851003
_cell_angle_alpha   90.00000000
_cell_angle_beta   90.00000000
_cell_angle_gamma   90.00000000
_symmetry_Int_Tables_number   1
_chemical_formula_structural   NbBi2O5F
_chemical_formula_sum   'Nb4 Bi8 O20 F4'
_cell_volume   508.58701046
_cell_formula_units_Z   4
loop_
 _symmetry_equiv_pos_site_id
 _symmetry_equiv_pos_as_xyz
  1  'x, y, z'
loop_
 _atom_site_type_symbol
 _atom_site_label
 _atom_site_symmetry_multiplicity
 _atom_site_fract_x
 _atom_site_fract_y
 _atom_site_fract_z
 _atom_site_occupancy
  Nb  Nb0  1  -0.00069142  0.50313219  0.51350598  1
  Nb  Nb1  1  0.50069142  0.00313219  0.48649402  1
  Nb  Nb2  1  0.49930858  0.49686781  0.98649402  1
  Nb  Nb3  1  0.00069142  0.99686781  0.01350598  1
  Bi  Bi4  1  0.51094522  0.48839374  0.67584413  1
  Bi  Bi5  1  0.98905478  0.98839374  0.32415587  1
  Bi  Bi6  1  0.01094522  0.51160626  0.82415587  1
  Bi  Bi7  1  0.48905478  0.01160626  0.17584413  1
  Bi  Bi8  1  0.49479133  0.52154321  0.32679870  1
  Bi  Bi9  1  0.00520867  0.02154321  0.67320130  1
  Bi  Bi10  1  0.99479133  0.47845679  0.17320130  1
  Bi  Bi11  1  0.50520867  0.97845679  0.82679870  1
  O  O12  1  0.75205013  0.24641092  0.75261224  1
  O  O13  1  0.74794987  0.74641092  0.24738776  1
  O  O14  1  0.25205013  0.75358908  0.74738776  1
  O  O15  1  0.24794987  0.25358908  0.25261224  1
  O  O16  1  0.24773895  0.74911318  0.24762016  1
  O  O17  1  0.25226105  0.24911318  0.75237984  1
  O  O18  1  0.74773895  0.25088682  0.25237984  1
  O  O19  1  0.75226105  0.75088682  0.74762016  1
  O  O20  1  0.79965566  0.29980301  0.98836260  1
  O  O21  1  0.70034434  0.79980301  0.01163740  1
  O  O22  1  0.29965566  0.70019699  0.51163740  1
  O  O23  1  0.20034434  0.20019699  0.48836260  1
  O  O24  1  0.20108952  0.69866107  0.01445369  1
  O  O25  1  0.29891048  0.19866107  0.98554631  1
  O  O26  1  0.70108952  0.30133893  0.48554631  1
  O  O27  1  0.79891048  0.80133893  0.51445369  1
  O  O28  1  0.98214335  0.44523282  0.62290202  1
  O  O29  1  0.51785665  0.94523282  0.37709798  1
  O  O30  1  0.48214335  0.55476718  0.87709798  1
  O  O31  1  0.01785665  0.05476718  0.12290202  1
  F  F32  1  0.01387175  0.54579943  0.37977038  1
  F  F33  1  0.48612825  0.04579943  0.62022962  1
  F  F34  1  0.51387175  0.45420057  0.12022962  1
  F  F35  1  0.98612825  0.95420057  0.87977038  1
