# generated using pymatgen
data_LaSmNi2O5
_symmetry_space_group_name_H-M   'P 1'
_cell_length_a   10.80663920
_cell_length_b   11.34739298
_cell_length_c   17.46379905
_cell_angle_alpha   108.96168839
_cell_angle_beta   108.04915342
_cell_angle_gamma   90.00282564
_symmetry_Int_Tables_number   1
_chemical_formula_structural   LaSmNi2O5
_chemical_formula_sum   'La16 Sm16 Ni32 O80'
_cell_volume   1913.54450871
_cell_formula_units_Z   16
loop_
 _symmetry_equiv_pos_site_id
 _symmetry_equiv_pos_as_xyz
  1  'x, y, z'
loop_
 _atom_site_type_symbol
 _atom_site_label
 _atom_site_symmetry_multiplicity
 _atom_site_fract_x
 _atom_site_fract_y
 _atom_site_fract_z
 _atom_site_occupancy
  La  La0  1  0.30863904  0.06094751  0.60820841  1
  La  La1  1  0.30962593  0.56372024  0.61074083  1
  La  La2  1  0.80617648  0.06126622  0.60873770  1
  La  La3  1  0.80790513  0.56359375  0.61097940  1
  La  La4  1  0.19855060  0.43753774  0.38877063  1
  La  La5  1  0.19730495  0.44115476  0.89236109  1
  La  La6  1  0.69621783  0.43769372  0.38892992  1
  La  La7  1  0.69460434  0.93579761  0.38766302  1
  La  La8  1  0.05790053  0.29669134  0.60918784  1
  La  La9  1  0.05713417  0.79833231  0.61018135  1
  La  La10  1  0.55880003  0.29813308  0.61085568  1
  La  La11  1  0.44571432  0.20089110  0.38794361  1
  La  La12  1  0.44927423  0.20292340  0.89146934  1
  La  La13  1  0.94806331  0.20091523  0.38770897  1
  La  La14  1  0.94746414  0.20244643  0.89153547  1
  La  La15  1  0.94787994  0.70296202  0.38884866  1
  Sm  Sm16  1  0.30372734  0.06410641  0.10663385  1
  Sm  Sm17  1  0.30483635  0.56454023  0.11021924  1
  Sm  Sm18  1  0.80289018  0.06279015  0.10550675  1
  Sm  Sm19  1  0.80426731  0.56356129  0.10752738  1
  Sm  Sm20  1  0.19849189  0.93377358  0.39029427  1
  Sm  Sm21  1  0.19773768  0.93597246  0.89445181  1
  Sm  Sm22  1  0.69847953  0.43856862  0.89381045  1
  Sm  Sm23  1  0.69633532  0.93524520  0.89220861  1
  Sm  Sm24  1  0.05369339  0.29384982  0.10803265  1
  Sm  Sm25  1  0.05451594  0.79483540  0.10856956  1
  Sm  Sm26  1  0.55431386  0.29409650  0.10771806  1
  Sm  Sm27  1  0.55313654  0.79341979  0.10679084  1
  Sm  Sm28  1  0.55559681  0.79325617  0.60715367  1
  Sm  Sm29  1  0.44750594  0.70718030  0.39224543  1
  Sm  Sm30  1  0.44888028  0.70762823  0.89461542  1
  Sm  Sm31  1  0.94671142  0.70818080  0.89518740  1
  Ni  Ni32  1  0.00684618  0.00016417  0.00137724  1
  Ni  Ni33  1  0.00576365  0.99946613  0.49852783  1
  Ni  Ni34  1  0.00708555  0.50095280  0.00173797  1
  Ni  Ni35  1  0.00550833  0.49966595  0.49926140  1
  Ni  Ni36  1  0.50706476  0.00007708  0.00121670  1
  Ni  Ni37  1  0.50532866  0.99911606  0.49934773  1
  Ni  Ni38  1  0.50741787  0.50066486  0.00145384  1
  Ni  Ni39  1  0.50518359  0.50006656  0.49889385  1
  Ni  Ni40  1  0.25738032  0.25177382  0.00208330  1
  Ni  Ni41  1  0.25568817  0.24859432  0.49878686  1
  Ni  Ni42  1  0.25708185  0.75144508  0.00177717  1
  Ni  Ni43  1  0.25642951  0.74959050  0.49939600  1
  Ni  Ni44  1  0.75703007  0.25097405  0.00134259  1
  Ni  Ni45  1  0.75497491  0.24988942  0.49909038  1
  Ni  Ni46  1  0.75729022  0.74989013  0.00099589  1
  Ni  Ni47  1  0.75457491  0.74965592  0.49923235  1
  Ni  Ni48  1  0.10628259  0.09277641  0.24678281  1
  Ni  Ni49  1  0.11024473  0.09478158  0.75211473  1
  Ni  Ni50  1  0.10882516  0.59615062  0.24714315  1
  Ni  Ni51  1  0.11004995  0.60020877  0.75302857  1
  Ni  Ni52  1  0.60598327  0.09359721  0.24597684  1
  Ni  Ni53  1  0.60949670  0.09443210  0.75157464  1
  Ni  Ni54  1  0.60428240  0.59555349  0.24683000  1
  Ni  Ni55  1  0.61019416  0.60071849  0.75328853  1
  Ni  Ni56  1  0.35660188  0.40448691  0.24704531  1
  Ni  Ni57  1  0.36228849  0.40707730  0.75236390  1
  Ni  Ni58  1  0.35471942  0.90031403  0.24744807  1
  Ni  Ni59  1  0.36214847  0.90224677  0.75250165  1
  Ni  Ni60  1  0.85646860  0.40242468  0.24618134  1
  Ni  Ni61  1  0.85777739  0.40759874  0.75310642  1
  Ni  Ni62  1  0.85803026  0.90163913  0.24610787  1
  Ni  Ni63  1  0.85693185  0.90177777  0.75211132  1
  O  O64  1  0.12101238  0.11540087  0.48062089  1
  O  O65  1  0.12145811  0.11866934  0.98411595  1
  O  O66  1  0.12083678  0.61987531  0.48410726  1
  O  O67  1  0.11635352  0.62353935  0.98300410  1
  O  O68  1  0.61924841  0.11904893  0.48341686  1
  O  O69  1  0.62120157  0.11793567  0.98321263  1
  O  O70  1  0.61624979  0.62227452  0.48286025  1
  O  O71  1  0.61814317  0.61859219  0.98010679  1
  O  O72  1  0.13971103  0.38369123  0.02396652  1
  O  O73  1  0.13640530  0.37998970  0.51595176  1
  O  O74  1  0.13723275  0.88118448  0.01977375  1
  O  O75  1  0.13658225  0.87982768  0.51382740  1
  O  O76  1  0.63949581  0.38305081  0.02195714  1
  O  O77  1  0.63654434  0.38184852  0.51677546  1
  O  O78  1  0.63647515  0.87928392  0.01884669  1
  O  O79  1  0.63297779  0.87742618  0.51707912  1
  O  O80  1  0.36578075  0.10879588  0.48002784  1
  O  O81  1  0.36653073  0.10996178  0.98265284  1
  O  O82  1  0.37277953  0.61723351  0.48255978  1
  O  O83  1  0.37217430  0.61621205  0.98366937  1
  O  O84  1  0.86977716  0.11392263  0.48316830  1
  O  O85  1  0.86564421  0.10893094  0.98172421  1
  O  O86  1  0.86967323  0.61457200  0.48393553  1
  O  O87  1  0.86755230  0.61100103  0.98063131  1
  O  O88  1  0.38940360  0.39092717  0.02333046  1
  O  O89  1  0.38631006  0.38614159  0.51649405  1
  O  O90  1  0.38703341  0.88884624  0.01943732  1
  O  O91  1  0.38828610  0.88247486  0.51509043  1
  O  O92  1  0.88743973  0.38991414  0.02112325  1
  O  O93  1  0.88603234  0.38589454  0.51615972  1
  O  O94  1  0.88776017  0.88769676  0.01956184  1
  O  O95  1  0.88562887  0.88501305  0.51481799  1
  O  O96  1  0.09242516  0.10807895  0.13690534  1
  O  O97  1  0.08550067  0.10181000  0.63849403  1
  O  O98  1  0.09223279  0.61060894  0.13667027  1
  O  O99  1  0.08417082  0.60562624  0.63891034  1
  O  O100  1  0.59194386  0.10838952  0.13613579  1
  O  O101  1  0.58421421  0.10396980  0.63841181  1
  O  O102  1  0.59174222  0.61006820  0.13687638  1
  O  O103  1  0.58333601  0.60699405  0.63874995  1
  O  O104  1  0.44451020  0.39565274  0.36109771  1
  O  O105  1  0.45525919  0.39479152  0.86371712  1
  O  O106  1  0.44485300  0.89388931  0.36181563  1
  O  O107  1  0.45697984  0.89262439  0.86413623  1
  O  O108  1  0.94500301  0.39709573  0.36073032  1
  O  O109  1  0.94821204  0.39426219  0.86448116  1
  O  O110  1  0.95194014  0.89621461  0.36011714  1
  O  O111  1  0.95474201  0.89310501  0.86390466  1
  O  O112  1  0.34373662  0.27844533  0.13755903  1
  O  O113  1  0.33581744  0.28530308  0.63853266  1
  O  O114  1  0.34104144  0.77780361  0.13673987  1
  O  O115  1  0.34087371  0.78566139  0.63804791  1
  O  O116  1  0.84296949  0.27734389  0.13641671  1
  O  O117  1  0.83343650  0.28649212  0.63955903  1
  O  O118  1  0.84221991  0.77699657  0.13563765  1
  O  O119  1  0.83229628  0.78444515  0.63777300  1
  O  O120  1  0.19466477  0.21609449  0.36044234  1
  O  O121  1  0.19813596  0.22088586  0.86378216  1
  O  O122  1  0.20154312  0.71671569  0.36121635  1
  O  O123  1  0.20666746  0.72127414  0.86444764  1
  O  O124  1  0.69395415  0.21429196  0.36056641  1
  O  O125  1  0.69770270  0.22163439  0.86321568  1
  O  O126  1  0.69413179  0.71519828  0.36140564  1
  O  O127  1  0.70641055  0.72296034  0.86419034  1
  O  O128  1  0.41647885  0.06722975  0.24387802  1
  O  O129  1  0.42262413  0.06917970  0.75096489  1
  O  O130  1  0.41629910  0.57567052  0.24960371  1
  O  O131  1  0.42412846  0.57766399  0.75634816  1
  O  O132  1  0.91629864  0.06912941  0.24301920  1
  O  O133  1  0.92222297  0.06773697  0.75059200  1
  O  O134  1  0.91849262  0.56985565  0.24445111  1
  O  O135  1  0.92430523  0.57695252  0.75716613  1
  O  O136  1  0.16645298  0.42523242  0.24383884  1
  O  O137  1  0.17404308  0.43237821  0.75101301  1
  O  O138  1  0.16650480  0.92407528  0.24920410  1
  O  O139  1  0.17582973  0.92926687  0.75659185  1
  O  O140  1  0.66653867  0.42553767  0.24387441  1
  O  O141  1  0.67162752  0.43300936  0.75580013  1
  O  O142  1  0.66796221  0.92446581  0.24424609  1
  O  O143  1  0.66844068  0.92492925  0.75150174  1
