# generated using pymatgen
data_Nb3AlFe8
_symmetry_space_group_name_H-M   'P 1'
_cell_length_a   4.74045819
_cell_length_b   4.74299208
_cell_length_c   7.89296358
_cell_angle_alpha   90.00000000
_cell_angle_beta   90.02952188
_cell_angle_gamma   59.98232372
_symmetry_Int_Tables_number   1
_chemical_formula_structural   Nb3AlFe8
_chemical_formula_sum   'Nb3 Al1 Fe8'
_cell_volume   153.66182614
_cell_formula_units_Z   1
loop_
 _symmetry_equiv_pos_site_id
 _symmetry_equiv_pos_as_xyz
  1  'x, y, z'
loop_
 _atom_site_type_symbol
 _atom_site_label
 _atom_site_symmetry_multiplicity
 _atom_site_fract_x
 _atom_site_fract_y
 _atom_site_fract_z
 _atom_site_occupancy
  Nb  Nb0  1  0.66672355  0.66663823  0.44026472  1
  Nb  Nb1  1  0.66673335  0.66663332  0.06838892  1
  Nb  Nb2  1  0.33353814  0.33323093  0.92289861  1
  Al  Al3  1  0.33360066  0.33319967  0.56039367  1
  Fe  Fe4  1  0.99984554  0.00007723  0.50236709  1
  Fe  Fe5  1  0.99975095  0.00012453  0.00677175  1
  Fe  Fe6  1  0.83102311  0.33804530  0.74799697  1
  Fe  Fe7  1  0.33801061  0.83099469  0.74806181  1
  Fe  Fe8  1  0.83102311  0.83093159  0.74799697  1
  Fe  Fe9  1  0.16982708  0.66023523  0.25160132  1
  Fe  Fe10  1  0.66009682  0.16995159  0.25165684  1
  Fe  Fe11  1  0.16982708  0.16993770  0.25160132  1
