# generated using pymatgen
data_Nb2CuTe4
_symmetry_space_group_name_H-M   'P 1'
_cell_length_a   3.68383715
_cell_length_b   6.76811405
_cell_length_c   7.34334107
_cell_angle_alpha   107.28326921
_cell_angle_beta   90.00000000
_cell_angle_gamma   90.00000000
_symmetry_Int_Tables_number   1
_chemical_formula_structural   Nb2CuTe4
_chemical_formula_sum   'Nb2 Cu1 Te4'
_cell_volume   174.82190572
_cell_formula_units_Z   1
loop_
 _symmetry_equiv_pos_site_id
 _symmetry_equiv_pos_as_xyz
  1  'x, y, z'
loop_
 _atom_site_type_symbol
 _atom_site_label
 _atom_site_symmetry_multiplicity
 _atom_site_fract_x
 _atom_site_fract_y
 _atom_site_fract_z
 _atom_site_occupancy
  Nb  Nb0  1  0.75000000  0.81621204  0.00489899  1
  Nb  Nb1  1  0.25000000  0.18134349  0.99451577  1
  Cu  Cu2  1  0.75000000  0.59999526  0.58083635  1
  Te  Te3  1  0.75000000  0.00391305  0.71149675  1
  Te  Te4  1  0.25000000  0.00317565  0.28600111  1
  Te  Te5  1  0.75000000  0.49630489  0.21308677  1
  Te  Te6  1  0.25000000  0.50085562  0.79286426  1
