# generated using pymatgen
data_NaTi5(NCl)5
_symmetry_space_group_name_H-M   'P 1'
_cell_length_a   5.21790088
_cell_length_b   9.47050028
_cell_length_c   12.45463322
_cell_angle_alpha   69.82599716
_cell_angle_beta   92.43536080
_cell_angle_gamma   93.13307490
_symmetry_Int_Tables_number   1
_chemical_formula_structural   NaTi5(NCl)5
_chemical_formula_sum   'Na2 Ti10 N10 Cl10'
_cell_volume   576.65402540
_cell_formula_units_Z   2
loop_
 _symmetry_equiv_pos_site_id
 _symmetry_equiv_pos_as_xyz
  1  'x, y, z'
loop_
 _atom_site_type_symbol
 _atom_site_label
 _atom_site_symmetry_multiplicity
 _atom_site_fract_x
 _atom_site_fract_y
 _atom_site_fract_z
 _atom_site_occupancy
  Na  Na0  1  0.40200166  0.06444058  0.95622065  1
  Na  Na1  1  0.39799834  0.53555942  0.44377935  1
  Ti  Ti2  1  0.34290652  0.64586751  0.77751917  1
  Ti  Ti3  1  0.54272884  0.04746572  0.37561954  1
  Ti  Ti4  1  0.94147809  0.84554573  0.57730592  1
  Ti  Ti5  1  0.74235378  0.44702233  0.97473699  1
  Ti  Ti6  1  0.14198890  0.24370162  0.17901374  1
  Ti  Ti7  1  0.25727116  0.55253428  0.02438046  1
  Ti  Ti8  1  0.45709348  0.95413249  0.62248083  1
  Ti  Ti9  1  0.85852191  0.75445427  0.82269408  1
  Ti  Ti10  1  0.65801110  0.35629838  0.22098626  1
  Ti  Ti11  1  0.05764622  0.15297767  0.42526301  1
  N  N12  1  0.55543819  0.63549849  0.91567004  1
  N  N13  1  0.75474211  0.03573805  0.51485857  1
  N  N14  1  0.15536296  0.83599459  0.71558845  1
  N  N15  1  0.95508572  0.43434567  0.11484426  1
  N  N16  1  0.35484142  0.23674621  0.31541990  1
  N  N17  1  0.04525789  0.56426195  0.88514143  1
  N  N18  1  0.24456181  0.96450151  0.48432996  1
  N  N19  1  0.64463704  0.76400541  0.68441155  1
  N  N20  1  0.44515858  0.36325379  0.08458010  1
  N  N21  1  0.84491428  0.16565433  0.28515574  1
  Cl  Cl22  1  0.91959004  0.18644001  0.00862543  1
  Cl  Cl23  1  0.32104621  0.99211167  0.20822347  1
  Cl  Cl24  1  0.72638487  0.79233935  0.40760710  1
  Cl  Cl25  1  0.11364684  0.58783971  0.61233998  1
  Cl  Cl26  1  0.51878985  0.38808019  0.81196041  1
  Cl  Cl27  1  0.47895379  0.60788833  0.19177653  1
  Cl  Cl28  1  0.88040996  0.41355999  0.39137457  1
  Cl  Cl29  1  0.28121015  0.21191981  0.58803959  1
  Cl  Cl30  1  0.68635316  0.01216029  0.78766002  1
  Cl  Cl31  1  0.07361513  0.80766065  0.99239290  1
