# generated using pymatgen
data_Nb4Fe3Si5
_symmetry_space_group_name_H-M   'P 1'
_cell_length_a   4.95000326
_cell_length_b   12.93705434
_cell_length_c   15.55162527
_cell_angle_alpha   90.00000000
_cell_angle_beta   90.00000000
_cell_angle_gamma   90.00000000
_symmetry_Int_Tables_number   1
_chemical_formula_structural   Nb4Fe3Si5
_chemical_formula_sum   'Nb24 Fe18 Si30'
_cell_volume   995.90215079
_cell_formula_units_Z   6
loop_
 _symmetry_equiv_pos_site_id
 _symmetry_equiv_pos_as_xyz
  1  'x, y, z'
loop_
 _atom_site_type_symbol
 _atom_site_label
 _atom_site_symmetry_multiplicity
 _atom_site_fract_x
 _atom_site_fract_y
 _atom_site_fract_z
 _atom_site_occupancy
  Nb  Nb0  1  0.50000000  0.39416529  0.29270615  1
  Nb  Nb1  1  0.00000000  0.89416529  0.70729385  1
  Nb  Nb2  1  0.50000000  0.48558295  0.09795072  1
  Nb  Nb3  1  0.00000000  0.98558295  0.90204928  1
  Nb  Nb4  1  0.00000000  0.17317470  0.01981695  1
  Nb  Nb5  1  0.50000000  0.67317470  0.98018305  1
  Nb  Nb6  1  0.50000000  0.30034040  0.99164501  1
  Nb  Nb7  1  0.00000000  0.80034040  0.00835499  1
  Nb  Nb8  1  0.50000000  0.16215822  0.30556386  1
  Nb  Nb9  1  0.00000000  0.66215822  0.69443614  1
  Nb  Nb10  1  0.50000000  0.36738446  0.81103096  1
  Nb  Nb11  1  0.00000000  0.86738446  0.18896904  1
  Nb  Nb12  1  0.00000000  0.45965799  0.53989227  1
  Nb  Nb13  1  0.50000000  0.95965799  0.46010773  1
  Nb  Nb14  1  0.00000000  0.10135378  0.41956261  1
  Nb  Nb15  1  0.50000000  0.60135378  0.58043739  1
  Nb  Nb16  1  0.50000000  0.32781503  0.59649288  1
  Nb  Nb17  1  0.00000000  0.82781503  0.40350712  1
  Nb  Nb18  1  0.00000000  0.09793616  0.19573945  1
  Nb  Nb19  1  0.50000000  0.59793616  0.80426055  1
  Nb  Nb20  1  0.00000000  0.49086469  0.20951064  1
  Nb  Nb21  1  0.50000000  0.99086469  0.79048936  1
  Nb  Nb22  1  0.00000000  0.29211341  0.71090143  1
  Nb  Nb23  1  0.50000000  0.79211341  0.28909857  1
  Fe  Fe24  1  0.25008260  0.17786137  0.85324756  1
  Fe  Fe25  1  0.74991740  0.17786137  0.85324756  1
  Fe  Fe26  1  0.24991740  0.67786137  0.14675244  1
  Fe  Fe27  1  0.75008260  0.67786137  0.14675244  1
  Fe  Fe28  1  0.25060482  0.30165476  0.42854915  1
  Fe  Fe29  1  0.74939518  0.30165476  0.42854915  1
  Fe  Fe30  1  0.24939518  0.80165476  0.57145085  1
  Fe  Fe31  1  0.75060482  0.80165476  0.57145085  1
  Fe  Fe32  1  0.24693560  0.09921448  0.61100863  1
  Fe  Fe33  1  0.75306440  0.09921448  0.61100863  1
  Fe  Fe34  1  0.25306440  0.59921448  0.38899137  1
  Fe  Fe35  1  0.74693560  0.59921448  0.38899137  1
  Fe  Fe36  1  0.00000000  0.48281056  0.81711194  1
  Fe  Fe37  1  0.50000000  0.98281056  0.18288806  1
  Fe  Fe38  1  0.25316085  0.29758086  0.16462838  1
  Fe  Fe39  1  0.74683915  0.29758086  0.16462838  1
  Fe  Fe40  1  0.24683915  0.79758086  0.83537162  1
  Fe  Fe41  1  0.75316085  0.79758086  0.83537162  1
  Si  Si42  1  0.00000000  0.26866951  0.29558198  1
  Si  Si43  1  0.50000000  0.76866951  0.70441802  1
  Si  Si44  1  0.00000000  0.24537137  0.54820695  1
  Si  Si45  1  0.50000000  0.74537137  0.45179305  1
  Si  Si46  1  0.00000000  0.08822344  0.74975316  1
  Si  Si47  1  0.50000000  0.58822344  0.25024684  1
  Si  Si48  1  0.25072778  0.47548257  0.68948317  1
  Si  Si49  1  0.74927222  0.47548257  0.68948317  1
  Si  Si50  1  0.24927222  0.97548257  0.31051683  1
  Si  Si51  1  0.75072778  0.97548257  0.31051683  1
  Si  Si52  1  0.50000000  0.45632718  0.45944784  1
  Si  Si53  1  0.00000000  0.95632718  0.54055216  1
  Si  Si54  1  0.50000000  0.18927437  0.72300485  1
  Si  Si55  1  0.00000000  0.68927437  0.27699515  1
  Si  Si56  1  0.50000000  0.08952827  0.95178287  1
  Si  Si57  1  0.00000000  0.58952827  0.04821713  1
  Si  Si58  1  0.50000000  0.15341760  0.12477866  1
  Si  Si59  1  0.00000000  0.65341760  0.87522134  1
  Si  Si60  1  0.50000000  0.16265868  0.48474468  1
  Si  Si61  1  0.00000000  0.66265868  0.51525532  1
  Si  Si62  1  0.00000000  0.44067005  0.37105557  1
  Si  Si63  1  0.50000000  0.94067005  0.62894443  1
  Si  Si64  1  0.00000000  0.32127576  0.88801562  1
  Si  Si65  1  0.50000000  0.82127576  0.11198438  1
  Si  Si66  1  0.00000000  0.38003905  0.06042556  1
  Si  Si67  1  0.50000000  0.88003905  0.93957444  1
  Si  Si68  1  0.26731395  0.48674949  0.93548728  1
  Si  Si69  1  0.73268605  0.48674949  0.93548728  1
  Si  Si70  1  0.23268605  0.98674949  0.06451272  1
  Si  Si71  1  0.76731395  0.98674949  0.06451272  1
