# generated using pymatgen
data_NdSmFe17
_symmetry_space_group_name_H-M   'P 1'
_cell_length_a   6.45551624
_cell_length_b   6.45551579
_cell_length_c   6.45551624
_cell_angle_alpha   83.02977583
_cell_angle_beta   83.02977338
_cell_angle_gamma   83.02977583
_symmetry_Int_Tables_number   1
_chemical_formula_structural   NdSmFe17
_chemical_formula_sum   'Nd1 Sm1 Fe17'
_cell_volume   263.50657455
_cell_formula_units_Z   1
loop_
 _symmetry_equiv_pos_site_id
 _symmetry_equiv_pos_as_xyz
  1  'x, y, z'
loop_
 _atom_site_type_symbol
 _atom_site_label
 _atom_site_symmetry_multiplicity
 _atom_site_fract_x
 _atom_site_fract_y
 _atom_site_fract_z
 _atom_site_occupancy
  Nd  Nd0  1  0.65829666  0.65829666  0.65829666  1
  Sm  Sm1  1  0.34128196  0.34128196  0.34128196  1
  Fe  Fe2  1  0.70947018  0.00043067  0.29013260  1
  Fe  Fe3  1  0.00043067  0.29013260  0.70947018  1
  Fe  Fe4  1  0.29013260  0.70947018  0.00043067  1
  Fe  Fe5  1  0.00043067  0.70947018  0.29013260  1
  Fe  Fe6  1  0.70947018  0.29013260  0.00043067  1
  Fe  Fe7  1  0.29013260  0.00043067  0.70947018  1
  Fe  Fe8  1  0.00028406  0.49987073  0.00028406  1
  Fe  Fe9  1  0.49987073  0.00028406  0.00028406  1
  Fe  Fe10  1  0.00028406  0.00028406  0.49987073  1
  Fe  Fe11  1  0.90328685  0.90328685  0.90328685  1
  Fe  Fe12  1  0.09709111  0.09709111  0.09709111  1
  Fe  Fe13  1  0.34243522  0.84548089  0.34243522  1
  Fe  Fe14  1  0.84548089  0.34243522  0.34243522  1
  Fe  Fe15  1  0.34243522  0.34243522  0.84548089  1
  Fe  Fe16  1  0.65720686  0.15477262  0.65720686  1
  Fe  Fe17  1  0.15477262  0.65720686  0.65720686  1
  Fe  Fe18  1  0.65720686  0.65720686  0.15477262  1
