# generated using pymatgen
data_Mg(IO3)2
_symmetry_space_group_name_H-M   'P 1'
_cell_length_a   5.02378000
_cell_length_b   5.64877273
_cell_length_c   5.64932432
_cell_angle_alpha   120.01451100
_cell_angle_beta   89.99611613
_cell_angle_gamma   89.99603676
_symmetry_Int_Tables_number   1
_chemical_formula_structural   Mg(IO3)2
_chemical_formula_sum   'Mg1 I2 O6'
_cell_volume   138.81881336
_cell_formula_units_Z   1
loop_
 _symmetry_equiv_pos_site_id
 _symmetry_equiv_pos_as_xyz
  1  'x, y, z'
loop_
 _atom_site_type_symbol
 _atom_site_label
 _atom_site_symmetry_multiplicity
 _atom_site_fract_x
 _atom_site_fract_y
 _atom_site_fract_z
 _atom_site_occupancy
  Mg  Mg0  1  0.57230694  0.00003158  -0.00000571  1
  I  I1  1  0.52441876  0.33343945  0.66673035  1
  I  I2  1  0.98095885  0.66666083  0.33333921  1
  O  O3  1  0.34856876  0.24931443  0.34900448  1
  O  O4  1  0.34861767  0.65092374  0.90028970  1
  O  O5  1  0.34853946  0.09963027  0.75063132  1
  O  O6  1  0.80786348  0.73815924  0.64687715  1
  O  O7  1  0.80785571  0.35309201  0.09126612  1
  O  O8  1  0.80787038  0.90874846  0.26186738  1
