# generated using pymatgen
data_Na4Al3Si3ClO12
_symmetry_space_group_name_H-M   'P 1'
_cell_length_a   7.78827715
_cell_length_b   7.78827715
_cell_length_c   7.78394412
_cell_angle_alpha   70.28444574
_cell_angle_beta   70.78797267
_cell_angle_gamma   109.50900777
_symmetry_Int_Tables_number   1
_chemical_formula_structural   Na4Al3Si3ClO12
_chemical_formula_sum   'Na4 Al3 Si3 Cl1 O12'
_cell_volume   363.35514472
_cell_formula_units_Z   1
loop_
 _symmetry_equiv_pos_site_id
 _symmetry_equiv_pos_as_xyz
  1  'x, y, z'
loop_
 _atom_site_type_symbol
 _atom_site_label
 _atom_site_symmetry_multiplicity
 _atom_site_fract_x
 _atom_site_fract_y
 _atom_site_fract_z
 _atom_site_occupancy
  Na  Na0  1  0.64517681  0.63862355  0.35834046  1
  Na  Na1  1  0.36136674  0.00642523  0.99133063  1
  Na  Na2  1  0.99775586  0.35269737  0.00866937  1
  Na  Na3  1  0.99696400  0.00351727  0.64165954  1
  Al  Al4  1  0.74809612  0.24809612  0.50000000  1
  Al  Al5  1  0.25072730  0.49485933  0.25296277  1
  Al  Al6  1  0.74782210  0.50369007  0.74703723  1
  Si  Si7  1  0.49624417  0.75225833  0.75332896  1
  Si  Si8  1  0.25359178  0.75359178  0.50000000  1
  Si  Si9  1  0.50558729  0.24957313  0.24667104  1
  Cl  Cl10  1  0.99920159  0.99920159  -0.00000000  1
  O  O11  1  0.69947496  0.41516498  0.58384065  1
  O  O12  1  0.42386048  0.40536977  0.29071361  1
  O  O13  1  0.41499278  0.71817327  0.58631464  1
  O  O14  1  0.29884073  0.70869417  0.30459094  1
  O  O15  1  0.57841105  0.28902698  0.00882585  1
  O  O16  1  0.56725601  0.98853303  0.71538231  1
  O  O17  1  0.01328511  0.60343167  0.69540906  1
  O  O18  1  0.29785284  0.58723690  0.99117415  1
  O  O19  1  0.70391534  0.28263832  0.28461769  1
  O  O20  1  0.99900563  0.28331561  0.41615935  1
  O  O21  1  0.69608338  0.71457409  0.70928639  1
  O  O22  1  0.30448791  0.00130742  0.41368536  1
