# generated using pymatgen
data_MnZnTe2
_symmetry_space_group_name_H-M   'P 1'
_cell_length_a   4.44063218
_cell_length_b   4.44063219
_cell_length_c   7.66452876
_cell_angle_alpha   73.16076279
_cell_angle_beta   90.00000000
_cell_angle_gamma   120.00000005
_symmetry_Int_Tables_number   1
_chemical_formula_structural   MnZnTe2
_chemical_formula_sum   'Mn1 Zn1 Te2'
_cell_volume   123.34986241
_cell_formula_units_Z   1
loop_
 _symmetry_equiv_pos_site_id
 _symmetry_equiv_pos_as_xyz
  1  'x, y, z'
loop_
 _atom_site_type_symbol
 _atom_site_label
 _atom_site_symmetry_multiplicity
 _atom_site_fract_x
 _atom_site_fract_y
 _atom_site_fract_z
 _atom_site_occupancy
  Mn  Mn0  1  0.99984219  0.99968438  0.00047342  1
  Zn  Zn1  1  0.50001877  0.00003755  0.49994368  1
  Te  Te2  1  0.87386355  0.74772711  0.37840934  1
  Te  Te3  1  0.37627548  0.75255096  0.87117356  1
