# generated using pymatgen
data_Mn4Co11Ge5
_symmetry_space_group_name_H-M   'P 1'
_cell_length_a   4.05375293
_cell_length_b   4.05375293
_cell_length_c   16.67499052
_cell_angle_alpha   96.98167737
_cell_angle_beta   83.01832263
_cell_angle_gamma   119.99999988
_symmetry_Int_Tables_number   1
_chemical_formula_structural   Mn4Co11Ge5
_chemical_formula_sum   'Mn4 Co11 Ge5'
_cell_volume   234.95804397
_cell_formula_units_Z   1
loop_
 _symmetry_equiv_pos_site_id
 _symmetry_equiv_pos_as_xyz
  1  'x, y, z'
loop_
 _atom_site_type_symbol
 _atom_site_label
 _atom_site_symmetry_multiplicity
 _atom_site_fract_x
 _atom_site_fract_y
 _atom_site_fract_z
 _atom_site_occupancy
  Mn  Mn0  1  0.90013917  0.09986083  0.29958249  1
  Mn  Mn1  1  0.50001064  0.49998936  0.49996807  1
  Mn  Mn2  1  0.09998936  0.90001064  0.70003193  1
  Mn  Mn3  1  0.69986083  0.30013917  0.90041751  1
  Co  Co4  1  0.05001944  0.94998056  0.84994167  1
  Co  Co5  1  0.84997548  0.15002452  0.45007357  1
  Co  Co6  1  0.44996617  0.55003383  0.65010150  1
  Co  Co7  1  0.64982226  0.35017774  0.05053321  1
  Co  Co8  1  0.25015483  0.74984517  0.24953551  1
  Co  Co9  1  0.34984517  0.65015483  0.95046449  1
  Co  Co10  1  0.15003383  0.84996617  0.54989850  1
  Co  Co11  1  0.75002452  0.24997548  0.74992643  1
  Co  Co12  1  0.95017774  0.04982226  0.14946679  1
  Co  Co13  1  0.54998056  0.45001944  0.35005833  1
  Co  Co14  1  0.30000000  0.70000000  0.10000000  1
  Ge  Ge15  1  0.39994997  0.60005003  0.80015009  1
  Ge  Ge16  1  0.20005003  0.79994997  0.39984991  1
  Ge  Ge17  1  0.80000000  0.20000000  0.60000000  1
  Ge  Ge18  1  0.99976159  0.00023841  0.00071523  1
  Ge  Ge19  1  0.60023841  0.39976159  0.19928477  1
