# generated using pymatgen
data_MnCd4S5
_symmetry_space_group_name_H-M   'P 1'
_cell_length_a   4.16481985
_cell_length_b   4.16481985
_cell_length_c   17.10643569
_cell_angle_alpha   96.99210315
_cell_angle_beta   83.00789685
_cell_angle_gamma   120.00000000
_symmetry_Int_Tables_number   1
_chemical_formula_structural   MnCd4S5
_chemical_formula_sum   'Mn1 Cd4 S5'
_cell_volume   254.41877875
_cell_formula_units_Z   1
loop_
 _symmetry_equiv_pos_site_id
 _symmetry_equiv_pos_as_xyz
  1  'x, y, z'
loop_
 _atom_site_type_symbol
 _atom_site_label
 _atom_site_symmetry_multiplicity
 _atom_site_fract_x
 _atom_site_fract_y
 _atom_site_fract_z
 _atom_site_occupancy
  Mn  Mn0  1  0.40044609  0.59955391  0.79866174  1
  Cd  Cd1  1  0.00132316  0.99867684  0.99603053  1
  Cd  Cd2  1  0.60018949  0.39981051  0.19943154  1
  Cd  Cd3  1  0.19973867  0.80026133  0.40078399  1
  Cd  Cd4  1  0.79814371  0.20185629  0.60556886  1
  S  S5  1  0.95080412  0.04919588  0.14758765  1
  S  S6  1  0.55001928  0.44998072  0.34994216  1
  S  S7  1  0.14932121  0.85067879  0.55203638  1
  S  S8  1  0.74724671  0.25275329  0.75825987  1
  S  S9  1  0.35276757  0.64723243  0.94169728  1
