# generated using pymatgen
data_SrCa7FeCo7O24
_symmetry_space_group_name_H-M   'P 1'
_cell_length_a   7.58903831
_cell_length_b   7.58903831
_cell_length_c   7.58903831
_cell_angle_alpha   90.02693167
_cell_angle_beta   89.97306833
_cell_angle_gamma   90.02693167
_symmetry_Int_Tables_number   1
_chemical_formula_structural   SrCa7FeCo7O24
_chemical_formula_sum   'Sr1 Ca7 Fe1 Co7 O24'
_cell_volume   437.07915169
_cell_formula_units_Z   1
loop_
 _symmetry_equiv_pos_site_id
 _symmetry_equiv_pos_as_xyz
  1  'x, y, z'
loop_
 _atom_site_type_symbol
 _atom_site_label
 _atom_site_symmetry_multiplicity
 _atom_site_fract_x
 _atom_site_fract_y
 _atom_site_fract_z
 _atom_site_occupancy
  Sr  Sr0  1  0.75056638  0.24943362  0.75056638  1
  Ca  Ca1  1  0.24803228  0.24780583  0.24803228  1
  Ca  Ca2  1  0.24800439  0.24806238  0.75193762  1
  Ca  Ca3  1  0.24829251  0.75170749  0.24829251  1
  Ca  Ca4  1  0.24803228  0.75196772  0.75219417  1
  Ca  Ca5  1  0.75193762  0.24806238  0.24800439  1
  Ca  Ca6  1  0.75219417  0.75196772  0.24803228  1
  Ca  Ca7  1  0.75193762  0.75199561  0.75193762  1
  Fe  Fe8  1  0.00054688  0.99945312  0.00054688  1
  Co  Co9  1  0.00072505  0.99927495  0.49939034  1
  Co  Co10  1  0.00072505  0.50060966  0.00072505  1
  Co  Co11  1  0.00122596  0.50101557  0.49898443  1
  Co  Co12  1  0.49939034  0.99927495  0.00072505  1
  Co  Co13  1  0.49898443  0.99877404  0.49898443  1
  Co  Co14  1  0.49898443  0.50101557  0.00122596  1
  Co  Co15  1  0.49908533  0.50091467  0.49908533  1
  O  O16  1  0.25423228  0.99881583  0.00118417  1
  O  O17  1  0.24739589  0.99891355  0.49932805  1
  O  O18  1  0.24739589  0.50067195  0.00108645  1
  O  O19  1  0.25210530  0.50078518  0.49921482  1
  O  O20  1  0.74565089  0.99713414  0.00286586  1
  O  O21  1  0.75278520  0.99716627  0.49699870  1
  O  O22  1  0.75278520  0.50300130  0.00283373  1
  O  O23  1  0.74774963  0.50289429  0.49710571  1
  O  O24  1  0.00286586  0.25434911  0.00286586  1
  O  O25  1  0.00283373  0.24721480  0.49699870  1
  O  O26  1  0.00118417  0.74576772  0.00118417  1
  O  O27  1  0.00108645  0.75260411  0.49932805  1
  O  O28  1  0.49699870  0.24721480  0.00283373  1
  O  O29  1  0.49710571  0.25225037  0.49710571  1
  O  O30  1  0.49932805  0.75260411  0.00108645  1
  O  O31  1  0.49921482  0.74789470  0.49921482  1
  O  O32  1  0.00118417  0.99881583  0.25423228  1
  O  O33  1  0.00286586  0.99713414  0.74565089  1
  O  O34  1  0.00108645  0.50067195  0.24739589  1
  O  O35  1  0.00283373  0.50300130  0.75278520  1
  O  O36  1  0.49932805  0.99891355  0.24739589  1
  O  O37  1  0.49699870  0.99716627  0.75278520  1
  O  O38  1  0.49921482  0.50078518  0.25210530  1
  O  O39  1  0.49710571  0.50289429  0.74774963  1
