# generated using pymatgen
data_MnNb4(CS2)2
_symmetry_space_group_name_H-M   'P 1'
_cell_length_a   3.34451880
_cell_length_b   8.96825708
_cell_length_c   5.77382122
_cell_angle_alpha   78.36066515
_cell_angle_beta   89.99999961
_cell_angle_gamma   90.00000083
_symmetry_Int_Tables_number   1
_chemical_formula_structural   MnNb4(CS2)2
_chemical_formula_sum   'Mn1 Nb4 C2 S4'
_cell_volume   169.62174136
_cell_formula_units_Z   1
loop_
 _symmetry_equiv_pos_site_id
 _symmetry_equiv_pos_as_xyz
  1  'x, y, z'
loop_
 _atom_site_type_symbol
 _atom_site_label
 _atom_site_symmetry_multiplicity
 _atom_site_fract_x
 _atom_site_fract_y
 _atom_site_fract_z
 _atom_site_occupancy
  Mn  Mn0  1  0.00000000  -0.00000000  0.00000000  1
  Nb  Nb1  1  0.50000000  0.62940155  0.63263613  1
  Nb  Nb2  1  0.00000000  0.63100906  0.11845474  1
  Nb  Nb3  1  0.50000000  0.37059845  0.36736387  1
  Nb  Nb4  1  1.00000000  0.36899094  0.88154526  1
  C  C5  1  0.00000000  0.50000000  0.50000000  1
  C  C6  1  0.50000000  0.50000000  0.00000000  1
  S  S7  1  0.50000000  0.17603859  0.76568632  1
  S  S8  1  0.00000000  0.17748697  0.27293226  1
  S  S9  1  0.50000000  0.82396141  0.23431368  1
  S  S10  1  1.00000000  0.82251303  0.72706774  1
