# generated using pymatgen
data_MgFe2O3
_symmetry_space_group_name_H-M   'P 1'
_cell_length_a   3.14988077
_cell_length_b   6.68784089
_cell_length_c   3.14988077
_cell_angle_alpha   103.62069110
_cell_angle_beta   90.00000000
_cell_angle_gamma   103.62069110
_symmetry_Int_Tables_number   1
_chemical_formula_structural   MgFe2O3
_chemical_formula_sum   'Mg1 Fe2 O3'
_cell_volume   62.56710313
_cell_formula_units_Z   1
loop_
 _symmetry_equiv_pos_site_id
 _symmetry_equiv_pos_as_xyz
  1  'x, y, z'
loop_
 _atom_site_type_symbol
 _atom_site_label
 _atom_site_symmetry_multiplicity
 _atom_site_fract_x
 _atom_site_fract_y
 _atom_site_fract_z
 _atom_site_occupancy
  Mg  Mg0  1  0.00000000  0.00000000  0.00000000  1
  Fe  Fe1  1  0.66777960  0.33555821  0.66777960  1
  Fe  Fe2  1  0.33222040  0.66444179  0.33222040  1
  O  O3  1  0.50000000  0.00000000  0.50000000  1
  O  O4  1  0.16480179  0.32960258  0.16480179  1
  O  O5  1  0.83519821  0.67039742  0.83519821  1
