# generated using pymatgen
data_MgTiNb2(PbO3)4
_symmetry_space_group_name_H-M   'P 1'
_cell_length_a   5.77900970
_cell_length_b   8.03807614
_cell_length_c   5.87667561
_cell_angle_alpha   89.98430708
_cell_angle_beta   90.00000000
_cell_angle_gamma   90.00000000
_symmetry_Int_Tables_number   1
_chemical_formula_structural   MgTiNb2(PbO3)4
_chemical_formula_sum   'Mg1 Ti1 Nb2 Pb4 O12'
_cell_volume   272.98403017
_cell_formula_units_Z   1
loop_
 _symmetry_equiv_pos_site_id
 _symmetry_equiv_pos_as_xyz
  1  'x, y, z'
loop_
 _atom_site_type_symbol
 _atom_site_label
 _atom_site_symmetry_multiplicity
 _atom_site_fract_x
 _atom_site_fract_y
 _atom_site_fract_z
 _atom_site_occupancy
  Mg  Mg0  1  0.00000000  0.25888356  0.49163578  1
  Ti  Ti1  1  0.50000000  0.75962078  0.01522245  1
  Nb  Nb2  1  0.50000000  0.25989967  0.98658734  1
  Nb  Nb3  1  0.00000000  0.75886152  0.51383179  1
  Pb  Pb4  1  0.00000000  0.01685199  0.04162212  1
  Pb  Pb5  1  0.50000000  0.02691408  0.53263975  1
  Pb  Pb6  1  0.00000000  0.50136126  0.04118841  1
  Pb  Pb7  1  0.50000000  0.49030966  0.53027843  1
  O  O8  1  0.00000000  0.99945575  0.44446834  1
  O  O9  1  0.50000000  0.00436256  0.96308035  1
  O  O10  1  0.00000000  0.51812522  0.44373932  1
  O  O11  1  0.50000000  0.51311928  0.96469614  1
  O  O12  1  0.73156724  0.25902726  0.71859511  1
  O  O13  1  0.24828636  0.25860830  0.21009715  1
  O  O14  1  0.74560391  0.75843429  0.71737957  1
  O  O15  1  0.25181751  0.75904748  0.20943306  1
  O  O16  1  0.26843276  0.25902726  0.71859511  1
  O  O17  1  0.75171364  0.25860830  0.21009715  1
  O  O18  1  0.25439609  0.75843429  0.71737957  1
  O  O19  1  0.74818249  0.75904748  0.20943306  1
