# generated using pymatgen
data_Li7Eu3(MoO4)8
_symmetry_space_group_name_H-M   'P 1'
_cell_length_a   6.91769695
_cell_length_b   10.86496273
_cell_length_c   10.09948523
_cell_angle_alpha   113.64232153
_cell_angle_beta   105.24146019
_cell_angle_gamma   83.84614123
_symmetry_Int_Tables_number   1
_chemical_formula_structural   Li7Eu3(MoO4)8
_chemical_formula_sum   'Li7 Eu3 Mo8 O32'
_cell_volume   670.91035304
_cell_formula_units_Z   1
loop_
 _symmetry_equiv_pos_site_id
 _symmetry_equiv_pos_as_xyz
  1  'x, y, z'
loop_
 _atom_site_type_symbol
 _atom_site_label
 _atom_site_symmetry_multiplicity
 _atom_site_fract_x
 _atom_site_fract_y
 _atom_site_fract_z
 _atom_site_occupancy
  Li  Li0  1  0.19731795  0.13019685  0.60252904  1
  Li  Li1  1  0.69775626  0.12993603  0.10193940  1
  Li  Li2  1  0.30257514  0.86990434  0.89790114  1
  Li  Li3  1  0.80396191  0.86702924  0.39566641  1
  Li  Li4  1  0.24984412  0.99932598  0.24978165  1
  Li  Li5  1  0.75003878  0.99996565  0.75001183  1
  Li  Li6  1  0.97805451  0.56212362  0.20497548  1
  Eu  Eu7  1  0.47583000  0.56152432  0.70500099  1
  Eu  Eu8  1  0.52116334  0.44199793  0.29356486  1
  Eu  Eu9  1  0.02444133  0.44035278  0.79977925  1
  Mo  Mo10  1  0.09071371  0.31976789  0.39099885  1
  Mo  Mo11  1  0.59453414  0.31917395  0.89366079  1
  Mo  Mo12  1  0.40739737  0.68100560  0.10831575  1
  Mo  Mo13  1  0.90830107  0.68183138  0.60667137  1
  Mo  Mo14  1  0.36414535  0.80125774  0.51813710  1
  Mo  Mo15  1  0.86559860  0.80117821  0.02156018  1
  Mo  Mo16  1  0.13447106  0.19870690  0.98114351  1
  Mo  Mo17  1  0.63431537  0.19777966  0.47988321  1
  O  O18  1  0.69532623  0.93147011  0.00712337  1
  O  O19  1  0.19356938  0.93185439  0.50625546  1
  O  O20  1  0.80515819  0.06824314  0.49308329  1
  O  O21  1  0.30532670  0.06822530  0.99330079  1
  O  O22  1  0.33622004  0.40484061  0.45141278  1
  O  O23  1  0.83257483  0.40305144  0.94930186  1
  O  O24  1  0.16685502  0.59653303  0.04823758  1
  O  O25  1  0.66520726  0.59493361  0.54875993  1
  O  O26  1  0.14183217  0.22605012  0.81514901  1
  O  O27  1  0.64166826  0.22470268  0.31522648  1
  O  O28  1  0.35798493  0.77408404  0.68447988  1
  O  O29  1  0.85670437  0.77701087  0.18413641  1
  O  O30  1  0.39882254  0.42745415  0.83409102  1
  O  O31  1  0.89768439  0.42599370  0.33644501  1
  O  O32  1  0.10279405  0.57256496  0.66576703  1
  O  O33  1  0.59750785  0.57244106  0.16468076  1
  O  O34  1  0.31099936  0.64412578  0.35328329  1
  O  O35  1  0.80842284  0.64114284  0.85037507  1
  O  O36  1  0.19302740  0.35394796  0.14728152  1
  O  O37  1  0.69086928  0.35739957  0.64777727  1
  O  O38  1  0.05223050  0.29201540  0.54726211  1
  O  O39  1  0.55187280  0.29120267  0.04801953  1
  O  O40  1  0.44840316  0.70834027  0.95155462  1
  O  O41  1  0.94837759  0.70783148  0.45389179  1
  O  O42  1  0.11074462  0.86301525  0.05373235  1
  O  O43  1  0.61055246  0.86221445  0.55327979  1
  O  O44  1  0.38994442  0.13695736  0.44661089  1
  O  O45  1  0.88866885  0.13760436  0.94706786  1
  O  O46  1  0.06477499  0.16128339  0.24039073  1
  O  O47  1  0.56697805  0.16185157  0.74096614  1
  O  O48  1  0.43375056  0.83941304  0.26012618  1
  O  O49  1  0.93468691  0.83914331  0.75940939  1
