# generated using pymatgen
data_Lu2ScV3O9
_symmetry_space_group_name_H-M   'P 1'
_cell_length_a   5.20747172
_cell_length_b   5.61375749
_cell_length_c   22.77102294
_cell_angle_alpha   90.00000000
_cell_angle_beta   90.00000000
_cell_angle_gamma   89.98996682
_symmetry_Int_Tables_number   1
_chemical_formula_structural   Lu2ScV3O9
_chemical_formula_sum   'Lu8 Sc4 V12 O36'
_cell_volume   665.67631045
_cell_formula_units_Z   4
loop_
 _symmetry_equiv_pos_site_id
 _symmetry_equiv_pos_as_xyz
  1  'x, y, z'
loop_
 _atom_site_type_symbol
 _atom_site_label
 _atom_site_symmetry_multiplicity
 _atom_site_fract_x
 _atom_site_fract_y
 _atom_site_fract_z
 _atom_site_occupancy
  Lu  Lu0  1  0.97838880  0.07085783  0.41676727  1
  Lu  Lu1  1  0.97838880  0.07085783  0.74989973  1
  Lu  Lu2  1  0.47600734  0.42912344  0.25009830  1
  Lu  Lu3  1  0.47673930  0.42880005  0.58333300  1
  Lu  Lu4  1  0.47600734  0.42912344  0.91656870  1
  Lu  Lu5  1  0.02371904  0.92857567  0.24980486  1
  Lu  Lu6  1  0.02400530  0.92735197  0.58333300  1
  Lu  Lu7  1  0.02371904  0.92857567  0.91686214  1
  Sc  Sc8  1  0.51855972  0.56343686  0.08333300  1
  Sc  Sc9  1  0.51956229  0.56713585  0.41678578  1
  Sc  Sc10  1  0.51956229  0.56713585  0.74988122  1
  Sc  Sc11  1  0.98179830  0.06361705  0.08333300  1
  V  V12  1  0.49907699  0.00064582  0.00159042  1
  V  V13  1  0.49947133  0.99838409  0.33393780  1
  V  V14  1  0.49961451  0.99839187  0.66731808  1
  V  V15  1  0.00124681  0.50024742  0.16511942  1
  V  V16  1  0.00039789  0.50138642  0.49935003  1
  V  V17  1  0.99980924  0.50197712  0.83272554  1
  V  V18  1  0.49907699  0.00064582  0.16507658  1
  V  V19  1  0.49961451  0.99839187  0.49934892  1
  V  V20  1  0.49947133  0.99838409  0.83272820  1
  V  V21  1  0.00124681  0.50024742  0.00154758  1
  V  V22  1  0.99980924  0.50197712  0.33394046  1
  V  V23  1  0.00039789  0.50138642  0.66731697  1
  O  O24  1  0.35629994  0.93459163  0.08333300  1
  O  O25  1  0.37020135  0.93276472  0.41669422  1
  O  O26  1  0.37020135  0.93276472  0.74997278  1
  O  O27  1  0.14416808  0.43413661  0.08333300  1
  O  O28  1  0.14400114  0.44592348  0.41672249  1
  O  O29  1  0.14400114  0.44592348  0.74994451  1
  O  O30  1  0.62996578  0.05607121  0.24957322  1
  O  O31  1  0.63065188  0.05626050  0.58333300  1
  O  O32  1  0.62996578  0.05607121  0.91709378  1
  O  O33  1  0.86985177  0.55487293  0.24954772  1
  O  O34  1  0.87044970  0.55323963  0.58333300  1
  O  O35  1  0.86985177  0.55487293  0.91711928  1
  O  O36  1  0.81536154  0.82174745  0.02411296  1
  O  O37  1  0.81058700  0.81466605  0.35545689  1
  O  O38  1  0.81047010  0.81404802  0.68874078  1
  O  O39  1  0.68488616  0.32190312  0.14252659  1
  O  O40  1  0.68535106  0.32080668  0.47626422  1
  O  O41  1  0.68545975  0.32091013  0.80949960  1
  O  O42  1  0.18977742  0.18683771  0.18848106  1
  O  O43  1  0.18867471  0.18529823  0.52130560  1
  O  O44  1  0.18848171  0.18555482  0.85450953  1
  O  O45  1  0.30871301  0.68734019  0.31106143  1
  O  O46  1  0.30918999  0.68706305  0.64431982  1
  O  O47  1  0.31039716  0.68674953  0.97815642  1
  O  O48  1  0.18848171  0.18555482  0.31215747  1
  O  O49  1  0.18867471  0.18529823  0.64536140  1
  O  O50  1  0.18977742  0.18683771  0.97818494  1
  O  O51  1  0.31039716  0.68674953  0.18850958  1
  O  O52  1  0.30918999  0.68706305  0.52234718  1
  O  O53  1  0.30871301  0.68734019  0.85560557  1
  O  O54  1  0.81536154  0.82174745  0.14255404  1
  O  O55  1  0.81047010  0.81404802  0.47792522  1
  O  O56  1  0.81058700  0.81466605  0.81121011  1
  O  O57  1  0.68488616  0.32190312  0.02414041  1
  O  O58  1  0.68545975  0.32091013  0.35716740  1
  O  O59  1  0.68535106  0.32080668  0.69040178  1
