# generated using pymatgen
data_Eu
_symmetry_space_group_name_H-M   'P 1'
_cell_length_a   6.66339854
_cell_length_b   7.18804025
_cell_length_c   7.18804063
_cell_angle_alpha   110.90225808
_cell_angle_beta   107.99921333
_cell_angle_gamma   107.99921431
_symmetry_Int_Tables_number   1
_chemical_formula_structural   Eu
_chemical_formula_sum   Eu6
_cell_volume   269.68946199
_cell_formula_units_Z   6
loop_
 _symmetry_equiv_pos_site_id
 _symmetry_equiv_pos_as_xyz
  1  'x, y, z'
loop_
 _atom_site_type_symbol
 _atom_site_label
 _atom_site_symmetry_multiplicity
 _atom_site_fract_x
 _atom_site_fract_y
 _atom_site_fract_z
 _atom_site_occupancy
  Eu  Eu0  1  0.93680865  0.18680865  0.37361730  1
  Eu  Eu1  1  0.56319135  0.62638270  0.81319135  1
  Eu  Eu2  1  0.75000000  0.18680865  0.81319135  1
  Eu  Eu3  1  0.43680865  0.37361730  0.18680865  1
  Eu  Eu4  1  0.25000000  0.81319135  0.18680865  1
  Eu  Eu5  1  0.06319135  0.81319135  0.62638270  1
