# generated using pymatgen
data_La2MnFeSe2O3
_symmetry_space_group_name_H-M   'P 1'
_cell_length_a   4.19444586
_cell_length_b   4.13210108
_cell_length_c   9.96071199
_cell_angle_alpha   78.02880491
_cell_angle_beta   77.84544697
_cell_angle_gamma   90.00000000
_symmetry_Int_Tables_number   1
_chemical_formula_structural   La2MnFeSe2O3
_chemical_formula_sum   'La2 Mn1 Fe1 Se2 O3'
_cell_volume   164.92521893
_cell_formula_units_Z   1
loop_
 _symmetry_equiv_pos_site_id
 _symmetry_equiv_pos_as_xyz
  1  'x, y, z'
loop_
 _atom_site_type_symbol
 _atom_site_label
 _atom_site_symmetry_multiplicity
 _atom_site_fract_x
 _atom_site_fract_y
 _atom_site_fract_z
 _atom_site_occupancy
  La  La0  1  0.68737674  0.68737674  0.62524651  1
  La  La1  1  0.31262326  0.31262326  0.37475349  1
  Mn  Mn2  1  0.50000000  0.00000000  0.00000000  1
  Fe  Fe3  1  0.00000000  0.50000000  0.00000000  1
  Se  Se4  1  0.09980014  0.09980014  0.80039971  1
  Se  Se5  1  0.90019986  0.90019986  0.19960029  1
  O  O6  1  0.50000000  0.50000000  0.00000000  1
  O  O7  1  0.24996640  0.74996640  0.50006720  1
  O  O8  1  0.75003360  0.25003360  0.49993280  1
