# generated using pymatgen
data_Li2TiO3
_symmetry_space_group_name_H-M   'P 1'
_cell_length_a   2.94735393
_cell_length_b   3.98729655
_cell_length_c   5.16987378
_cell_angle_alpha   67.31727361
_cell_angle_beta   73.43809898
_cell_angle_gamma   90.00000000
_symmetry_Int_Tables_number   1
_chemical_formula_structural   Li2TiO3
_chemical_formula_sum   'Li2 Ti1 O3'
_cell_volume   53.31465082
_cell_formula_units_Z   1
loop_
 _symmetry_equiv_pos_site_id
 _symmetry_equiv_pos_as_xyz
  1  'x, y, z'
loop_
 _atom_site_type_symbol
 _atom_site_label
 _atom_site_symmetry_multiplicity
 _atom_site_fract_x
 _atom_site_fract_y
 _atom_site_fract_z
 _atom_site_occupancy
  Li  Li0  1  0.32999549  0.32999549  0.34000802  1
  Li  Li1  1  0.67000451  0.67000451  0.65999198  1
  Ti  Ti2  1  -0.00000000  -0.00000000  0.00000000  1
  O  O3  1  -0.00000000  0.50000000  0.00000000  1
  O  O4  1  0.35234544  0.85234544  0.29530813  1
  O  O5  1  0.64765456  0.14765456  0.70469187  1
