# generated using pymatgen
data_La4Cu5Sb8
_symmetry_space_group_name_H-M   'P 1'
_cell_length_a   4.46674111
_cell_length_b   4.46670859
_cell_length_c   20.79843205
_cell_angle_alpha   89.99994759
_cell_angle_beta   90.00008908
_cell_angle_gamma   90.00018792
_symmetry_Int_Tables_number   1
_chemical_formula_structural   La4Cu5Sb8
_chemical_formula_sum   'La4 Cu5 Sb8'
_cell_volume   414.96263925
_cell_formula_units_Z   1
loop_
 _symmetry_equiv_pos_site_id
 _symmetry_equiv_pos_as_xyz
  1  'x, y, z'
loop_
 _atom_site_type_symbol
 _atom_site_label
 _atom_site_symmetry_multiplicity
 _atom_site_fract_x
 _atom_site_fract_y
 _atom_site_fract_z
 _atom_site_occupancy
  La  La0  1  0.74999990  0.74999991  0.37594278  1
  La  La1  1  0.75000101  0.75000110  0.87150453  1
  La  La2  1  0.24999983  0.25000063  0.12505078  1
  La  La3  1  0.25000181  0.24999960  0.62545232  1
  Cu  Cu4  1  0.75000028  0.25000097  0.25029188  1
  Cu  Cu5  1  0.74999957  0.25000038  0.75002586  1
  Cu  Cu6  1  0.25000071  0.75000052  0.25029337  1
  Cu  Cu7  1  0.25000005  0.75000092  0.75002505  1
  Cu  Cu8  1  0.74999900  0.74999672  0.06489656  1
  Sb  Sb9  1  0.74999928  0.24999971  0.99583754  1
  Sb  Sb10  1  0.74999986  0.25000035  0.50016751  1
  Sb  Sb11  1  0.24999932  0.74999991  0.99583761  1
  Sb  Sb12  1  0.24999981  0.74999963  0.50016749  1
  Sb  Sb13  1  0.74999978  0.75000002  0.18459062  1
  Sb  Sb14  1  0.75000062  0.74999946  0.67728807  1
  Sb  Sb15  1  0.24999984  0.25000010  0.32336581  1
  Sb  Sb16  1  0.24999932  0.25000007  0.82306221  1
