# generated using pymatgen
data_La4Mg
_symmetry_space_group_name_H-M   'P 1'
_cell_length_a   3.81214551
_cell_length_b   3.81214551
_cell_length_c   12.21842593
_cell_angle_alpha   98.96683808
_cell_angle_beta   98.96683808
_cell_angle_gamma   90.05034747
_symmetry_Int_Tables_number   1
_chemical_formula_structural   La4Mg
_chemical_formula_sum   'La4 Mg1'
_cell_volume   173.19244857
_cell_formula_units_Z   1
loop_
 _symmetry_equiv_pos_site_id
 _symmetry_equiv_pos_as_xyz
  1  'x, y, z'
loop_
 _atom_site_type_symbol
 _atom_site_label
 _atom_site_symmetry_multiplicity
 _atom_site_fract_x
 _atom_site_fract_y
 _atom_site_fract_z
 _atom_site_occupancy
  La  La0  1  0.58841486  0.58841486  0.17682971  1
  La  La1  1  0.19386716  0.19386716  0.38773431  1
  La  La2  1  0.80613284  0.80613284  0.61226569  1
  La  La3  1  0.41158514  0.41158514  0.82317029  1
  Mg  Mg4  1  0.00000000  -0.00000000  0.00000000  1
