# generated using pymatgen
data_La3ScAl8
_symmetry_space_group_name_H-M   'P 1'
_cell_length_a   5.65500620
_cell_length_b   5.65500620
_cell_length_c   9.89032752
_cell_angle_alpha   106.61179771
_cell_angle_beta   73.38820229
_cell_angle_gamma   120.00000000
_symmetry_Int_Tables_number   1
_chemical_formula_structural   La3ScAl8
_chemical_formula_sum   'La3 Sc1 Al8'
_cell_volume   258.55481078
_cell_formula_units_Z   1
loop_
 _symmetry_equiv_pos_site_id
 _symmetry_equiv_pos_as_xyz
  1  'x, y, z'
loop_
 _atom_site_type_symbol
 _atom_site_label
 _atom_site_symmetry_multiplicity
 _atom_site_fract_x
 _atom_site_fract_y
 _atom_site_fract_z
 _atom_site_occupancy
  La  La0  1  0.37457052  0.62542948  0.87628845  1
  La  La1  1  0.99931535  0.00068465  0.00205394  1
  La  La2  1  0.50055495  0.49944505  0.49833515  1
  Sc  Sc3  1  0.87490267  0.12509733  0.37529199  1
  Al  Al4  1  0.43597907  0.56402093  0.19334813  1
  Al  Al5  1  0.93856977  0.06143023  0.68093041  1
  Al  Al6  1  0.43597907  0.06530627  0.19334813  1
  Al  Al7  1  0.93856977  0.55806995  0.68093041  1
  Al  Al8  1  0.18792620  0.81207380  0.43622139  1
  Al  Al9  1  0.68700885  0.31299115  0.93897345  1
  Al  Al10  1  0.93469373  0.56402093  0.19334813  1
  Al  Al11  1  0.44193005  0.06143023  0.68093041  1
