# generated using pymatgen
data_LiNbWO6
_symmetry_space_group_name_H-M   'P 1'
_cell_length_a   5.28185611
_cell_length_b   5.28185611
_cell_length_c   5.50751916
_cell_angle_alpha   61.34638465
_cell_angle_beta   61.34638466
_cell_angle_gamma   59.99999009
_symmetry_Int_Tables_number   1
_chemical_formula_structural   LiNbWO6
_chemical_formula_sum   'Li1 Nb1 W1 O6'
_cell_volume   110.80485451
_cell_formula_units_Z   1
loop_
 _symmetry_equiv_pos_site_id
 _symmetry_equiv_pos_as_xyz
  1  'x, y, z'
loop_
 _atom_site_type_symbol
 _atom_site_label
 _atom_site_symmetry_multiplicity
 _atom_site_fract_x
 _atom_site_fract_y
 _atom_site_fract_z
 _atom_site_occupancy
  Li  Li0  1  0.21540856  0.21540856  0.35377432  1
  Nb  Nb1  1  0.48433958  0.48433958  0.54698126  1
  W  W2  1  0.98587237  0.98587237  0.04238289  1
  O  O3  1  0.15693686  0.32624264  0.75753851  1
  O  O4  1  0.32624264  0.75928199  0.75753851  1
  O  O5  1  0.75928199  0.15693686  0.75753851  1
  O  O6  1  0.63488844  0.24148588  0.25508200  1
  O  O7  1  0.24148588  0.86854369  0.25508200  1
  O  O8  1  0.86854369  0.63488844  0.25508200  1
