# generated using pymatgen
data_KBaV2CuClO7
_symmetry_space_group_name_H-M   'P 1'
_cell_length_a   5.62039654
_cell_length_b   8.99480222
_cell_length_c   8.99480222
_cell_angle_alpha   90.99019307
_cell_angle_beta   90.00000000
_cell_angle_gamma   90.00000000
_symmetry_Int_Tables_number   1
_chemical_formula_structural   KBaV2CuClO7
_chemical_formula_sum   'K2 Ba2 V4 Cu2 Cl2 O14'
_cell_volume   454.65852171
_cell_formula_units_Z   2
loop_
 _symmetry_equiv_pos_site_id
 _symmetry_equiv_pos_as_xyz
  1  'x, y, z'
loop_
 _atom_site_type_symbol
 _atom_site_label
 _atom_site_symmetry_multiplicity
 _atom_site_fract_x
 _atom_site_fract_y
 _atom_site_fract_z
 _atom_site_occupancy
  K  K0  1  0.16743112  0.82721562  0.32721562  1
  K  K1  1  0.16743112  0.17278438  0.67278438  1
  Ba  Ba2  1  0.16168630  0.67866758  0.82133242  1
  Ba  Ba3  1  0.16168630  0.32133242  0.17866758  1
  V  V4  1  0.69995281  0.63266373  0.13266373  1
  V  V5  1  0.69995281  0.36733627  0.86733627  1
  V  V6  1  0.70029448  0.86879285  0.63120715  1
  V  V7  1  0.70029448  0.13120715  0.36879285  1
  Cu  Cu8  1  0.77551167  0.50000000  0.50000000  1
  Cu  Cu9  1  0.77551167  0.00000000  0.00000000  1
  Cl  Cl10  1  0.30753147  0.50000000  0.50000000  1
  Cl  Cl11  1  0.30753147  0.00000000  0.00000000  1
  O  O12  1  0.39822653  0.61899305  0.11899305  1
  O  O13  1  0.39822653  0.38100695  0.88100695  1
  O  O14  1  0.39912740  0.86997333  0.63002667  1
  O  O15  1  0.39912740  0.13002667  0.36997333  1
  O  O16  1  0.81374445  0.58490024  0.30263929  1
  O  O17  1  0.81374445  0.41509976  0.69736071  1
  O  O18  1  0.81823558  0.90857568  0.80472683  1
  O  O19  1  0.81823558  0.09142432  0.19527317  1
  O  O20  1  0.81823558  0.30472683  0.40857568  1
  O  O21  1  0.81823558  0.69527317  0.59142432  1
  O  O22  1  0.81374445  0.80263929  0.08490024  1
  O  O23  1  0.81374445  0.19736071  0.91509976  1
  O  O24  1  0.84235168  0.50000000  0.00000000  1
  O  O25  1  0.82820464  0.00000000  0.50000000  1
