# generated using pymatgen
data_La2AlGe3
_symmetry_space_group_name_H-M   'P 1'
_cell_length_a   4.45609993
_cell_length_b   4.32710766
_cell_length_c   8.10589133
_cell_angle_alpha   74.51944765
_cell_angle_beta   74.04585333
_cell_angle_gamma   90.00000000
_symmetry_Int_Tables_number   1
_chemical_formula_structural   La2AlGe3
_chemical_formula_sum   'La2 Al1 Ge3'
_cell_volume   144.37112501
_cell_formula_units_Z   1
loop_
 _symmetry_equiv_pos_site_id
 _symmetry_equiv_pos_as_xyz
  1  'x, y, z'
loop_
 _atom_site_type_symbol
 _atom_site_label
 _atom_site_symmetry_multiplicity
 _atom_site_fract_x
 _atom_site_fract_y
 _atom_site_fract_z
 _atom_site_occupancy
  La  La0  1  0.87159450  0.62159450  0.25681100  1
  La  La1  1  0.12810051  0.37810051  0.74379897  1
  Al  Al2  1  0.54188303  0.79188303  0.91623393  1
  Ge  Ge3  1  0.29085815  0.04085815  0.41828370  1
  Ge  Ge4  1  0.45952761  0.20952761  0.08094477  1
  Ge  Ge5  1  0.70803619  0.95803619  0.58392762  1
