# generated using pymatgen
data_La3ZnCuRh2PbO12
_symmetry_space_group_name_H-M   'P 1'
_cell_length_a   5.59285611
_cell_length_b   5.74425563
_cell_length_c   7.94023610
_cell_angle_alpha   89.47626240
_cell_angle_beta   89.73313523
_cell_angle_gamma   90.63721024
_symmetry_Int_Tables_number   1
_chemical_formula_structural   La3ZnCuRh2PbO12
_chemical_formula_sum   'La3 Zn1 Cu1 Rh2 Pb1 O12'
_cell_volume   255.06501774
_cell_formula_units_Z   1
loop_
 _symmetry_equiv_pos_site_id
 _symmetry_equiv_pos_as_xyz
  1  'x, y, z'
loop_
 _atom_site_type_symbol
 _atom_site_label
 _atom_site_symmetry_multiplicity
 _atom_site_fract_x
 _atom_site_fract_y
 _atom_site_fract_z
 _atom_site_occupancy
  La  La0  1  0.48685509  0.94802315  0.24920586  1
  La  La1  1  0.98634049  0.55431417  0.74985409  1
  La  La2  1  0.51016821  0.05587180  0.75091523  1
  Zn  Zn3  1  0.99704531  0.00238864  0.49902400  1
  Cu  Cu4  1  0.50163740  0.49558355  0.00284572  1
  Rh  Rh5  1  0.50145323  0.49869579  0.49893690  1
  Rh  Rh6  1  0.99797622  0.99606312  0.00132729  1
  Pb  Pb7  1  0.00896970  0.44591160  0.25316540  1
  O  O8  1  0.91489198  0.04599903  0.24397003  1
  O  O9  1  0.60546159  0.52951175  0.25615839  1
  O  O10  1  0.09190565  0.96698303  0.75135022  1
  O  O11  1  0.40447341  0.47655024  0.74711261  1
  O  O12  1  0.19042617  0.70320056  0.05575970  1
  O  O13  1  0.31226304  0.20277387  0.45436515  1
  O  O14  1  0.79526022  0.30680613  0.54733757  1
  O  O15  1  0.69807436  0.79831274  0.95392770  1
  O  O16  1  0.80547237  0.28557111  0.94743644  1
  O  O17  1  0.69111685  0.79942514  0.54680990  1
  O  O18  1  0.20346780  0.68982990  0.44612939  1
  O  O19  1  0.29674091  0.19818468  0.04436843  1
