# generated using pymatgen
data_Ho(CrFe5)2
_symmetry_space_group_name_H-M   'P 1'
_cell_length_a   4.67471270
_cell_length_b   6.38185961
_cell_length_c   6.38185961
_cell_angle_alpha   97.32051119
_cell_angle_beta   111.48453269
_cell_angle_gamma   68.51546731
_symmetry_Int_Tables_number   1
_chemical_formula_structural   Ho(CrFe5)2
_chemical_formula_sum   'Ho1 Cr2 Fe10'
_cell_volume   164.84829939
_cell_formula_units_Z   1
loop_
 _symmetry_equiv_pos_site_id
 _symmetry_equiv_pos_as_xyz
  1  'x, y, z'
loop_
 _atom_site_type_symbol
 _atom_site_label
 _atom_site_symmetry_multiplicity
 _atom_site_fract_x
 _atom_site_fract_y
 _atom_site_fract_z
 _atom_site_occupancy
  Ho  Ho0  1  -0.00000000  -0.00000000  -0.00000000  1
  Cr  Cr1  1  0.00000000  0.36770891  0.36770891  1
  Cr  Cr2  1  -0.00000000  0.63229109  0.63229109  1
  Fe  Fe3  1  0.72518573  0.77481427  0.22518573  1
  Fe  Fe4  1  0.27481427  0.22518573  0.77481427  1
  Fe  Fe5  1  0.50000000  0.77213734  0.77213734  1
  Fe  Fe6  1  0.50000000  0.22786266  0.22786266  1
  Fe  Fe7  1  0.50000000  -0.00000000  0.50000000  1
  Fe  Fe8  1  -0.00000000  -0.00000000  0.50000000  1
  Fe  Fe9  1  0.50000000  0.50000000  -0.00000000  1
  Fe  Fe10  1  -0.00000000  0.50000000  -0.00000000  1
  Fe  Fe11  1  0.64096451  0.35903549  0.64096451  1
  Fe  Fe12  1  0.35903549  0.64096451  0.35903549  1
