# generated using pymatgen
data_Al2ZnS4
_symmetry_space_group_name_H-M   'P 1'
_cell_length_a   3.68801734
_cell_length_b   3.68801734
_cell_length_c   12.44488721
_cell_angle_alpha   81.47887711
_cell_angle_beta   81.47887711
_cell_angle_gamma   60.00000244
_symmetry_Int_Tables_number   1
_chemical_formula_structural   Al2ZnS4
_chemical_formula_sum   'Al2 Zn1 S4'
_cell_volume   144.42947614
_cell_formula_units_Z   1
loop_
 _symmetry_equiv_pos_site_id
 _symmetry_equiv_pos_as_xyz
  1  'x, y, z'
loop_
 _atom_site_type_symbol
 _atom_site_label
 _atom_site_symmetry_multiplicity
 _atom_site_fract_x
 _atom_site_fract_y
 _atom_site_fract_z
 _atom_site_occupancy
  Al  Al0  1  0.00075760  0.00075760  0.99772721  1
  Al  Al1  1  0.23468979  0.23468979  0.29593062  1
  Zn  Zn2  1  0.76917558  0.76917558  0.69247325  1
  S  S3  1  0.12151822  0.12151822  0.63544535  1
  S  S4  1  0.87653023  0.87653023  0.37040930  1
  S  S5  1  0.69782857  0.69782857  0.90651428  1
  S  S6  1  0.29550000  0.29550000  0.11349999  1
