# generated using pymatgen
data_KNaTi4(BiO6)2
_symmetry_space_group_name_H-M   'P 1'
_cell_length_a   5.76605210
_cell_length_b   7.77402268
_cell_length_c   5.76605210
_cell_angle_alpha   90.00000000
_cell_angle_beta   84.84168275
_cell_angle_gamma   90.00000000
_symmetry_Int_Tables_number   1
_chemical_formula_structural   KNaTi4(BiO6)2
_chemical_formula_sum   'K1 Na1 Ti4 Bi2 O12'
_cell_volume   257.41893797
_cell_formula_units_Z   1
loop_
 _symmetry_equiv_pos_site_id
 _symmetry_equiv_pos_as_xyz
  1  'x, y, z'
loop_
 _atom_site_type_symbol
 _atom_site_label
 _atom_site_symmetry_multiplicity
 _atom_site_fract_x
 _atom_site_fract_y
 _atom_site_fract_z
 _atom_site_occupancy
  K  K0  1  0.98492632  0.50000000  0.98492632  1
  Na  Na1  1  0.46744907  -0.00000000  0.46744907  1
  Ti  Ti2  1  0.47756684  0.24741266  0.97757696  1
  Ti  Ti3  1  0.97757696  0.24741266  0.47756684  1
  Ti  Ti4  1  0.47756684  0.75258734  0.97757696  1
  Ti  Ti5  1  0.97757696  0.75258734  0.47756684  1
  Bi  Bi6  1  0.93092849  -0.00000000  0.93092849  1
  Bi  Bi7  1  0.42799465  0.50000000  0.42799465  1
  O  O8  1  0.27584426  0.25651954  0.27584426  1
  O  O9  1  0.77209467  0.23723185  0.77209467  1
  O  O10  1  0.27584426  0.74348046  0.27584426  1
  O  O11  1  0.77209467  0.76276815  0.77209467  1
  O  O12  1  0.53262501  -0.00000000  0.02203845  1
  O  O13  1  0.02203845  -0.00000000  0.53262501  1
  O  O14  1  0.50973513  0.50000000  0.03329148  1
  O  O15  1  0.03329148  0.50000000  0.50973513  1
  O  O16  1  0.27267744  0.24482880  0.77074554  1
  O  O17  1  0.77074554  0.24482880  0.27267744  1
  O  O18  1  0.27267744  0.75517120  0.77074554  1
  O  O19  1  0.77074554  0.75517120  0.27267744  1
