# generated using pymatgen
data_KCSN
_symmetry_space_group_name_H-M   'P 1'
_cell_length_a   6.20145171
_cell_length_b   6.20145171
_cell_length_c   6.20145171
_cell_angle_alpha   66.04243650
_cell_angle_beta   65.95229830
_cell_angle_gamma   100.74527502
_symmetry_Int_Tables_number   1
_chemical_formula_structural   KCSN
_chemical_formula_sum   'K2 C2 S2 N2'
_cell_volume   180.47026439
_cell_formula_units_Z   2
loop_
 _symmetry_equiv_pos_site_id
 _symmetry_equiv_pos_as_xyz
  1  'x, y, z'
loop_
 _atom_site_type_symbol
 _atom_site_label
 _atom_site_symmetry_multiplicity
 _atom_site_fract_x
 _atom_site_fract_y
 _atom_site_fract_z
 _atom_site_occupancy
  K  K0  1  0.74974535  0.75000000  0.00025465  1
  K  K1  1  0.24974535  0.25000000  0.00025465  1
  C  C2  1  0.97670095  0.47716950  0.54612955  1
  C  C3  1  0.47670095  0.02283050  0.50046855  1
  S  S4  1  0.14835322  0.64957692  0.20206986  1
  S  S5  1  0.64835322  0.85042308  0.50122370  1
  N  N6  1  0.85100048  0.35441111  0.79458841  1
  N  N7  1  0.35100048  0.14558889  0.50341063  1
