# generated using pymatgen
data_La5(MoO4)4
_symmetry_space_group_name_H-M   'P 1'
_cell_length_a   5.72394727
_cell_length_b   5.72035133
_cell_length_c   10.56720597
_cell_angle_alpha   94.06181415
_cell_angle_beta   93.48537132
_cell_angle_gamma   90.15754986
_symmetry_Int_Tables_number   1
_chemical_formula_structural   La5(MoO4)4
_chemical_formula_sum   'La5 Mo4 O16'
_cell_volume   344.48580471
_cell_formula_units_Z   1
loop_
 _symmetry_equiv_pos_site_id
 _symmetry_equiv_pos_as_xyz
  1  'x, y, z'
loop_
 _atom_site_type_symbol
 _atom_site_label
 _atom_site_symmetry_multiplicity
 _atom_site_fract_x
 _atom_site_fract_y
 _atom_site_fract_z
 _atom_site_occupancy
  La  La0  1  0.02896807  0.51770692  0.20422213  1
  La  La1  1  0.51399570  0.03278757  0.21639042  1
  La  La2  1  0.97103193  0.48229308  0.79577787  1
  La  La3  1  0.48600430  0.96721243  0.78360958  1
  La  La4  1  -0.00000000  -0.00000000  0.50000000  1
  Mo  Mo5  1  0.55860804  0.55767229  0.39473862  1
  Mo  Mo6  1  0.44139196  0.44232771  0.60526138  1
  Mo  Mo7  1  -0.00000000  -0.00000000  0.00000000  1
  Mo  Mo8  1  0.50000000  0.50000000  0.00000000  1
  O  O9  1  0.44990119  0.44835320  0.19553680  1
  O  O10  1  0.55009881  0.55164680  0.80446320  1
  O  O11  1  0.31060411  0.30843710  0.43533084  1
  O  O12  1  0.68939589  0.69156290  0.56466916  1
  O  O13  1  0.08855649  0.08016779  0.17530726  1
  O  O14  1  0.91144351  0.91983221  0.82469274  1
  O  O15  1  0.77787019  0.29963508  0.36020617  1
  O  O16  1  0.30219758  0.77809022  0.36111660  1
  O  O17  1  0.22212981  0.70036492  0.63979383  1
  O  O18  1  0.69780242  0.22190978  0.63888340  1
  O  O19  1  0.78776128  0.78166189  0.32611029  1
  O  O20  1  0.21223872  0.21833811  0.67388971  1
  O  O21  1  0.81757868  0.30578398  0.99707857  1
  O  O22  1  0.18242132  0.69421602  0.00292143  1
  O  O23  1  0.28901667  0.18553862  0.95026554  1
  O  O24  1  0.71098333  0.81446138  0.04973446  1
