# generated using pymatgen
data_EuAl3Si
_symmetry_space_group_name_H-M   'P 1'
_cell_length_a   4.34517429
_cell_length_b   4.34517429
_cell_length_c   6.23929919
_cell_angle_alpha   69.62212272
_cell_angle_beta   69.62212272
_cell_angle_gamma   90.00000000
_symmetry_Int_Tables_number   1
_chemical_formula_structural   EuAl3Si
_chemical_formula_sum   'Eu1 Al3 Si1'
_cell_volume   102.52773569
_cell_formula_units_Z   1
loop_
 _symmetry_equiv_pos_site_id
 _symmetry_equiv_pos_as_xyz
  1  'x, y, z'
loop_
 _atom_site_type_symbol
 _atom_site_label
 _atom_site_symmetry_multiplicity
 _atom_site_fract_x
 _atom_site_fract_y
 _atom_site_fract_z
 _atom_site_occupancy
  Eu  Eu0  1  0.00142795  0.00142795  0.99714410  1
  Al  Al1  1  0.74844417  0.24844417  0.50311166  1
  Al  Al2  1  0.24844417  0.74844417  0.50311166  1
  Al  Al3  1  0.38483232  0.38483232  0.23033535  1
  Si  Si4  1  0.61685138  0.61685138  0.76629723  1
