# generated using pymatgen
data_Ga3SiNi4
_symmetry_space_group_name_H-M   'P 1'
_cell_length_a   4.61005289
_cell_length_b   4.61005289
_cell_length_c   4.61005289
_cell_angle_alpha   89.08634777
_cell_angle_beta   90.91365223
_cell_angle_gamma   89.08634777
_symmetry_Int_Tables_number   1
_chemical_formula_structural   Ga3SiNi4
_chemical_formula_sum   'Ga3 Si1 Ni4'
_cell_volume   97.93778135
_cell_formula_units_Z   1
loop_
 _symmetry_equiv_pos_site_id
 _symmetry_equiv_pos_as_xyz
  1  'x, y, z'
loop_
 _atom_site_type_symbol
 _atom_site_label
 _atom_site_symmetry_multiplicity
 _atom_site_fract_x
 _atom_site_fract_y
 _atom_site_fract_z
 _atom_site_occupancy
  Ga  Ga0  1  0.34692136  0.65745430  0.15732556  1
  Ga  Ga1  1  0.65732556  0.15307864  0.34254570  1
  Ga  Ga2  1  0.84254570  0.84267444  0.84692136  1
  Si  Si3  1  0.15853937  0.34146063  0.65853937  1
  Ni  Ni4  1  0.86545630  0.63454370  0.36545630  1
  Ni  Ni5  1  0.64009373  0.35725443  0.84637241  1
  Ni  Ni6  1  0.34637241  0.85990627  0.64274557  1
  Ni  Ni7  1  0.14274557  0.15362759  0.14009373  1
