# generated using pymatgen
data_Ho3(Ga2Cu)2
_symmetry_space_group_name_H-M   'P 1'
_cell_length_a   4.31956782
_cell_length_b   4.31956782
_cell_length_c   21.98910227
_cell_angle_alpha   89.99834821
_cell_angle_beta   90.00165179
_cell_angle_gamma   120.02226029
_symmetry_Int_Tables_number   1
_chemical_formula_structural   Ho3(Ga2Cu)2
_chemical_formula_sum   'Ho6 Ga8 Cu4'
_cell_volume   355.23951221
_cell_formula_units_Z   2
loop_
 _symmetry_equiv_pos_site_id
 _symmetry_equiv_pos_as_xyz
  1  'x, y, z'
loop_
 _atom_site_type_symbol
 _atom_site_label
 _atom_site_symmetry_multiplicity
 _atom_site_fract_x
 _atom_site_fract_y
 _atom_site_fract_z
 _atom_site_occupancy
  Ho  Ho0  1  0.99996406  0.00003594  0.25640782  1
  Ho  Ho1  1  0.00003046  0.99996954  0.58932668  1
  Ho  Ho2  1  0.99996295  0.00003705  0.92201626  1
  Ho  Ho3  1  0.00000033  -0.00000033  0.07858898  1
  Ho  Ho4  1  0.99997989  0.00002011  0.41274891  1
  Ho  Ho5  1  0.00001845  0.99998155  0.74535707  1
  Ga  Ga6  1  0.33340606  0.66659394  0.33962485  1
  Ga  Ga7  1  0.33343672  0.66656328  0.67259112  1
  Ga  Ga8  1  0.33336011  0.66663989  0.15461240  1
  Ga  Ga9  1  0.33331327  0.66668673  0.48743880  1
  Ga  Ga10  1  0.33336317  0.66663683  0.81995647  1
  Ga  Ga11  1  0.66661053  0.33338947  0.18075102  1
  Ga  Ga12  1  0.66665492  0.33334508  0.51323099  1
  Ga  Ga13  1  0.66662353  0.33337647  0.84544560  1
  Cu  Cu14  1  0.66664740  0.33335260  0.32498876  1
  Cu  Cu15  1  0.66666881  0.33333119  0.65726616  1
  Cu  Cu16  1  0.66665696  0.33334304  0.99243460  1
  Cu  Cu17  1  0.33330236  0.66669764  0.00721351  1
