# generated using pymatgen
data_Hf10NiSb5
_symmetry_space_group_name_H-M   'P 1'
_cell_length_a   5.56438954
_cell_length_b   8.26079070
_cell_length_c   8.26079070
_cell_angle_alpha   96.51313673
_cell_angle_beta   109.68174101
_cell_angle_gamma   70.31825899
_symmetry_Int_Tables_number   1
_chemical_formula_structural   Hf10NiSb5
_chemical_formula_sum   'Hf10 Ni1 Sb5'
_cell_volume   336.64587444
_cell_formula_units_Z   1
loop_
 _symmetry_equiv_pos_site_id
 _symmetry_equiv_pos_as_xyz
  1  'x, y, z'
loop_
 _atom_site_type_symbol
 _atom_site_label
 _atom_site_symmetry_multiplicity
 _atom_site_fract_x
 _atom_site_fract_y
 _atom_site_fract_z
 _atom_site_occupancy
  Hf  Hf0  1  0.93255553  0.85863358  0.70852964  1
  Hf  Hf1  1  0.08265947  0.14136642  0.29147036  1
  Hf  Hf2  1  0.41734053  0.29147036  0.14136642  1
  Hf  Hf3  1  0.56744447  0.70852964  0.85863358  1
  Hf  Hf4  1  0.22402589  0.70852964  0.14136642  1
  Hf  Hf5  1  0.79118911  0.29147036  0.85863358  1
  Hf  Hf6  1  0.27597411  0.14136642  0.70852964  1
  Hf  Hf7  1  0.70881089  0.85863358  0.29147036  1
  Hf  Hf8  1  0.25000000  0.50000000  0.50000000  1
  Hf  Hf9  1  0.75000000  0.50000000  0.50000000  1
  Ni  Ni10  1  0.25000000  -0.00000000  -0.00000000  1
  Sb  Sb11  1  0.33510883  0.82978235  0.50000000  1
  Sb  Sb12  1  0.66489117  0.17021765  0.50000000  1
  Sb  Sb13  1  0.83510883  0.50000000  0.17021765  1
  Sb  Sb14  1  0.16489117  0.50000000  0.82978235  1
  Sb  Sb15  1  0.75000000  0.00000000  0.00000000  1
