# generated using pymatgen
data_Fe9B4Ir3
_symmetry_space_group_name_H-M   'P 1'
_cell_length_a   4.46856285
_cell_length_b   5.43959180
_cell_length_c   6.94478175
_cell_angle_alpha   90.00000000
_cell_angle_beta   90.00000000
_cell_angle_gamma   89.95576491
_symmetry_Int_Tables_number   1
_chemical_formula_structural   Fe9B4Ir3
_chemical_formula_sum   'Fe9 B4 Ir3'
_cell_volume   168.80785588
_cell_formula_units_Z   1
loop_
 _symmetry_equiv_pos_site_id
 _symmetry_equiv_pos_as_xyz
  1  'x, y, z'
loop_
 _atom_site_type_symbol
 _atom_site_label
 _atom_site_symmetry_multiplicity
 _atom_site_fract_x
 _atom_site_fract_y
 _atom_site_fract_z
 _atom_site_occupancy
  Fe  Fe0  1  0.35354545  0.67503713  0.06544140  1
  Fe  Fe1  1  0.14120604  0.18199878  0.43852462  1
  Fe  Fe2  1  0.64075798  0.32322685  0.55622245  1
  Fe  Fe3  1  0.85728531  0.82148997  0.94446752  1
  Fe  Fe4  1  0.64075798  0.32322685  0.94377755  1
  Fe  Fe5  1  0.85728531  0.82148997  0.55553248  1
  Fe  Fe6  1  0.35354545  0.67503713  0.43455860  1
  Fe  Fe7  1  0.14120604  0.18199878  0.06147538  1
  Fe  Fe8  1  0.87396622  0.52745202  0.25000000  1
  B  B9  1  0.08444460  0.88150099  0.25000000  1
  B  B10  1  0.42406314  0.38072107  0.25000000  1
  B  B11  1  0.91444981  0.11613818  0.75000000  1
  B  B12  1  0.58545044  0.61928386  0.75000000  1
  Ir  Ir13  1  0.63531310  0.02750868  0.25000000  1
  Ir  Ir14  1  0.12854419  0.47400992  0.75000000  1
  Ir  Ir15  1  0.36817893  0.96987981  0.75000000  1
