# generated using pymatgen
data_Hf4Ni3As8
_symmetry_space_group_name_H-M   'P 1'
_cell_length_a   3.83327653
_cell_length_b   3.83327653
_cell_length_c   17.43609953
_cell_angle_alpha   90.00000000
_cell_angle_beta   90.00000000
_cell_angle_gamma   90.00000000
_symmetry_Int_Tables_number   1
_chemical_formula_structural   Hf4Ni3As8
_chemical_formula_sum   'Hf4 Ni3 As8'
_cell_volume   256.20620264
_cell_formula_units_Z   1
loop_
 _symmetry_equiv_pos_site_id
 _symmetry_equiv_pos_as_xyz
  1  'x, y, z'
loop_
 _atom_site_type_symbol
 _atom_site_label
 _atom_site_symmetry_multiplicity
 _atom_site_fract_x
 _atom_site_fract_y
 _atom_site_fract_z
 _atom_site_occupancy
  Hf  Hf0  1  0.75000000  0.75000000  0.37730623  1
  Hf  Hf1  1  0.75000000  0.75000000  0.87998104  1
  Hf  Hf2  1  0.25000000  0.25000000  0.12269377  1
  Hf  Hf3  1  0.25000000  0.25000000  0.62001896  1
  Ni  Ni4  1  0.25000000  0.75000000  0.75000000  1
  Ni  Ni5  1  0.75000000  0.25000000  0.25000000  1
  Ni  Ni6  1  0.75000000  0.25000000  0.75000000  1
  As  As7  1  0.75000000  0.75000000  0.17609562  1
  As  As8  1  0.75000000  0.75000000  0.66748160  1
  As  As9  1  0.25000000  0.25000000  0.32390438  1
  As  As10  1  0.25000000  0.25000000  0.83251840  1
  As  As11  1  0.25000000  0.75000000  0.00104551  1
  As  As12  1  0.25000000  0.75000000  0.49895449  1
  As  As13  1  0.75000000  0.25000000  0.00087577  1
  As  As14  1  0.75000000  0.25000000  0.49912423  1
