# generated using pymatgen
data_GaNi4Ge3
_symmetry_space_group_name_H-M   'P 1'
_cell_length_a   3.81935103
_cell_length_b   4.88958113
_cell_length_c   6.12002597
_cell_angle_alpha   99.99858979
_cell_angle_beta   71.81795340
_cell_angle_gamma   89.99999974
_symmetry_Int_Tables_number   1
_chemical_formula_structural   GaNi4Ge3
_chemical_formula_sum   'Ga1 Ni4 Ge3'
_cell_volume   106.75644472
_cell_formula_units_Z   1
loop_
 _symmetry_equiv_pos_site_id
 _symmetry_equiv_pos_as_xyz
  1  'x, y, z'
loop_
 _atom_site_type_symbol
 _atom_site_label
 _atom_site_symmetry_multiplicity
 _atom_site_fract_x
 _atom_site_fract_y
 _atom_site_fract_z
 _atom_site_occupancy
  Ga  Ga0  1  0.42928584  0.28664036  0.14142832  1
  Ni  Ni1  1  0.00165795  0.99860427  0.99668410  1
  Ni  Ni2  1  0.20341977  0.66958546  0.59316045  1
  Ni  Ni3  1  0.79499880  0.33154517  0.41000241  1
  Ni  Ni4  1  0.00096292  0.50078585  0.99807416  1
  Ge  Ge5  1  0.56854082  0.71269790  0.86291835  1
  Ge  Ge6  1  0.18589178  0.17775053  0.62821645  1
  Ge  Ge7  1  0.81524211  0.82239045  0.36951577  1
