# generated using pymatgen
data_GdDyC4
_symmetry_space_group_name_H-M   'P 1'
_cell_length_a   4.07690522
_cell_length_b   4.07690522
_cell_length_c   5.24724620
_cell_angle_alpha   90.00000000
_cell_angle_beta   90.00000000
_cell_angle_gamma   80.01764203
_symmetry_Int_Tables_number   1
_chemical_formula_structural   GdDyC4
_chemical_formula_sum   'Gd1 Dy1 C4'
_cell_volume   85.89496150
_cell_formula_units_Z   1
loop_
 _symmetry_equiv_pos_site_id
 _symmetry_equiv_pos_as_xyz
  1  'x, y, z'
loop_
 _atom_site_type_symbol
 _atom_site_label
 _atom_site_symmetry_multiplicity
 _atom_site_fract_x
 _atom_site_fract_y
 _atom_site_fract_z
 _atom_site_occupancy
  Gd  Gd0  1  -0.00000000  0.00000000  -0.00000000  1
  Dy  Dy1  1  0.50000000  0.50000000  0.50000000  1
  C  C2  1  0.39596115  0.39596115  -0.00000000  1
  C  C3  1  0.89578565  0.89578565  0.50000000  1
  C  C4  1  0.10421435  0.10421435  0.50000000  1
  C  C5  1  0.60403885  0.60403885  0.00000000  1
