# generated using pymatgen
data_Hf20(FeSb3)3
_symmetry_space_group_name_H-M   'P 1'
_cell_length_a   5.54417471
_cell_length_b   8.23641516
_cell_length_c   15.53639588
_cell_angle_alpha   90.00000000
_cell_angle_beta   90.00000000
_cell_angle_gamma   109.66771741
_symmetry_Int_Tables_number   1
_chemical_formula_structural   Hf20(FeSb3)3
_chemical_formula_sum   'Hf20 Fe3 Sb9'
_cell_volume   668.06649171
_cell_formula_units_Z   1
loop_
 _symmetry_equiv_pos_site_id
 _symmetry_equiv_pos_as_xyz
  1  'x, y, z'
loop_
 _atom_site_type_symbol
 _atom_site_label
 _atom_site_symmetry_multiplicity
 _atom_site_fract_x
 _atom_site_fract_y
 _atom_site_fract_z
 _atom_site_occupancy
  Hf  Hf0  1  0.43579549  0.87136502  0.36511145  1
  Hf  Hf1  1  0.91919787  0.85945531  0.85488869  1
  Hf  Hf2  1  0.05974256  0.14054469  0.14511131  1
  Hf  Hf3  1  0.56443047  0.12863498  0.63488855  1
  Hf  Hf4  1  0.65494848  0.29067081  0.07049365  1
  Hf  Hf5  1  0.13414819  0.26656655  0.56388883  1
  Hf  Hf6  1  0.86758165  0.73343345  0.43611117  1
  Hf  Hf7  1  0.36427767  0.70932919  0.92950635  1
  Hf  Hf8  1  0.84505152  0.70932919  0.07049365  1
  Hf  Hf9  1  0.36585181  0.73343345  0.56388883  1
  Hf  Hf10  1  0.63241835  0.26656655  0.43611117  1
  Hf  Hf11  1  0.13572233  0.29067081  0.92950635  1
  Hf  Hf12  1  0.06420451  0.12863498  0.36511145  1
  Hf  Hf13  1  0.58080213  0.14054469  0.85488869  1
  Hf  Hf14  1  0.44025744  0.85945531  0.14511131  1
  Hf  Hf15  1  0.93556953  0.87136502  0.63488855  1
  Hf  Hf16  1  0.50021957  0.50038786  0.24928055  1
  Hf  Hf17  1  0.99983170  0.49961214  0.75071945  1
  Hf  Hf18  1  -0.00021957  0.49961214  0.24928055  1
  Hf  Hf19  1  0.50016830  0.50038786  0.75071945  1
  Fe  Fe20  1  0.75000000  0.00000000  0.50000000  1
  Fe  Fe21  1  0.75000000  0.00000000  -0.00000000  1
  Fe  Fe22  1  0.25000000  0.00000000  0.50000000  1
  Sb  Sb23  1  0.91610497  0.82889809  0.25023588  1
  Sb  Sb24  1  0.41279312  0.82889809  0.74976412  1
  Sb  Sb25  1  0.58389503  0.17110191  0.25023588  1
  Sb  Sb26  1  0.08720688  0.17110191  0.74976412  1
  Sb  Sb27  1  0.25000000  0.50000000  0.08541894  1
  Sb  Sb28  1  0.75000000  0.50000000  0.58592059  1
  Sb  Sb29  1  0.25000000  0.50000000  0.41407941  1
  Sb  Sb30  1  0.75000000  0.50000000  0.91458106  1
  Sb  Sb31  1  0.25000000  0.00000000  -0.00000000  1
