# generated using pymatgen
data_Cr2SiC
_symmetry_space_group_name_H-M   'P 1'
_cell_length_a   2.87437434
_cell_length_b   2.87437434
_cell_length_c   11.91389125
_cell_angle_alpha   90.00000000
_cell_angle_beta   90.00000000
_cell_angle_gamma   120.00030474
_symmetry_Int_Tables_number   1
_chemical_formula_structural   Cr2SiC
_chemical_formula_sum   'Cr4 Si2 C2'
_cell_volume   85.24513128
_cell_formula_units_Z   2
loop_
 _symmetry_equiv_pos_site_id
 _symmetry_equiv_pos_as_xyz
  1  'x, y, z'
loop_
 _atom_site_type_symbol
 _atom_site_label
 _atom_site_symmetry_multiplicity
 _atom_site_fract_x
 _atom_site_fract_y
 _atom_site_fract_z
 _atom_site_occupancy
  Cr  Cr0  1  0.66670073  0.33329927  0.58961971  1
  Cr  Cr1  1  0.33329927  0.66670073  0.41038029  1
  Cr  Cr2  1  0.33329927  0.66670073  0.08961971  1
  Cr  Cr3  1  0.66670073  0.33329927  0.91038029  1
  Si  Si4  1  0.66669631  0.33330369  0.25000000  1
  Si  Si5  1  0.33330369  0.66669631  0.75000000  1
  C  C6  1  0.00000000  -0.00000000  0.50000000  1
  C  C7  1  0.00000000  -0.00000000  -0.00000000  1
