# generated using pymatgen
data_CrFe11Si4
_symmetry_space_group_name_H-M   'P 1'
_cell_length_a   3.94932332
_cell_length_b   3.94932332
_cell_length_c   13.13160151
_cell_angle_alpha   90.00000000
_cell_angle_beta   81.35135393
_cell_angle_gamma   120.00000000
_symmetry_Int_Tables_number   1
_chemical_formula_structural   CrFe11Si4
_chemical_formula_sum   'Cr1 Fe11 Si4'
_cell_volume   174.68112054
_cell_formula_units_Z   1
loop_
 _symmetry_equiv_pos_site_id
 _symmetry_equiv_pos_as_xyz
  1  'x, y, z'
loop_
 _atom_site_type_symbol
 _atom_site_label
 _atom_site_symmetry_multiplicity
 _atom_site_fract_x
 _atom_site_fract_y
 _atom_site_fract_z
 _atom_site_occupancy
  Cr  Cr0  1  0.87500000  0.93750000  0.18750000  1
  Fe  Fe1  1  0.00052528  0.50026264  0.49921207  1
  Fe  Fe2  1  0.49979496  0.74989748  0.75030756  1
  Fe  Fe3  1  0.99796986  0.99898493  0.00304522  1
  Fe  Fe4  1  0.50165874  0.25082937  0.24751189  1
  Fe  Fe5  1  0.25020504  0.12510252  0.62469244  1
  Fe  Fe6  1  0.74947472  0.37473736  0.87578793  1
  Fe  Fe7  1  0.24834126  0.62417063  0.12748811  1
  Fe  Fe8  1  0.75203014  0.87601507  0.37195478  1
  Fe  Fe9  1  0.37391678  0.18695839  0.43912483  1
  Fe  Fe10  1  0.87500000  0.43750000  0.68750000  1
  Fe  Fe11  1  0.37608322  0.68804161  0.93587517  1
  Si  Si12  1  0.62478754  0.81239377  0.56281868  1
  Si  Si13  1  0.12521246  0.06260623  0.81218132  1
  Si  Si14  1  0.62560333  0.31280166  0.06159501  1
  Si  Si15  1  0.12439667  0.56219834  0.31340499  1
