# generated using pymatgen
data_Dy5Si2BO13
_symmetry_space_group_name_H-M   'P 1'
_cell_length_a   6.77837491
_cell_length_b   9.32411518
_cell_length_c   9.26475225
_cell_angle_alpha   59.89671888
_cell_angle_beta   90.00000000
_cell_angle_gamma   90.00000000
_symmetry_Int_Tables_number   1
_chemical_formula_structural   Dy5Si2BO13
_chemical_formula_sum   'Dy10 Si4 B2 O26'
_cell_volume   506.57614370
_cell_formula_units_Z   2
loop_
 _symmetry_equiv_pos_site_id
 _symmetry_equiv_pos_as_xyz
  1  'x, y, z'
loop_
 _atom_site_type_symbol
 _atom_site_label
 _atom_site_symmetry_multiplicity
 _atom_site_fract_x
 _atom_site_fract_y
 _atom_site_fract_z
 _atom_site_occupancy
  Dy  Dy0  1  0.51012794  0.66749684  0.67718370  1
  Dy  Dy1  1  0.99029305  0.32251684  0.33128643  1
  Dy  Dy2  1  0.50970695  0.32251684  0.33128643  1
  Dy  Dy3  1  0.98987206  0.66749684  0.67718370  1
  Dy  Dy4  1  0.75000000  0.22540224  0.76382034  1
  Dy  Dy5  1  0.75000000  0.01830961  0.22962757  1
  Dy  Dy6  1  0.75000000  0.76617509  0.98797596  1
  Dy  Dy7  1  0.25000000  0.76428765  0.23106989  1
  Dy  Dy8  1  0.25000000  0.01080007  0.75344981  1
  Dy  Dy9  1  0.25000000  0.23665177  0.00565880  1
  Si  Si10  1  0.75000000  0.60061182  0.36924068  1
  Si  Si11  1  0.25000000  0.96697707  0.40068195  1
  Si  Si12  1  0.25000000  0.62605336  0.97277065  1
  Si  Si13  1  0.25000000  0.40198144  0.62737508  1
  B  B14  1  0.75000000  0.02932945  0.60082531  1
  B  B15  1  0.75000000  0.37618972  0.03255699  1
  O  O16  1  0.56935345  0.08678901  0.65377300  1
  O  O17  1  0.56886631  0.26337047  0.09127989  1
  O  O18  1  0.55714505  0.65905837  0.24657866  1
  O  O19  1  0.05743419  0.90796899  0.33775208  1
  O  O20  1  0.05975832  0.75047293  0.90431003  1
  O  O21  1  0.05736401  0.34023623  0.75188046  1
  O  O22  1  0.44256581  0.90796899  0.33775208  1
  O  O23  1  0.44024168  0.75047293  0.90431003  1
  O  O24  1  0.44263599  0.34023623  0.75188046  1
  O  O25  1  0.93064655  0.08678901  0.65377300  1
  O  O26  1  0.93113369  0.26337047  0.09127989  1
  O  O27  1  0.94285495  0.65905837  0.24657866  1
  O  O28  1  0.75000000  0.84540336  0.67375372  1
  O  O29  1  0.75000000  0.49334815  0.85093722  1
  O  O30  1  0.75000000  0.67141108  0.49855229  1
  O  O31  1  0.25000000  0.16736800  0.31892334  1
  O  O32  1  0.25000000  0.50491686  0.17242295  1
  O  O33  1  0.25000000  0.31866461  0.50906638  1
  O  O34  1  0.75000000  0.12012801  0.41346336  1
  O  O35  1  0.75000000  0.46571155  0.12993772  1
  O  O36  1  0.75000000  0.39723798  0.46932002  1
  O  O37  1  0.25000000  0.86716844  0.60447248  1
  O  O38  1  0.25000000  0.52695769  0.86825463  1
  O  O39  1  0.25000000  0.60527501  0.52831183  1
  O  O40  1  0.75000000  0.99468591  0.00316117  1
  O  O41  1  0.25000000  0.00313469  0.99628138  1
