# generated using pymatgen
data_ErAgTe2
_symmetry_space_group_name_H-M   'P 1'
_cell_length_a   4.48962831
_cell_length_b   4.48965023
_cell_length_c   7.29218870
_cell_angle_alpha   89.99918897
_cell_angle_beta   90.00005208
_cell_angle_gamma   119.99952715
_symmetry_Int_Tables_number   1
_chemical_formula_structural   ErAgTe2
_chemical_formula_sum   'Er1 Ag1 Te2'
_cell_volume   127.29563029
_cell_formula_units_Z   1
loop_
 _symmetry_equiv_pos_site_id
 _symmetry_equiv_pos_as_xyz
  1  'x, y, z'
loop_
 _atom_site_type_symbol
 _atom_site_label
 _atom_site_symmetry_multiplicity
 _atom_site_fract_x
 _atom_site_fract_y
 _atom_site_fract_z
 _atom_site_occupancy
  Er  Er0  1  0.99999556  0.99997722  0.98640177  1
  Ag  Ag1  1  0.33332157  0.66664249  0.38511911  1
  Te  Te2  1  0.33332885  0.66666389  0.76774415  1
  Te  Te3  1  0.66665402  0.33331640  0.23073497  1
