# generated using pymatgen
data_Dy6Ge3Se14
_symmetry_space_group_name_H-M   'P 1'
_cell_length_a   6.03804324
_cell_length_b   10.39911629
_cell_length_c   10.39915116
_cell_angle_alpha   59.99947021
_cell_angle_beta   90.00073766
_cell_angle_gamma   90.00001728
_symmetry_Int_Tables_number   1
_chemical_formula_structural   Dy6Ge3Se14
_chemical_formula_sum   'Dy6 Ge3 Se14'
_cell_volume   565.48209414
_cell_formula_units_Z   1
loop_
 _symmetry_equiv_pos_site_id
 _symmetry_equiv_pos_as_xyz
  1  'x, y, z'
loop_
 _atom_site_type_symbol
 _atom_site_label
 _atom_site_symmetry_multiplicity
 _atom_site_fract_x
 _atom_site_fract_y
 _atom_site_fract_z
 _atom_site_occupancy
  Dy  Dy0  1  0.24799679  0.22684498  0.13071568  1
  Dy  Dy1  1  0.24798880  0.64245740  0.22684305  1
  Dy  Dy2  1  0.24799425  0.13071161  0.64243730  1
  Dy  Dy3  1  0.74972547  0.77246331  0.86900512  1
  Dy  Dy4  1  0.74972212  0.35851644  0.77247051  1
  Dy  Dy5  1  0.74972138  0.86899643  0.35852965  1
  Ge  Ge6  1  0.82904775  0.33334010  0.33333088  1
  Ge  Ge7  1  0.33167392  0.66666260  0.66666517  1
  Ge  Ge8  1  0.47922624  0.99999082  0.00000419  1
  Se  Se9  1  0.43784035  0.33338841  0.33330823  1
  Se  Se10  1  0.93971430  0.66665852  0.66667003  1
  Se  Se11  1  0.99780338  0.09426003  0.41979163  1
  Se  Se12  1  0.99780680  0.48596680  0.09424134  1
  Se  Se13  1  0.99780921  0.41979209  0.48595629  1
  Se  Se14  1  0.50033084  0.90529674  0.58101209  1
  Se  Se15  1  0.50033885  0.51367631  0.90531210  1
  Se  Se16  1  0.50033630  0.58099667  0.51368848  1
  Se  Se17  1  0.71917482  0.16126940  0.09819286  1
  Se  Se18  1  0.71918523  0.74053772  0.16127718  1
  Se  Se19  1  0.71918131  0.09818164  0.74053559  1
  Se  Se20  1  0.22445576  0.83591097  0.90394168  1
  Se  Se21  1  0.22447026  0.26013473  0.83592119  1
  Se  Se22  1  0.22445589  0.90394627  0.26014974  1
