# generated using pymatgen
data_Cr(Fe2Sb5)2
_symmetry_space_group_name_H-M   'P 1'
_cell_length_a   3.18270130
_cell_length_b   5.90573463
_cell_length_c   33.00752848
_cell_angle_alpha   90.01569731
_cell_angle_beta   90.00000000
_cell_angle_gamma   90.00000000
_symmetry_Int_Tables_number   1
_chemical_formula_structural   Cr(Fe2Sb5)2
_chemical_formula_sum   'Cr2 Fe8 Sb20'
_cell_volume   620.41572935
_cell_formula_units_Z   2
loop_
 _symmetry_equiv_pos_site_id
 _symmetry_equiv_pos_as_xyz
  1  'x, y, z'
loop_
 _atom_site_type_symbol
 _atom_site_label
 _atom_site_symmetry_multiplicity
 _atom_site_fract_x
 _atom_site_fract_y
 _atom_site_fract_z
 _atom_site_occupancy
  Cr  Cr0  1  0.50000000  0.50010171  0.09980248  1
  Cr  Cr1  1  0.50000000  0.49989829  0.30019752  1
  Fe  Fe2  1  0.50000000  0.49967796  0.50014381  1
  Fe  Fe3  1  0.50000000  0.50000000  0.70000000  1
  Fe  Fe4  1  0.50000000  0.50032204  0.89985619  1
  Fe  Fe5  1  0.00000000  0.99888381  0.99850840  1
  Fe  Fe6  1  -0.00000000  -0.00000000  0.20000000  1
  Fe  Fe7  1  -0.00000000  0.00111619  0.40149160  1
  Fe  Fe8  1  -0.00000000  0.00004454  0.60000801  1
  Fe  Fe9  1  -0.00000000  -0.00004454  0.79999199  1
  Sb  Sb10  1  0.50000000  0.69494753  0.02656680  1
  Sb  Sb11  1  0.50000000  0.69509975  0.22721431  1
  Sb  Sb12  1  0.50000000  0.69077171  0.42974762  1
  Sb  Sb13  1  0.50000000  0.69075302  0.62926352  1
  Sb  Sb14  1  0.50000000  0.69101793  0.82901796  1
  Sb  Sb15  1  0.50000000  0.30490025  0.17278569  1
  Sb  Sb16  1  0.50000000  0.30505247  0.37343320  1
  Sb  Sb17  1  0.50000000  0.30898207  0.57098204  1
  Sb  Sb18  1  0.50000000  0.30924698  0.77073648  1
  Sb  Sb19  1  0.50000000  0.30922829  0.97025238  1
  Sb  Sb20  1  -0.00000000  0.17828557  0.06871335  1
  Sb  Sb21  1  -0.00000000  0.17796678  0.26956204  1
  Sb  Sb22  1  -0.00000000  0.19139964  0.47157236  1
  Sb  Sb23  1  0.00000000  0.19095816  0.67080535  1
  Sb  Sb24  1  -0.00000000  0.19122147  0.87071275  1
  Sb  Sb25  1  -0.00000000  0.82203322  0.13043796  1
  Sb  Sb26  1  -0.00000000  0.82171443  0.33128665  1
  Sb  Sb27  1  -0.00000000  0.80877853  0.52928725  1
  Sb  Sb28  1  -0.00000000  0.80904184  0.72919465  1
  Sb  Sb29  1  -0.00000000  0.80860036  0.92842764  1
