# generated using pymatgen
data_Dy4Al3Fe5
_symmetry_space_group_name_H-M   'P 1'
_cell_length_a   5.37713935
_cell_length_b   5.37824638
_cell_length_c   8.46062355
_cell_angle_alpha   90.00000000
_cell_angle_beta   90.00000000
_cell_angle_gamma   59.99319531
_symmetry_Int_Tables_number   1
_chemical_formula_structural   Dy4Al3Fe5
_chemical_formula_sum   'Dy4 Al3 Fe5'
_cell_volume   211.88255695
_cell_formula_units_Z   1
loop_
 _symmetry_equiv_pos_site_id
 _symmetry_equiv_pos_as_xyz
  1  'x, y, z'
loop_
 _atom_site_type_symbol
 _atom_site_label
 _atom_site_symmetry_multiplicity
 _atom_site_fract_x
 _atom_site_fract_y
 _atom_site_fract_z
 _atom_site_occupancy
  Dy  Dy0  1  0.33335792  0.33332104  0.54774090  1
  Dy  Dy1  1  0.66662017  0.66668992  0.43055620  1
  Dy  Dy2  1  0.66662017  0.66668992  0.06944380  1
  Dy  Dy3  1  0.33335792  0.33332104  0.95225910  1
  Al  Al4  1  0.83725293  0.32547847  0.75000000  1
  Al  Al5  1  0.32548683  0.83725658  0.75000000  1
  Al  Al6  1  0.83725293  0.83726860  0.75000000  1
  Fe  Fe7  1  0.00007508  0.99996246  0.48248049  1
  Fe  Fe8  1  0.00007508  0.99996246  0.01751951  1
  Fe  Fe9  1  0.16581238  0.66831800  0.25000000  1
  Fe  Fe10  1  0.66827620  0.16586190  0.25000000  1
  Fe  Fe11  1  0.16581238  0.16586962  0.25000000  1
