# generated using pymatgen
data_La2TiCoO6
_symmetry_space_group_name_H-M   'P 1'
_cell_length_a   5.61312853
_cell_length_b   5.56950209
_cell_length_c   5.56950209
_cell_angle_alpha   60.21924727
_cell_angle_beta   59.79878954
_cell_angle_gamma   59.79878954
_symmetry_Int_Tables_number   1
_chemical_formula_structural   La2TiCoO6
_chemical_formula_sum   'La2 Ti1 Co1 O6'
_cell_volume   122.94339759
_cell_formula_units_Z   1
loop_
 _symmetry_equiv_pos_site_id
 _symmetry_equiv_pos_as_xyz
  1  'x, y, z'
loop_
 _atom_site_type_symbol
 _atom_site_label
 _atom_site_symmetry_multiplicity
 _atom_site_fract_x
 _atom_site_fract_y
 _atom_site_fract_z
 _atom_site_occupancy
  La  La0  1  0.25029332  0.74972931  0.74972931  1
  La  La1  1  0.74970668  0.25027069  0.25027069  1
  Ti  Ti2  1  0.00000000  0.50000000  0.50000000  1
  Co  Co3  1  0.50000000  -0.00000000  -0.00000000  1
  O  O4  1  0.24420536  0.25578845  0.74439407  1
  O  O5  1  0.24420536  0.74439407  0.25578845  1
  O  O6  1  0.75579464  0.74421155  0.25560593  1
  O  O7  1  0.75579464  0.25560593  0.74421155  1
  O  O8  1  0.24635208  0.25361818  0.25361818  1
  O  O9  1  0.75364792  0.74638182  0.74638182  1
