# generated using pymatgen
data_CdBi12(Cl7O6)2
_symmetry_space_group_name_H-M   'P 1'
_cell_length_a   5.51467049
_cell_length_b   5.51435910
_cell_length_c   26.48489153
_cell_angle_alpha   90.00000000
_cell_angle_beta   84.02412401
_cell_angle_gamma   90.00000000
_symmetry_Int_Tables_number   1
_chemical_formula_structural   CdBi12(Cl7O6)2
_chemical_formula_sum   'Cd1 Bi12 Cl14 O12'
_cell_volume   801.02549603
_cell_formula_units_Z   1
loop_
 _symmetry_equiv_pos_site_id
 _symmetry_equiv_pos_as_xyz
  1  'x, y, z'
loop_
 _atom_site_type_symbol
 _atom_site_label
 _atom_site_symmetry_multiplicity
 _atom_site_fract_x
 _atom_site_fract_y
 _atom_site_fract_z
 _atom_site_occupancy
  Cd  Cd0  1  0.00000000  0.50000000  -0.00000000  1
  Bi  Bi1  1  0.22573579  0.00000000  0.54852841  1
  Bi  Bi2  1  0.72572659  0.50000000  0.54854682  1
  Bi  Bi3  1  0.27427341  0.50000000  0.45145318  1
  Bi  Bi4  1  0.77426421  0.00000000  0.45147159  1
  Bi  Bi5  1  0.07941127  0.00000000  0.84117746  1
  Bi  Bi6  1  0.57941098  0.50000000  0.84117804  1
  Bi  Bi7  1  0.42058902  0.50000000  0.15882196  1
  Bi  Bi8  1  0.92058873  0.00000000  0.15882254  1
  Bi  Bi9  1  0.37222078  0.00000000  0.25555845  1
  Bi  Bi10  1  0.87156776  0.50000000  0.25686448  1
  Bi  Bi11  1  0.12843224  0.50000000  0.74313552  1
  Bi  Bi12  1  0.62777922  0.00000000  0.74444155  1
  Cl  Cl13  1  0.30049964  0.00000000  0.39900073  1
  Cl  Cl14  1  0.80051977  0.50000000  0.39896047  1
  Cl  Cl15  1  0.19948023  0.50000000  0.60103953  1
  Cl  Cl16  1  0.69950036  -0.00000000  0.60099927  1
  Cl  Cl17  1  0.44483452  0.00000000  0.11033096  1
  Cl  Cl18  1  0.94798888  0.50000000  0.10402224  1
  Cl  Cl19  1  0.05201112  0.50000000  0.89597776  1
  Cl  Cl20  1  0.55516548  0.00000000  0.88966904  1
  Cl  Cl21  1  0.15403778  0.00000000  0.69192443  1
  Cl  Cl22  1  0.65403658  0.50000000  0.69192684  1
  Cl  Cl23  1  0.34596342  0.50000000  0.30807316  1
  Cl  Cl24  1  0.84596222  0.00000000  0.30807557  1
  Cl  Cl25  1  0.50000000  0.50000000  -0.00000000  1
  Cl  Cl26  1  0.00000000  0.00000000  -0.00000000  1
  O  O27  1  0.35197972  0.25184240  0.79234309  1
  O  O28  1  0.85567719  0.74815760  0.79234309  1
  O  O29  1  0.85567719  0.25184240  0.79234309  1
  O  O30  1  0.35197972  0.74815760  0.79234309  1
  O  O31  1  0.14432281  0.25184240  0.20765691  1
  O  O32  1  0.64802028  0.74815760  0.20765691  1
  O  O33  1  0.64802028  0.25184240  0.20765691  1
  O  O34  1  0.14432281  0.74815760  0.20765691  1
  O  O35  1  0.50000000  0.25003017  0.50000000  1
  O  O36  1  0.00000000  0.74996983  0.50000000  1
  O  O37  1  0.00000000  0.25003017  0.50000000  1
  O  O38  1  0.50000000  0.74996983  0.50000000  1
