# generated using pymatgen
data_Ce4(Si3Rh)3
_symmetry_space_group_name_H-M   'P 1'
_cell_length_a   4.18708306
_cell_length_b   4.21443232
_cell_length_c   16.68032191
_cell_angle_alpha   90.00000000
_cell_angle_beta   90.00000000
_cell_angle_gamma   90.00000000
_symmetry_Int_Tables_number   1
_chemical_formula_structural   Ce4(Si3Rh)3
_chemical_formula_sum   'Ce4 Si9 Rh3'
_cell_volume   294.34393243
_cell_formula_units_Z   1
loop_
 _symmetry_equiv_pos_site_id
 _symmetry_equiv_pos_as_xyz
  1  'x, y, z'
loop_
 _atom_site_type_symbol
 _atom_site_label
 _atom_site_symmetry_multiplicity
 _atom_site_fract_x
 _atom_site_fract_y
 _atom_site_fract_z
 _atom_site_occupancy
  Ce  Ce0  1  0.25000000  0.00000000  0.40074331  1
  Ce  Ce1  1  0.25000000  0.50000000  0.89598735  1
  Ce  Ce2  1  0.75000000  0.50000000  0.11227496  1
  Ce  Ce3  1  0.75000000  -0.00000000  0.60543262  1
  Si  Si4  1  0.25000000  -0.00000000  0.03197072  1
  Si  Si5  1  0.25000000  0.50000000  0.53617181  1
  Si  Si6  1  0.75000000  0.50000000  0.46029229  1
  Si  Si7  1  0.75000000  0.00000000  0.96413754  1
  Si  Si8  1  0.25000000  0.50000000  0.25128531  1
  Si  Si9  1  0.25000000  0.00000000  0.74994966  1
  Si  Si10  1  0.75000000  0.00000000  0.25278873  1
  Si  Si11  1  0.75000000  0.50000000  0.75149930  1
  Si  Si12  1  0.25000000  0.00000000  0.17023593  1
  Rh  Rh13  1  0.25000000  0.50000000  0.67841418  1
  Rh  Rh14  1  0.75000000  0.50000000  0.31561025  1
  Rh  Rh15  1  0.75000000  -0.00000000  0.82320604  1
