# generated using pymatgen
data_Cd3(GaTe3)2
_symmetry_space_group_name_H-M   'P 1'
_cell_length_a   6.28964929
_cell_length_b   8.99026875
_cell_length_c   7.86901354
_cell_angle_alpha   71.11977835
_cell_angle_beta   113.55608864
_cell_angle_gamma   90.00000000
_symmetry_Int_Tables_number   1
_chemical_formula_structural   Cd3(GaTe3)2
_chemical_formula_sum   'Cd3 Ga2 Te6'
_cell_volume   381.62064760
_cell_formula_units_Z   1
loop_
 _symmetry_equiv_pos_site_id
 _symmetry_equiv_pos_as_xyz
  1  'x, y, z'
loop_
 _atom_site_type_symbol
 _atom_site_label
 _atom_site_symmetry_multiplicity
 _atom_site_fract_x
 _atom_site_fract_y
 _atom_site_fract_z
 _atom_site_occupancy
  Cd  Cd0  1  0.00638873  0.98146276  0.01798284  1
  Cd  Cd1  1  0.69924343  0.16666700  0.33333300  1
  Cd  Cd2  1  0.32173889  0.35187024  0.64868416  1
  Ga  Ga3  1  0.98704679  0.50946038  0.99534455  1
  Ga  Ga4  1  0.32503523  0.82387262  0.67132245  1
  Te  Te5  1  0.28123508  0.72793254  0.01447501  1
  Te  Te6  1  0.91862383  0.88022540  0.36105786  1
  Te  Te7  1  0.56957084  0.07274869  0.66944669  1
  Te  Te8  1  0.23345815  0.26058431  0.99722031  1
  Te  Te9  1  0.89089897  0.45310860  0.30560814  1
  Te  Te10  1  0.60009306  0.60540046  0.65219199  1
