# generated using pymatgen
data_CeUSi4
_symmetry_space_group_name_H-M   'P 1'
_cell_length_a   3.99329237
_cell_length_b   3.99329237
_cell_length_c   7.63693696
_cell_angle_alpha   74.84412337
_cell_angle_beta   74.84412337
_cell_angle_gamma   90.00000000
_symmetry_Int_Tables_number   1
_chemical_formula_structural   CeUSi4
_chemical_formula_sum   'Ce1 U1 Si4'
_cell_volume   113.15149333
_cell_formula_units_Z   1
loop_
 _symmetry_equiv_pos_site_id
 _symmetry_equiv_pos_as_xyz
  1  'x, y, z'
loop_
 _atom_site_type_symbol
 _atom_site_label
 _atom_site_symmetry_multiplicity
 _atom_site_fract_x
 _atom_site_fract_y
 _atom_site_fract_z
 _atom_site_occupancy
  Ce  Ce0  1  0.75000000  0.25000000  0.50000000  1
  U  U1  1  0.00000000  0.00000000  -0.00000000  1
  Si  Si2  1  0.33466036  0.83466036  0.33067929  1
  Si  Si3  1  0.41859342  0.41859342  0.16281315  1
  Si  Si4  1  0.16533964  0.66533964  0.66932071  1
  Si  Si5  1  0.58140658  0.58140658  0.83718685  1
