# generated using pymatgen
data_Cd2InAgS4
_symmetry_space_group_name_H-M   'P 1'
_cell_length_a   4.17816190
_cell_length_b   8.03703956
_cell_length_c   7.27603979
_cell_angle_alpha   62.42393279
_cell_angle_beta   90.00512120
_cell_angle_gamma   74.94713344
_symmetry_Int_Tables_number   1
_chemical_formula_structural   Cd2InAgS4
_chemical_formula_sum   'Cd2 In1 Ag1 S4'
_cell_volume   207.06554687
_cell_formula_units_Z   1
loop_
 _symmetry_equiv_pos_site_id
 _symmetry_equiv_pos_as_xyz
  1  'x, y, z'
loop_
 _atom_site_type_symbol
 _atom_site_label
 _atom_site_symmetry_multiplicity
 _atom_site_fract_x
 _atom_site_fract_y
 _atom_site_fract_z
 _atom_site_occupancy
  Cd  Cd0  1  0.49771633  0.00465062  0.82311327  1
  Cd  Cd1  1  0.00221547  0.99562217  0.34598916  1
  In  In2  1  0.24777885  0.50439082  0.90506729  1
  Ag  Ag3  1  0.75057167  0.49869246  0.42223258  1
  S  S4  1  0.93865856  0.12268958  0.60670221  1
  S  S5  1  0.43439023  0.13124814  0.09996701  1
  S  S6  1  0.18849300  0.62304865  0.52537031  1
  S  S7  1  0.69217590  0.61565755  0.02355818  1
