# generated using pymatgen
data_CaEuSi4
_symmetry_space_group_name_H-M   'P 1'
_cell_length_a   4.26754730
_cell_length_b   4.26754730
_cell_length_c   7.42650461
_cell_angle_alpha   73.30250591
_cell_angle_beta   73.30250591
_cell_angle_gamma   90.00000000
_symmetry_Int_Tables_number   1
_chemical_formula_structural   CaEuSi4
_chemical_formula_sum   'Ca1 Eu1 Si4'
_cell_volume   123.58260205
_cell_formula_units_Z   1
loop_
 _symmetry_equiv_pos_site_id
 _symmetry_equiv_pos_as_xyz
  1  'x, y, z'
loop_
 _atom_site_type_symbol
 _atom_site_label
 _atom_site_symmetry_multiplicity
 _atom_site_fract_x
 _atom_site_fract_y
 _atom_site_fract_z
 _atom_site_occupancy
  Ca  Ca0  1  0.75000000  0.25000000  0.50000000  1
  Eu  Eu1  1  -0.00000000  -0.00000000  -0.00000000  1
  Si  Si2  1  0.33459317  0.83459317  0.33081367  1
  Si  Si3  1  0.41546372  0.41546372  0.16907255  1
  Si  Si4  1  0.16540683  0.66540683  0.66918633  1
  Si  Si5  1  0.58453628  0.58453628  0.83092745  1
