# generated using pymatgen
data_BaLaSmMn3O9
_symmetry_space_group_name_H-M   'P 1'
_cell_length_a   5.62166788
_cell_length_b   5.62166742
_cell_length_c   13.53232618
_cell_angle_alpha   90.00000000
_cell_angle_beta   90.00000000
_cell_angle_gamma   119.99999651
_symmetry_Int_Tables_number   1
_chemical_formula_structural   BaLaSmMn3O9
_chemical_formula_sum   'Ba2 La2 Sm2 Mn6 O18'
_cell_volume   370.36798399
_cell_formula_units_Z   2
loop_
 _symmetry_equiv_pos_site_id
 _symmetry_equiv_pos_as_xyz
  1  'x, y, z'
loop_
 _atom_site_type_symbol
 _atom_site_label
 _atom_site_symmetry_multiplicity
 _atom_site_fract_x
 _atom_site_fract_y
 _atom_site_fract_z
 _atom_site_occupancy
  Ba  Ba0  1  0.00000000  0.00000000  0.25000000  1
  Ba  Ba1  1  0.00000000  0.00000000  0.75000000  1
  La  La2  1  0.33333300  0.66666700  0.08135204  1
  La  La3  1  0.66666700  0.33333300  0.41864796  1
  Sm  Sm4  1  0.33333300  0.66666700  0.58024324  1
  Sm  Sm5  1  0.66666700  0.33333300  0.91975676  1
  Mn  Mn6  1  0.00000000  0.00000000  0.50176348  1
  Mn  Mn7  1  0.33333300  0.66666700  0.83222480  1
  Mn  Mn8  1  0.66666700  0.33333300  0.16653856  1
  Mn  Mn9  1  0.00000000  0.00000000  0.99823652  1
  Mn  Mn10  1  0.33333300  0.66666700  0.33346144  1
  Mn  Mn11  1  0.66666700  0.33333300  0.66777520  1
  O  O12  1  0.90290721  0.65804246  0.57757956  1
  O  O13  1  0.24486575  0.34195754  0.92242044  1
  O  O14  1  0.52188844  0.00000000  0.25000000  1
  O  O15  1  0.75513425  0.09709279  0.57757956  1
  O  O16  1  0.09709279  0.75513425  0.92242044  1
  O  O17  1  0.47811156  0.47811156  0.25000000  1
  O  O18  1  0.34195754  0.24486575  0.57757956  1
  O  O19  1  0.65804246  0.90290721  0.92242044  1
  O  O20  1  0.00000000  0.52188844  0.25000000  1
  O  O21  1  0.23248129  0.88929144  0.42532117  1
  O  O22  1  0.52651157  0.52651157  0.75000000  1
  O  O23  1  0.88929144  0.23248129  0.07467883  1
  O  O24  1  0.65681114  0.76751871  0.42532117  1
  O  O25  1  1.00000000  0.47348843  0.75000000  1
  O  O26  1  0.34318886  0.11070856  0.07467883  1
  O  O27  1  0.11070856  0.34318886  0.42532117  1
  O  O28  1  0.47348843  1.00000000  0.75000000  1
  O  O29  1  0.76751871  0.65681114  0.07467883  1
