# generated using pymatgen
data_Ca2ZnFe(SiO3)4
_symmetry_space_group_name_H-M   'P 1'
_cell_length_a   5.31622871
_cell_length_b   6.75825634
_cell_length_c   6.75825634
_cell_angle_alpha   84.95819320
_cell_angle_beta   78.61610996
_cell_angle_gamma   78.61610996
_symmetry_Int_Tables_number   1
_chemical_formula_structural   Ca2ZnFe(SiO3)4
_chemical_formula_sum   'Ca2 Zn1 Fe1 Si4 O12'
_cell_volume   233.05111855
_cell_formula_units_Z   1
loop_
 _symmetry_equiv_pos_site_id
 _symmetry_equiv_pos_as_xyz
  1  'x, y, z'
loop_
 _atom_site_type_symbol
 _atom_site_label
 _atom_site_symmetry_multiplicity
 _atom_site_fract_x
 _atom_site_fract_y
 _atom_site_fract_z
 _atom_site_occupancy
  Ca  Ca0  1  0.75000000  0.70144339  0.29855661  1
  Ca  Ca1  1  0.25000000  0.29907319  0.70092681  1
  Zn  Zn2  1  0.75000000  0.09420136  0.90579864  1
  Fe  Fe3  1  0.25000000  0.90620413  0.09379587  1
  Si  Si4  1  0.73123064  0.62043947  0.80534725  1
  Si  Si5  1  0.76876936  0.19465275  0.37956053  1
  Si  Si6  1  0.26945693  0.37891334  0.19447405  1
  Si  Si7  1  0.23054307  0.80552595  0.62108666  1
  O  O8  1  0.64898022  0.79223692  0.97091950  1
  O  O9  1  0.85101978  0.02908050  0.20776308  1
  O  O10  1  0.35291780  0.20768668  0.02777349  1
  O  O11  1  0.14708220  0.97222651  0.79231332  1
  O  O12  1  0.82328518  0.39153518  0.88441035  1
  O  O13  1  0.67671482  0.11558965  0.60846482  1
  O  O14  1  0.17732841  0.60751889  0.11621840  1
  O  O15  1  0.32267159  0.88378160  0.39248111  1
  O  O16  1  0.49353906  0.63156797  0.66943569  1
  O  O17  1  0.00646094  0.33056431  0.36843203  1
  O  O18  1  0.50625882  0.36856608  0.33080787  1
  O  O19  1  0.99374118  0.66919213  0.63143392  1
