# generated using pymatgen
data_BaGa3Sn
_symmetry_space_group_name_H-M   'P 1'
_cell_length_a   4.89211375
_cell_length_b   4.89211375
_cell_length_c   6.40777922
_cell_angle_alpha   67.55897237
_cell_angle_beta   67.55897237
_cell_angle_gamma   90.00000000
_symmetry_Int_Tables_number   1
_chemical_formula_structural   BaGa3Sn
_chemical_formula_sum   'Ba1 Ga3 Sn1'
_cell_volume   129.08899448
_cell_formula_units_Z   1
loop_
 _symmetry_equiv_pos_site_id
 _symmetry_equiv_pos_as_xyz
  1  'x, y, z'
loop_
 _atom_site_type_symbol
 _atom_site_label
 _atom_site_symmetry_multiplicity
 _atom_site_fract_x
 _atom_site_fract_y
 _atom_site_fract_z
 _atom_site_occupancy
  Ba  Ba0  1  0.00179125  0.00179125  0.99641750  1
  Ga  Ga1  1  0.63725783  0.63725783  0.72548434  1
  Ga  Ga2  1  0.74139475  0.24139475  0.51721049  1
  Ga  Ga3  1  0.24139475  0.74139475  0.51721049  1
  Sn  Sn4  1  0.37816141  0.37816141  0.24367717  1
