# generated using pymatgen
data_CaLuMn2O6
_symmetry_space_group_name_H-M   'P 1'
_cell_length_a   5.30593194
_cell_length_b   5.56098103
_cell_length_c   7.49695926
_cell_angle_alpha   90.00000000
_cell_angle_beta   90.00000000
_cell_angle_gamma   90.58594454
_symmetry_Int_Tables_number   1
_chemical_formula_structural   CaLuMn2O6
_chemical_formula_sum   'Ca2 Lu2 Mn4 O12'
_cell_volume   221.19511363
_cell_formula_units_Z   2
loop_
 _symmetry_equiv_pos_site_id
 _symmetry_equiv_pos_as_xyz
  1  'x, y, z'
loop_
 _atom_site_type_symbol
 _atom_site_label
 _atom_site_symmetry_multiplicity
 _atom_site_fract_x
 _atom_site_fract_y
 _atom_site_fract_z
 _atom_site_occupancy
  Ca  Ca0  1  0.48896379  0.44301341  0.75000000  1
  Ca  Ca1  1  0.98707813  0.05660752  0.25000000  1
  Lu  Lu2  1  0.51881311  0.57276394  0.25000000  1
  Lu  Lu3  1  0.02020446  0.92928830  0.75000000  1
  Mn  Mn4  1  0.50105164  0.00394328  -0.00026135  1
  Mn  Mn5  1  0.50105164  0.00394328  0.50026135  1
  Mn  Mn6  1  0.00152827  0.49589373  0.00023988  1
  Mn  Mn7  1  0.00152827  0.49589373  0.49976012  1
  O  O8  1  0.79019430  0.79202154  0.45070857  1
  O  O9  1  0.19120578  0.18789780  0.94526905  1
  O  O10  1  0.19120578  0.18789780  0.55473095  1
  O  O11  1  0.79019430  0.79202154  0.04929143  1
  O  O12  1  0.29458446  0.71014134  0.54960263  1
  O  O13  1  0.68673605  0.30985564  0.05461469  1
  O  O14  1  0.68673605  0.30985564  0.44538531  1
  O  O15  1  0.29458446  0.71014134  0.95039737  1
  O  O16  1  0.61814100  0.02947536  0.75000000  1
  O  O17  1  0.40870214  0.95818714  0.25000000  1
  O  O18  1  0.11339790  0.47216848  0.25000000  1
  O  O19  1  0.91409850  0.53898921  0.75000000  1
