# generated using pymatgen
data_CaMn3Cu3RuO12
_symmetry_space_group_name_H-M   'P 1'
_cell_length_a   6.45509195
_cell_length_b   6.40154116
_cell_length_c   6.45509195
_cell_angle_alpha   70.69674362
_cell_angle_beta   70.36133864
_cell_angle_gamma   109.30325638
_symmetry_Int_Tables_number   1
_chemical_formula_structural   CaMn3Cu3RuO12
_chemical_formula_sum   'Ca1 Mn3 Cu3 Ru1 O12'
_cell_volume   205.76124163
_cell_formula_units_Z   1
loop_
 _symmetry_equiv_pos_site_id
 _symmetry_equiv_pos_as_xyz
  1  'x, y, z'
loop_
 _atom_site_type_symbol
 _atom_site_label
 _atom_site_symmetry_multiplicity
 _atom_site_fract_x
 _atom_site_fract_y
 _atom_site_fract_z
 _atom_site_occupancy
  Ca  Ca0  1  -0.00000000  0.00000000  -0.00000000  1
  Mn  Mn1  1  0.50000000  0.50000000  0.50000000  1
  Mn  Mn2  1  0.50000000  0.00000000  -0.00000000  1
  Mn  Mn3  1  -0.00000000  0.00000000  0.50000000  1
  Cu  Cu4  1  0.50000000  0.00000000  0.50000000  1
  Cu  Cu5  1  0.50000000  0.50000000  -0.00000000  1
  Cu  Cu6  1  -0.00000000  0.50000000  0.50000000  1
  Ru  Ru7  1  -0.00000000  0.50000000  -0.00000000  1
  O  O8  1  0.13619599  0.82610478  0.69676821  1
  O  O9  1  0.48031620  0.17473468  0.68832579  1
  O  O10  1  0.51968380  0.82526532  0.31167421  1
  O  O11  1  0.86380401  0.17389522  0.30323179  1
  O  O12  1  0.68832579  0.86306047  0.83135801  1
  O  O13  1  0.69676821  0.52287299  0.16703580  1
  O  O14  1  0.30323179  0.47712701  0.83296420  1
  O  O15  1  0.31167421  0.13693953  0.16864199  1
  O  O16  1  0.16864199  0.30558152  0.51968380  1
  O  O17  1  0.83296420  0.31009121  0.86380401  1
  O  O18  1  0.16703580  0.68990879  0.13619599  1
  O  O19  1  0.83135801  0.69441848  0.48031620  1
