# generated using pymatgen
data_Cd(Pt3O4)3
_symmetry_space_group_name_H-M   'P 1'
_cell_length_a   5.75309694
_cell_length_b   5.73561852
_cell_length_c   17.15928842
_cell_angle_alpha   90.00000000
_cell_angle_beta   90.00000000
_cell_angle_gamma   90.00000000
_symmetry_Int_Tables_number   1
_chemical_formula_structural   Cd(Pt3O4)3
_chemical_formula_sum   'Cd2 Pt18 O24'
_cell_volume   566.21480975
_cell_formula_units_Z   2
loop_
 _symmetry_equiv_pos_site_id
 _symmetry_equiv_pos_as_xyz
  1  'x, y, z'
loop_
 _atom_site_type_symbol
 _atom_site_label
 _atom_site_symmetry_multiplicity
 _atom_site_fract_x
 _atom_site_fract_y
 _atom_site_fract_z
 _atom_site_occupancy
  Cd  Cd0  1  0.50000000  0.50000000  0.16563940  1
  Cd  Cd1  1  0.50000000  0.50000000  0.50102760  1
  Pt  Pt2  1  -0.00000000  0.50000000  0.25190968  1
  Pt  Pt3  1  0.00000000  0.50000000  0.58741635  1
  Pt  Pt4  1  -0.00000000  0.50000000  0.91607206  1
  Pt  Pt5  1  0.50000000  0.24763383  0.99559332  1
  Pt  Pt6  1  0.50000000  0.24243645  0.33333300  1
  Pt  Pt7  1  0.50000000  0.24763383  0.67107368  1
  Pt  Pt8  1  0.75697460  0.00000000  0.16480706  1
  Pt  Pt9  1  0.75697460  0.00000000  0.50185994  1
  Pt  Pt10  1  0.75356492  0.00000000  0.83333300  1
  Pt  Pt11  1  0.00000000  0.50000000  0.07924965  1
  Pt  Pt12  1  0.00000000  0.50000000  0.41475732  1
  Pt  Pt13  1  0.00000000  0.50000000  0.75059494  1
  Pt  Pt14  1  0.50000000  0.75236617  0.99559332  1
  Pt  Pt15  1  0.50000000  0.75756355  0.33333300  1
  Pt  Pt16  1  0.50000000  0.75236617  0.67107368  1
  Pt  Pt17  1  0.24302540  0.00000000  0.16480706  1
  Pt  Pt18  1  0.24302540  0.00000000  0.50185994  1
  Pt  Pt19  1  0.24643508  0.00000000  0.83333300  1
  O  O20  1  0.74148462  0.25810581  0.24653406  1
  O  O21  1  0.73963170  0.26004033  0.58274965  1
  O  O22  1  0.75265476  0.24975202  0.91508837  1
  O  O23  1  0.26036830  0.73995967  0.08391635  1
  O  O24  1  0.25851538  0.74189419  0.42013294  1
  O  O25  1  0.24734524  0.75024798  0.75157863  1
  O  O26  1  0.73963170  0.73995967  0.08391635  1
  O  O27  1  0.74148462  0.74189419  0.42013294  1
  O  O28  1  0.75265476  0.75024798  0.75157863  1
  O  O29  1  0.25851538  0.25810581  0.24653406  1
  O  O30  1  0.26036830  0.26004033  0.58274965  1
  O  O31  1  0.24734524  0.24975202  0.91508837  1
  O  O32  1  0.25851538  0.74189419  0.24653406  1
  O  O33  1  0.26036830  0.73995967  0.58274965  1
  O  O34  1  0.24734524  0.75024798  0.91508837  1
  O  O35  1  0.73963170  0.26004033  0.08391635  1
  O  O36  1  0.74148462  0.25810581  0.42013294  1
  O  O37  1  0.75265476  0.24975202  0.75157863  1
  O  O38  1  0.26036830  0.26004033  0.08391635  1
  O  O39  1  0.25851538  0.25810581  0.42013294  1
  O  O40  1  0.24734524  0.24975202  0.75157863  1
  O  O41  1  0.74148462  0.74189419  0.24653406  1
  O  O42  1  0.73963170  0.73995967  0.58274965  1
  O  O43  1  0.75265476  0.75024798  0.91508837  1
