# generated using pymatgen
data_Ca14Hg51
_symmetry_space_group_name_H-M   'P 1'
_cell_length_a   10.25989596
_cell_length_b   13.76865941
_cell_length_c   13.76896927
_cell_angle_alpha   119.99917809
_cell_angle_beta   90.00000000
_cell_angle_gamma   90.00000000
_symmetry_Int_Tables_number   1
_chemical_formula_structural   Ca14Hg51
_chemical_formula_sum   'Ca14 Hg51'
_cell_volume   1684.49712029
_cell_formula_units_Z   1
loop_
 _symmetry_equiv_pos_site_id
 _symmetry_equiv_pos_as_xyz
  1  'x, y, z'
loop_
 _atom_site_type_symbol
 _atom_site_label
 _atom_site_symmetry_multiplicity
 _atom_site_fract_x
 _atom_site_fract_y
 _atom_site_fract_z
 _atom_site_occupancy
  Ca  Ca0  1  0.50000000  0.67123078  0.53149115  1
  Ca  Ca1  1  0.50000000  0.46848863  0.13972732  1
  Ca  Ca2  1  0.50000000  0.86024650  0.32876492  1
  Ca  Ca3  1  0.50000000  0.32997727  0.47063466  1
  Ca  Ca4  1  0.50000000  0.52936099  0.85933994  1
  Ca  Ca5  1  0.50000000  0.14066312  0.67002081  1
  Ca  Ca6  1  -0.00000000  0.27518319  0.88549725  1
  Ca  Ca7  1  -0.00000000  0.11450531  0.38969622  1
  Ca  Ca8  1  -0.00000000  0.61031891  0.72481392  1
  Ca  Ca9  1  -0.00000000  0.71917198  0.11520226  1
  Ca  Ca10  1  -0.00000000  0.88479458  0.60396875  1
  Ca  Ca11  1  -0.00000000  0.39602383  0.28082912  1
  Ca  Ca12  1  0.30785377  0.00000276  0.00000102  1
  Ca  Ca13  1  0.69214623  0.00000276  0.00000102  1
  Hg  Hg14  1  0.14629039  0.62223646  0.50804047  1
  Hg  Hg15  1  0.14628650  0.49196039  0.11417998  1
  Hg  Hg16  1  0.14629819  0.88579292  0.37775869  1
  Hg  Hg17  1  0.14568040  0.37950025  0.49342456  1
  Hg  Hg18  1  0.14568755  0.50659286  0.88608342  1
  Hg  Hg19  1  0.14568543  0.11394841  0.62050935  1
  Hg  Hg20  1  0.85431960  0.37950025  0.49342456  1
  Hg  Hg21  1  0.85431245  0.50659286  0.88608342  1
  Hg  Hg22  1  0.85431457  0.11394841  0.62050935  1
  Hg  Hg23  1  0.85370961  0.62223646  0.50804047  1
  Hg  Hg24  1  0.85371350  0.49196039  0.11417998  1
  Hg  Hg25  1  0.85370181  0.88579292  0.37775869  1
  Hg  Hg26  1  0.50000000  0.17875594  0.94211043  1
  Hg  Hg27  1  0.50000000  0.05788121  0.23664073  1
  Hg  Hg28  1  0.50000000  0.76336822  0.82125231  1
  Hg  Hg29  1  0.50000000  0.82351782  0.05800631  1
  Hg  Hg30  1  0.50000000  0.94199873  0.76549799  1
  Hg  Hg31  1  0.50000000  0.23450522  0.17649679  1
  Hg  Hg32  1  -0.00000000  0.66667438  0.33332876  1
  Hg  Hg33  1  -0.00000000  0.33331645  0.66665815  1
  Hg  Hg34  1  0.33774747  0.33996178  0.89425367  1
  Hg  Hg35  1  0.33775420  0.10575251  0.44571475  1
  Hg  Hg36  1  0.33775800  0.55430729  0.66003856  1
  Hg  Hg37  1  0.33738595  0.66263073  0.10710169  1
  Hg  Hg38  1  0.33739330  0.89288745  0.55551751  1
  Hg  Hg39  1  0.33739587  0.44445913  0.33736858  1
  Hg  Hg40  1  0.66261405  0.66263073  0.10710169  1
  Hg  Hg41  1  0.66260670  0.89288745  0.55551751  1
  Hg  Hg42  1  0.66260413  0.44445913  0.33736858  1
  Hg  Hg43  1  0.66225253  0.33996178  0.89425367  1
  Hg  Hg44  1  0.66224580  0.10575251  0.44571475  1
  Hg  Hg45  1  0.66224200  0.55430729  0.66003856  1
  Hg  Hg46  1  0.22781046  0.07911998  0.80920630  1
  Hg  Hg47  1  0.22781474  0.19078858  0.26989703  1
  Hg  Hg48  1  0.22782155  0.73010395  0.92089411  1
  Hg  Hg49  1  0.22344383  0.92597217  0.19029104  1
  Hg  Hg50  1  0.22345180  0.80970764  0.73570250  1
  Hg  Hg51  1  0.22344073  0.26430323  0.07402946  1
  Hg  Hg52  1  0.77655617  0.92597217  0.19029104  1
  Hg  Hg53  1  0.77654820  0.80970764  0.73570250  1
  Hg  Hg54  1  0.77655927  0.26430323  0.07402946  1
  Hg  Hg55  1  0.77218954  0.07911998  0.80920630  1
  Hg  Hg56  1  0.77218526  0.19078858  0.26989703  1
  Hg  Hg57  1  0.77217845  0.73010395  0.92089411  1
  Hg  Hg58  1  0.31972793  0.66663427  0.33332750  1
  Hg  Hg59  1  0.31670202  0.33334554  0.66666441  1
  Hg  Hg60  1  0.68329798  0.33334554  0.66666441  1
  Hg  Hg61  1  0.68027207  0.66663427  0.33332750  1
  Hg  Hg62  1  -0.00000000  0.98102651  0.86790214  1
  Hg  Hg63  1  -0.00000000  0.13209826  0.11312393  1
  Hg  Hg64  1  -0.00000000  0.88687555  0.01898695  1
