# generated using pymatgen
data_Ca2AlFeO5
_symmetry_space_group_name_H-M   'P 1'
_cell_length_a   5.30985169
_cell_length_b   5.44750278
_cell_length_c   15.04272740
_cell_angle_alpha   90.00000000
_cell_angle_beta   90.00000000
_cell_angle_gamma   90.00000000
_symmetry_Int_Tables_number   1
_chemical_formula_structural   Ca2AlFeO5
_chemical_formula_sum   'Ca8 Al4 Fe4 O20'
_cell_volume   435.11738614
_cell_formula_units_Z   4
loop_
 _symmetry_equiv_pos_site_id
 _symmetry_equiv_pos_as_xyz
  1  'x, y, z'
loop_
 _atom_site_type_symbol
 _atom_site_label
 _atom_site_symmetry_multiplicity
 _atom_site_fract_x
 _atom_site_fract_y
 _atom_site_fract_z
 _atom_site_occupancy
  Ca  Ca0  1  0.99143341  0.48092694  0.10528521  1
  Ca  Ca1  1  0.49143341  0.01907306  0.39471479  1
  Ca  Ca2  1  0.00856659  0.51907306  0.60528521  1
  Ca  Ca3  1  0.50856659  0.98092694  0.89471479  1
  Ca  Ca4  1  0.00856659  0.51907306  0.89471479  1
  Ca  Ca5  1  0.50856659  0.98092694  0.60528521  1
  Ca  Ca6  1  0.99143341  0.48092694  0.39471479  1
  Ca  Ca7  1  0.49143341  0.01907306  0.10528521  1
  Al  Al8  1  0.50000000  0.50000000  -0.00000000  1
  Al  Al9  1  -0.00000000  0.00000000  0.50000000  1
  Al  Al10  1  0.50000000  0.50000000  0.50000000  1
  Al  Al11  1  -0.00000000  0.00000000  0.00000000  1
  Fe  Fe12  1  0.44837029  0.56083427  0.25000000  1
  Fe  Fe13  1  0.94837029  0.93916573  0.25000000  1
  Fe  Fe14  1  0.55162971  0.43916573  0.75000000  1
  Fe  Fe15  1  0.05162971  0.06083427  0.75000000  1
  O  O16  1  0.08157590  0.60796804  0.25000000  1
  O  O17  1  0.58157590  0.89203196  0.25000000  1
  O  O18  1  0.91842410  0.39203196  0.75000000  1
  O  O19  1  0.41842410  0.10796804  0.75000000  1
  O  O20  1  0.75175346  0.25186833  0.98861352  1
  O  O21  1  0.25175346  0.24813167  0.51138648  1
  O  O22  1  0.24824654  0.74813167  0.48861352  1
  O  O23  1  0.74824654  0.75186833  0.01138648  1
  O  O24  1  0.24824654  0.74813167  0.01138648  1
  O  O25  1  0.74824654  0.75186833  0.48861352  1
  O  O26  1  0.75175346  0.25186833  0.51138648  1
  O  O27  1  0.25175346  0.24813167  0.98861352  1
  O  O28  1  0.51476854  0.44214571  0.13499020  1
  O  O29  1  0.01476854  0.05785429  0.36500980  1
  O  O30  1  0.48523146  0.55785429  0.63499020  1
  O  O31  1  0.98523146  0.94214571  0.86500980  1
  O  O32  1  0.48523146  0.55785429  0.86500980  1
  O  O33  1  0.98523146  0.94214571  0.63499020  1
  O  O34  1  0.51476854  0.44214571  0.36500980  1
  O  O35  1  0.01476854  0.05785429  0.13499020  1
