# generated using pymatgen
data_Te2MoWSeS
_symmetry_space_group_name_H-M   'P 1'
_cell_length_a   3.40126115
_cell_length_b   3.40126210
_cell_length_c   38.85568595
_cell_angle_alpha   90.00002178
_cell_angle_beta   90.00000000
_cell_angle_gamma   119.99999081
_symmetry_Int_Tables_number   1
_chemical_formula_structural   Te2MoWSeS
_chemical_formula_sum   'Te4 Mo2 W2 Se2 S2'
_cell_volume   389.28290371
_cell_formula_units_Z   2
loop_
 _symmetry_equiv_pos_site_id
 _symmetry_equiv_pos_as_xyz
  1  'x, y, z'
loop_
 _atom_site_type_symbol
 _atom_site_label
 _atom_site_symmetry_multiplicity
 _atom_site_fract_x
 _atom_site_fract_y
 _atom_site_fract_z
 _atom_site_occupancy
  Te  Te0  1  0.33335877  0.66671854  0.33020418  1
  Te  Te1  1  0.33334932  0.66669965  0.70593773  1
  Te  Te2  1  0.33335294  0.66670687  0.23333012  1
  Te  Te3  1  0.33335331  0.66670763  0.60911820  1
  Mo  Mo4  1  0.33331113  0.66662226  0.09395285  1
  Mo  Mo5  1  0.33330848  0.66661695  0.46967811  1
  W  W6  1  0.66669382  0.33338764  0.28180355  1
  W  W7  1  0.66668692  0.33337384  0.65754784  1
  Se  Se8  1  0.66664713  0.33329325  0.42728456  1
  Se  Se9  1  0.66664714  0.33329329  0.51201988  1
  S  S10  1  0.66664419  0.33328738  0.05530537  1
  S  S11  1  0.66664685  0.33329270  0.13256560  1
