# generated using pymatgen
data_Ba4Nd2Cu6O13
_symmetry_space_group_name_H-M   'P 1'
_cell_length_a   5.57537329
_cell_length_b   5.57537329
_cell_length_c   12.66339541
_cell_angle_alpha   77.00416921
_cell_angle_beta   77.00416921
_cell_angle_gamma   88.76548883
_symmetry_Int_Tables_number   1
_chemical_formula_structural   Ba4Nd2Cu6O13
_chemical_formula_sum   'Ba4 Nd2 Cu6 O13'
_cell_volume   373.55750379
_cell_formula_units_Z   1
loop_
 _symmetry_equiv_pos_site_id
 _symmetry_equiv_pos_as_xyz
  1  'x, y, z'
loop_
 _atom_site_type_symbol
 _atom_site_label
 _atom_site_symmetry_multiplicity
 _atom_site_fract_x
 _atom_site_fract_y
 _atom_site_fract_z
 _atom_site_occupancy
  Ba  Ba0  1  0.08749420  0.60161283  0.81089296  1
  Ba  Ba1  1  0.60161283  0.08749420  0.81089296  1
  Ba  Ba2  1  0.41250580  0.89838717  0.18910704  1
  Ba  Ba3  1  0.89838717  0.41250580  0.18910704  1
  Nd  Nd4  1  0.25000000  0.75000000  0.50000000  1
  Nd  Nd5  1  0.75000000  0.25000000  0.50000000  1
  Cu  Cu6  1  0.17911563  0.17911563  0.64483032  1
  Cu  Cu7  1  0.67605405  0.67605405  0.64483032  1
  Cu  Cu8  1  0.32088437  0.32088437  0.35516968  1
  Cu  Cu9  1  0.82394595  0.82394595  0.35516968  1
  Cu  Cu10  1  0.51148796  0.51148796  0.00000000  1
  Cu  Cu11  1  0.98851204  0.98851204  0.00000000  1
  O  O12  1  0.09742248  0.09742248  0.84913335  1
  O  O13  1  0.55344417  0.55344417  0.84913335  1
  O  O14  1  0.40257752  0.40257752  0.15086665  1
  O  O15  1  0.94655583  0.94655583  0.15086665  1
  O  O16  1  0.43657203  0.93657203  0.62685594  1
  O  O17  1  0.93657203  0.43657203  0.62685594  1
  O  O18  1  0.93469281  0.93469281  0.63061439  1
  O  O19  1  0.43641453  0.43641453  0.62717094  1
  O  O20  1  0.56342797  0.06342797  0.37314406  1
  O  O21  1  0.06342797  0.56342797  0.37314406  1
  O  O22  1  0.06358547  0.06358547  0.37282906  1
  O  O23  1  0.56530719  0.56530719  0.36938561  1
  O  O24  1  0.75000000  0.75000000  0.00000000  1
