# generated using pymatgen
data_Ba3SrTl2Cu2HgO10
_symmetry_space_group_name_H-M   'P 1'
_cell_length_a   3.90064498
_cell_length_b   3.90064498
_cell_length_c   21.66580014
_cell_angle_alpha   84.83532832
_cell_angle_beta   84.83532832
_cell_angle_gamma   90.00000000
_symmetry_Int_Tables_number   1
_chemical_formula_structural   Ba3SrTl2Cu2HgO10
_chemical_formula_sum   'Ba3 Sr1 Tl2 Cu2 Hg1 O10'
_cell_volume   326.96368555
_cell_formula_units_Z   1
loop_
 _symmetry_equiv_pos_site_id
 _symmetry_equiv_pos_as_xyz
  1  'x, y, z'
loop_
 _atom_site_type_symbol
 _atom_site_label
 _atom_site_symmetry_multiplicity
 _atom_site_fract_x
 _atom_site_fract_y
 _atom_site_fract_z
 _atom_site_occupancy
  Ba  Ba0  1  0.34156689  0.34156689  0.31686622  1
  Ba  Ba1  1  0.56967823  0.56967823  0.86064354  1
  Ba  Ba2  1  0.43138107  0.43138107  0.13723786  1
  Sr  Sr3  1  0.65553443  0.65553443  0.68893114  1
  Tl  Tl4  1  0.22231934  0.22231934  0.55536132  1
  Tl  Tl5  1  0.77582073  0.77582073  0.44835854  1
  Cu  Cu6  1  0.11614762  0.11614762  0.76770477  1
  Cu  Cu7  1  0.88595009  0.88595009  0.22809981  1
  Hg  Hg8  1  0.00019138  0.00019138  0.99961723  1
  O  O9  1  0.72732006  0.72732006  0.54535987  1
  O  O10  1  0.27124594  0.27124594  0.45750813  1
  O  O11  1  0.04707595  0.04707595  0.90584811  1
  O  O12  1  0.95342441  0.95342441  0.09315118  1
  O  O13  1  0.11511312  0.61511312  0.76977375  1
  O  O14  1  0.61511312  0.11511312  0.76977375  1
  O  O15  1  0.88709682  0.38709682  0.22580635  1
  O  O16  1  0.38709682  0.88709682  0.22580635  1
  O  O17  1  0.17465279  0.17465279  0.65069443  1
  O  O18  1  0.82327118  0.82327118  0.35345764  1
