# generated using pymatgen
data_Ba5(Ga2Se5)2
_symmetry_space_group_name_H-M   'P 1'
_cell_length_a   8.94064568
_cell_length_b   8.94064568
_cell_length_c   9.45123759
_cell_angle_alpha   62.52453558
_cell_angle_beta   62.52453558
_cell_angle_gamma   91.40766220
_symmetry_Int_Tables_number   1
_chemical_formula_structural   Ba5(Ga2Se5)2
_chemical_formula_sum   'Ba5 Ga4 Se10'
_cell_volume   566.97507719
_cell_formula_units_Z   1
loop_
 _symmetry_equiv_pos_site_id
 _symmetry_equiv_pos_as_xyz
  1  'x, y, z'
loop_
 _atom_site_type_symbol
 _atom_site_label
 _atom_site_symmetry_multiplicity
 _atom_site_fract_x
 _atom_site_fract_y
 _atom_site_fract_z
 _atom_site_occupancy
  Ba  Ba0  1  0.25393879  0.25393879  0.50000000  1
  Ba  Ba1  1  0.75393879  0.75393879  0.50000000  1
  Ba  Ba2  1  0.35945207  0.14990974  -0.00000000  1
  Ba  Ba3  1  0.64990974  0.85945207  -0.00000000  1
  Ba  Ba4  1  0.15397270  0.65397270  -0.00000000  1
  Ga  Ga5  1  0.74838650  0.24838650  0.50097761  1
  Ga  Ga6  1  0.24936411  0.74936411  0.49902239  1
  Ga  Ga7  1  0.77417432  0.46854144  -0.00000000  1
  Ga  Ga8  1  0.96854144  0.27417432  -0.00000000  1
  Se  Se9  1  0.70058038  0.50145255  0.28338568  1
  Se  Se10  1  0.00145255  0.20058038  0.28338568  1
  Se  Se11  1  0.50171400  0.00171400  0.30092770  1
  Se  Se12  1  0.19814190  0.69814190  0.29522911  1
  Se  Se13  1  0.28483822  0.48396606  0.71661432  1
  Se  Se14  1  0.98396606  0.78483822  0.71661432  1
  Se  Se15  1  0.49337101  0.99337101  0.70477089  1
  Se  Se16  1  0.80264170  0.30264170  0.69907230  1
  Se  Se17  1  0.50837500  0.49686070  -0.00000000  1
  Se  Se18  1  0.99686070  0.00837500  -0.00000000  1
