# generated using pymatgen
data_Ba4Nd8Cu3PtO20
_symmetry_space_group_name_H-M   'P 1'
_cell_length_a   5.90881558
_cell_length_b   6.78118336
_cell_length_c   13.56743267
_cell_angle_alpha   89.85634789
_cell_angle_beta   90.00000000
_cell_angle_gamma   90.00000000
_symmetry_Int_Tables_number   1
_chemical_formula_structural   Ba4Nd8Cu3PtO20
_chemical_formula_sum   'Ba4 Nd8 Cu3 Pt1 O20'
_cell_volume   543.62852034
_cell_formula_units_Z   1
loop_
 _symmetry_equiv_pos_site_id
 _symmetry_equiv_pos_as_xyz
  1  'x, y, z'
loop_
 _atom_site_type_symbol
 _atom_site_label
 _atom_site_symmetry_multiplicity
 _atom_site_fract_x
 _atom_site_fract_y
 _atom_site_fract_z
 _atom_site_occupancy
  Ba  Ba0  1  -0.00000000  0.50000000  0.25000000  1
  Ba  Ba1  1  -0.00000000  0.50000000  0.75000000  1
  Ba  Ba2  1  -0.00000000  0.99858350  0.99981609  1
  Ba  Ba3  1  -0.00000000  0.00141650  0.50018391  1
  Nd  Nd4  1  0.50000000  0.17583645  0.33774573  1
  Nd  Nd5  1  0.50000000  0.17356146  0.83687052  1
  Nd  Nd6  1  0.50000000  0.82416355  0.16225427  1
  Nd  Nd7  1  0.50000000  0.82643854  0.66312948  1
  Nd  Nd8  1  0.50000000  0.32843502  0.08541343  1
  Nd  Nd9  1  0.50000000  0.32590818  0.58731193  1
  Nd  Nd10  1  0.50000000  0.67156498  0.41458657  1
  Nd  Nd11  1  0.50000000  0.67409182  0.91268807  1
  Cu  Cu12  1  -0.00000000  -0.00000000  0.75000000  1
  Cu  Cu13  1  -0.00000000  0.49957771  -0.00009047  1
  Cu  Cu14  1  -0.00000000  0.50042229  0.50009047  1
  Pt  Pt15  1  -0.00000000  -0.00000000  0.25000000  1
  O  O16  1  0.74797873  0.85727207  0.32138437  1
  O  O17  1  0.75651209  0.86153683  0.81921318  1
  O  O18  1  0.74797873  0.14272793  0.17861563  1
  O  O19  1  0.75651209  0.13846317  0.68078682  1
  O  O20  1  0.75499301  0.63710102  0.06849318  1
  O  O21  1  0.75630054  0.63865066  0.56934908  1
  O  O22  1  0.75499301  0.36289898  0.43150682  1
  O  O23  1  0.75630054  0.36134934  0.93065092  1
  O  O24  1  0.25202127  0.14272793  0.17861563  1
  O  O25  1  0.24348791  0.13846317  0.68078682  1
  O  O26  1  0.25202127  0.85727207  0.32138437  1
  O  O27  1  0.24348791  0.86153683  0.81921318  1
  O  O28  1  0.24500699  0.36289898  0.43150682  1
  O  O29  1  0.24369946  0.36134934  0.93065092  1
  O  O30  1  0.24500699  0.63710102  0.06849318  1
  O  O31  1  0.24369946  0.63865066  0.56934908  1
  O  O32  1  0.50000000  0.50000000  0.25000000  1
  O  O33  1  0.50000000  0.50000000  0.75000000  1
  O  O34  1  0.50000000  0.99943698  0.99942848  1
  O  O35  1  0.50000000  0.00056302  0.50057152  1
