# generated using pymatgen
data_Ba4Dy2Cu6NiO15
_symmetry_space_group_name_H-M   'P 1'
_cell_length_a   3.91589692
_cell_length_b   3.88931414
_cell_length_c   25.44396347
_cell_angle_alpha   85.61666434
_cell_angle_beta   90.00000000
_cell_angle_gamma   90.00000000
_symmetry_Int_Tables_number   1
_chemical_formula_structural   Ba4Dy2Cu6NiO15
_chemical_formula_sum   'Ba4 Dy2 Cu6 Ni1 O15'
_cell_volume   386.38198969
_cell_formula_units_Z   1
loop_
 _symmetry_equiv_pos_site_id
 _symmetry_equiv_pos_as_xyz
  1  'x, y, z'
loop_
 _atom_site_type_symbol
 _atom_site_label
 _atom_site_symmetry_multiplicity
 _atom_site_fract_x
 _atom_site_fract_y
 _atom_site_fract_z
 _atom_site_occupancy
  Ba  Ba0  1  0.50000000  0.31158397  0.37683206  1
  Ba  Ba1  1  0.50000000  0.68818691  0.62362618  1
  Ba  Ba2  1  0.50000000  0.45817381  0.08365238  1
  Ba  Ba3  1  0.50000000  0.54191401  0.91617198  1
  Dy  Dy4  1  0.50000000  0.38467139  0.23065722  1
  Dy  Dy5  1  0.50000000  0.61462869  0.77074262  1
  Cu  Cu6  1  -0.00000000  0.00030899  0.99938202  1
  Cu  Cu7  1  0.00000000  0.77044373  0.45911254  1
  Cu  Cu8  1  0.00000000  0.22961623  0.54076755  1
  Cu  Cu9  1  -0.00000000  0.85123521  0.29752959  1
  Cu  Cu10  1  0.00000000  0.14891832  0.70216336  1
  Cu  Cu11  1  -0.00000000  0.91824806  0.16350388  1
  Ni  Ni12  1  -0.00000000  0.07949161  0.84101678  1
  O  O13  1  -0.00000000  0.35681070  0.28637859  1
  O  O14  1  0.00000000  0.64341431  0.71317138  1
  O  O15  1  0.50000000  0.91232137  0.17535725  1
  O  O16  1  0.50000000  0.08784493  0.82431014  1
  O  O17  1  0.50000000  0.85596350  0.28807300  1
  O  O18  1  0.50000000  0.14426565  0.71146871  1
  O  O19  1  0.00000000  0.80672268  0.38655465  1
  O  O20  1  -0.00000000  0.19336053  0.61327893  1
  O  O21  1  -0.00000000  0.96325697  0.07348606  1
  O  O22  1  -0.00000000  0.03820507  0.92358987  1
  O  O23  1  -0.00000000  0.41272332  0.17455336  1
  O  O24  1  -0.00000000  0.58745262  0.82509476  1
  O  O25  1  0.00000000  0.26704138  0.46591724  1
  O  O26  1  0.00000000  0.73295274  0.53409453  1
  O  O27  1  0.50000000  0.00024331  0.99951337  1
