# generated using pymatgen
data_Ba4PrDy(Cu3O7)2
_symmetry_space_group_name_H-M   'P 1'
_cell_length_a   3.87830586
_cell_length_b   3.94272248
_cell_length_c   23.66707417
_cell_angle_alpha   90.00000000
_cell_angle_beta   90.00000000
_cell_angle_gamma   90.00000000
_symmetry_Int_Tables_number   1
_chemical_formula_structural   Ba4PrDy(Cu3O7)2
_chemical_formula_sum   'Ba4 Pr1 Dy1 Cu6 O14'
_cell_volume   361.89521203
_cell_formula_units_Z   1
loop_
 _symmetry_equiv_pos_site_id
 _symmetry_equiv_pos_as_xyz
  1  'x, y, z'
loop_
 _atom_site_type_symbol
 _atom_site_label
 _atom_site_symmetry_multiplicity
 _atom_site_fract_x
 _atom_site_fract_y
 _atom_site_fract_z
 _atom_site_occupancy
  Ba  Ba0  1  0.50000000  0.50000000  0.08984212  1
  Ba  Ba1  1  0.50000000  0.50000000  0.59029246  1
  Ba  Ba2  1  0.50000000  0.50000000  0.41015660  1
  Ba  Ba3  1  0.50000000  0.50000000  0.90970860  1
  Pr  Pr4  1  0.50000000  0.50000000  0.25000088  1
  Dy  Dy5  1  0.50000000  0.50000000  0.74999922  1
  Cu  Cu6  1  -0.00000000  0.00000000  0.17335404  1
  Cu  Cu7  1  0.00000000  -0.00000000  0.67544372  1
  Cu  Cu8  1  0.00000000  0.00000000  0.32664518  1
  Cu  Cu9  1  0.00000000  0.00000000  0.82455651  1
  Cu  Cu10  1  -0.00000000  -0.00000000  0.99994402  1
  Cu  Cu11  1  -0.00000000  0.00000000  0.50005643  1
  O  O12  1  -0.00000000  0.00000000  0.07926783  1
  O  O13  1  -0.00000000  -0.00000000  0.57974903  1
  O  O14  1  -0.00000000  0.00000000  0.42073276  1
  O  O15  1  0.00000000  -0.00000000  0.92025040  1
  O  O16  1  0.50000000  -0.00000000  0.18521976  1
  O  O17  1  0.50000000  -0.00000000  0.68955578  1
  O  O18  1  0.50000000  0.00000000  0.31478015  1
  O  O19  1  0.50000000  -0.00000000  0.81044429  1
  O  O20  1  0.00000000  0.50000000  0.99973535  1
  O  O21  1  -0.00000000  0.50000000  0.50026502  1
  O  O22  1  0.00000000  0.50000000  0.18476958  1
  O  O23  1  -0.00000000  0.50000000  0.68925902  1
  O  O24  1  0.00000000  0.50000000  0.31523019  1
  O  O25  1  0.00000000  0.50000000  0.81074107  1
