# generated using pymatgen
data_Ca3Mn2SbO9
_symmetry_space_group_name_H-M   'P 1'
_cell_length_a   5.57901958
_cell_length_b   7.68342083
_cell_length_c   16.46183846
_cell_angle_alpha   90.19762671
_cell_angle_beta   88.20867450
_cell_angle_gamma   90.31223396
_symmetry_Int_Tables_number   1
_chemical_formula_structural   Ca3Mn2SbO9
_chemical_formula_sum   'Ca12 Mn8 Sb4 O36'
_cell_volume   705.29331361
_cell_formula_units_Z   4
loop_
 _symmetry_equiv_pos_site_id
 _symmetry_equiv_pos_as_xyz
  1  'x, y, z'
loop_
 _atom_site_type_symbol
 _atom_site_label
 _atom_site_symmetry_multiplicity
 _atom_site_fract_x
 _atom_site_fract_y
 _atom_site_fract_z
 _atom_site_occupancy
  Ca  Ca0  1  0.44550312  0.74551836  0.17848281  1
  Ca  Ca1  1  0.44568245  0.73179084  0.50514834  1
  Ca  Ca2  1  0.44722444  0.74417218  0.83171710  1
  Ca  Ca3  1  0.55277556  0.25582782  0.16828290  1
  Ca  Ca4  1  0.55431755  0.26820916  0.49485166  1
  Ca  Ca5  1  0.55449688  0.25448164  0.82151719  1
  Ca  Ca6  1  0.96164353  0.73450019  0.33313219  1
  Ca  Ca7  1  0.95225229  0.73461294  0.66484993  1
  Ca  Ca8  1  0.96180497  0.74909812  0.00167666  1
  Ca  Ca9  1  0.03819503  0.25090188  0.99832334  1
  Ca  Ca10  1  0.04774771  0.26538706  0.33515007  1
  Ca  Ca11  1  0.03835647  0.26549981  0.66686781  1
  Mn  Mn12  1  0.00023312  0.49982956  0.17006836  1
  Mn  Mn13  1  0.00000000  0.50000000  0.50000000  1
  Mn  Mn14  1  0.99976688  0.50017044  0.82993164  1
  Mn  Mn15  1  0.00297549  0.00183871  0.16872403  1
  Mn  Mn16  1  0.00000000  0.00000000  0.50000000  1
  Mn  Mn17  1  0.99702451  0.99816129  0.83127597  1
  Mn  Mn18  1  0.50318661  0.50095456  0.33548874  1
  Mn  Mn19  1  0.49681339  0.49904544  0.66451126  1
  Sb  Sb20  1  0.50000000  0.50000000  -0.00000000  1
  Sb  Sb21  1  0.50000000  0.00000000  -0.00000000  1
  Sb  Sb22  1  0.50588178  0.99778717  0.33819632  1
  Sb  Sb23  1  0.49411822  0.00221283  0.66180368  1
  O  O24  1  0.21764584  0.53606576  0.26507930  1
  O  O25  1  0.20314393  0.53996770  0.59450460  1
  O  O26  1  0.21449524  0.54984910  0.93471851  1
  O  O27  1  0.78638090  0.05112531  0.06204161  1
  O  O28  1  0.80757369  0.04585773  0.40110432  1
  O  O29  1  0.78063679  0.05092076  0.72533945  1
  O  O30  1  0.78550476  0.45015090  0.06528149  1
  O  O31  1  0.79685607  0.46003230  0.40549540  1
  O  O32  1  0.78235416  0.46393424  0.73492070  1
  O  O33  1  0.21936321  0.94907924  0.27466055  1
  O  O34  1  0.19242631  0.95414227  0.59889568  1
  O  O35  1  0.21361910  0.94887469  0.93795839  1
  O  O36  1  0.53518826  0.74947022  0.03733628  1
  O  O37  1  0.53865506  0.74539203  0.36657141  1
  O  O38  1  0.51997956  0.74836990  0.69028953  1
  O  O39  1  0.48002044  0.25163010  0.30971047  1
  O  O40  1  0.46134494  0.25460797  0.63342859  1
  O  O41  1  0.46481174  0.25052978  0.96266372  1
  O  O42  1  0.03268069  0.74909343  0.14163790  1
  O  O43  1  0.03049563  0.75250075  0.47248450  1
  O  O44  1  0.03008387  0.74909587  0.80339435  1
  O  O45  1  0.96991613  0.25090413  0.19660565  1
  O  O46  1  0.96950437  0.24749925  0.52751550  1
  O  O47  1  0.96731931  0.25090657  0.85836210  1
  O  O48  1  0.70973115  0.54257753  0.23727328  1
  O  O49  1  0.71027148  0.54002188  0.56892913  1
  O  O50  1  0.70851563  0.55213253  0.90195269  1
  O  O51  1  0.29901096  0.05124466  0.10106997  1
  O  O52  1  0.30370103  0.04602827  0.43994555  1
  O  O53  1  0.29290454  0.04393100  0.76316578  1
  O  O54  1  0.29148437  0.44786747  0.09804731  1
  O  O55  1  0.28972852  0.45997812  0.43107087  1
  O  O56  1  0.29026885  0.45742247  0.76272672  1
  O  O57  1  0.70709546  0.95606900  0.23683422  1
  O  O58  1  0.69629897  0.95397173  0.56005445  1
  O  O59  1  0.70098904  0.94875534  0.89893003  1
