# generated using pymatgen
data_Ba2NaLaTi4O12
_symmetry_space_group_name_H-M   'P 1'
_cell_length_a   5.62581064
_cell_length_b   5.62581064
_cell_length_c   8.87606103
_cell_angle_alpha   71.52389156
_cell_angle_beta   71.52389156
_cell_angle_gamma   90.00000000
_symmetry_Int_Tables_number   1
_chemical_formula_structural   Ba2NaLaTi4O12
_chemical_formula_sum   'Ba2 Na1 La1 Ti4 O12'
_cell_volume   251.13147873
_cell_formula_units_Z   1
loop_
 _symmetry_equiv_pos_site_id
 _symmetry_equiv_pos_as_xyz
  1  'x, y, z'
loop_
 _atom_site_type_symbol
 _atom_site_label
 _atom_site_symmetry_multiplicity
 _atom_site_fract_x
 _atom_site_fract_y
 _atom_site_fract_z
 _atom_site_occupancy
  Ba  Ba0  1  0.75253328  0.75253328  0.49493344  1
  Ba  Ba1  1  0.24746672  0.24746672  0.50506656  1
  Na  Na2  1  -0.00000000  -0.00000000  0.00000000  1
  La  La3  1  0.50000000  0.50000000  0.00000000  1
  Ti  Ti4  1  0.62161086  0.12161086  0.75677829  1
  Ti  Ti5  1  0.37838914  0.87838914  0.24322171  1
  Ti  Ti6  1  0.12161086  0.62161086  0.75677829  1
  Ti  Ti7  1  0.87838914  0.37838914  0.24322171  1
  O  O8  1  0.37582082  0.37582082  0.76146499  1
  O  O9  1  0.13728582  0.13728582  0.23853501  1
  O  O10  1  0.86271418  0.86271418  0.76146499  1
  O  O11  1  0.62417918  0.62417918  0.23853501  1
  O  O12  1  0.86271418  0.37582082  0.76146499  1
  O  O13  1  0.62417918  0.13728582  0.23853501  1
  O  O14  1  0.37582082  0.86271418  0.76146499  1
  O  O15  1  0.13728582  0.62417918  0.23853501  1
  O  O16  1  0.75000000  0.25000000  0.50000000  1
  O  O17  1  0.50000000  -0.00000000  0.00000000  1
  O  O18  1  0.25000000  0.75000000  0.50000000  1
  O  O19  1  -0.00000000  0.50000000  0.00000000  1
