# generated using pymatgen
data_Ba6Ho2Al2Rh2O15
_symmetry_space_group_name_H-M   'P 1'
_cell_length_a   5.95691817
_cell_length_b   5.93926630
_cell_length_c   14.89105054
_cell_angle_alpha   90.00000000
_cell_angle_beta   90.00000000
_cell_angle_gamma   59.90175290
_symmetry_Int_Tables_number   1
_chemical_formula_structural   Ba6Ho2Al2Rh2O15
_chemical_formula_sum   'Ba6 Ho2 Al2 Rh2 O15'
_cell_volume   455.80553732
_cell_formula_units_Z   1
loop_
 _symmetry_equiv_pos_site_id
 _symmetry_equiv_pos_as_xyz
  1  'x, y, z'
loop_
 _atom_site_type_symbol
 _atom_site_label
 _atom_site_symmetry_multiplicity
 _atom_site_fract_x
 _atom_site_fract_y
 _atom_site_fract_z
 _atom_site_occupancy
  Ba  Ba0  1  0.33060058  0.33879995  0.18884548  1
  Ba  Ba1  1  0.33060058  0.33879995  0.81115452  1
  Ba  Ba2  1  0.00482141  0.99035823  -0.00000000  1
  Ba  Ba3  1  0.66865038  0.66269282  0.64560584  1
  Ba  Ba4  1  0.66865038  0.66269282  0.35439416  1
  Ba  Ba5  1  0.99367263  0.01265491  0.50000000  1
  Ho  Ho6  1  0.99593083  0.00813678  0.24784423  1
  Ho  Ho7  1  0.99593083  0.00813678  0.75215577  1
  Al  Al8  1  0.65822922  0.68354950  0.11458964  1
  Al  Al9  1  0.65822922  0.68354950  0.88541036  1
  Rh  Rh10  1  0.32613303  0.34772159  0.58484945  1
  Rh  Rh11  1  0.32613303  0.34772159  0.41515055  1
  O  O12  1  0.83110525  0.82777468  0.15919205  1
  O  O13  1  0.82764662  0.34470651  0.14222568  1
  O  O14  1  0.34112768  0.82778419  0.15919360  1
  O  O15  1  0.83110525  0.82777468  0.84080795  1
  O  O16  1  0.82764662  0.34470651  0.85777432  1
  O  O17  1  0.34112768  0.82778419  0.84080640  1
  O  O18  1  0.17000449  0.65999623  0.33095518  1
  O  O19  1  0.65224159  0.17295885  0.33939817  1
  O  O20  1  0.17479297  0.17296307  0.33939826  1
  O  O21  1  0.17000449  0.65999623  0.66904482  1
  O  O22  1  0.65224159  0.17295885  0.66060183  1
  O  O23  1  0.17479297  0.17296307  0.66060174  1
  O  O24  1  0.61794141  0.76412724  -0.00000000  1
  O  O25  1  0.00333825  0.51835008  0.50000000  1
  O  O26  1  0.47830102  0.51834122  0.50000000  1
