# generated using pymatgen
data_AgPd2Au
_symmetry_space_group_name_H-M   'P 1'
_cell_length_a   2.87479384
_cell_length_b   2.87479384
_cell_length_c   9.46987362
_cell_angle_alpha   98.73045405
_cell_angle_beta   90.00000000
_cell_angle_gamma   120.00000000
_symmetry_Int_Tables_number   1
_chemical_formula_structural   AgPd2Au
_chemical_formula_sum   'Ag1 Pd2 Au1'
_cell_volume   66.72877241
_cell_formula_units_Z   1
loop_
 _symmetry_equiv_pos_site_id
 _symmetry_equiv_pos_as_xyz
  1  'x, y, z'
loop_
 _atom_site_type_symbol
 _atom_site_label
 _atom_site_symmetry_multiplicity
 _atom_site_fract_x
 _atom_site_fract_y
 _atom_site_fract_z
 _atom_site_occupancy
  Ag  Ag0  1  0.99803080  0.99606161  0.99409241  1
  Pd  Pd1  1  0.50182949  0.00365898  0.50548847  1
  Pd  Pd2  1  0.24850788  0.49701576  0.74552364  1
  Au  Au3  1  0.75163183  0.50326365  0.25489548  1
