# generated using pymatgen
data_CsLa2TaTi2O10
_symmetry_space_group_name_H-M   'P 1'
_cell_length_a   3.89483421
_cell_length_b   3.89483421
_cell_length_c   15.71052765
_cell_angle_alpha   89.57125234
_cell_angle_beta   90.42874766
_cell_angle_gamma   90.06639775
_symmetry_Int_Tables_number   1
_chemical_formula_structural   CsLa2TaTi2O10
_chemical_formula_sum   'Cs1 La2 Ta1 Ti2 O10'
_cell_volume   238.31102746
_cell_formula_units_Z   1
loop_
 _symmetry_equiv_pos_site_id
 _symmetry_equiv_pos_as_xyz
  1  'x, y, z'
loop_
 _atom_site_type_symbol
 _atom_site_label
 _atom_site_symmetry_multiplicity
 _atom_site_fract_x
 _atom_site_fract_y
 _atom_site_fract_z
 _atom_site_occupancy
  Cs  Cs0  1  0.49994786  0.50005214  0.50771282  1
  La  La1  1  0.50738715  0.49261285  0.84570558  1
  La  La2  1  0.49952997  0.50047003  0.12792489  1
  Ta  Ta3  1  0.99971824  0.00028176  0.27804187  1
  Ti  Ti4  1  0.98422495  0.01577505  0.99847813  1
  Ti  Ti5  1  0.00040741  0.99959259  0.71553816  1
  O  O6  1  0.98660252  0.01339748  0.88000166  1
  O  O7  1  0.98498201  0.01501799  0.12881197  1
  O  O8  1  0.99883890  0.00116110  0.60786182  1
  O  O9  1  0.00222671  0.99777329  0.39208837  1
  O  O10  1  0.49875720  0.99942840  0.75145880  1
  O  O11  1  0.00057160  0.50124280  0.75145880  1
  O  O12  1  0.49711452  0.00356661  0.24844246  1
  O  O13  1  0.99643339  0.50288548  0.24844246  1
  O  O14  1  0.47615040  0.04189282  0.00901610  1
  O  O15  1  0.95810718  0.52384960  0.00901610  1
