# generated using pymatgen
data_Ba10Ho5(Cu5O11)3
_symmetry_space_group_name_H-M   'P 1'
_cell_length_a   5.50691987
_cell_length_b   13.14381708
_cell_length_c   13.95589779
_cell_angle_alpha   114.24334894
_cell_angle_beta   99.68353704
_cell_angle_gamma   90.70593187
_symmetry_Int_Tables_number   1
_chemical_formula_structural   Ba10Ho5(Cu5O11)3
_chemical_formula_sum   'Ba10 Ho5 Cu15 O33'
_cell_volume   904.21571842
_cell_formula_units_Z   1
loop_
 _symmetry_equiv_pos_site_id
 _symmetry_equiv_pos_as_xyz
  1  'x, y, z'
loop_
 _atom_site_type_symbol
 _atom_site_label
 _atom_site_symmetry_multiplicity
 _atom_site_fract_x
 _atom_site_fract_y
 _atom_site_fract_z
 _atom_site_occupancy
  Ba  Ba0  1  0.14461459  0.18954600  0.27170641  1
  Ba  Ba1  1  0.34352363  0.19070341  0.67406357  1
  Ba  Ba2  1  0.53647826  0.18226769  0.07294527  1
  Ba  Ba3  1  0.73273051  0.19068795  0.47842522  1
  Ba  Ba4  1  0.93121401  0.18945889  0.87989921  1
  Ba  Ba5  1  0.26726949  0.80931205  0.52157478  1
  Ba  Ba6  1  0.46352174  0.81773231  0.92705473  1
  Ba  Ba7  1  0.65647637  0.80929659  0.32593643  1
  Ba  Ba8  1  0.85538541  0.81045400  0.72829359  1
  Ba  Ba9  1  0.06878599  0.81054111  0.12010079  1
  Ho  Ho10  1  0.19936436  0.49963471  0.40014535  1
  Ho  Ho11  1  0.80063564  0.50036529  0.59985465  1
  Ho  Ho12  1  0.39998498  0.50123491  0.80067137  1
  Ho  Ho13  1  0.00000000  0.50000000  0.00000000  1
  Ho  Ho14  1  0.60001502  0.49876509  0.19932863  1
  Cu  Cu15  1  0.07141227  0.35714126  0.14281494  1
  Cu  Cu16  1  0.67270173  0.35849262  0.34346295  1
  Cu  Cu17  1  0.27059240  0.35948981  0.54341940  1
  Cu  Cu18  1  0.87339347  0.35947639  0.74438019  1
  Cu  Cu19  1  0.47060309  0.35870223  0.94329746  1
  Cu  Cu20  1  0.12660653  0.64052361  0.25561981  1
  Cu  Cu21  1  0.72940760  0.64051019  0.45658060  1
  Cu  Cu22  1  0.32729827  0.64150738  0.65653705  1
  Cu  Cu23  1  0.92858773  0.64285874  0.85718506  1
  Cu  Cu24  1  0.52939691  0.64129777  0.05670254  1
  Cu  Cu25  1  0.00000000  0.00000000  0.00000000  1
  Cu  Cu26  1  0.57990849  0.00001592  0.19393121  1
  Cu  Cu27  1  0.21353223  0.99996897  0.40465985  1
  Cu  Cu28  1  0.78646777  0.00003103  0.59534015  1
  Cu  Cu29  1  0.42009151  0.99998408  0.80606879  1
  O  O30  1  0.37615832  0.37994708  0.25256534  1
  O  O31  1  0.97648697  0.38024975  0.45229514  1
  O  O32  1  0.57585880  0.37818539  0.65138601  1
  O  O33  1  0.17623128  0.38034331  0.85190172  1
  O  O34  1  0.77493312  0.37958931  0.05116058  1
  O  O35  1  0.42414120  0.62181461  0.34861399  1
  O  O36  1  0.02351303  0.61975025  0.54770486  1
  O  O37  1  0.62384168  0.62005292  0.74743466  1
  O  O38  1  0.22506688  0.62041069  0.94883942  1
  O  O39  1  0.82376872  0.61965669  0.14809828  1
  O  O40  1  0.03215178  0.16007787  0.06406763  1
  O  O41  1  0.65198140  0.15266983  0.26844571  1
  O  O42  1  0.20909476  0.15235132  0.45421367  1
  O  O43  1  0.85174485  0.15237862  0.66764255  1
  O  O44  1  0.40904094  0.15258461  0.85367354  1
  O  O45  1  0.14825515  0.84762138  0.33235745  1
  O  O46  1  0.79090524  0.84764868  0.54578633  1
  O  O47  1  0.34801860  0.84733017  0.73155429  1
  O  O48  1  0.96784822  0.83992213  0.93593237  1
  O  O49  1  0.59095906  0.84741539  0.14632646  1
  O  O50  1  0.87660197  0.38182226  0.25277207  1
  O  O51  1  0.47639952  0.38106479  0.45253835  1
  O  O52  1  0.07597589  0.38074856  0.65234907  1
  O  O53  1  0.67585821  0.38094700  0.85230725  1
  O  O54  1  0.27641188  0.38176686  0.05256882  1
  O  O55  1  0.92402411  0.61925144  0.34765093  1
  O  O56  1  0.52360048  0.61893521  0.54746165  1
  O  O57  1  0.12339803  0.61817774  0.74722793  1
  O  O58  1  0.72358812  0.61823314  0.94743118  1
  O  O59  1  0.32414179  0.61905300  0.14769275  1
  O  O60  1  0.28570025  0.99997529  0.09777698  1
  O  O61  1  0.50000000  0.00000000  0.50000000  1
  O  O62  1  0.71429975  0.00002471  0.90222302  1
