# generated using pymatgen
data_Ba6Pr2Y(CuO2)12
_symmetry_space_group_name_H-M   'P 1'
_cell_length_a   3.93820274
_cell_length_b   3.91559773
_cell_length_c   41.54960218
_cell_angle_alpha   92.70075250
_cell_angle_beta   90.00000000
_cell_angle_gamma   90.00000000
_symmetry_Int_Tables_number   1
_chemical_formula_structural   Ba6Pr2Y(CuO2)12
_chemical_formula_sum   'Ba6 Pr2 Y1 Cu12 O24'
_cell_volume   640.00055418
_cell_formula_units_Z   1
loop_
 _symmetry_equiv_pos_site_id
 _symmetry_equiv_pos_as_xyz
  1  'x, y, z'
loop_
 _atom_site_type_symbol
 _atom_site_label
 _atom_site_symmetry_multiplicity
 _atom_site_fract_x
 _atom_site_fract_y
 _atom_site_fract_z
 _atom_site_occupancy
  Ba  Ba0  1  0.50000000  0.54522577  0.09045255  1
  Ba  Ba1  1  0.50000000  0.21222286  0.42444572  1
  Ba  Ba2  1  0.50000000  0.87887020  0.75773941  1
  Ba  Ba3  1  0.50000000  0.12112980  0.24226059  1
  Ba  Ba4  1  0.50000000  0.78777714  0.57555428  1
  Ba  Ba5  1  0.50000000  0.45477423  0.90954745  1
  Pr  Pr6  1  0.50000000  0.16669389  0.33338679  1
  Pr  Pr7  1  0.50000000  0.83330611  0.66661321  1
  Y  Y8  1  0.50000000  0.50000000  -0.00000000  1
  Cu  Cu9  1  -0.00000000  0.07077294  0.14154487  1
  Cu  Cu10  1  -0.00000000  0.73756293  0.47512686  1
  Cu  Cu11  1  -0.00000000  0.40428416  0.80856831  1
  Cu  Cu12  1  -0.00000000  0.59571584  0.19143169  1
  Cu  Cu13  1  -0.00000000  0.26243707  0.52487314  1
  Cu  Cu14  1  -0.00000000  0.92922706  0.85845513  1
  Cu  Cu15  1  0.00000000  0.02058454  0.04116908  1
  Cu  Cu16  1  0.00000000  0.68825175  0.37650249  1
  Cu  Cu17  1  -0.00000000  0.35491423  0.70982947  1
  Cu  Cu18  1  -0.00000000  0.64508577  0.29017053  1
  Cu  Cu19  1  -0.00000000  0.31174825  0.62349751  1
  Cu  Cu20  1  0.00000000  0.97941546  0.95883092  1
  O  O21  1  -0.00000000  0.04847837  0.09695674  1
  O  O22  1  -0.00000000  0.71536700  0.43073300  1
  O  O23  1  -0.00000000  0.38204888  0.76409876  1
  O  O24  1  -0.00000000  0.61795112  0.23590124  1
  O  O25  1  -0.00000000  0.28463300  0.56926700  1
  O  O26  1  -0.00000000  0.95152163  0.90304326  1
  O  O27  1  0.50000000  0.01748113  0.03496127  1
  O  O28  1  0.50000000  0.68540094  0.37080288  1
  O  O29  1  0.50000000  0.35206980  0.70413959  1
  O  O30  1  0.50000000  0.64793020  0.29586041  1
  O  O31  1  0.50000000  0.31459906  0.62919712  1
  O  O32  1  0.50000000  0.98251887  0.96503873  1
  O  O33  1  -0.00000000  0.57289106  0.14578311  1
  O  O34  1  -0.00000000  0.23962684  0.47925368  1
  O  O35  1  -0.00000000  0.90638325  0.81276550  1
  O  O36  1  -0.00000000  0.09361675  0.18723450  1
  O  O37  1  -0.00000000  0.76037316  0.52074632  1
  O  O38  1  -0.00000000  0.42710894  0.85421689  1
  O  O39  1  -0.00000000  0.51726876  0.03453751  1
  O  O40  1  -0.00000000  0.18515259  0.37030419  1
  O  O41  1  -0.00000000  0.85181504  0.70363108  1
  O  O42  1  -0.00000000  0.14818496  0.29636892  1
  O  O43  1  -0.00000000  0.81484741  0.62969581  1
  O  O44  1  -0.00000000  0.48273124  0.96546249  1
