# generated using pymatgen
data_AlCrGe
_symmetry_space_group_name_H-M   'P 1'
_cell_length_a   4.74763571
_cell_length_b   4.74763571
_cell_length_c   4.92155808
_cell_angle_alpha   75.94187521
_cell_angle_beta   75.94187521
_cell_angle_gamma   119.76150324
_symmetry_Int_Tables_number   1
_chemical_formula_structural   AlCrGe
_chemical_formula_sum   'Al2 Cr2 Ge2'
_cell_volume   84.26549873
_cell_formula_units_Z   2
loop_
 _symmetry_equiv_pos_site_id
 _symmetry_equiv_pos_as_xyz
  1  'x, y, z'
loop_
 _atom_site_type_symbol
 _atom_site_label
 _atom_site_symmetry_multiplicity
 _atom_site_fract_x
 _atom_site_fract_y
 _atom_site_fract_z
 _atom_site_occupancy
  Al  Al0  1  0.57786068  0.42213932  0.50000000  1
  Al  Al1  1  0.92213932  0.07786068  0.50000000  1
  Cr  Cr2  1  0.25000000  0.75000000  0.50000000  1
  Cr  Cr3  1  0.00000000  -0.00000000  0.00000000  1
  Ge  Ge4  1  0.66934347  0.33065653  -0.00000000  1
  Ge  Ge5  1  0.33065653  0.66934347  -0.00000000  1
