# generated using pymatgen
data_Ba8Sr2Sm5(Cu3O7)5
_symmetry_space_group_name_H-M   'P 1'
_cell_length_a   3.85035371
_cell_length_b   3.94434235
_cell_length_c   58.66747375
_cell_angle_alpha   90.00000000
_cell_angle_beta   90.00000000
_cell_angle_gamma   90.00000000
_symmetry_Int_Tables_number   1
_chemical_formula_structural   Ba8Sr2Sm5(Cu3O7)5
_chemical_formula_sum   'Ba8 Sr2 Sm5 Cu15 O35'
_cell_volume   890.98956505
_cell_formula_units_Z   1
loop_
 _symmetry_equiv_pos_site_id
 _symmetry_equiv_pos_as_xyz
  1  'x, y, z'
loop_
 _atom_site_type_symbol
 _atom_site_label
 _atom_site_symmetry_multiplicity
 _atom_site_fract_x
 _atom_site_fract_y
 _atom_site_fract_z
 _atom_site_occupancy
  Ba  Ba0  1  0.50000000  0.50000000  0.03570718  1
  Ba  Ba1  1  0.50000000  0.50000000  0.23583930  1
  Ba  Ba2  1  0.50000000  0.50000000  0.43590522  1
  Ba  Ba3  1  0.50000000  0.50000000  0.63598263  1
  Ba  Ba4  1  0.50000000  0.50000000  0.83560536  1
  Ba  Ba5  1  0.50000000  0.50000000  0.16399726  1
  Ba  Ba6  1  0.50000000  0.50000000  0.36406984  1
  Ba  Ba7  1  0.50000000  0.50000000  0.56409809  1
  Sr  Sr8  1  0.50000000  0.50000000  0.76397620  1
  Sr  Sr9  1  0.50000000  0.50000000  0.96399248  1
  Sm  Sm10  1  0.50000000  0.50000000  0.09997513  1
  Sm  Sm11  1  0.50000000  0.50000000  0.30002019  1
  Sm  Sm12  1  0.50000000  0.50000000  0.50001003  1
  Sm  Sm13  1  0.50000000  0.50000000  0.70050019  1
  Sm  Sm14  1  0.50000000  0.50000000  0.90052524  1
  Cu  Cu15  1  -0.00000000  0.00000000  0.06961906  1
  Cu  Cu16  1  0.00000000  -0.00000000  0.26960607  1
  Cu  Cu17  1  0.00000000  0.00000000  0.46961830  1
  Cu  Cu18  1  -0.00000000  -0.00000000  0.66979580  1
  Cu  Cu19  1  0.00000000  0.00000000  0.86976961  1
  Cu  Cu20  1  0.00000000  0.00000000  0.13036108  1
  Cu  Cu21  1  -0.00000000  -0.00000000  0.33038500  1
  Cu  Cu22  1  -0.00000000  0.00000000  0.53039760  1
  Cu  Cu23  1  0.00000000  0.00000000  0.73110665  1
  Cu  Cu24  1  0.00000000  0.00000000  0.93109779  1
  Cu  Cu25  1  -0.00000000  0.00000000  0.99945473  1
  Cu  Cu26  1  -0.00000000  -0.00000000  0.20001719  1
  Cu  Cu27  1  0.00000000  -0.00000000  0.40001145  1
  Cu  Cu28  1  0.00000000  0.00000000  0.59999969  1
  Cu  Cu29  1  -0.00000000  -0.00000000  0.79946654  1
  O  O30  1  -0.00000000  -0.00000000  0.03135860  1
  O  O31  1  0.00000000  -0.00000000  0.23186199  1
  O  O32  1  -0.00000000  0.00000000  0.43184524  1
  O  O33  1  0.00000000  -0.00000000  0.63188751  1
  O  O34  1  0.00000000  0.00000000  0.83144220  1
  O  O35  1  -0.00000000  -0.00000000  0.16816853  1
  O  O36  1  -0.00000000  -0.00000000  0.36816252  1
  O  O37  1  0.00000000  0.00000000  0.56815523  1
  O  O38  1  0.00000000  0.00000000  0.76758502  1
  O  O39  1  -0.00000000  0.00000000  0.96758659  1
  O  O40  1  0.00000000  0.50000000  0.99820484  1
  O  O41  1  -0.00000000  0.50000000  0.19997057  1
  O  O42  1  0.00000000  0.50000000  0.39999510  1
  O  O43  1  0.00000000  0.50000000  0.60003075  1
  O  O44  1  -0.00000000  0.50000000  0.79821671  1
  O  O45  1  0.00000000  0.50000000  0.07450161  1
  O  O46  1  -0.00000000  0.50000000  0.27457865  1
  O  O47  1  0.00000000  0.50000000  0.47455916  1
  O  O48  1  0.00000000  0.50000000  0.67504540  1
  O  O49  1  0.00000000  0.50000000  0.87493308  1
  O  O50  1  -0.00000000  0.50000000  0.12538878  1
  O  O51  1  -0.00000000  0.50000000  0.32544498  1
  O  O52  1  0.00000000  0.50000000  0.52542471  1
  O  O53  1  -0.00000000  0.50000000  0.72655984  1
  O  O54  1  0.00000000  0.50000000  0.92653446  1
  O  O55  1  0.50000000  -0.00000000  0.07499762  1
  O  O56  1  0.50000000  -0.00000000  0.27505199  1
  O  O57  1  0.50000000  0.00000000  0.47503278  1
  O  O58  1  0.50000000  0.00000000  0.67532956  1
  O  O59  1  0.50000000  0.00000000  0.87528854  1
  O  O60  1  0.50000000  0.00000000  0.12493508  1
  O  O61  1  0.50000000  -0.00000000  0.32496605  1
  O  O62  1  0.50000000  0.00000000  0.52496213  1
  O  O63  1  0.50000000  -0.00000000  0.72554947  1
  O  O64  1  0.50000000  0.00000000  0.92553378  1
