# generated using pymatgen
data_CrPPd
_symmetry_space_group_name_H-M   'P 1'
_cell_length_a   3.60129360
_cell_length_b   6.42208840
_cell_length_c   6.42102674
_cell_angle_alpha   120.00546671
_cell_angle_beta   90.00000000
_cell_angle_gamma   90.00000000
_symmetry_Int_Tables_number   1
_chemical_formula_structural   CrPPd
_chemical_formula_sum   'Cr3 P3 Pd3'
_cell_volume   128.60148762
_cell_formula_units_Z   3
loop_
 _symmetry_equiv_pos_site_id
 _symmetry_equiv_pos_as_xyz
  1  'x, y, z'
loop_
 _atom_site_type_symbol
 _atom_site_label
 _atom_site_symmetry_multiplicity
 _atom_site_fract_x
 _atom_site_fract_y
 _atom_site_fract_z
 _atom_site_occupancy
  Cr  Cr0  1  0.50000000  0.60605303  0.00000000  1
  Cr  Cr1  1  0.50000000  0.39385487  0.39371850  1
  Cr  Cr2  1  0.50000000  0.00013637  0.60628150  1
  P  P3  1  0.00000000  0.33330900  0.66664617  1
  P  P4  1  0.00000000  0.66666283  0.33335383  1
  P  P5  1  0.50000000  0.99999249  1.00000000  1
  Pd  Pd6  1  0.00000000  0.26911369  0.00000000  1
  Pd  Pd7  1  -0.00000000  0.73079753  0.73081734  1
  Pd  Pd8  1  0.00000000  -0.00001981  0.26918266  1
