# generated using pymatgen
data_Ba2La3Ti3NbO15
_symmetry_space_group_name_H-M   'P 1'
_cell_length_a   5.66765397
_cell_length_b   5.66765068
_cell_length_c   23.42348711
_cell_angle_alpha   89.99975584
_cell_angle_beta   89.99964685
_cell_angle_gamma   60.00009271
_symmetry_Int_Tables_number   1
_chemical_formula_structural   Ba2La3Ti3NbO15
_chemical_formula_sum   'Ba4 La6 Ti6 Nb2 O30'
_cell_volume   651.61187431
_cell_formula_units_Z   2
loop_
 _symmetry_equiv_pos_site_id
 _symmetry_equiv_pos_as_xyz
  1  'x, y, z'
loop_
 _atom_site_type_symbol
 _atom_site_label
 _atom_site_symmetry_multiplicity
 _atom_site_fract_x
 _atom_site_fract_y
 _atom_site_fract_z
 _atom_site_occupancy
  Ba  Ba0  1  0.33333449  0.33333838  0.96138858  1
  Ba  Ba1  1  0.33334173  0.33333729  0.46138686  1
  Ba  Ba2  1  0.66666450  0.66666492  0.03405670  1
  Ba  Ba3  1  0.66666229  0.66666293  0.53405876  1
  La  La4  1  0.66667077  0.66666094  0.86069883  1
  La  La5  1  0.66667201  0.66666463  0.36069827  1
  La  La6  1  0.33333040  0.33332172  0.14664488  1
  La  La7  1  0.33331940  0.33333907  0.64664688  1
  La  La8  1  0.99999734  0.00000866  0.75187114  1
  La  La9  1  0.00000850  0.99999758  0.25187136  1
  Ti  Ti10  1  0.33332681  0.33334057  0.80161043  1
  Ti  Ti11  1  0.33333579  0.33332869  0.30161177  1
  Ti  Ti12  1  0.66666541  0.66666092  0.20318832  1
  Ti  Ti13  1  0.66666060  0.66667017  0.70318801  1
  Ti  Ti14  1  0.00000127  0.00000257  0.90357993  1
  Ti  Ti15  1  0.99999934  0.00000699  0.40357833  1
  Nb  Nb16  1  0.99999855  0.99999717  0.09753788  1
  Nb  Nb17  1  0.99998868  0.99999129  0.59754023  1
  O  O18  1  0.11312828  0.66883797  0.84072766  1
  O  O19  1  0.21803362  0.11312642  0.84072794  1
  O  O20  1  0.66883732  0.21803362  0.84072821  1
  O  O21  1  0.66883921  0.11312832  0.34072743  1
  O  O22  1  0.21803187  0.66883630  0.34072819  1
  O  O23  1  0.11312838  0.21803230  0.34072795  1
  O  O24  1  0.89379540  0.32903003  0.15831823  1
  O  O25  1  0.77718138  0.89379243  0.15831878  1
  O  O26  1  0.32903376  0.77717686  0.15831861  1
  O  O27  1  0.32903436  0.89379120  0.65831946  1
  O  O28  1  0.77717181  0.32903844  0.65831993  1
  O  O29  1  0.89379169  0.77717411  0.65831946  1
  O  O30  1  0.20281431  0.13946190  0.06158067  1
  O  O31  1  0.65771963  0.20281675  0.06157954  1
  O  O32  1  0.13946789  0.65771249  0.06157915  1
  O  O33  1  0.13946413  0.20281882  0.56158022  1
  O  O34  1  0.65770850  0.13947140  0.56157916  1
  O  O35  1  0.20282549  0.65771032  0.56157840  1
  O  O36  1  0.80512035  0.86055359  0.93756251  1
  O  O37  1  0.33432677  0.80512162  0.93756139  1
  O  O38  1  0.86055456  0.33432985  0.93756014  1
  O  O39  1  0.86055448  0.80511927  0.43756226  1
  O  O40  1  0.33433026  0.86055513  0.43756023  1
  O  O41  1  0.80512161  0.33432793  0.43756094  1
  O  O42  1  0.00086291  0.44115615  0.74828570  1
  O  O43  1  0.55797906  0.00086826  0.74828575  1
  O  O44  1  0.44115664  0.55798449  0.74828674  1
  O  O45  1  0.44115558  0.00086281  0.24828575  1
  O  O46  1  0.55798523  0.44115674  0.24828650  1
  O  O47  1  0.00086765  0.55797997  0.24828592  1
