# generated using pymatgen
data_Ba6Ca12Cu15Hg3O37
_symmetry_space_group_name_H-M   'P 1'
_cell_length_a   5.45853236
_cell_length_b   8.61054423
_cell_length_c   22.78223748
_cell_angle_alpha   98.70137305
_cell_angle_beta   83.11955600
_cell_angle_gamma   108.47965136
_symmetry_Int_Tables_number   1
_chemical_formula_structural   Ba6Ca12Cu15Hg3O37
_chemical_formula_sum   'Ba6 Ca12 Cu15 Hg3 O37'
_cell_volume   1000.93163692
_cell_formula_units_Z   1
loop_
 _symmetry_equiv_pos_site_id
 _symmetry_equiv_pos_as_xyz
  1  'x, y, z'
loop_
 _atom_site_type_symbol
 _atom_site_label
 _atom_site_symmetry_multiplicity
 _atom_site_fract_x
 _atom_site_fract_y
 _atom_site_fract_z
 _atom_site_occupancy
  Ba  Ba0  1  0.87264689  0.62728990  0.88199513  1
  Ba  Ba1  1  0.20873285  0.29277669  0.87531199  1
  Ba  Ba2  1  0.54106820  0.95748113  0.87534473  1
  Ba  Ba3  1  0.12559880  0.37585187  0.12465527  1
  Ba  Ba4  1  0.45793415  0.04055631  0.12468801  1
  Ba  Ba5  1  0.79401911  0.70604410  0.11800487  1
  Ca  Ca6  1  0.92707398  0.57261695  0.71847000  1
  Ca  Ca7  1  0.26101110  0.23905802  0.71703582  1
  Ca  Ca8  1  0.59437813  0.90585660  0.71709934  1
  Ca  Ca9  1  0.07228787  0.42747740  0.28290066  1
  Ca  Ca10  1  0.40565590  0.09427498  0.28296418  1
  Ca  Ca11  1  0.73959302  0.76071605  0.28153000  1
  Ca  Ca12  1  0.97567107  0.52392982  0.57258668  1
  Ca  Ca13  1  0.30921363  0.19081867  0.57239241  1
  Ca  Ca14  1  0.64266985  0.85769318  0.57235347  1
  Ca  Ca15  1  0.02399715  0.47563982  0.42764653  1
  Ca  Ca16  1  0.35745337  0.14251433  0.42760759  1
  Ca  Ca17  1  0.69099493  0.80940418  0.42741332  1
  Cu  Cu18  1  0.11854514  0.88141115  0.64432187  1
  Cu  Cu19  1  0.45184008  0.54800564  0.64432548  1
  Cu  Cu20  1  0.78527756  0.21489714  0.64434101  1
  Cu  Cu21  1  0.21482692  0.78532736  0.35567452  1
  Cu  Cu22  1  0.54812186  0.45192185  0.35567813  1
  Cu  Cu23  1  0.88138844  0.11843686  0.35565899  1
  Cu  Cu24  1  0.07129975  0.92741902  0.78482052  1
  Cu  Cu25  1  0.40478756  0.59506927  0.78549416  1
  Cu  Cu26  1  0.73884038  0.26250741  0.78482565  1
  Cu  Cu27  1  0.26187944  0.73826373  0.21450584  1
  Cu  Cu28  1  0.59536725  0.40591398  0.21517948  1
  Cu  Cu29  1  0.92782562  0.07082659  0.21517435  1
  Cu  Cu30  1  0.16665919  0.83330542  0.49998804  1
  Cu  Cu31  1  0.50000781  0.50002758  0.50001196  1
  Cu  Cu32  1  0.83333300  0.16666700  0.50000000  1
  Hg  Hg33  1  0.33333300  0.66666700  -0.00000000  1
  Hg  Hg34  1  0.67152672  0.34305609  0.00000365  1
  Hg  Hg35  1  0.99514028  0.99027691  -0.00000365  1
  O  O36  1  0.03403030  0.97721152  0.90915093  1
  O  O37  1  0.36386915  0.63613444  0.90839513  1
  O  O38  1  0.69320478  0.29554886  0.90914030  1
  O  O39  1  0.30279685  0.69719956  0.09160487  1
  O  O40  1  0.63263670  0.35612148  0.09084907  1
  O  O41  1  0.97346222  0.03778414  0.09085970  1
  O  O42  1  0.28613232  0.71406259  0.64252741  1
  O  O43  1  0.61848732  0.38107192  0.64252605  1
  O  O44  1  0.95283733  0.04739055  0.64257505  1
  O  O45  1  0.78540285  0.71406259  0.64252741  1
  O  O46  1  0.12005755  0.38107192  0.64252605  1
  O  O47  1  0.45197917  0.04739055  0.64257505  1
  O  O48  1  0.38053468  0.61927041  0.35747259  1
  O  O49  1  0.71382967  0.28594245  0.35742495  1
  O  O50  1  0.04817868  0.95226208  0.35747395  1
  O  O51  1  0.88126415  0.61927041  0.35747259  1
  O  O52  1  0.21468783  0.28594245  0.35742495  1
  O  O53  1  0.54660845  0.95226208  0.35747395  1
  O  O54  1  0.33333300  0.66666700  0.50000000  1
  O  O55  1  0.66669484  0.33337534  0.49998893  1
  O  O56  1  -0.00002784  -0.00004234  0.50001107  1
  O  O57  1  0.83333300  0.66666700  0.50000000  1
  O  O58  1  0.16669257  0.33337534  0.49998893  1
  O  O59  1  0.49997443  -0.00004234  0.50001107  1
  O  O60  1  0.24106663  0.76248863  0.78317803  1
  O  O61  1  0.57000510  0.42644197  0.78317703  1
  O  O62  1  0.90553027  0.09446013  0.78378818  1
  O  O63  1  0.73824397  0.76248863  0.78317803  1
  O  O64  1  0.07325885  0.42644197  0.78317703  1
  O  O65  1  0.40514267  0.09446013  0.78378818  1
  O  O66  1  0.42560037  0.57084437  0.21682197  1
  O  O67  1  0.76113673  0.23887287  0.21621182  1
  O  O68  1  0.09666090  0.90689203  0.21682297  1
  O  O69  1  0.92842303  0.57084437  0.21682197  1
  O  O70  1  0.26152433  0.23887287  0.21621182  1
  O  O71  1  0.59340715  0.90689203  0.21682297  1
  O  O72  1  0.83333300  0.66666700  0.00000000  1
