# generated using pymatgen
data_LiDySn2
_symmetry_space_group_name_H-M   'P 1'
_cell_length_a   4.33357630
_cell_length_b   4.56443345
_cell_length_c   9.74421599
_cell_angle_alpha   90.00000000
_cell_angle_beta   102.84807029
_cell_angle_gamma   90.00000000
_symmetry_Int_Tables_number   1
_chemical_formula_structural   LiDySn2
_chemical_formula_sum   'Li2 Dy2 Sn4'
_cell_volume   187.91801819
_cell_formula_units_Z   2
loop_
 _symmetry_equiv_pos_site_id
 _symmetry_equiv_pos_as_xyz
  1  'x, y, z'
loop_
 _atom_site_type_symbol
 _atom_site_label
 _atom_site_symmetry_multiplicity
 _atom_site_fract_x
 _atom_site_fract_y
 _atom_site_fract_z
 _atom_site_occupancy
  Li  Li0  1  0.67343989  0.75000000  0.34687977  1
  Li  Li1  1  0.32656011  0.25000000  0.65312023  1
  Dy  Dy2  1  0.89322222  0.75000000  0.78644445  1
  Dy  Dy3  1  0.10677778  0.25000000  0.21355555  1
  Sn  Sn4  1  0.54342998  0.75000000  0.08685996  1
  Sn  Sn5  1  0.45657002  0.25000000  0.91314004  1
  Sn  Sn6  1  0.25297618  0.75000000  0.50595236  1
  Sn  Sn7  1  0.74702382  0.25000000  0.49404764  1
