# generated using pymatgen
data_BaLa2FeS5
_symmetry_space_group_name_H-M   'P 1'
_cell_length_a   8.01214246
_cell_length_b   8.01214246
_cell_length_c   8.81711972
_cell_angle_alpha   117.02321390
_cell_angle_beta   117.02321388
_cell_angle_gamma   89.99999998
_symmetry_Int_Tables_number   1
_chemical_formula_structural   BaLa2FeS5
_chemical_formula_sum   'Ba2 La4 Fe2 S10'
_cell_volume   433.70158868
_cell_formula_units_Z   2
loop_
 _symmetry_equiv_pos_site_id
 _symmetry_equiv_pos_as_xyz
  1  'x, y, z'
loop_
 _atom_site_type_symbol
 _atom_site_label
 _atom_site_symmetry_multiplicity
 _atom_site_fract_x
 _atom_site_fract_y
 _atom_site_fract_z
 _atom_site_occupancy
  S  S0  1  0.48917143  0.98917143  0.27440803  1
  S  S1  1  0.21476341  0.71476341  0.72559197  1
  S  S2  1  0.51082857  0.01082857  0.72559197  1
  S  S3  1  0.71476341  0.51082857  0.72559197  1
  S  S4  1  0.01082857  0.21476341  0.72559197  1
  S  S5  1  0.28523659  0.48917143  0.27440803  1
  S  S6  1  0.98917143  0.78523659  0.27440803  1
  S  S7  1  0.78523659  0.28523659  0.27440803  1
  S  S8  1  0.00000000  0.00000000  0.00000000  1
  S  S9  1  0.50000000  0.50000000  0.00000000  1
  Fe  Fe10  1  0.75000000  0.25000000  0.50000000  1
  Fe  Fe11  1  0.25000000  0.75000000  0.50000000  1
  Ba  Ba12  1  0.75000000  0.75000000  0.50000000  1
  Ba  Ba13  1  0.25000000  0.25000000  0.50000000  1
  La  La14  1  0.66285219  0.83714781  0.00000000  1
  La  La15  1  0.16285219  0.66285219  0.00000000  1
  La  La16  1  0.83714781  0.33714781  0.00000000  1
  La  La17  1  0.33714781  0.16285219  0.00000000  1
