# generated using pymatgen
data_NaSiSbO5
_symmetry_space_group_name_H-M   'P 1'
_cell_length_a   6.41377937
_cell_length_b   10.74717925
_cell_length_c   12.98715217
_cell_angle_alpha   90.00000000
_cell_angle_beta   90.00000000
_cell_angle_gamma   90.00000000
_symmetry_Int_Tables_number   1
_chemical_formula_structural   NaSiSbO5
_chemical_formula_sum   'Na8 Si8 Sb8 O40'
_cell_volume   895.20487388
_cell_formula_units_Z   8
loop_
 _symmetry_equiv_pos_site_id
 _symmetry_equiv_pos_as_xyz
  1  'x, y, z'
loop_
 _atom_site_type_symbol
 _atom_site_label
 _atom_site_symmetry_multiplicity
 _atom_site_fract_x
 _atom_site_fract_y
 _atom_site_fract_z
 _atom_site_occupancy
  O  O0  1  0.53571110  0.85757694  0.28834756  1
  O  O1  1  0.46428890  0.35757694  0.71165244  1
  O  O2  1  0.96428890  0.85757694  0.78834756  1
  O  O3  1  0.03571110  0.35757694  0.21165244  1
  O  O4  1  0.50105652  0.11670594  0.25886558  1
  O  O5  1  0.49894348  0.61670594  0.74113442  1
  O  O6  1  0.99894348  0.11670594  0.75886558  1
  O  O7  1  0.00105652  0.61670594  0.24113442  1
  O  O8  1  0.98561880  0.86819370  0.24846959  1
  O  O9  1  0.01438120  0.36819370  0.75153041  1
  O  O10  1  0.51438120  0.86819370  0.74846959  1
  O  O11  1  0.48561880  0.36819370  0.25153041  1
  O  O12  1  0.05739026  0.10126753  0.22455255  1
  O  O13  1  0.94260974  0.60126753  0.77544745  1
  O  O14  1  0.44260974  0.10126753  0.72455255  1
  O  O15  1  0.66954558  0.72673400  0.91730891  1
  O  O16  1  0.55739026  0.60126753  0.27544745  1
  O  O17  1  0.78246738  0.47940323  0.60375089  1
  O  O18  1  0.28246738  0.97940323  0.89624911  1
  O  O19  1  0.71753262  0.47940323  0.10375089  1
  O  O20  1  0.82556940  0.03818182  0.38591852  1
  O  O21  1  0.17443060  0.53818182  0.61408148  1
  O  O22  1  0.67443060  0.03818182  0.88591852  1
  O  O23  1  0.32556940  0.53818182  0.11408148  1
  O  O24  1  0.51744559  0.15517704  0.47508417  1
  O  O25  1  0.48255441  0.65517704  0.52491583  1
  O  O26  1  0.98255441  0.15517704  0.97508417  1
  O  O27  1  0.01744559  0.65517704  0.02491583  1
  O  O28  1  0.43378840  0.39756123  0.49314181  1
  O  O29  1  0.56621160  0.89756123  0.50685819  1
  O  O30  1  0.06621160  0.39756123  0.99314181  1
  O  O31  1  0.93378840  0.89756123  0.00685819  1
  O  O32  1  0.18090480  0.25659474  0.38168608  1
  O  O33  1  0.81909520  0.75659474  0.61831392  1
  O  O34  1  0.31909520  0.25659474  0.88168608  1
  O  O35  1  0.68090480  0.75659474  0.11831392  1
  O  O36  1  0.16954558  0.22673400  0.58269109  1
  O  O37  1  0.83045442  0.72673400  0.41730891  1
  O  O38  1  0.33045442  0.22673400  0.08269109  1
  O  O39  1  0.21753262  0.97940323  0.39624911  1
  Na  Na40  1  0.24600360  0.57387205  0.39406483  1
  Na  Na41  1  0.75399640  0.07387205  0.60593517  1
  Na  Na42  1  0.25399640  0.57387205  0.89406483  1
  Na  Na43  1  0.74600360  0.07387205  0.10593517  1
  Na  Na44  1  0.28983123  0.77603170  0.15494913  1
  Na  Na45  1  0.71016877  0.27603170  0.84505087  1
  Na  Na46  1  0.21016877  0.77603170  0.65494913  1
  Na  Na47  1  0.78983123  0.27603170  0.34505087  1
  Si  Si48  1  0.02470535  0.99559881  0.31561673  1
  Si  Si49  1  0.97529465  0.49559881  0.68438327  1
  Si  Si50  1  0.47529465  0.99559881  0.81561673  1
  Si  Si51  1  0.52470535  0.49559881  0.18438327  1
  Si  Si52  1  0.82592682  0.75787319  0.01424170  1
  Si  Si53  1  0.17407318  0.25787319  0.98575830  1
  Si  Si54  1  0.67407318  0.75787319  0.51424170  1
  Si  Si55  1  0.32592682  0.25787319  0.48575830  1
  Sb  Sb56  1  0.76865500  0.73729098  0.26723013  1
  Sb  Sb57  1  0.23134500  0.23729098  0.73276987  1
  Sb  Sb58  1  0.73134500  0.73729098  0.76723013  1
  Sb  Sb59  1  0.26865500  0.23729098  0.23276987  1
  Sb  Sb60  1  0.02009430  0.50283711  0.11796596  1
  Sb  Sb61  1  0.97990570  0.00283711  0.88203404  1
  Sb  Sb62  1  0.47990570  0.50283711  0.61796596  1
  Sb  Sb63  1  0.52009430  0.00283711  0.38203404  1
