# generated using pymatgen
data_Ba10PrY4(CuO2)20
_symmetry_space_group_name_H-M   'P 1'
_cell_length_a   3.90584428
_cell_length_b   16.86542123
_cell_length_c   16.86542123
_cell_angle_alpha   70.51506202
_cell_angle_beta   90.00000000
_cell_angle_gamma   90.00000000
_symmetry_Int_Tables_number   1
_chemical_formula_structural   Ba10PrY4(CuO2)20
_chemical_formula_sum   'Ba10 Pr1 Y4 Cu20 O40'
_cell_volume   1047.36069877
_cell_formula_units_Z   1
loop_
 _symmetry_equiv_pos_site_id
 _symmetry_equiv_pos_as_xyz
  1  'x, y, z'
loop_
 _atom_site_type_symbol
 _atom_site_label
 _atom_site_symmetry_multiplicity
 _atom_site_fract_x
 _atom_site_fract_y
 _atom_site_fract_z
 _atom_site_occupancy
  Ba  Ba0  1  0.50000000  0.43575032  0.83648951  1
  Ba  Ba1  1  0.50000000  0.23578334  0.03595676  1
  Ba  Ba2  1  0.50000000  0.63694662  0.63694662  1
  Ba  Ba3  1  0.50000000  0.83648951  0.43575032  1
  Ba  Ba4  1  0.50000000  0.03595676  0.23578334  1
  Ba  Ba5  1  0.50000000  0.56424968  0.16351049  1
  Ba  Ba6  1  0.50000000  0.36305338  0.36305338  1
  Ba  Ba7  1  0.50000000  0.76421666  0.96404324  1
  Ba  Ba8  1  0.50000000  0.96404324  0.76421666  1
  Ba  Ba9  1  0.50000000  0.16351049  0.56424968  1
  Pr  Pr10  1  0.50000000  0.50000000  0.50000000  1
  Y  Y11  1  0.50000000  0.90021595  0.09978405  1
  Y  Y12  1  0.50000000  0.29900447  0.70099553  1
  Y  Y13  1  0.50000000  0.70099553  0.29900447  1
  Y  Y14  1  0.50000000  0.09978405  0.90021595  1
  Cu  Cu15  1  -0.00000000  0.26120025  0.86217726  1
  Cu  Cu16  1  0.00000000  0.06161905  0.06161905  1
  Cu  Cu17  1  0.00000000  0.46176011  0.66422161  1
  Cu  Cu18  1  -0.00000000  0.66422161  0.46176011  1
  Cu  Cu19  1  -0.00000000  0.86217726  0.26120025  1
  Cu  Cu20  1  -0.00000000  0.73879975  0.13782274  1
  Cu  Cu21  1  -0.00000000  0.53823989  0.33577839  1
  Cu  Cu22  1  0.00000000  0.93838095  0.93838095  1
  Cu  Cu23  1  -0.00000000  0.13782274  0.73879975  1
  Cu  Cu24  1  0.00000000  0.33577839  0.53823989  1
  Cu  Cu25  1  -0.00000000  0.41253153  0.01272407  1
  Cu  Cu26  1  -0.00000000  0.21256112  0.21256112  1
  Cu  Cu27  1  -0.00000000  0.61282226  0.81308858  1
  Cu  Cu28  1  -0.00000000  0.81308858  0.61282226  1
  Cu  Cu29  1  0.00000000  0.01272407  0.41253153  1
  Cu  Cu30  1  -0.00000000  0.58746847  0.98727593  1
  Cu  Cu31  1  -0.00000000  0.38717774  0.18691142  1
  Cu  Cu32  1  -0.00000000  0.78743888  0.78743888  1
  Cu  Cu33  1  0.00000000  0.98727593  0.58746847  1
  Cu  Cu34  1  -0.00000000  0.18691142  0.38717774  1
  O  O35  1  0.00000000  0.35070883  0.75296190  1
  O  O36  1  0.00000000  0.15172128  0.95227614  1
  O  O37  1  -0.00000000  0.55609768  0.55609768  1
  O  O38  1  0.00000000  0.75296190  0.35070883  1
  O  O39  1  -0.00000000  0.95227614  0.15172128  1
  O  O40  1  -0.00000000  0.64929117  0.24703810  1
  O  O41  1  0.00000000  0.44390232  0.44390232  1
  O  O42  1  -0.00000000  0.84827872  0.04772386  1
  O  O43  1  0.00000000  0.04772386  0.84827872  1
  O  O44  1  0.00000000  0.24703810  0.64929117  1
  O  O45  1  0.00000000  0.34518732  0.94549753  1
  O  O46  1  0.00000000  0.14516985  0.14516985  1
  O  O47  1  -0.00000000  0.54519331  0.74604679  1
  O  O48  1  0.00000000  0.74604679  0.54519331  1
  O  O49  1  -0.00000000  0.94549753  0.34518732  1
  O  O50  1  0.00000000  0.65481268  0.05450247  1
  O  O51  1  0.00000000  0.45480669  0.25395321  1
  O  O52  1  0.00000000  0.85483015  0.85483015  1
  O  O53  1  -0.00000000  0.05450247  0.65481268  1
  O  O54  1  -0.00000000  0.25395321  0.45480669  1
  O  O55  1  0.50000000  0.25178697  0.85313945  1
  O  O56  1  0.50000000  0.05245305  0.05245305  1
  O  O57  1  0.50000000  0.45017176  0.65804673  1
  O  O58  1  0.50000000  0.65804673  0.45017176  1
  O  O59  1  0.50000000  0.85313945  0.25178697  1
  O  O60  1  0.50000000  0.74821303  0.14686055  1
  O  O61  1  0.50000000  0.54982824  0.34195327  1
  O  O62  1  0.50000000  0.94754695  0.94754695  1
  O  O63  1  0.50000000  0.14686055  0.74821303  1
  O  O64  1  0.50000000  0.34195327  0.54982824  1
  O  O65  1  -0.00000000  0.51865609  0.91878766  1
  O  O66  1  -0.00000000  0.31857919  0.11823334  1
  O  O67  1  0.00000000  0.71855210  0.71855210  1
  O  O68  1  0.00000000  0.91878766  0.51865609  1
  O  O69  1  0.00000000  0.11823334  0.31857919  1
  O  O70  1  0.00000000  0.48134391  0.08121234  1
  O  O71  1  0.00000000  0.28144790  0.28144790  1
  O  O72  1  0.00000000  0.68142081  0.88176666  1
  O  O73  1  -0.00000000  0.88176666  0.68142081  1
  O  O74  1  -0.00000000  0.08121234  0.48134391  1
