# generated using pymatgen
data_K3Na(FeO4)2
_symmetry_space_group_name_H-M   'P 1'
_cell_length_a   5.90354104
_cell_length_b   5.90354104
_cell_length_c   7.65140230
_cell_angle_alpha   90.00000000
_cell_angle_beta   90.00000000
_cell_angle_gamma   120.00000001
_symmetry_Int_Tables_number   1
_chemical_formula_structural   K3Na(FeO4)2
_chemical_formula_sum   'K3 Na1 Fe2 O8'
_cell_volume   230.93876660
_cell_formula_units_Z   1
loop_
 _symmetry_equiv_pos_site_id
 _symmetry_equiv_pos_as_xyz
  1  'x, y, z'
loop_
 _atom_site_type_symbol
 _atom_site_label
 _atom_site_symmetry_multiplicity
 _atom_site_fract_x
 _atom_site_fract_y
 _atom_site_fract_z
 _atom_site_occupancy
  O  O0  1  0.18094210  0.36188421  0.19552733  1
  O  O1  1  0.63811579  0.81905790  0.19552733  1
  O  O2  1  0.18094210  0.81905790  0.19552733  1
  O  O3  1  0.81905790  0.63811579  0.80447267  1
  O  O4  1  0.81905790  0.18094210  0.80447267  1
  O  O5  1  0.36188421  0.18094210  0.80447267  1
  O  O6  1  0.33333333  0.66666667  0.48809850  1
  O  O7  1  0.66666667  0.33333333  0.51190150  1
  Na  Na8  1  0.00000000  0.00000000  0.00000000  1
  K  K9  1  0.00000000  0.00000000  0.50000000  1
  K  K10  1  0.33333333  0.66666667  0.83479252  1
  K  K11  1  0.66666667  0.33333333  0.16520748  1
  Fe  Fe12  1  0.66666667  0.33333333  0.72573471  1
  Fe  Fe13  1  0.33333333  0.66666667  0.27426529  1
