# generated using pymatgen
data_LiV2O5
_symmetry_space_group_name_H-M   'P 1'
_cell_length_a   3.63505774
_cell_length_b   9.83973350
_cell_length_c   11.02289201
_cell_angle_alpha   90.00000000
_cell_angle_beta   90.00000000
_cell_angle_gamma   90.00000000
_symmetry_Int_Tables_number   1
_chemical_formula_structural   LiV2O5
_chemical_formula_sum   'Li4 V8 O20'
_cell_volume   394.26679501
_cell_formula_units_Z   4
loop_
 _symmetry_equiv_pos_site_id
 _symmetry_equiv_pos_as_xyz
  1  'x, y, z'
loop_
 _atom_site_type_symbol
 _atom_site_label
 _atom_site_symmetry_multiplicity
 _atom_site_fract_x
 _atom_site_fract_y
 _atom_site_fract_z
 _atom_site_occupancy
  Li  Li0  1  0.74999994  0.84058965  0.77462136  1
  Li  Li1  1  0.25000090  0.15940948  0.22537945  1
  Li  Li2  1  0.74999994  0.34058958  0.72537940  1
  Li  Li3  1  0.25000090  0.65940955  0.27462050  1
  O  O4  1  0.74999994  0.52046649  0.22619309  1
  O  O5  1  0.25000090  0.94260217  0.45425398  1
  O  O6  1  0.74999994  0.05739798  0.54574592  1
  O  O7  1  0.25000090  0.44260209  0.04574597  1
  O  O8  1  0.74999994  0.55739806  0.95425392  1
  O  O9  1  0.25000090  0.07180825  0.04952835  1
  O  O10  1  0.74999994  0.92819190  0.95047246  1
  O  O11  1  0.25000090  0.57180832  0.45047160  1
  O  O12  1  0.74999994  0.75957600  0.36771004  1
  O  O13  1  0.25000090  0.24042313  0.63228986  1
  O  O14  1  0.74999994  0.25957592  0.13228991  1
  O  O15  1  0.25000090  0.74042321  0.86770999  1
  O  O16  1  0.74999994  0.42819182  0.54952829  1
  O  O17  1  0.25000090  0.47953366  0.77380681  1
  O  O18  1  0.25000090  0.77640607  0.12642037  1
  O  O19  1  0.25000090  0.97953373  0.72619304  1
  O  O20  1  0.74999994  0.72359314  0.62642032  1
  O  O21  1  0.25000090  0.27640701  0.37357958  1
  O  O22  1  0.74999994  0.22359306  0.87357952  1
  O  O23  1  0.74999994  0.02046642  0.27380686  1
  V  V24  1  0.74999994  0.62486647  0.50463441  1
  V  V25  1  0.25000090  0.56667747  0.90132326  1
  V  V26  1  0.74999994  0.43332268  0.09867663  1
  V  V27  1  0.25000090  0.06667739  0.59867658  1
  V  V28  1  0.74999994  0.93332276  0.40132331  1
  V  V29  1  0.25000090  0.87513273  0.00463436  1
  V  V30  1  0.74999994  0.12486741  0.99536554  1
  V  V31  1  0.25000090  0.37513266  0.49536549  1
