# generated using pymatgen
data_ZrIn2O5
_symmetry_space_group_name_H-M   'P 1'
_cell_length_a   3.70622807
_cell_length_b   7.50272660
_cell_length_c   15.62089140
_cell_angle_alpha   90.00000000
_cell_angle_beta   90.00000000
_cell_angle_gamma   90.00000000
_symmetry_Int_Tables_number   1
_chemical_formula_structural   ZrIn2O5
_chemical_formula_sum   'Zr4 In8 O20'
_cell_volume   434.36725177
_cell_formula_units_Z   4
loop_
 _symmetry_equiv_pos_site_id
 _symmetry_equiv_pos_as_xyz
  1  'x, y, z'
loop_
 _atom_site_type_symbol
 _atom_site_label
 _atom_site_symmetry_multiplicity
 _atom_site_fract_x
 _atom_site_fract_y
 _atom_site_fract_z
 _atom_site_occupancy
  Zr  Zr0  1  0.75000000  0.38852144  0.92062051  1
  Zr  Zr1  1  0.75000000  0.88852144  0.57937949  1
  Zr  Zr2  1  0.25000000  0.61147856  0.07937949  1
  Zr  Zr3  1  0.25000000  0.11147856  0.42062051  1
  In  In4  1  0.75000000  0.40512426  0.58565058  1
  In  In5  1  0.75000000  0.90512426  0.91434942  1
  In  In6  1  0.25000000  0.59487574  0.41434942  1
  In  In7  1  0.25000000  0.09487574  0.08565058  1
  In  In8  1  0.25000000  0.17894094  0.73892506  1
  In  In9  1  0.25000000  0.67894094  0.76107494  1
  In  In10  1  0.75000000  0.82105906  0.26107494  1
  In  In11  1  0.75000000  0.32105906  0.23892506  1
  O  O12  1  0.75000000  0.25131673  0.81107073  1
  O  O13  1  0.75000000  0.75131673  0.68892927  1
  O  O14  1  0.25000000  0.74868327  0.18892927  1
  O  O15  1  0.25000000  0.24868327  0.31107073  1
  O  O16  1  0.75000000  0.14350987  0.99735458  1
  O  O17  1  0.75000000  0.64350987  0.50264542  1
  O  O18  1  0.25000000  0.85649013  0.00264542  1
  O  O19  1  0.25000000  0.35649013  0.49735458  1
  O  O20  1  0.75000000  0.14067226  0.64797823  1
  O  O21  1  0.75000000  0.64067226  0.85202177  1
  O  O22  1  0.25000000  0.85932774  0.35202177  1
  O  O23  1  0.25000000  0.35932774  0.14797823  1
  O  O24  1  0.25000000  0.44331634  0.67622048  1
  O  O25  1  0.25000000  0.94331634  0.82377952  1
  O  O26  1  0.75000000  0.55668366  0.32377952  1
  O  O27  1  0.75000000  0.05668366  0.17622048  1
  O  O28  1  0.25000000  0.43287251  0.95782677  1
  O  O29  1  0.25000000  0.93287251  0.54217323  1
  O  O30  1  0.75000000  0.56712749  0.04217323  1
  O  O31  1  0.75000000  0.06712749  0.45782677  1
