# generated using pymatgen
data_BaCu2(AsO4)2
_symmetry_space_group_name_H-M   'P 1'
_cell_length_a   4.76340632
_cell_length_b   8.87674659
_cell_length_c   9.05761430
_cell_angle_alpha   90.00000000
_cell_angle_beta   92.45380860
_cell_angle_gamma   90.00000000
_symmetry_Int_Tables_number   1
_chemical_formula_structural   BaCu2(AsO4)2
_chemical_formula_sum   'Ba2 Cu4 As4 O16'
_cell_volume   382.63691874
_cell_formula_units_Z   2
loop_
 _symmetry_equiv_pos_site_id
 _symmetry_equiv_pos_as_xyz
  1  'x, y, z'
loop_
 _atom_site_type_symbol
 _atom_site_label
 _atom_site_symmetry_multiplicity
 _atom_site_fract_x
 _atom_site_fract_y
 _atom_site_fract_z
 _atom_site_occupancy
  O  O0  1  0.76322908  0.40147043  0.03750376  1
  O  O1  1  0.73677092  0.90147043  0.46249624  1
  O  O2  1  0.23677092  0.59852957  0.96249624  1
  O  O3  1  0.26322908  0.09852957  0.53750376  1
  O  O4  1  0.30258805  0.41616131  0.21909022  1
  O  O5  1  0.19741195  0.91616131  0.28090978  1
  O  O6  1  0.69741195  0.58383869  0.78090978  1
  O  O7  1  0.80258805  0.08383869  0.71909022  1
  O  O8  1  0.23654038  0.27451999  0.92382364  1
  O  O9  1  0.26345962  0.77451999  0.57617636  1
  O  O10  1  0.52334181  0.13172467  0.13815652  1
  O  O11  1  0.97665819  0.63172467  0.36184348  1
  O  O12  1  0.47665819  0.86827533  0.86184348  1
  O  O13  1  0.02334181  0.36827533  0.63815652  1
  O  O14  1  0.73654038  0.22548001  0.42382364  1
  O  O15  1  0.76345962  0.72548001  0.07617636  1
  Cu  Cu16  1  0.95267036  0.41757146  0.84759566  1
  Cu  Cu17  1  0.04732964  0.58242854  0.15240434  1
  Cu  Cu18  1  0.45267036  0.08242854  0.34759566  1
  Cu  Cu19  1  0.54732964  0.91757146  0.65240434  1
  As  As20  1  0.04850566  0.81565829  0.42187074  1
  As  As21  1  0.45149434  0.31565829  0.07812926  1
  As  As22  1  0.95149434  0.18434171  0.57812926  1
  As  As23  1  0.54850566  0.68434171  0.92187074  1
  Ba  Ba24  1  0.50000000  0.50000000  0.50000000  1
  Ba  Ba25  1  0.00000000  0.00000000  0.00000000  1
