# generated using pymatgen
data_NaV2O5
_symmetry_space_group_name_H-M   'P 1'
_cell_length_a   3.65300202
_cell_length_b   5.05339614
_cell_length_c   11.49143924
_cell_angle_alpha   90.00000000
_cell_angle_beta   90.00000000
_cell_angle_gamma   90.00000000
_symmetry_Int_Tables_number   1
_chemical_formula_structural   NaV2O5
_chemical_formula_sum   'Na2 V4 O10'
_cell_volume   212.13273034
_cell_formula_units_Z   2
loop_
 _symmetry_equiv_pos_site_id
 _symmetry_equiv_pos_as_xyz
  1  'x, y, z'
loop_
 _atom_site_type_symbol
 _atom_site_label
 _atom_site_symmetry_multiplicity
 _atom_site_fract_x
 _atom_site_fract_y
 _atom_site_fract_z
 _atom_site_occupancy
  Na  Na0  1  0.75000000  0.87024457  0.75000000  1
  Na  Na1  1  0.25000000  0.12975543  0.25000000  1
  V  V2  1  0.25000000  0.40139428  0.59976002  1
  V  V3  1  0.25000000  0.40139428  0.90023998  1
  V  V4  1  0.75000000  0.59860572  0.40023998  1
  V  V5  1  0.75000000  0.59860572  0.09976002  1
  O  O6  1  0.25000000  0.53013907  0.75000000  1
  O  O7  1  0.75000000  0.46986093  0.25000000  1
  O  O8  1  0.25000000  0.07860538  0.61969080  1
  O  O9  1  0.25000000  0.07860538  0.88030920  1
  O  O10  1  0.75000000  0.92139462  0.38030920  1
  O  O11  1  0.75000000  0.92139462  0.11969080  1
  O  O12  1  0.75000000  0.51825588  0.57102165  1
  O  O13  1  0.75000000  0.51825588  0.92897835  1
  O  O14  1  0.25000000  0.48174412  0.42897835  1
  O  O15  1  0.25000000  0.48174412  0.07102165  1
