# generated using pymatgen
data_Fe2PO5
_symmetry_space_group_name_H-M   'P 1'
_cell_length_a   5.41845261
_cell_length_b   5.41845260
_cell_length_c   7.39922663
_cell_angle_alpha   111.47836845
_cell_angle_beta   111.47836840
_cell_angle_gamma   89.99999996
_symmetry_Int_Tables_number   1
_chemical_formula_structural   Fe2PO5
_chemical_formula_sum   'Fe4 P2 O10'
_cell_volume   185.84607929
_cell_formula_units_Z   2
loop_
 _symmetry_equiv_pos_site_id
 _symmetry_equiv_pos_as_xyz
  1  'x, y, z'
loop_
 _atom_site_type_symbol
 _atom_site_label
 _atom_site_symmetry_multiplicity
 _atom_site_fract_x
 _atom_site_fract_y
 _atom_site_fract_z
 _atom_site_occupancy
  O  O0  1  0.62500000  0.37500000  0.25000000  1
  O  O1  1  0.37500000  0.62500000  0.75000000  1
  O  O2  1  0.80746760  0.81982616  0.61493520  1
  O  O3  1  0.70489096  0.19253240  0.88506480  1
  O  O4  1  0.18017384  0.19253240  0.88506480  1
  O  O5  1  0.19253240  0.18017384  0.38506480  1
  O  O6  1  0.80746760  0.29510904  0.61493520  1
  O  O7  1  0.81982616  0.80746760  0.11493520  1
  O  O8  1  0.29510904  0.80746760  0.11493520  1
  O  O9  1  0.19253240  0.70489096  0.38506480  1
  P  P10  1  0.87500000  0.12500000  0.75000000  1
  P  P11  1  0.12500000  0.87500000  0.25000000  1
  Fe  Fe12  1  0.50000000  0.00000000  0.00000000  1
  Fe  Fe13  1  0.50000000  0.50000000  0.50000000  1
  Fe  Fe14  1  0.00000000  0.50000000  0.50000000  1
  Fe  Fe15  1  0.50000000  0.50000000  0.00000000  1
