# generated using pymatgen
data_Rh2O3
_symmetry_space_group_name_H-M   'P 1'
_cell_length_a   5.26003010
_cell_length_b   5.45300149
_cell_length_c   7.37584971
_cell_angle_alpha   90.00000000
_cell_angle_beta   90.00000000
_cell_angle_gamma   90.00000000
_symmetry_Int_Tables_number   1
_chemical_formula_structural   Rh2O3
_chemical_formula_sum   'Rh8 O12'
_cell_volume   211.56114299
_cell_formula_units_Z   4
loop_
 _symmetry_equiv_pos_site_id
 _symmetry_equiv_pos_as_xyz
  1  'x, y, z'
loop_
 _atom_site_type_symbol
 _atom_site_label
 _atom_site_symmetry_multiplicity
 _atom_site_fract_x
 _atom_site_fract_y
 _atom_site_fract_z
 _atom_site_occupancy
  O  O0  1  0.05012025  0.25000000  0.00000000  1
  O  O1  1  0.44987975  0.75000000  0.50000000  1
  O  O2  1  0.94987975  0.75000000  0.00000000  1
  O  O3  1  0.55012025  0.25000000  0.50000000  1
  O  O4  1  0.60722261  0.11204558  0.84891325  1
  O  O5  1  0.60722261  0.38795442  0.15108675  1
  O  O6  1  0.89277739  0.61204558  0.65108675  1
  O  O7  1  0.89277739  0.88795442  0.34891325  1
  O  O8  1  0.39277739  0.88795442  0.15108675  1
  O  O9  1  0.39277739  0.61204558  0.84891325  1
  O  O10  1  0.10722261  0.38795442  0.34891325  1
  O  O11  1  0.10722261  0.11204558  0.65108675  1
  Rh  Rh12  1  0.74968236  0.03009205  0.10731336  1
  Rh  Rh13  1  0.74968236  0.46990795  0.89268664  1
  Rh  Rh14  1  0.75031764  0.53009205  0.39268664  1
  Rh  Rh15  1  0.75031764  0.96990795  0.60731336  1
  Rh  Rh16  1  0.25031764  0.96990795  0.89268664  1
  Rh  Rh17  1  0.25031764  0.53009205  0.10731336  1
  Rh  Rh18  1  0.24968236  0.46990795  0.60731336  1
  Rh  Rh19  1  0.24968236  0.03009205  0.39268664  1
