# generated using pymatgen
data_U3Co2Ge7
_symmetry_space_group_name_H-M   'P 1'
_cell_length_a   4.17751836
_cell_length_b   4.14514647
_cell_length_c   12.62934796
_cell_angle_alpha   99.44540290
_cell_angle_beta   90.00000000
_cell_angle_gamma   90.00000000
_symmetry_Int_Tables_number   1
_chemical_formula_structural   U3Co2Ge7
_chemical_formula_sum   'U3 Co2 Ge7'
_cell_volume   215.73018728
_cell_formula_units_Z   1
loop_
 _symmetry_equiv_pos_site_id
 _symmetry_equiv_pos_as_xyz
  1  'x, y, z'
loop_
 _atom_site_type_symbol
 _atom_site_label
 _atom_site_symmetry_multiplicity
 _atom_site_fract_x
 _atom_site_fract_y
 _atom_site_fract_z
 _atom_site_occupancy
  Co  Co0  1  0.50000000  0.62770406  0.25540813  1
  Co  Co1  1  0.50000000  0.37229594  0.74459187  1
  Ge  Ge2  1  0.50000000  0.72028886  0.44057771  1
  Ge  Ge3  1  0.00000000  0.00000000  0.00000000  1
  Ge  Ge4  1  0.00000000  0.41196832  0.82393664  1
  Ge  Ge5  1  0.00000000  0.58803168  0.17606336  1
  Ge  Ge6  1  0.50000000  0.08710778  0.17421556  1
  Ge  Ge7  1  0.50000000  0.91289222  0.82578444  1
  Ge  Ge8  1  0.50000000  0.27971114  0.55942229  1
  U  U9  1  0.00000000  0.81418668  0.62837336  1
  U  U10  1  0.00000000  0.18581332  0.37162664  1
  U  U11  1  0.50000000  0.50000000  0.00000000  1
