# generated using pymatgen
data_Mn3Cr2(SiO4)3
_symmetry_space_group_name_H-M   'P 1'
_cell_length_a   10.33695383
_cell_length_b   10.33695383
_cell_length_c   10.33695383
_cell_angle_alpha   109.47122065
_cell_angle_beta   109.47122066
_cell_angle_gamma   109.47122063
_symmetry_Int_Tables_number   1
_chemical_formula_structural   Mn3Cr2(SiO4)3
_chemical_formula_sum   'Mn12 Cr8 Si12 O48'
_cell_volume   850.26800785
_cell_formula_units_Z   4
loop_
 _symmetry_equiv_pos_site_id
 _symmetry_equiv_pos_as_xyz
  1  'x, y, z'
loop_
 _atom_site_type_symbol
 _atom_site_label
 _atom_site_symmetry_multiplicity
 _atom_site_fract_x
 _atom_site_fract_y
 _atom_site_fract_z
 _atom_site_occupancy
  O  O0  1  0.70728153  0.69217574  0.08673895  1
  O  O1  1  0.69217574  0.10543679  0.98489422  1
  O  O2  1  0.62054257  0.70728153  0.51510578  1
  O  O3  1  0.51510578  0.62054257  0.70728153  1
  O  O4  1  0.08673895  0.87945743  0.39456321  1
  O  O5  1  0.39456321  0.08673895  0.87945743  1
  O  O6  1  0.10543679  0.98489422  0.69217574  1
  O  O7  1  0.62054257  0.41326105  0.10543679  1
  O  O8  1  0.51510578  0.39456321  0.80782426  1
  O  O9  1  0.87945743  0.98489422  0.79271847  1
  O  O10  1  0.41326105  0.10543679  0.62054257  1
  O  O11  1  0.80782426  0.51510578  0.39456321  1
  O  O12  1  0.98489422  0.79271847  0.87945743  1
  O  O13  1  0.08673895  0.70728153  0.69217574  1
  O  O14  1  0.69217574  0.08673895  0.70728153  1
  O  O15  1  0.10543679  0.62054257  0.41326105  1
  O  O16  1  0.80782426  0.79271847  0.41326105  1
  O  O17  1  0.39456321  0.80782426  0.51510578  1
  O  O18  1  0.41326105  0.80782426  0.79271847  1
  O  O19  1  0.79271847  0.87945743  0.98489422  1
  O  O20  1  0.79271847  0.41326105  0.80782426  1
  O  O21  1  0.87945743  0.39456321  0.08673895  1
  O  O22  1  0.98489422  0.69217574  0.10543679  1
  O  O23  1  0.70728153  0.51510578  0.62054257  1
  O  O24  1  0.29271847  0.30782426  0.91326105  1
  O  O25  1  0.30782426  0.89456321  0.01510578  1
  O  O26  1  0.37945743  0.29271847  0.48489422  1
  O  O27  1  0.48489422  0.37945743  0.29271847  1
  O  O28  1  0.91326105  0.12054257  0.60543679  1
  O  O29  1  0.60543679  0.91326105  0.12054257  1
  O  O30  1  0.89456321  0.01510578  0.30782426  1
  O  O31  1  0.37945743  0.58673895  0.89456321  1
  O  O32  1  0.48489422  0.60543679  0.19217574  1
  O  O33  1  0.12054257  0.01510578  0.20728153  1
  O  O34  1  0.58673895  0.89456321  0.37945743  1
  O  O35  1  0.19217574  0.48489422  0.60543679  1
  O  O36  1  0.01510578  0.20728153  0.12054257  1
  O  O37  1  0.91326105  0.29271847  0.30782426  1
  O  O38  1  0.30782426  0.91326105  0.29271847  1
  O  O39  1  0.89456321  0.37945743  0.58673895  1
  O  O40  1  0.19217574  0.20728153  0.58673895  1
  O  O41  1  0.60543679  0.19217574  0.48489422  1
  O  O42  1  0.58673895  0.19217574  0.20728153  1
  O  O43  1  0.20728153  0.12054257  0.01510578  1
  O  O44  1  0.20728153  0.58673895  0.19217574  1
  O  O45  1  0.12054257  0.60543679  0.91326105  1
  O  O46  1  0.01510578  0.30782426  0.89456321  1
  O  O47  1  0.29271847  0.48489422  0.37945743  1
  Si  Si48  1  0.25000000  0.12500000  0.87500000  1
  Si  Si49  1  0.75000000  0.87500000  0.12500000  1
  Si  Si50  1  0.37500000  0.25000000  0.62500000  1
  Si  Si51  1  0.62500000  0.37500000  0.25000000  1
  Si  Si52  1  0.12500000  0.75000000  0.87500000  1
  Si  Si53  1  0.87500000  0.12500000  0.75000000  1
  Si  Si54  1  0.75000000  0.37500000  0.62500000  1
  Si  Si55  1  0.37500000  0.62500000  0.75000000  1
  Si  Si56  1  0.12500000  0.87500000  0.25000000  1
  Si  Si57  1  0.87500000  0.25000000  0.12500000  1
  Si  Si58  1  0.62500000  0.75000000  0.37500000  1
  Si  Si59  1  0.25000000  0.62500000  0.37500000  1
  Cr  Cr60  1  0.50000000  0.50000000  0.50000000  1
  Cr  Cr61  1  0.50000000  0.50000000  0.00000000  1
  Cr  Cr62  1  0.50000000  0.00000000  0.50000000  1
  Cr  Cr63  1  0.00000000  0.50000000  0.50000000  1
  Cr  Cr64  1  0.50000000  0.00000000  0.00000000  1
  Cr  Cr65  1  0.00000000  0.00000000  0.50000000  1
  Cr  Cr66  1  0.00000000  0.50000000  0.00000000  1
  Cr  Cr67  1  0.00000000  0.00000000  0.00000000  1
  Mn  Mn68  1  0.25000000  0.87500000  0.62500000  1
  Mn  Mn69  1  0.87500000  0.62500000  0.25000000  1
  Mn  Mn70  1  0.62500000  0.87500000  0.75000000  1
  Mn  Mn71  1  0.87500000  0.75000000  0.62500000  1
  Mn  Mn72  1  0.62500000  0.25000000  0.87500000  1
  Mn  Mn73  1  0.75000000  0.62500000  0.87500000  1
  Mn  Mn74  1  0.75000000  0.12500000  0.37500000  1
  Mn  Mn75  1  0.12500000  0.37500000  0.75000000  1
  Mn  Mn76  1  0.37500000  0.12500000  0.25000000  1
  Mn  Mn77  1  0.12500000  0.25000000  0.37500000  1
  Mn  Mn78  1  0.37500000  0.75000000  0.12500000  1
  Mn  Mn79  1  0.25000000  0.37500000  0.12500000  1
