# generated using pymatgen
data_MgAg2
_symmetry_space_group_name_H-M   'P 1'
_cell_length_a   5.60377909
_cell_length_b   5.60377909
_cell_length_c   8.84113799
_cell_angle_alpha   90.00000000
_cell_angle_beta   90.00000000
_cell_angle_gamma   119.99999470
_symmetry_Int_Tables_number   1
_chemical_formula_structural   MgAg2
_chemical_formula_sum   'Mg4 Ag8'
_cell_volume   240.43674322
_cell_formula_units_Z   4
loop_
 _symmetry_equiv_pos_site_id
 _symmetry_equiv_pos_as_xyz
  1  'x, y, z'
loop_
 _atom_site_type_symbol
 _atom_site_label
 _atom_site_symmetry_multiplicity
 _atom_site_fract_x
 _atom_site_fract_y
 _atom_site_fract_z
 _atom_site_occupancy
  Mg  Mg0  1  0.66666700  0.33333400  0.93892295  1
  Mg  Mg1  1  0.33333300  0.66666600  0.43892295  1
  Mg  Mg2  1  0.33333300  0.66666600  0.06107705  1
  Mg  Mg3  1  0.66666700  0.33333400  0.56107705  1
  Ag  Ag4  1  -0.00000000  -0.00000000  -0.00000000  1
  Ag  Ag5  1  -0.00000000  -0.00000000  0.50000000  1
  Ag  Ag6  1  0.82868272  0.17131728  0.25000000  1
  Ag  Ag7  1  0.17131728  0.34263457  0.75000000  1
  Ag  Ag8  1  0.65736543  0.82868272  0.75000000  1
  Ag  Ag9  1  0.34263457  0.17131728  0.25000000  1
  Ag  Ag10  1  0.82868272  0.65736543  0.25000000  1
  Ag  Ag11  1  0.17131728  0.82868272  0.75000000  1
