# generated using pymatgen
data_Ni23B6
_symmetry_space_group_name_H-M   'P 1'
_cell_length_a   7.36370068
_cell_length_b   7.36370067
_cell_length_c   7.36370067
_cell_angle_alpha   59.99999996
_cell_angle_beta   59.99999998
_cell_angle_gamma   60.00000000
_symmetry_Int_Tables_number   1
_chemical_formula_structural   Ni23B6
_chemical_formula_sum   'Ni23 B6'
_cell_volume   282.34063139
_cell_formula_units_Z   1
loop_
 _symmetry_equiv_pos_site_id
 _symmetry_equiv_pos_as_xyz
  1  'x, y, z'
loop_
 _atom_site_type_symbol
 _atom_site_label
 _atom_site_symmetry_multiplicity
 _atom_site_fract_x
 _atom_site_fract_y
 _atom_site_fract_z
 _atom_site_occupancy
  B  B0  1  0.27359019  0.72640981  0.72640981  1
  B  B1  1  0.27359019  0.72640981  0.27359019  1
  B  B2  1  0.72640981  0.27359019  0.72640981  1
  B  B3  1  0.27359019  0.27359019  0.72640981  1
  B  B4  1  0.72640981  0.72640981  0.27359019  1
  B  B5  1  0.72640981  0.27359019  0.27359019  1
  Ni  Ni6  1  0.00000000  0.33854853  0.66145147  1
  Ni  Ni7  1  0.00000000  0.66145147  0.33854853  1
  Ni  Ni8  1  0.00000000  0.33854853  0.00000000  1
  Ni  Ni9  1  0.33854853  0.00000000  0.66145147  1
  Ni  Ni10  1  0.66145147  0.33854853  0.00000000  1
  Ni  Ni11  1  0.00000000  0.66145147  0.00000000  1
  Ni  Ni12  1  0.66145147  0.00000000  0.33854853  1
  Ni  Ni13  1  0.00000000  0.00000000  0.66145147  1
  Ni  Ni14  1  0.66145147  0.00000000  0.00000000  1
  Ni  Ni15  1  0.38155809  0.38155809  0.38155809  1
  Ni  Ni16  1  0.61844191  0.61844191  0.14467428  1
  Ni  Ni17  1  0.14467428  0.61844191  0.61844191  1
  Ni  Ni18  1  0.61844191  0.14467428  0.61844191  1
  Ni  Ni19  1  0.85532572  0.38155809  0.38155809  1
  Ni  Ni20  1  0.38155809  0.85532572  0.38155809  1
  Ni  Ni21  1  0.38155809  0.38155809  0.85532572  1
  Ni  Ni22  1  0.61844191  0.61844191  0.61844191  1
  Ni  Ni23  1  0.33854853  0.66145147  0.00000000  1
  Ni  Ni24  1  0.00000000  0.00000000  0.33854853  1
  Ni  Ni25  1  0.33854853  0.00000000  0.00000000  1
  Ni  Ni26  1  0.75000000  0.75000000  0.75000000  1
  Ni  Ni27  1  0.25000000  0.25000000  0.25000000  1
  Ni  Ni28  1  0.00000000  0.00000000  0.00000000  1
