# generated using pymatgen
data_NaNi2P2O9
_symmetry_space_group_name_H-M   'P 1'
_cell_length_a   6.37383235
_cell_length_b   7.34915324
_cell_length_c   14.12923126
_cell_angle_alpha   90.00000000
_cell_angle_beta   90.00000000
_cell_angle_gamma   90.00000000
_symmetry_Int_Tables_number   1
_chemical_formula_structural   NaNi2P2O9
_chemical_formula_sum   'Na4 Ni8 P8 O36'
_cell_volume   661.84527499
_cell_formula_units_Z   4
loop_
 _symmetry_equiv_pos_site_id
 _symmetry_equiv_pos_as_xyz
  1  'x, y, z'
loop_
 _atom_site_type_symbol
 _atom_site_label
 _atom_site_symmetry_multiplicity
 _atom_site_fract_x
 _atom_site_fract_y
 _atom_site_fract_z
 _atom_site_occupancy
  Na  Na0  1  0.75000000  0.88881764  0.78270310  1
  Na  Na1  1  0.75000000  0.61118236  0.28270310  1
  Na  Na2  1  0.25000100  0.38881664  0.71729690  1
  Na  Na3  1  0.25000100  0.11118236  0.21729690  1
  Ni  Ni4  1  0.75000000  0.35619878  0.87425215  1
  Ni  Ni5  1  0.25000100  0.64380122  0.12574785  1
  Ni  Ni6  1  0.25000100  0.85619878  0.62574785  1
  Ni  Ni7  1  0.75000000  0.14380122  0.37425215  1
  Ni  Ni8  1  0.50000000  -0.00000000  -0.00000000  1
  Ni  Ni9  1  0.50000000  0.50000000  0.50000000  1
  Ni  Ni10  1  -0.00000000  0.50000000  0.50000000  1
  Ni  Ni11  1  0.00000000  0.00000000  -0.00000000  1
  P  P12  1  0.25000100  0.36612465  0.93707862  1
  P  P13  1  0.75000000  0.63387535  0.06292238  1
  P  P14  1  0.75000000  0.86612465  0.56292138  1
  P  P15  1  0.25000100  0.13387635  0.43707862  1
  P  P16  1  0.75000000  0.40058848  0.68949541  1
  P  P17  1  0.75000000  0.09941152  0.18949541  1
  P  P18  1  0.25000100  0.90058848  0.81050459  1
  P  P19  1  0.25000100  0.59941052  0.31050459  1
  O  O20  1  0.05065839  0.59384807  0.37082312  1
  O  O21  1  0.55065739  0.40615093  0.62917688  1
  O  O22  1  0.94934161  0.09384807  0.12917688  1
  O  O23  1  0.44934161  0.90615193  0.87082312  1
  O  O24  1  0.94934161  0.40615093  0.62917688  1
  O  O25  1  0.44934161  0.59384807  0.37082312  1
  O  O26  1  0.05065839  0.90615193  0.87082312  1
  O  O27  1  0.55065739  0.09384807  0.12917688  1
  O  O28  1  0.25000100  0.31945563  0.48910334  1
  O  O29  1  0.75000000  0.68054537  0.51089666  1
  O  O30  1  0.75000000  0.81945463  0.01089566  1
  O  O31  1  0.25000100  0.18054537  0.98910334  1
  O  O32  1  0.75000000  0.13712343  0.95008796  1
  O  O33  1  0.25000100  0.86287657  0.04991104  1
  O  O34  1  0.25000100  0.63712343  0.54991104  1
  O  O35  1  0.75000000  0.36287757  0.45008896  1
  O  O36  1  0.75000000  0.22556456  0.75367946  1
  O  O37  1  0.25000100  0.77443544  0.24632154  1
  O  O38  1  0.25000100  0.72556456  0.74632054  1
  O  O39  1  0.75000000  0.27443644  0.25367846  1
  O  O40  1  0.43678431  0.12402286  0.36750798  1
  O  O41  1  0.93678431  0.87597714  0.63249202  1
  O  O42  1  0.56321569  0.62402186  0.13249202  1
  O  O43  1  0.06321569  0.37597714  0.86750798  1
  O  O44  1  0.56321569  0.87597714  0.63249202  1
  O  O45  1  0.06321569  0.12402286  0.36750798  1
  O  O46  1  0.43678431  0.37597714  0.86750798  1
  O  O47  1  0.93678431  0.62402186  0.13249202  1
  O  O48  1  0.75000000  0.47216403  0.99571403  1
  O  O49  1  0.25000100  0.04693772  0.72963402  1
  O  O50  1  0.25000100  0.45306128  0.22963402  1
  O  O51  1  0.75000000  0.54693772  0.77036598  1
  O  O52  1  0.75000000  0.02783597  0.49571403  1
  O  O53  1  0.25000100  0.97216403  0.50428597  1
  O  O54  1  0.25000100  0.52783497  0.00428497  1
  O  O55  1  0.75000000  0.95306228  0.27036598  1
