# generated using pymatgen
data_Pb3SO6
_symmetry_space_group_name_H-M   'P 1'
_cell_length_a   6.03183119
_cell_length_b   8.07892133
_cell_length_c   8.07892152
_cell_angle_alpha   99.96308279
_cell_angle_beta   90.00000000
_cell_angle_gamma   90.00000000
_symmetry_Int_Tables_number   1
_chemical_formula_structural   Pb3SO6
_chemical_formula_sum   'Pb6 S2 O12'
_cell_volume   387.75432811
_cell_formula_units_Z   2
loop_
 _symmetry_equiv_pos_site_id
 _symmetry_equiv_pos_as_xyz
  1  'x, y, z'
loop_
 _atom_site_type_symbol
 _atom_site_label
 _atom_site_symmetry_multiplicity
 _atom_site_fract_x
 _atom_site_fract_y
 _atom_site_fract_z
 _atom_site_occupancy
  Pb  Pb0  1  0.75000000  0.10092148  0.89907852  1
  Pb  Pb1  1  0.75000000  0.17778796  0.35692097  1
  Pb  Pb2  1  0.75000000  0.64307903  0.82221204  1
  Pb  Pb3  1  0.25000000  0.89907852  0.10092148  1
  Pb  Pb4  1  0.25000000  0.35692097  0.17778796  1
  Pb  Pb5  1  0.25000000  0.82221204  0.64307903  1
  S  S6  1  0.75000000  0.65140435  0.34859565  1
  S  S7  1  0.25000000  0.34859565  0.65140435  1
  O  O8  1  0.75000000  0.46212090  0.30000624  1
  O  O9  1  0.00000000  0.14339568  0.14339568  1
  O  O10  1  0.95311802  0.71845401  0.28154599  1
  O  O11  1  0.54688198  0.71845401  0.28154599  1
  O  O12  1  0.25000000  0.30000624  0.46212090  1
  O  O13  1  0.50000000  0.85660432  0.85660432  1
  O  O14  1  0.45311802  0.28154599  0.71845401  1
  O  O15  1  0.75000000  0.69999376  0.53787910  1
  O  O16  1  0.25000000  0.53787910  0.69999376  1
  O  O17  1  0.04688198  0.28154599  0.71845401  1
  O  O18  1  0.00000000  0.85660432  0.85660432  1
  O  O19  1  0.50000000  0.14339568  0.14339568  1
