# generated using pymatgen
data_Tl3PbI5
_symmetry_space_group_name_H-M   'P 1'
_cell_length_a   9.12259905
_cell_length_b   9.83322841
_cell_length_c   16.58972016
_cell_angle_alpha   90.00000000
_cell_angle_beta   90.00000000
_cell_angle_gamma   90.00000000
_symmetry_Int_Tables_number   1
_chemical_formula_structural   Tl3PbI5
_chemical_formula_sum   'Tl12 Pb4 I20'
_cell_volume   1488.17421358
_cell_formula_units_Z   4
loop_
 _symmetry_equiv_pos_site_id
 _symmetry_equiv_pos_as_xyz
  1  'x, y, z'
loop_
 _atom_site_type_symbol
 _atom_site_label
 _atom_site_symmetry_multiplicity
 _atom_site_fract_x
 _atom_site_fract_y
 _atom_site_fract_z
 _atom_site_occupancy
  I  I0  1  0.97782757  0.90071628  0.10290316  1
  I  I1  1  0.47782757  0.09928372  0.39709684  1
  I  I2  1  0.52217243  0.40071628  0.89709684  1
  I  I3  1  0.02217243  0.59928372  0.60290316  1
  I  I4  1  0.52234627  0.53510358  0.52630656  1
  I  I5  1  0.02234627  0.46489642  0.97369344  1
  I  I6  1  0.97765373  0.03510358  0.47369344  1
  I  I7  1  0.47765373  0.96489642  0.02630656  1
  I  I8  1  0.16502621  0.10518827  0.88566830  1
  I  I9  1  0.66502621  0.89481173  0.61433170  1
  I  I10  1  0.33497379  0.60518827  0.11433170  1
  I  I11  1  0.83497379  0.39481173  0.38566830  1
  I  I12  1  0.84737834  0.80922991  0.85967661  1
  I  I13  1  0.34737834  0.19077009  0.64032339  1
  I  I14  1  0.65262166  0.30922991  0.14032339  1
  I  I15  1  0.15262166  0.69077009  0.35967661  1
  I  I16  1  0.32974722  0.74645754  0.77745131  1
  I  I17  1  0.82974722  0.25354246  0.72254869  1
  I  I18  1  0.17025278  0.24645754  0.22254869  1
  I  I19  1  0.67025278  0.75354246  0.27745131  1
  Tl  Tl20  1  0.02596816  0.95350072  0.69678375  1
  Tl  Tl21  1  0.52596816  0.04649928  0.80321625  1
  Tl  Tl22  1  0.47403184  0.45350072  0.30321625  1
  Tl  Tl23  1  0.97403184  0.54649928  0.19678375  1
  Tl  Tl24  1  0.17097057  0.41805963  0.77593747  1
  Tl  Tl25  1  0.67097057  0.58194037  0.72406253  1
  Tl  Tl26  1  0.32902943  0.91805963  0.22406253  1
  Tl  Tl27  1  0.82902943  0.08194037  0.27593747  1
  Tl  Tl28  1  0.18797300  0.34063231  0.46691940  1
  Tl  Tl29  1  0.68797300  0.65936769  0.03308060  1
  Tl  Tl30  1  0.31202700  0.84063231  0.53308060  1
  Tl  Tl31  1  0.81202700  0.15936769  0.96691940  1
  Pb  Pb32  1  0.82872528  0.70122750  0.45538396  1
  Pb  Pb33  1  0.32872528  0.29877250  0.04461604  1
  Pb  Pb34  1  0.67127472  0.20122750  0.54461604  1
  Pb  Pb35  1  0.17127472  0.79877250  0.95538396  1
