# generated using pymatgen
data_U2Ti3Si4
_symmetry_space_group_name_H-M   'P 1'
_cell_length_a   6.97095291
_cell_length_b   6.85224065
_cell_length_c   6.86643021
_cell_angle_alpha   90.00000000
_cell_angle_beta   110.65932783
_cell_angle_gamma   90.00000000
_symmetry_Int_Tables_number   1
_chemical_formula_structural   U2Ti3Si4
_chemical_formula_sum   'U4 Ti6 Si8'
_cell_volume   306.89509152
_cell_formula_units_Z   2
loop_
 _symmetry_equiv_pos_site_id
 _symmetry_equiv_pos_as_xyz
  1  'x, y, z'
loop_
 _atom_site_type_symbol
 _atom_site_label
 _atom_site_symmetry_multiplicity
 _atom_site_fract_x
 _atom_site_fract_y
 _atom_site_fract_z
 _atom_site_occupancy
  Si  Si0  1  0.13923975  0.86625013  0.52389853  1
  Si  Si1  1  0.36076025  0.36625013  0.47610147  1
  Si  Si2  1  0.86076025  0.13374987  0.47610147  1
  Si  Si3  1  0.63923975  0.63374987  0.52389853  1
  Si  Si4  1  0.88262434  0.53622095  0.08728682  1
  Si  Si5  1  0.61737566  0.03622095  0.91271318  1
  Si  Si6  1  0.38262434  0.96377905  0.08728682  1
  Si  Si7  1  0.11737566  0.46377905  0.91271318  1
  Ti  Ti8  1  0.25145140  0.68366381  0.25445279  1
  Ti  Ti9  1  0.24854860  0.18366381  0.74554721  1
  Ti  Ti10  1  0.00000000  0.50000000  0.50000000  1
  Ti  Ti11  1  0.50000000  0.00000000  0.50000000  1
  Ti  Ti12  1  0.74854860  0.31633619  0.74554721  1
  Ti  Ti13  1  0.75145140  0.81633619  0.25445279  1
  U  U14  1  0.44899054  0.63047020  0.84824379  1
  U  U15  1  0.05100946  0.13047020  0.15175621  1
  U  U16  1  0.55100946  0.36952980  0.15175621  1
  U  U17  1  0.94899054  0.86952980  0.84824379  1
