# generated using pymatgen
data_BaCl2
_symmetry_space_group_name_H-M   'P 1'
_cell_length_a   4.83301693
_cell_length_b   8.00982496
_cell_length_c   9.55040984
_cell_angle_alpha   90.00000000
_cell_angle_beta   90.00000000
_cell_angle_gamma   90.00000000
_symmetry_Int_Tables_number   1
_chemical_formula_structural   BaCl2
_chemical_formula_sum   'Ba4 Cl8'
_cell_volume   369.71183311
_cell_formula_units_Z   4
loop_
 _symmetry_equiv_pos_site_id
 _symmetry_equiv_pos_as_xyz
  1  'x, y, z'
loop_
 _atom_site_type_symbol
 _atom_site_label
 _atom_site_symmetry_multiplicity
 _atom_site_fract_x
 _atom_site_fract_y
 _atom_site_fract_z
 _atom_site_occupancy
  Cl  Cl0  1  0.25000000  0.52262629  0.66537392  1
  Cl  Cl1  1  0.75000000  0.47737371  0.33462608  1
  Cl  Cl2  1  0.25000000  0.02262629  0.83462608  1
  Cl  Cl3  1  0.75000000  0.97737371  0.16537392  1
  Cl  Cl4  1  0.75000000  0.85879038  0.57336589  1
  Cl  Cl5  1  0.25000000  0.14120962  0.42663411  1
  Cl  Cl6  1  0.75000000  0.35879038  0.92663411  1
  Cl  Cl7  1  0.25000000  0.64120962  0.07336589  1
  Ba  Ba8  1  0.25000000  0.74738332  0.38755524  1
  Ba  Ba9  1  0.75000000  0.25261668  0.61244476  1
  Ba  Ba10  1  0.25000000  0.24738332  0.11244476  1
  Ba  Ba11  1  0.75000000  0.75261668  0.88755524  1
