# generated using pymatgen
data_Lu3Ge13Rh4
_symmetry_space_group_name_H-M   'P 1'
_cell_length_a   8.98659167
_cell_length_b   8.98659167
_cell_length_c   8.98659167
_cell_angle_alpha   90.00000000
_cell_angle_beta   90.00000000
_cell_angle_gamma   90.00000000
_symmetry_Int_Tables_number   1
_chemical_formula_structural   Lu3Ge13Rh4
_chemical_formula_sum   'Lu6 Ge26 Rh8'
_cell_volume   725.74662755
_cell_formula_units_Z   2
loop_
 _symmetry_equiv_pos_site_id
 _symmetry_equiv_pos_as_xyz
  1  'x, y, z'
loop_
 _atom_site_type_symbol
 _atom_site_label
 _atom_site_symmetry_multiplicity
 _atom_site_fract_x
 _atom_site_fract_y
 _atom_site_fract_z
 _atom_site_occupancy
  Ge  Ge0  1  0.50000000  0.35468080  0.19011720  1
  Ge  Ge1  1  0.50000000  0.64531920  0.80988280  1
  Ge  Ge2  1  0.35468080  0.19011720  0.50000000  1
  Ge  Ge3  1  0.64531920  0.19011720  0.50000000  1
  Ge  Ge4  1  0.19011720  0.50000000  0.35468080  1
  Ge  Ge5  1  0.80988280  0.50000000  0.35468080  1
  Ge  Ge6  1  0.00000000  0.69011720  0.14531920  1
  Ge  Ge7  1  0.00000000  0.30988280  0.85468080  1
  Ge  Ge8  1  0.00000000  0.69011720  0.85468080  1
  Ge  Ge9  1  0.30988280  0.85468080  0.00000000  1
  Ge  Ge10  1  0.85468080  0.00000000  0.69011720  1
  Ge  Ge11  1  0.85468080  0.00000000  0.30988280  1
  Ge  Ge12  1  0.69011720  0.14531920  0.00000000  1
  Ge  Ge13  1  0.14531920  0.00000000  0.69011720  1
  Ge  Ge14  1  0.00000000  0.00000000  0.00000000  1
  Ge  Ge15  1  0.50000000  0.50000000  0.50000000  1
  Ge  Ge16  1  0.00000000  0.30988280  0.14531920  1
  Ge  Ge17  1  0.50000000  0.35468080  0.80988280  1
  Ge  Ge18  1  0.50000000  0.64531920  0.19011720  1
  Ge  Ge19  1  0.64531920  0.80988280  0.50000000  1
  Ge  Ge20  1  0.35468080  0.80988280  0.50000000  1
  Ge  Ge21  1  0.19011720  0.50000000  0.64531920  1
  Ge  Ge22  1  0.80988280  0.50000000  0.64531920  1
  Ge  Ge23  1  0.14531920  0.00000000  0.30988280  1
  Ge  Ge24  1  0.30988280  0.14531920  0.00000000  1
  Ge  Ge25  1  0.69011720  0.85468080  0.00000000  1
  Rh  Rh26  1  0.75000000  0.25000000  0.25000000  1
  Rh  Rh27  1  0.25000000  0.25000000  0.75000000  1
  Rh  Rh28  1  0.25000000  0.75000000  0.25000000  1
  Rh  Rh29  1  0.75000000  0.75000000  0.75000000  1
  Rh  Rh30  1  0.25000000  0.75000000  0.75000000  1
  Rh  Rh31  1  0.75000000  0.75000000  0.25000000  1
  Rh  Rh32  1  0.75000000  0.25000000  0.75000000  1
  Rh  Rh33  1  0.25000000  0.25000000  0.25000000  1
  Lu  Lu34  1  0.00000000  0.25000000  0.50000000  1
  Lu  Lu35  1  0.00000000  0.75000000  0.50000000  1
  Lu  Lu36  1  0.50000000  0.00000000  0.75000000  1
  Lu  Lu37  1  0.50000000  0.00000000  0.25000000  1
  Lu  Lu38  1  0.75000000  0.50000000  0.00000000  1
  Lu  Lu39  1  0.25000000  0.50000000  0.00000000  1
