# generated using pymatgen
data_CoSeO3
_symmetry_space_group_name_H-M   'P 1'
_cell_length_a   5.09180862
_cell_length_b   6.01505753
_cell_length_c   7.66077233
_cell_angle_alpha   90.03758644
_cell_angle_beta   90.01441128
_cell_angle_gamma   89.99578578
_symmetry_Int_Tables_number   1
_chemical_formula_structural   CoSeO3
_chemical_formula_sum   'Co4 Se4 O12'
_cell_volume   234.63041299
_cell_formula_units_Z   4
loop_
 _symmetry_equiv_pos_site_id
 _symmetry_equiv_pos_as_xyz
  1  'x, y, z'
loop_
 _atom_site_type_symbol
 _atom_site_label
 _atom_site_symmetry_multiplicity
 _atom_site_fract_x
 _atom_site_fract_y
 _atom_site_fract_z
 _atom_site_occupancy
  Co  Co0  1  0.50000100  0.00000000  0.50000000  1
  Co  Co1  1  0.50000000  0.00000000  0.00000000  1
  Co  Co2  1  0.00000000  0.50000000  0.00000000  1
  Co  Co3  1  0.00000000  0.50000000  0.50000000  1
  Se  Se4  1  0.01725873  0.97752310  0.75026121  1
  Se  Se5  1  0.48253438  0.47744115  0.75028347  1
  Se  Se6  1  0.51746462  0.52255885  0.24971553  1
  Se  Se7  1  0.98274127  0.02247690  0.24973879  1
  O  O8  1  0.13577252  0.81472194  0.57593056  1
  O  O9  1  0.63728125  0.68509377  0.07572269  1
  O  O10  1  0.86285897  0.18497969  0.07568378  1
  O  O11  1  0.82345111  0.43085840  0.75038711  1
  O  O12  1  0.13714103  0.81502131  0.92431622  1
  O  O13  1  0.67652888  0.93080906  0.75023705  1
  O  O14  1  0.86422848  0.18527906  0.42406944  1
  O  O15  1  0.36410653  0.31483657  0.57580870  1
  O  O16  1  0.36271875  0.31490623  0.92427731  1
  O  O17  1  0.17654789  0.56914160  0.24961289  1
  O  O18  1  0.63589447  0.68516243  0.42419130  1
  O  O19  1  0.32347112  0.06919094  0.24976195  1
