# generated using pymatgen
data_NaBH4
_symmetry_space_group_name_H-M   'P 1'
_cell_length_a   4.27299586
_cell_length_b   7.02144476
_cell_length_c   7.54004013
_cell_angle_alpha   90.00000000
_cell_angle_beta   90.00000000
_cell_angle_gamma   90.00000000
_symmetry_Int_Tables_number   1
_chemical_formula_structural   NaBH4
_chemical_formula_sum   'Na4 B4 H16'
_cell_volume   226.22084111
_cell_formula_units_Z   4
loop_
 _symmetry_equiv_pos_site_id
 _symmetry_equiv_pos_as_xyz
  1  'x, y, z'
loop_
 _atom_site_type_symbol
 _atom_site_label
 _atom_site_symmetry_multiplicity
 _atom_site_fract_x
 _atom_site_fract_y
 _atom_site_fract_z
 _atom_site_occupancy
  H  H0  1  0.51508998  0.50949470  0.68053538  1
  H  H1  1  0.01508998  0.49050530  0.31946462  1
  H  H2  1  0.48491002  0.00949470  0.81946462  1
  H  H3  1  0.98491002  0.99050530  0.18053538  1
  H  H4  1  0.48491002  0.49050530  0.31946462  1
  H  H5  1  0.98491002  0.50949470  0.68053538  1
  H  H6  1  0.51508998  0.99050530  0.18053538  1
  H  H7  1  0.01508998  0.00949470  0.81946462  1
  H  H8  1  0.25000000  0.73740459  0.33602783  1
  H  H9  1  0.75000000  0.26259541  0.66397217  1
  H  H10  1  0.75000000  0.23740459  0.16397217  1
  H  H11  1  0.25000000  0.76259541  0.83602783  1
  H  H12  1  0.75000000  0.09009577  0.38999534  1
  H  H13  1  0.25000000  0.90990423  0.61000466  1
  H  H14  1  0.25000000  0.59009577  0.11000466  1
  H  H15  1  0.75000000  0.40990423  0.88999534  1
  B  B16  1  0.25000000  0.92327325  0.77338498  1
  B  B17  1  0.75000000  0.07672675  0.22661502  1
  B  B18  1  0.75000000  0.42327325  0.72661502  1
  B  B19  1  0.25000000  0.57672675  0.27338498  1
  Na  Na20  1  0.25000000  0.25156836  0.51077210  1
  Na  Na21  1  0.75000000  0.74843164  0.48922790  1
  Na  Na22  1  0.75000000  0.75156836  0.98922790  1
  Na  Na23  1  0.25000000  0.24843164  0.01077210  1
