# generated using pymatgen
data_H2O
_symmetry_space_group_name_H-M   'P 1'
_cell_length_a   7.60510905
_cell_length_b   7.60510905
_cell_length_c   7.60510905
_cell_angle_alpha   112.84458356
_cell_angle_beta   112.84458353
_cell_angle_gamma   112.84458362
_symmetry_Int_Tables_number   1
_chemical_formula_structural   H2O
_chemical_formula_sum   'H24 O12'
_cell_volume   288.70268621
_cell_formula_units_Z   12
loop_
 _symmetry_equiv_pos_site_id
 _symmetry_equiv_pos_as_xyz
  1  'x, y, z'
loop_
 _atom_site_type_symbol
 _atom_site_label
 _atom_site_symmetry_multiplicity
 _atom_site_fract_x
 _atom_site_fract_y
 _atom_site_fract_z
 _atom_site_occupancy
  H  H0  1  0.80134805  0.63304919  0.25899054  1
  H  H1  1  0.63304919  0.25899054  0.80134805  1
  H  H2  1  0.25899054  0.80134805  0.63304919  1
  H  H3  1  0.19865195  0.36695081  0.74100946  1
  H  H4  1  0.36695081  0.74100946  0.19865195  1
  H  H5  1  0.74100946  0.19865195  0.36695081  1
  H  H6  1  0.58778365  0.59802035  0.27370101  1
  H  H7  1  0.59802035  0.27370101  0.58778365  1
  H  H8  1  0.27370101  0.58778365  0.59802035  1
  H  H9  1  0.41221635  0.40197965  0.72629899  1
  H  H10  1  0.40197965  0.72629899  0.41221635  1
  H  H11  1  0.72629899  0.41221635  0.40197965  1
  H  H12  1  0.14173043  0.04623253  0.79598332  1
  H  H13  1  0.79598332  0.14173043  0.04623253  1
  H  H14  1  0.04623253  0.79598332  0.14173043  1
  H  H15  1  0.85826957  0.95376747  0.20401668  1
  H  H16  1  0.20401668  0.85826957  0.95376747  1
  H  H17  1  0.95376747  0.20401668  0.85826957  1
  H  H18  1  0.42666180  0.20259109  0.99248080  1
  H  H19  1  0.99248080  0.42666180  0.20259109  1
  H  H20  1  0.20259109  0.99248080  0.42666180  1
  H  H21  1  0.57333820  0.79740891  0.00751920  1
  H  H22  1  0.00751920  0.57333820  0.79740891  1
  H  H23  1  0.79740891  0.00751920  0.57333820  1
  O  O24  1  0.25098830  0.66800968  0.52294608  1
  O  O25  1  0.66800968  0.52294608  0.25098830  1
  O  O26  1  0.52294608  0.25098830  0.66800968  1
  O  O27  1  0.74901170  0.33199032  0.47705392  1
  O  O28  1  0.33199032  0.47705392  0.74901170  1
  O  O29  1  0.47705392  0.74901170  0.33199032  1
  O  O30  1  0.97152606  0.14064466  0.72884761  1
  O  O31  1  0.14064466  0.72884761  0.97152606  1
  O  O32  1  0.72884761  0.97152606  0.14064466  1
  O  O33  1  0.02847394  0.85935534  0.27115239  1
  O  O34  1  0.85935534  0.27115239  0.02847394  1
  O  O35  1  0.27115239  0.02847394  0.85935534  1
