# generated using pymatgen
data_Ho(HO)3
_symmetry_space_group_name_H-M   'P 1'
_cell_length_a   6.32222428
_cell_length_b   6.32222428
_cell_length_c   3.52552830
_cell_angle_alpha   90.00000000
_cell_angle_beta   90.00000000
_cell_angle_gamma   119.99999996
_symmetry_Int_Tables_number   1
_chemical_formula_structural   Ho(HO)3
_chemical_formula_sum   'Ho2 H6 O6'
_cell_volume   122.03787407
_cell_formula_units_Z   2
loop_
 _symmetry_equiv_pos_site_id
 _symmetry_equiv_pos_as_xyz
  1  'x, y, z'
loop_
 _atom_site_type_symbol
 _atom_site_label
 _atom_site_symmetry_multiplicity
 _atom_site_fract_x
 _atom_site_fract_y
 _atom_site_fract_z
 _atom_site_occupancy
  H  H0  1  0.72119618  0.86121589  0.75000000  1
  H  H1  1  0.85998029  0.72119618  0.25000000  1
  H  H2  1  0.14001971  0.27880382  0.75000000  1
  H  H3  1  0.27880382  0.13878411  0.25000000  1
  H  H4  1  0.86121589  0.14001971  0.25000000  1
  H  H5  1  0.13878411  0.85998029  0.75000000  1
  O  O6  1  0.91504066  0.60230372  0.25000000  1
  O  O7  1  0.60230372  0.68726307  0.75000000  1
  O  O8  1  0.08495934  0.39769628  0.75000000  1
  O  O9  1  0.39769628  0.31273693  0.25000000  1
  O  O10  1  0.68726307  0.08495934  0.25000000  1
  O  O11  1  0.31273693  0.91504066  0.75000000  1
  Ho  Ho12  1  0.66666667  0.33333333  0.75000000  1
  Ho  Ho13  1  0.33333333  0.66666667  0.25000000  1
