# generated using pymatgen
data_Ga2P3(HO3)3
_symmetry_space_group_name_H-M   'P 1'
_cell_length_a   8.06471475
_cell_length_b   8.06471475
_cell_length_c   7.36137677
_cell_angle_alpha   90.00000000
_cell_angle_beta   90.00000000
_cell_angle_gamma   120.00000004
_symmetry_Int_Tables_number   1
_chemical_formula_structural   Ga2P3(HO3)3
_chemical_formula_sum   'Ga4 P6 H6 O18'
_cell_volume   414.63666217
_cell_formula_units_Z   2
loop_
 _symmetry_equiv_pos_site_id
 _symmetry_equiv_pos_as_xyz
  1  'x, y, z'
loop_
 _atom_site_type_symbol
 _atom_site_label
 _atom_site_symmetry_multiplicity
 _atom_site_fract_x
 _atom_site_fract_y
 _atom_site_fract_z
 _atom_site_occupancy
  H  H0  1  0.81823903  0.83924990  0.75000000  1
  H  H1  1  0.97898913  0.81823903  0.25000000  1
  H  H2  1  0.83924990  0.02101087  0.25000000  1
  H  H3  1  0.16075010  0.97898913  0.75000000  1
  H  H4  1  0.02101087  0.18176097  0.75000000  1
  H  H5  1  0.18176097  0.16075010  0.25000000  1
  O  O6  1  0.13072559  0.51731459  0.75000000  1
  O  O7  1  0.61341099  0.13072559  0.25000000  1
  O  O8  1  0.51731459  0.38658901  0.25000000  1
  O  O9  1  0.48268541  0.61341099  0.75000000  1
  O  O10  1  0.16287549  0.72904713  0.07467913  1
  O  O11  1  0.43382836  0.16287549  0.57467913  1
  O  O12  1  0.72904713  0.56617164  0.57467913  1
  O  O13  1  0.27095287  0.43382836  0.07467913  1
  O  O14  1  0.56617164  0.83712451  0.07467913  1
  O  O15  1  0.83712451  0.27095287  0.57467913  1
  O  O16  1  0.83712451  0.27095287  0.92532087  1
  O  O17  1  0.56617164  0.83712451  0.42532087  1
  O  O18  1  0.27095287  0.43382836  0.42532087  1
  O  O19  1  0.72904713  0.56617164  0.92532087  1
  O  O20  1  0.43382836  0.16287549  0.92532087  1
  O  O21  1  0.16287549  0.72904713  0.42532087  1
  O  O22  1  0.86927441  0.48268541  0.25000000  1
  O  O23  1  0.38658901  0.86927441  0.75000000  1
  P  P24  1  0.95199382  0.31056941  0.75000000  1
  P  P25  1  0.64142441  0.95199382  0.25000000  1
  P  P26  1  0.31056941  0.35857559  0.25000000  1
  P  P27  1  0.68943059  0.64142441  0.75000000  1
  P  P28  1  0.35857559  0.04800618  0.75000000  1
  P  P29  1  0.04800618  0.68943059  0.25000000  1
  Ga  Ga30  1  0.33333333  0.66666667  0.54938618  1
  Ga  Ga31  1  0.66666667  0.33333333  0.04938618  1
  Ga  Ga32  1  0.66666667  0.33333333  0.45061382  1
  Ga  Ga33  1  0.33333333  0.66666667  0.95061382  1
