# generated using pymatgen
data_Sr2Al3Si3HO13
_symmetry_space_group_name_H-M   'P 1'
_cell_length_a   5.66788830
_cell_length_b   10.36862279
_cell_length_c   16.53873788
_cell_angle_alpha   90.00000000
_cell_angle_beta   90.00000000
_cell_angle_gamma   90.00000000
_symmetry_Int_Tables_number   1
_chemical_formula_structural   Sr2Al3Si3HO13
_chemical_formula_sum   'Sr8 Al12 Si12 H4 O52'
_cell_volume   971.95178599
_cell_formula_units_Z   4
loop_
 _symmetry_equiv_pos_site_id
 _symmetry_equiv_pos_as_xyz
  1  'x, y, z'
loop_
 _atom_site_type_symbol
 _atom_site_label
 _atom_site_symmetry_multiplicity
 _atom_site_fract_x
 _atom_site_fract_y
 _atom_site_fract_z
 _atom_site_occupancy
  H  H0  1  0.25000000  0.51718965  0.77140122  1
  H  H1  1  0.75000000  0.48281035  0.22859878  1
  H  H2  1  0.75000000  0.01718965  0.72859878  1
  H  H3  1  0.25000000  0.98281035  0.27140122  1
  O  O4  1  0.25000000  0.31029212  0.23216887  1
  O  O5  1  0.75000000  0.57797194  0.22777310  1
  O  O6  1  0.75000000  0.92202806  0.72777310  1
  O  O7  1  0.25000000  0.07797194  0.27222690  1
  O  O8  1  0.75000000  0.05554329  0.91385164  1
  O  O9  1  0.25000000  0.94445671  0.08614836  1
  O  O10  1  0.25000000  0.55554329  0.58614836  1
  O  O11  1  0.75000000  0.44445671  0.41385164  1
  O  O12  1  0.75000000  0.21714099  0.50091964  1
  O  O13  1  0.25000000  0.78285901  0.49908036  1
  O  O14  1  0.25000000  0.71714099  0.99908036  1
  O  O15  1  0.75000000  0.28285901  0.00091964  1
  O  O16  1  0.25000000  0.34029932  0.49761621  1
  O  O17  1  0.75000000  0.65970068  0.50238379  1
  O  O18  1  0.75000000  0.84029932  0.00238379  1
  O  O19  1  0.25000000  0.15970068  0.99761621  1
  O  O20  1  0.75000000  0.44190264  0.77518198  1
  O  O21  1  0.48545944  0.74074634  0.13804257  1
  O  O22  1  0.25000000  0.94190264  0.72481802  1
  O  O23  1  0.75000000  0.05809736  0.27518198  1
  O  O24  1  0.25000000  0.18970788  0.73216887  1
  O  O25  1  0.75000000  0.81029212  0.26783113  1
  O  O26  1  0.75000000  0.68970788  0.76783113  1
  O  O27  1  0.25000000  0.42202806  0.77222690  1
  O  O28  1  0.75000000  0.20422791  0.72178175  1
  O  O29  1  0.25000000  0.79577209  0.27821825  1
  O  O30  1  0.25000000  0.70422791  0.77821825  1
  O  O31  1  0.75000000  0.29577209  0.22178175  1
  O  O32  1  0.00277655  0.14739137  0.13574109  1
  O  O33  1  0.50277655  0.85260863  0.86425891  1
  O  O34  1  0.99722345  0.64739137  0.36425891  1
  O  O35  1  0.49722345  0.35260863  0.63574109  1
  O  O36  1  0.99722345  0.85260863  0.86425891  1
  O  O37  1  0.49722345  0.14739137  0.13574109  1
  O  O38  1  0.00277655  0.35260863  0.63574109  1
  O  O39  1  0.50277655  0.64739137  0.36425891  1
  O  O40  1  0.01396828  0.42061566  0.10515512  1
  O  O41  1  0.51396828  0.57938434  0.89484488  1
  O  O42  1  0.98603172  0.92061566  0.39484488  1
  O  O43  1  0.48603172  0.07938434  0.60515512  1
  O  O44  1  0.98603172  0.57938434  0.89484488  1
  O  O45  1  0.48603172  0.42061566  0.10515512  1
  O  O46  1  0.01396828  0.07938434  0.60515512  1
  O  O47  1  0.51396828  0.92061566  0.39484488  1
  O  O48  1  0.98545944  0.24074634  0.36195743  1
  O  O49  1  0.48545944  0.75925366  0.63804257  1
  O  O50  1  0.01454056  0.74074634  0.13804257  1
  O  O51  1  0.51454056  0.25925366  0.86195743  1
  O  O52  1  0.01454056  0.75925366  0.63804257  1
  O  O53  1  0.51454056  0.24074634  0.36195743  1
  O  O54  1  0.98545944  0.25925366  0.86195743  1
  O  O55  1  0.25000000  0.55809736  0.22481802  1
  Al  Al56  1  0.49563124  0.68877571  0.24668905  1
  Al  Al57  1  0.99563124  0.18877571  0.25331095  1
  Al  Al58  1  0.49563124  0.81122429  0.74668905  1
  Al  Al59  1  0.00436876  0.68877571  0.24668905  1
  Al  Al60  1  0.50436876  0.31122429  0.75331095  1
  Al  Al61  1  0.00436876  0.81122429  0.74668905  1
  Al  Al62  1  0.50436876  0.18877571  0.25331095  1
  Al  Al63  1  0.99563124  0.31122429  0.75331095  1
  Al  Al64  1  0.75000000  0.29681210  0.11011264  1
  Al  Al65  1  0.25000000  0.70318790  0.88988736  1
  Al  Al66  1  0.25000000  0.79681210  0.38988736  1
  Al  Al67  1  0.75000000  0.20318790  0.61011264  1
  Si  Si68  1  0.25000000  0.07123475  0.66323184  1
  Si  Si69  1  0.75000000  0.89417719  0.91279101  1
  Si  Si70  1  0.75000000  0.60582281  0.41279101  1
  Si  Si71  1  0.25000000  0.39417719  0.58720899  1
  Si  Si72  1  0.25000000  0.10582281  0.08720899  1
  Si  Si73  1  0.75000000  0.28404230  0.41251673  1
  Si  Si74  1  0.25000000  0.71595770  0.58748327  1
  Si  Si75  1  0.25000000  0.78404230  0.08748327  1
  Si  Si76  1  0.75000000  0.21595770  0.91251673  1
  Si  Si77  1  0.25000000  0.42876525  0.16323184  1
  Si  Si78  1  0.75000000  0.92876525  0.33676816  1
  Si  Si79  1  0.75000000  0.57123475  0.83676816  1
  Sr  Sr80  1  0.25000000  0.38752587  0.95694856  1
  Sr  Sr81  1  0.75000000  0.61247413  0.04305144  1
  Sr  Sr82  1  0.75000000  0.88752587  0.54305144  1
  Sr  Sr83  1  0.25000000  0.11247413  0.45694856  1
  Sr  Sr84  1  0.25000000  0.05950774  0.86851521  1
  Sr  Sr85  1  0.75000000  0.94049226  0.13148479  1
  Sr  Sr86  1  0.75000000  0.55950774  0.63148479  1
  Sr  Sr87  1  0.25000000  0.44049226  0.36851521  1
