# generated using pymatgen
data_LaMg2
_symmetry_space_group_name_H-M   'P 1'
_cell_length_a   3.39332945
_cell_length_b   17.92235177
_cell_length_c   5.65984181
_cell_angle_alpha   90.00000000
_cell_angle_beta   90.00000000
_cell_angle_gamma   90.00000000
_symmetry_Int_Tables_number   1
_chemical_formula_structural   LaMg2
_chemical_formula_sum   'La4 Mg8'
_cell_volume   344.21145291
_cell_formula_units_Z   4
loop_
 _symmetry_equiv_pos_site_id
 _symmetry_equiv_pos_as_xyz
  1  'x, y, z'
loop_
 _atom_site_type_symbol
 _atom_site_label
 _atom_site_symmetry_multiplicity
 _atom_site_fract_x
 _atom_site_fract_y
 _atom_site_fract_z
 _atom_site_occupancy
  La  La0  1  -0.00000000  0.10961620  0.25000000  1
  La  La1  1  0.50000000  0.39038380  0.75000000  1
  La  La2  1  0.50000000  0.60961620  0.25000000  1
  La  La3  1  -0.00000000  0.89038380  0.75000000  1
  Mg  Mg4  1  -0.00000000  0.44329560  0.25000000  1
  Mg  Mg5  1  0.50000000  0.28019469  0.25000000  1
  Mg  Mg6  1  0.00000000  0.21980531  0.75000000  1
  Mg  Mg7  1  0.50000000  0.05670440  0.75000000  1
  Mg  Mg8  1  0.50000000  0.94329560  0.25000000  1
  Mg  Mg9  1  0.00000000  0.78019469  0.25000000  1
  Mg  Mg10  1  0.50000000  0.71980531  0.75000000  1
  Mg  Mg11  1  0.00000000  0.55670440  0.75000000  1
