# generated using pymatgen
data_ZnH12(SO6)2
_symmetry_space_group_name_H-M   'P 1'
_cell_length_a   6.54089193
_cell_length_b   6.74881599
_cell_length_c   7.02231476
_cell_angle_alpha   101.80854223
_cell_angle_beta   96.42759793
_cell_angle_gamma   94.64625576
_symmetry_Int_Tables_number   1
_chemical_formula_structural   ZnH12(SO6)2
_chemical_formula_sum   'Zn1 H12 S2 O12'
_cell_volume   299.79481435
_cell_formula_units_Z   1
loop_
 _symmetry_equiv_pos_site_id
 _symmetry_equiv_pos_as_xyz
  1  'x, y, z'
loop_
 _atom_site_type_symbol
 _atom_site_label
 _atom_site_symmetry_multiplicity
 _atom_site_fract_x
 _atom_site_fract_y
 _atom_site_fract_z
 _atom_site_occupancy
  H  H0  1  0.20211047  0.06684442  0.38956768  1
  H  H1  1  0.79788953  0.93315558  0.61043232  1
  H  H2  1  0.18268032  0.83133997  0.29329366  1
  H  H3  1  0.70107642  0.84731928  0.18050957  1
  H  H4  1  0.39108967  0.18267263  0.04259811  1
  H  H5  1  0.60891033  0.81732737  0.95740189  1
  H  H6  1  0.81585036  0.32368941  0.17107415  1
  H  H7  1  0.18414964  0.67631059  0.82892585  1
  H  H8  1  0.05696322  0.40228783  0.18971007  1
  H  H9  1  0.94303678  0.59771217  0.81028993  1
  H  H10  1  0.81731968  0.16866003  0.70670634  1
  H  H11  1  0.29892358  0.15268072  0.81949043  1
  O  O12  1  0.64151705  0.72963720  0.39402695  1
  O  O13  1  0.72355488  0.41712304  0.68801982  1
  O  O14  1  0.27644512  0.58287696  0.31198018  1
  O  O15  1  0.44513750  0.62986514  0.77597830  1
  O  O16  1  0.12335290  0.95949375  0.28563256  1
  O  O17  1  0.87664710  0.04050625  0.71436744  1
  O  O18  1  0.29394648  0.09336250  0.93595230  1
  O  O19  1  0.70605352  0.90663750  0.06404770  1
  O  O20  1  0.94558303  0.29952719  0.11531136  1
  O  O21  1  0.05441697  0.70047281  0.88468864  1
  O  O22  1  0.35848295  0.27036280  0.60597305  1
  O  O23  1  0.55486250  0.37013486  0.22402170  1
  S  S24  1  0.49343041  0.54643892  0.35835649  1
  S  S25  1  0.50656959  0.45356108  0.64164351  1
  Zn  Zn26  1  0.00000000  0.00000000  0.00000000  1
