# generated using pymatgen
data_CuH4(OF)2
_symmetry_space_group_name_H-M   'P 1'
_cell_length_a   3.33797986
_cell_length_b   5.22076292
_cell_length_c   5.22076210
_cell_angle_alpha   89.48234774
_cell_angle_beta   104.51238526
_cell_angle_gamma   104.51237403
_symmetry_Int_Tables_number   1
_chemical_formula_structural   CuH4(OF)2
_chemical_formula_sum   'Cu1 H4 O2 F2'
_cell_volume   85.12762636
_cell_formula_units_Z   1
loop_
 _symmetry_equiv_pos_site_id
 _symmetry_equiv_pos_as_xyz
  1  'x, y, z'
loop_
 _atom_site_type_symbol
 _atom_site_label
 _atom_site_symmetry_multiplicity
 _atom_site_fract_x
 _atom_site_fract_y
 _atom_site_fract_z
 _atom_site_occupancy
  Cu  Cu0  1  0.00000000  -0.00000000  -0.00000000  1
  H  H1  1  0.93422823  0.22367088  0.54407454  1
  H  H2  1  0.93422823  0.54407454  0.22367088  1
  H  H3  1  0.06577177  0.77632912  0.45592546  1
  H  H4  1  0.06577177  0.45592546  0.77632912  1
  O  O5  1  0.00000000  0.73849388  0.26150612  1
  O  O6  1  1.00000000  0.26150612  0.73849388  1
  F  F7  1  0.17701692  0.77601572  0.77601572  1
  F  F8  1  0.82298308  0.22398428  0.22398428  1
