# generated using pymatgen
data_Nd2(WO4)3
_symmetry_space_group_name_H-M   'P 1'
_cell_length_a   7.10546043
_cell_length_b   7.10546044
_cell_length_c   11.75249470
_cell_angle_alpha   101.11420411
_cell_angle_beta   101.11420408
_cell_angle_gamma   111.92587145
_symmetry_Int_Tables_number   1
_chemical_formula_structural   Nd2(WO4)3
_chemical_formula_sum   'Nd4 W6 O24'
_cell_volume   516.76411795
_cell_formula_units_Z   2
loop_
 _symmetry_equiv_pos_site_id
 _symmetry_equiv_pos_as_xyz
  1  'x, y, z'
loop_
 _atom_site_type_symbol
 _atom_site_label
 _atom_site_symmetry_multiplicity
 _atom_site_fract_x
 _atom_site_fract_y
 _atom_site_fract_z
 _atom_site_occupancy
  O  O0  1  0.90016514  0.32515037  0.42797313  1
  O  O1  1  0.67484963  0.09983486  0.07202687  1
  O  O2  1  0.09983486  0.67484963  0.57202687  1
  O  O3  1  0.32515037  0.90016514  0.92797313  1
  O  O4  1  0.67168802  0.60211396  0.44043344  1
  O  O5  1  0.39788604  0.32831198  0.05956656  1
  O  O6  1  0.32831198  0.39788604  0.55956656  1
  O  O7  1  0.60211396  0.67168802  0.94043344  1
  O  O8  1  0.19449177  0.34806766  0.30436025  1
  O  O9  1  0.65193234  0.80550823  0.19563975  1
  O  O10  1  0.94857855  0.02887463  0.60965033  1
  O  O11  1  0.97112537  0.05142145  0.89034967  1
  O  O12  1  0.05142145  0.97112537  0.39034967  1
  O  O13  1  0.02887463  0.94857855  0.10965033  1
  O  O14  1  0.62518162  0.22790091  0.53912236  1
  O  O15  1  0.77209909  0.37481838  0.96087764  1
  O  O16  1  0.37481838  0.77209909  0.46087764  1
  O  O17  1  0.22790091  0.62518162  0.03912236  1
  O  O18  1  0.60093127  0.01182992  0.71772997  1
  O  O19  1  0.98817008  0.39906873  0.78227003  1
  O  O20  1  0.39906873  0.98817008  0.28227003  1
  O  O21  1  0.01182992  0.60093127  0.21772997  1
  O  O22  1  0.34806766  0.19449177  0.80436025  1
  O  O23  1  0.80550823  0.65193234  0.69563975  1
  Nd  Nd24  1  0.69294922  0.94632971  0.40580843  1
  Nd  Nd25  1  0.05367029  0.30705078  0.09419157  1
  Nd  Nd26  1  0.30705078  0.05367029  0.59419157  1
  Nd  Nd27  1  0.94632971  0.69294922  0.90580843  1
  W  W28  1  0.79944059  0.50757916  0.54703236  1
  W  W29  1  0.49242084  0.20055941  0.95296764  1
  W  W30  1  0.50757916  0.79944059  0.04703236  1
  W  W31  1  0.20055941  0.49242084  0.45296764  1
  W  W32  1  0.88413614  0.11586386  0.75000000  1
  W  W33  1  0.11586386  0.88413614  0.25000000  1
