# generated using pymatgen
data_Fe3BO6
_symmetry_space_group_name_H-M   'P 1'
_cell_length_a   4.51221635
_cell_length_b   8.68595373
_cell_length_c   10.22300249
_cell_angle_alpha   90.00000000
_cell_angle_beta   90.00000000
_cell_angle_gamma   90.00000000
_symmetry_Int_Tables_number   1
_chemical_formula_structural   Fe3BO6
_chemical_formula_sum   'Fe12 B4 O24'
_cell_volume   400.66913919
_cell_formula_units_Z   4
loop_
 _symmetry_equiv_pos_site_id
 _symmetry_equiv_pos_as_xyz
  1  'x, y, z'
loop_
 _atom_site_type_symbol
 _atom_site_label
 _atom_site_symmetry_multiplicity
 _atom_site_fract_x
 _atom_site_fract_y
 _atom_site_fract_z
 _atom_site_occupancy
  B  B0  1  0.08988784  0.25000000  0.71694533  1
  B  B1  1  0.91011216  0.75000000  0.28305467  1
  B  B2  1  0.41011216  0.25000000  0.21694533  1
  B  B3  1  0.58988784  0.75000000  0.78305467  1
  O  O4  1  0.77588276  0.75000000  0.41765210  1
  O  O5  1  0.27588276  0.25000000  0.08234790  1
  O  O6  1  0.22411724  0.25000000  0.58234790  1
  O  O7  1  0.72411724  0.75000000  0.91765210  1
  O  O8  1  0.76620852  0.41870869  0.96491807  1
  O  O9  1  0.26620852  0.58129131  0.53508193  1
  O  O10  1  0.23379148  0.91870869  0.03508193  1
  O  O11  1  0.73379148  0.08129131  0.46491807  1
  O  O12  1  0.26762037  0.75000000  0.78145285  1
  O  O13  1  0.23237963  0.75000000  0.28145285  1
  O  O14  1  0.76762037  0.25000000  0.71854715  1
  O  O15  1  0.73237963  0.25000000  0.21854715  1
  O  O16  1  0.73452916  0.88673173  0.71520321  1
  O  O17  1  0.23452916  0.11326827  0.78479679  1
  O  O18  1  0.26547084  0.38673173  0.28479679  1
  O  O19  1  0.76547084  0.61326827  0.21520321  1
  O  O20  1  0.26547084  0.11326827  0.28479679  1
  O  O21  1  0.76547084  0.88673173  0.21520321  1
  O  O22  1  0.73452916  0.61326827  0.71520321  1
  O  O23  1  0.23452916  0.38673173  0.78479679  1
  O  O24  1  0.26620852  0.91870869  0.53508193  1
  O  O25  1  0.76620852  0.08129131  0.96491807  1
  O  O26  1  0.73379148  0.41870869  0.46491807  1
  O  O27  1  0.23379148  0.58129131  0.03508193  1
  Fe  Fe28  1  0.47884079  0.75000000  0.09049504  1
  Fe  Fe29  1  0.97884079  0.25000000  0.40950496  1
  Fe  Fe30  1  0.52115921  0.25000000  0.90950496  1
  Fe  Fe31  1  0.02115921  0.75000000  0.59049504  1
  Fe  Fe32  1  0.51926989  0.43381658  0.62868343  1
  Fe  Fe33  1  0.01926989  0.56618342  0.87131657  1
  Fe  Fe34  1  0.48073011  0.93381658  0.37131657  1
  Fe  Fe35  1  0.98073011  0.06618342  0.12868343  1
  Fe  Fe36  1  0.48073011  0.56618342  0.37131657  1
  Fe  Fe37  1  0.98073011  0.43381658  0.12868343  1
  Fe  Fe38  1  0.51926989  0.06618342  0.62868343  1
  Fe  Fe39  1  0.01926989  0.93381658  0.87131657  1
