# generated using pymatgen
data_LiTiPCO7
_symmetry_space_group_name_H-M   'P 1'
_cell_length_a   5.68612591
_cell_length_b   6.33638491
_cell_length_c   8.59221927
_cell_angle_alpha   90.00000000
_cell_angle_beta   86.88151004
_cell_angle_gamma   90.00000000
_symmetry_Int_Tables_number   1
_chemical_formula_structural   LiTiPCO7
_chemical_formula_sum   'Li2 Ti2 P2 C2 O14'
_cell_volume   309.11478681
_cell_formula_units_Z   2
loop_
 _symmetry_equiv_pos_site_id
 _symmetry_equiv_pos_as_xyz
  1  'x, y, z'
loop_
 _atom_site_type_symbol
 _atom_site_label
 _atom_site_symmetry_multiplicity
 _atom_site_fract_x
 _atom_site_fract_y
 _atom_site_fract_z
 _atom_site_occupancy
  Li  Li0  1  0.24775415  0.89568158  0.16518947  1
  Li  Li1  1  0.75224585  0.39568158  0.83481053  1
  Ti  Ti2  1  0.78629639  0.77433487  0.33804198  1
  Ti  Ti3  1  0.21370361  0.27433487  0.66195802  1
  P  P4  1  0.73563322  0.27603873  0.45627845  1
  P  P5  1  0.26436678  0.77603873  0.54372155  1
  C  C6  1  0.73781526  0.73630201  0.05532226  1
  C  C7  1  0.26218474  0.23630201  0.94467774  1
  O  O8  1  0.20307075  0.57947587  0.64280812  1
  O  O9  1  0.94230359  0.76609099  0.12045959  1
  O  O10  1  0.43687498  0.26804896  0.83599644  1
  O  O11  1  0.56312502  0.76804896  0.16400356  1
  O  O12  1  0.79612639  0.47116781  0.35521672  1
  O  O13  1  0.12316987  0.78227210  0.39420772  1
  O  O14  1  0.20387361  0.97116781  0.64478328  1
  O  O15  1  0.87683013  0.28227210  0.60579228  1
  O  O16  1  0.79692925  0.07947587  0.35719188  1
  O  O17  1  0.46999968  0.27535831  0.50758323  1
  O  O18  1  0.71138683  0.67842877  0.92075152  1
  O  O19  1  0.28861317  0.17842877  0.07924848  1
  O  O20  1  0.53000032  0.77535831  0.49241677  1
  O  O21  1  0.05769641  0.26609099  0.87954041  1
