# generated using pymatgen
data_V2O5
_symmetry_space_group_name_H-M   'P 1'
_cell_length_a   10.15860069
_cell_length_b   3.63530922
_cell_length_c   10.78675143
_cell_angle_alpha   90.00000000
_cell_angle_beta   90.00000000
_cell_angle_gamma   90.00000000
_symmetry_Int_Tables_number   1
_chemical_formula_structural   V2O5
_chemical_formula_sum   'V8 O20'
_cell_volume   398.35100619
_cell_formula_units_Z   4
loop_
 _symmetry_equiv_pos_site_id
 _symmetry_equiv_pos_as_xyz
  1  'x, y, z'
loop_
 _atom_site_type_symbol
 _atom_site_label
 _atom_site_symmetry_multiplicity
 _atom_site_fract_x
 _atom_site_fract_y
 _atom_site_fract_z
 _atom_site_occupancy
  O  O0  1  0.99870480  0.75000000  0.26946701  1
  O  O1  1  0.06320643  0.75000000  0.54005056  1
  O  O2  1  0.07091102  0.25000000  0.03080525  1
  O  O3  1  0.20645711  0.75000000  0.88074774  1
  O  O4  1  0.24670173  0.25000000  0.62550666  1
  O  O5  1  0.25329827  0.75000000  0.12550666  1
  O  O6  1  0.29354289  0.25000000  0.38074774  1
  O  O7  1  0.42908898  0.75000000  0.53080525  1
  O  O8  1  0.43679357  0.25000000  0.04005056  1
  O  O9  1  0.50129520  0.25000000  0.76946701  1
  O  O10  1  0.49870480  0.75000000  0.23053299  1
  O  O11  1  0.56320643  0.75000000  0.95994944  1
  O  O12  1  0.57091102  0.25000000  0.46919475  1
  O  O13  1  0.70645711  0.75000000  0.61925226  1
  O  O14  1  0.74670173  0.25000000  0.87449334  1
  O  O15  1  0.75329827  0.75000000  0.37449334  1
  O  O16  1  0.79354289  0.25000000  0.11925226  1
  O  O17  1  0.92908898  0.75000000  0.96919475  1
  O  O18  1  0.93679357  0.25000000  0.45994944  1
  O  O19  1  0.00129520  0.25000000  0.73053299  1
  V  V20  1  0.12482147  0.75000000  0.00829357  1
  V  V21  1  0.37517853  0.25000000  0.50829357  1
  V  V22  1  0.62482147  0.75000000  0.49170643  1
  V  V23  1  0.87517853  0.25000000  0.99170643  1
  V  V24  1  0.07128170  0.25000000  0.59675538  1
  V  V25  1  0.42871830  0.75000000  0.09675538  1
  V  V26  1  0.57128170  0.25000000  0.90324462  1
  V  V27  1  0.92871830  0.75000000  0.40324462  1
