# generated using pymatgen
data_Co2P3O10
_symmetry_space_group_name_H-M   'P 1'
_cell_length_a   4.70851494
_cell_length_b   8.47365956
_cell_length_c   8.94441667
_cell_angle_alpha   90.00000000
_cell_angle_beta   98.35236695
_cell_angle_gamma   90.00000000
_symmetry_Int_Tables_number   1
_chemical_formula_structural   Co2P3O10
_chemical_formula_sum   'Co4 P6 O20'
_cell_volume   353.08235316
_cell_formula_units_Z   2
loop_
 _symmetry_equiv_pos_site_id
 _symmetry_equiv_pos_as_xyz
  1  'x, y, z'
loop_
 _atom_site_type_symbol
 _atom_site_label
 _atom_site_symmetry_multiplicity
 _atom_site_fract_x
 _atom_site_fract_y
 _atom_site_fract_z
 _atom_site_occupancy
  O  O0  1  0.48068803  0.75000041  0.02448505  1
  O  O1  1  0.82919795  0.90222672  0.21301771  1
  O  O2  1  0.82919795  0.59777291  0.21301771  1
  O  O3  1  0.78158325  0.25000053  0.23450582  1
  O  O4  1  0.17080189  0.09777304  0.78698256  1
  O  O5  1  0.17080189  0.40222684  0.78698256  1
  O  O6  1  0.21841660  0.75000041  0.76549334  1
  O  O7  1  0.22427829  0.59759635  0.48977186  1
  O  O8  1  0.22427829  0.90240328  0.48977186  1
  O  O9  1  0.30114660  0.25000053  0.45381055  1
  O  O10  1  0.30811164  0.09965248  0.17937150  1
  O  O11  1  0.30811164  0.40034739  0.17937150  1
  O  O12  1  0.77572155  0.09759647  0.51022842  1
  O  O13  1  0.40493364  0.75000041  0.28427464  1
  O  O14  1  0.59506620  0.25000053  0.71572563  1
  O  O15  1  0.77572155  0.40240341  0.51022842  1
  O  O16  1  0.69188820  0.59965355  0.82062877  1
  O  O17  1  0.69188820  0.90034727  0.82062877  1
  O  O18  1  0.69885324  0.75000041  0.54618973  1
  O  O19  1  0.51931181  0.25000053  0.97551522  1
  P  P20  1  0.38789149  0.75000041  0.46128533  1
  P  P21  1  0.52970036  0.75000041  0.85106354  1
  P  P22  1  0.47029948  0.25000053  0.14893674  1
  P  P23  1  0.61210836  0.25000053  0.53871383  1
  P  P24  1  0.33133263  0.25000053  0.81174857  1
  P  P25  1  0.66866935  0.75000041  0.18825185  1
  Co  Co26  1  0.95136449  0.92961180  0.66957329  1
  Co  Co27  1  0.95136449  0.57038783  0.66957329  1
  Co  Co28  1  0.04863749  0.42961193  0.33042713  1
  Co  Co29  1  0.04863749  0.07038795  0.33042713  1
