# generated using pymatgen
data_ReCl4
_symmetry_space_group_name_H-M   'P 1'
_cell_length_a   7.06741279
_cell_length_b   6.43236713
_cell_length_c   13.08416518
_cell_angle_alpha   93.45639127
_cell_angle_beta   90.00000000
_cell_angle_gamma   90.00000000
_symmetry_Int_Tables_number   1
_chemical_formula_structural   ReCl4
_chemical_formula_sum   'Re4 Cl16'
_cell_volume   593.72671121
_cell_formula_units_Z   4
loop_
 _symmetry_equiv_pos_site_id
 _symmetry_equiv_pos_as_xyz
  1  'x, y, z'
loop_
 _atom_site_type_symbol
 _atom_site_label
 _atom_site_symmetry_multiplicity
 _atom_site_fract_x
 _atom_site_fract_y
 _atom_site_fract_z
 _atom_site_occupancy
  Cl  Cl0  1  0.11442747  0.50000000  0.25000000  1
  Cl  Cl1  1  0.88557253  0.50000000  0.75000000  1
  Cl  Cl2  1  0.98214555  0.00000000  0.25000000  1
  Cl  Cl3  1  0.01785445  0.00000000  0.75000000  1
  Cl  Cl4  1  0.87266880  0.74802467  0.53588333  1
  Cl  Cl5  1  0.87266880  0.25197533  0.96411667  1
  Cl  Cl6  1  0.12733120  0.25197533  0.46411667  1
  Cl  Cl7  1  0.12733120  0.74802467  0.03588333  1
  Cl  Cl8  1  0.60444611  0.86970012  0.86421939  1
  Cl  Cl9  1  0.60444611  0.13029988  0.63578061  1
  Cl  Cl10  1  0.39555389  0.13029988  0.13578061  1
  Cl  Cl11  1  0.39555389  0.86970012  0.36421939  1
  Cl  Cl12  1  0.46264942  0.64298443  0.64120512  1
  Cl  Cl13  1  0.46264942  0.35701557  0.85879488  1
  Cl  Cl14  1  0.53735058  0.35701557  0.35879488  1
  Cl  Cl15  1  0.53735058  0.64298443  0.14120512  1
  Re  Re16  1  0.26773615  0.81551335  0.19129274  1
  Re  Re17  1  0.26773615  0.18448665  0.30870726  1
  Re  Re18  1  0.73226385  0.18448665  0.80870726  1
  Re  Re19  1  0.73226385  0.81551335  0.69129274  1
