# generated using pymatgen
data_Fe12N5
_symmetry_space_group_name_H-M   'P 1'
_cell_length_a   9.41145365
_cell_length_b   9.41145364
_cell_length_c   4.30781660
_cell_angle_alpha   90.00000000
_cell_angle_beta   90.00000000
_cell_angle_gamma   120.00000000
_symmetry_Int_Tables_number   1
_chemical_formula_structural   Fe12N5
_chemical_formula_sum   'Fe24 N10'
_cell_volume   330.44657301
_cell_formula_units_Z   2
loop_
 _symmetry_equiv_pos_site_id
 _symmetry_equiv_pos_as_xyz
  1  'x, y, z'
loop_
 _atom_site_type_symbol
 _atom_site_label
 _atom_site_symmetry_multiplicity
 _atom_site_fract_x
 _atom_site_fract_y
 _atom_site_fract_z
 _atom_site_occupancy
  N  N0  1  0.67601912  0.83800956  0.00000000  1
  N  N1  1  0.16199044  0.32398088  0.00000000  1
  N  N2  1  0.16199044  0.83800956  0.00000000  1
  N  N3  1  0.99062904  0.49531452  0.00000000  1
  N  N4  1  0.50468548  0.00937096  0.00000000  1
  N  N5  1  0.50468548  0.49531452  0.00000000  1
  N  N6  1  0.33334564  0.16667282  0.50000000  1
  N  N7  1  0.83332718  0.66665436  0.50000000  1
  N  N8  1  0.83332718  0.16667282  0.50000000  1
  N  N9  1  0.33333333  0.66666667  0.50000000  1
  Fe  Fe10  1  0.82619163  0.33229039  0.74768458  1
  Fe  Fe11  1  0.50609876  0.17380837  0.74768458  1
  Fe  Fe12  1  0.99895103  0.83945579  0.25231444  1
  Fe  Fe13  1  0.16054421  0.15949524  0.25231444  1
  Fe  Fe14  1  0.84050476  0.00104897  0.25231444  1
  Fe  Fe15  1  0.16054421  0.00104897  0.74768556  1
  Fe  Fe16  1  0.84050476  0.83945579  0.74768556  1
  Fe  Fe17  1  0.99895103  0.15949524  0.74768556  1
  Fe  Fe18  1  0.49911376  0.83244853  0.24603862  1
  Fe  Fe19  1  0.16755147  0.66666523  0.24603862  1
  Fe  Fe20  1  0.33333477  0.50088624  0.24603862  1
  Fe  Fe21  1  0.16755147  0.50088624  0.75396138  1
  Fe  Fe22  1  0.33333477  0.83244853  0.75396138  1
  Fe  Fe23  1  0.49911376  0.66666523  0.75396138  1
  Fe  Fe24  1  0.66770961  0.49390124  0.74768458  1
  Fe  Fe25  1  0.82619163  0.49390124  0.25231542  1
  Fe  Fe26  1  0.66770961  0.17380837  0.25231542  1
  Fe  Fe27  1  0.50609876  0.33229039  0.25231542  1
  Fe  Fe28  1  0.99708040  0.66669009  0.75472046  1
  Fe  Fe29  1  0.33330991  0.33039032  0.75472046  1
  Fe  Fe30  1  0.66960968  0.00291960  0.75472046  1
  Fe  Fe31  1  0.33330991  0.00291960  0.24527954  1
  Fe  Fe32  1  0.66960968  0.66669009  0.24527954  1
  Fe  Fe33  1  0.99708040  0.33039032  0.24527954  1
