# generated using pymatgen
data_Hg2AsCl2
_symmetry_space_group_name_H-M   'P 1'
_cell_length_a   8.31728200
_cell_length_b   8.31728200
_cell_length_c   9.21522403
_cell_angle_alpha   82.13721177
_cell_angle_beta   82.13721175
_cell_angle_gamma   61.45147624
_symmetry_Int_Tables_number   1
_chemical_formula_structural   Hg2AsCl2
_chemical_formula_sum   'Hg8 As4 Cl8'
_cell_volume   552.83696925
_cell_formula_units_Z   4
loop_
 _symmetry_equiv_pos_site_id
 _symmetry_equiv_pos_as_xyz
  1  'x, y, z'
loop_
 _atom_site_type_symbol
 _atom_site_label
 _atom_site_symmetry_multiplicity
 _atom_site_fract_x
 _atom_site_fract_y
 _atom_site_fract_z
 _atom_site_occupancy
  Cl  Cl0  1  0.55229312  0.99168104  0.73880740  1
  Cl  Cl1  1  0.00831896  0.44770688  0.26119260  1
  Cl  Cl2  1  0.44770688  0.00831896  0.26119260  1
  Cl  Cl3  1  0.99168104  0.55229312  0.73880740  1
  Cl  Cl4  1  0.88896714  0.88896714  0.00952673  1
  Cl  Cl5  1  0.11103286  0.11103286  0.99047327  1
  Cl  Cl6  1  0.38928381  0.38928381  0.48010018  1
  Cl  Cl7  1  0.61071619  0.61071619  0.51989982  1
  As  As8  1  0.04010660  0.04010660  0.60890487  1
  As  As9  1  0.95989340  0.95989340  0.39109513  1
  As  As10  1  0.44568042  0.44568042  0.90947942  1
  As  As11  1  0.55431958  0.55431958  0.09052058  1
  Hg  Hg12  1  0.73252801  0.22443606  0.75750261  1
  Hg  Hg13  1  0.77556394  0.26747199  0.24249739  1
  Hg  Hg14  1  0.26747199  0.77556394  0.24249739  1
  Hg  Hg15  1  0.22443606  0.73252801  0.75750261  1
  Hg  Hg16  1  0.27641110  0.27641110  0.04659225  1
  Hg  Hg17  1  0.72358890  0.72358890  0.95340775  1
  Hg  Hg18  1  0.78271313  0.78271313  0.49024884  1
  Hg  Hg19  1  0.21728687  0.21728687  0.50975116  1
