# generated using pymatgen
data_Li15Bi4(PdO10)2
_symmetry_space_group_name_H-M   'P 1'
_cell_length_a   5.40338486
_cell_length_b   10.81301457
_cell_length_c   11.25218377
_cell_angle_alpha   75.70164075
_cell_angle_beta   104.28289708
_cell_angle_gamma   133.30951757
_symmetry_Int_Tables_number   1
_chemical_formula_structural   Li15Bi4(PdO10)2
_chemical_formula_sum   'Li15 Bi4 Pd2 O20'
_cell_volume   460.77152435
_cell_formula_units_Z   1
loop_
 _symmetry_equiv_pos_site_id
 _symmetry_equiv_pos_as_xyz
  1  'x, y, z'
loop_
 _atom_site_type_symbol
 _atom_site_label
 _atom_site_symmetry_multiplicity
 _atom_site_fract_x
 _atom_site_fract_y
 _atom_site_fract_z
 _atom_site_occupancy
  Li  Li0  1  0.92052553  0.04067677  0.39268285  1
  Li  Li1  1  0.74962462  0.12611633  0.08870996  1
  Li  Li2  1  0.62423335  0.18562838  0.45945536  1
  Li  Li3  1  0.45511932  0.27394309  0.19928180  1
  Li  Li4  1  0.09531964  0.95935085  0.61856561  1
  Li  Li5  1  0.25691563  0.88357342  0.89945951  1
  Li  Li6  1  0.38195887  0.81108149  0.54347460  1
  Li  Li7  1  0.54330237  0.73061087  0.79599914  1
  Li  Li8  1  0.45054190  0.77303891  0.19838890  1
  Li  Li9  1  0.07463079  0.44912371  0.61666153  1
  Li  Li10  1  0.62098058  0.69049817  0.46324346  1
  Li  Li11  1  0.22375435  0.37235342  0.90005114  1
  Li  Li12  1  0.74770487  0.62461537  0.09085826  1
  Li  Li13  1  0.38873301  0.30290246  0.54448810  1
  Li  Li14  1  0.91771206  0.54034559  0.39110243  1
  O  O15  1  0.79649918  0.10054659  0.91375320  1
  O  O16  1  0.96940979  0.01909266  0.16446134  1
  O  O17  1  0.12560285  0.93336518  0.44330774  1
  O  O18  1  0.88044343  0.06517213  0.55744668  1
  O  O19  1  0.99777780  0.96487157  0.83534564  1
  O  O20  1  0.12991124  0.43850535  0.44309289  1
  O  O21  1  0.32007556  0.83984527  0.73484780  1
  O  O22  1  0.21355874  0.89313879  0.09139077  1
  O  O23  1  0.07408766  0.50505781  0.83782834  1
  O  O24  1  0.40092600  0.80003440  0.35955349  1
  O  O25  1  0.61371335  0.70599338  0.64023934  1
  O  O26  1  0.95980057  0.51633669  0.16709756  1
  O  O27  1  0.79368857  0.60582501  0.91186055  1
  O  O28  1  0.28913259  0.35551451  0.73352023  1
  O  O29  1  0.67034704  0.66475477  0.25511331  1
  O  O30  1  0.20961188  0.39624420  0.09060337  1
  O  O31  1  0.86926113  0.55930651  0.55776086  1
  O  O32  1  0.39950041  0.29975791  0.35817737  1
  O  O33  1  0.59177453  0.19349492  0.62913969  1
  O  O34  1  0.67113582  0.16436225  0.25826571  1
  Pd  Pd35  1  0.00817950  0.50575825  0.00136794  1
  Pd  Pd36  1  0.99647688  0.99487457  0.99956736  1
  Bi  Bi37  1  0.18537401  0.40798439  0.28052393  1
  Bi  Bi38  1  0.81890766  0.09677860  0.72044890  1
  Bi  Bi39  1  0.80877404  0.58794085  0.72150758  1
  Bi  Bi40  1  0.18471087  0.90671561  0.27950477  1
