# generated using pymatgen
data_LaMg2
_symmetry_space_group_name_H-M   'P 1'
_cell_length_a   10.35101352
_cell_length_b   5.80903598
_cell_length_c   6.46010502
_cell_angle_alpha   90.00000000
_cell_angle_beta   119.15311310
_cell_angle_gamma   90.00000000
_symmetry_Int_Tables_number   1
_chemical_formula_structural   LaMg2
_chemical_formula_sum   'La4 Mg8'
_cell_volume   339.23482646
_cell_formula_units_Z   4
loop_
 _symmetry_equiv_pos_site_id
 _symmetry_equiv_pos_as_xyz
  1  'x, y, z'
loop_
 _atom_site_type_symbol
 _atom_site_label
 _atom_site_symmetry_multiplicity
 _atom_site_fract_x
 _atom_site_fract_y
 _atom_site_fract_z
 _atom_site_occupancy
  La  La0  1  0.00000000  0.91529183  0.75000000  1
  La  La1  1  0.00000000  0.08470817  0.25000000  1
  La  La2  1  0.50000000  0.41529183  0.75000000  1
  La  La3  1  0.50000000  0.58470817  0.25000000  1
  Mg  Mg4  1  0.66619639  0.08153010  0.24823415  1
  Mg  Mg5  1  0.33380361  0.08153010  0.25176585  1
  Mg  Mg6  1  0.66619639  0.91846990  0.74823415  1
  Mg  Mg7  1  0.83380361  0.41846990  0.75176585  1
  Mg  Mg8  1  0.16619639  0.58153010  0.24823415  1
  Mg  Mg9  1  0.83380361  0.58153010  0.25176585  1
  Mg  Mg10  1  0.16619639  0.41846990  0.74823415  1
  Mg  Mg11  1  0.33380361  0.91846990  0.75176585  1
