# generated using pymatgen
data_P4SO7
_symmetry_space_group_name_H-M   'P 1'
_cell_length_a   7.18421206
_cell_length_b   7.41963271
_cell_length_c   8.47682140
_cell_angle_alpha   93.46697386
_cell_angle_beta   103.97821918
_cell_angle_gamma   95.36614758
_symmetry_Int_Tables_number   1
_chemical_formula_structural   P4SO7
_chemical_formula_sum   'P8 S2 O14'
_cell_volume   434.93190322
_cell_formula_units_Z   2
loop_
 _symmetry_equiv_pos_site_id
 _symmetry_equiv_pos_as_xyz
  1  'x, y, z'
loop_
 _atom_site_type_symbol
 _atom_site_label
 _atom_site_symmetry_multiplicity
 _atom_site_fract_x
 _atom_site_fract_y
 _atom_site_fract_z
 _atom_site_occupancy
  O  O0  1  0.75652317  0.20967781  0.41122382  1
  O  O1  1  0.24347683  0.79032219  0.58877618  1
  O  O2  1  0.50939840  0.71293212  0.07455733  1
  O  O3  1  0.49060160  0.28706788  0.92544267  1
  O  O4  1  0.48222950  0.94863699  0.29824014  1
  O  O5  1  0.51777050  0.05136301  0.70175986  1
  O  O6  1  0.79917533  0.87762804  0.47490566  1
  O  O7  1  0.20082467  0.12237196  0.52509434  1
  O  O8  1  0.77943576  0.96432078  0.18793725  1
  O  O9  1  0.22056424  0.03567922  0.81206275  1
  O  O10  1  0.47083896  0.37777981  0.63682096  1
  O  O11  1  0.52916104  0.62222019  0.36317904  1
  O  O12  1  0.17156916  0.35898972  0.74787945  1
  O  O13  1  0.82843084  0.64101028  0.25212055  1
  P  P14  1  0.25950494  0.24462411  0.89955777  1
  P  P15  1  0.74049506  0.75537589  0.10044223  1
  P  P16  1  0.39173136  0.73173255  0.22433227  1
  P  P17  1  0.60826864  0.26826745  0.77566773  1
  P  P18  1  0.70802022  0.01832554  0.35036136  1
  P  P19  1  0.29197978  0.98167446  0.64963864  1
  P  P20  1  0.76734180  0.64879220  0.43204614  1
  P  P21  1  0.23265820  0.35120780  0.56795386  1
  S  S22  1  0.16291540  0.27835685  0.08585691  1
  S  S23  1  0.83708460  0.72164315  0.91414309  1
