# generated using pymatgen
data_Sr2Bi
_symmetry_space_group_name_H-M   'P 1'
_cell_length_a   5.15263366
_cell_length_b   5.15263366
_cell_length_c   9.78169200
_cell_angle_alpha   105.27080407
_cell_angle_beta   105.27080413
_cell_angle_gamma   90.00000004
_symmetry_Int_Tables_number   1
_chemical_formula_structural   Sr2Bi
_chemical_formula_sum   'Sr4 Bi2'
_cell_volume   241.01259829
_cell_formula_units_Z   2
loop_
 _symmetry_equiv_pos_site_id
 _symmetry_equiv_pos_as_xyz
  1  'x, y, z'
loop_
 _atom_site_type_symbol
 _atom_site_label
 _atom_site_symmetry_multiplicity
 _atom_site_fract_x
 _atom_site_fract_y
 _atom_site_fract_z
 _atom_site_occupancy
  Sr  Sr0  1  0.50000000  0.00000000  0.00000000  1
  Sr  Sr1  1  0.00000000  0.50000000  0.00000000  1
  Sr  Sr2  1  0.32323231  0.32323231  0.64646461  1
  Sr  Sr3  1  0.67676769  0.67676769  0.35353539  1
  Bi  Bi4  1  0.13554358  0.13554358  0.27108715  1
  Bi  Bi5  1  0.86445642  0.86445642  0.72891285  1
