# generated using pymatgen
data_TbCd2F8
_symmetry_space_group_name_H-M   'P 1'
_cell_length_a   5.34825506
_cell_length_b   5.34528331
_cell_length_c   6.86915350
_cell_angle_alpha   112.92942094
_cell_angle_beta   112.95032251
_cell_angle_gamma   89.92319166
_symmetry_Int_Tables_number   1
_chemical_formula_structural   TbCd2F8
_chemical_formula_sum   'Tb1 Cd2 F8'
_cell_volume   163.89628158
_cell_formula_units_Z   1
loop_
 _symmetry_equiv_pos_site_id
 _symmetry_equiv_pos_as_xyz
  1  'x, y, z'
loop_
 _atom_site_type_symbol
 _atom_site_label
 _atom_site_symmetry_multiplicity
 _atom_site_fract_x
 _atom_site_fract_y
 _atom_site_fract_z
 _atom_site_occupancy
  F  F0  1  0.19708506  0.23875856  0.88184446  1
  F  F1  1  0.35779178  0.80199788  0.11711322  1
  F  F2  1  0.75957380  0.31523764  0.11735291  1
  F  F3  1  0.02234499  0.65416695  0.65857718  1
  F  F4  1  0.99661940  0.97726120  0.34158817  1
  F  F5  1  0.34487408  0.36451232  0.34148468  1
  F  F6  1  0.63574243  0.00428515  0.65861799  1
  F  F7  1  0.68529830  0.64281115  0.88212934  1
  Cd  Cd8  1  0.32341575  0.32352477  0.64675831  1
  Cd  Cd9  1  0.67702926  0.67715861  0.35411110  1
  Tb  Tb10  1  1.00022516  1.00028579  1.00042265  1
