# generated using pymatgen
data_Sb5IO7
_symmetry_space_group_name_H-M   'P 1'
_cell_length_a   6.94738572
_cell_length_b   6.94738572
_cell_length_c   12.97691854
_cell_angle_alpha   90.00000000
_cell_angle_beta   90.00000000
_cell_angle_gamma   120.00000001
_symmetry_Int_Tables_number   1
_chemical_formula_structural   Sb5IO7
_chemical_formula_sum   'Sb10 I2 O14'
_cell_volume   542.43166401
_cell_formula_units_Z   2
loop_
 _symmetry_equiv_pos_site_id
 _symmetry_equiv_pos_as_xyz
  1  'x, y, z'
loop_
 _atom_site_type_symbol
 _atom_site_label
 _atom_site_symmetry_multiplicity
 _atom_site_fract_x
 _atom_site_fract_y
 _atom_site_fract_z
 _atom_site_occupancy
  O  O0  1  0.55025243  0.05742525  0.64018451  1
  O  O1  1  0.94257475  0.49282718  0.64018451  1
  O  O2  1  0.50717282  0.44974757  0.64018451  1
  O  O3  1  0.44974757  0.50717282  0.35981549  1
  O  O4  1  0.50717282  0.44974757  0.85981549  1
  O  O5  1  0.55025243  0.05742525  0.85981549  1
  O  O6  1  0.94257475  0.49282718  0.85981549  1
  O  O7  1  0.05742525  0.55025243  0.14018451  1
  O  O8  1  0.49282718  0.94257475  0.14018451  1
  O  O9  1  0.49282718  0.94257475  0.35981549  1
  O  O10  1  0.05742525  0.55025243  0.35981549  1
  O  O11  1  0.44974757  0.50717282  0.14018451  1
  O  O12  1  0.66666667  0.33333333  0.25000000  1
  O  O13  1  0.33333333  0.66666667  0.75000000  1
  Sb  Sb14  1  0.66666667  0.33333333  0.94636108  1
  Sb  Sb15  1  0.66666667  0.33333333  0.55363892  1
  Sb  Sb16  1  0.33333333  0.66666667  0.05363892  1
  Sb  Sb17  1  0.33333333  0.66666667  0.44636108  1
  Sb  Sb18  1  0.63971888  0.67904582  0.75000000  1
  Sb  Sb19  1  0.32095418  0.96067306  0.75000000  1
  Sb  Sb20  1  0.03932694  0.36028112  0.75000000  1
  Sb  Sb21  1  0.36028112  0.03932694  0.25000000  1
  Sb  Sb22  1  0.96067306  0.32095418  0.25000000  1
  Sb  Sb23  1  0.67904582  0.63971888  0.25000000  1
  I  I24  1  0.00000000  0.00000000  0.50000000  1
  I  I25  1  0.00000000  0.00000000  0.00000000  1
