# generated using pymatgen
data_CsBrO4
_symmetry_space_group_name_H-M   'P 1'
_cell_length_a   5.87297426
_cell_length_b   5.87297426
_cell_length_c   8.64300598
_cell_angle_alpha   109.86182564
_cell_angle_beta   109.86182564
_cell_angle_gamma   89.99999997
_symmetry_Int_Tables_number   1
_chemical_formula_structural   CsBrO4
_chemical_formula_sum   'Cs2 Br2 O8'
_cell_volume   261.44631456
_cell_formula_units_Z   2
loop_
 _symmetry_equiv_pos_site_id
 _symmetry_equiv_pos_as_xyz
  1  'x, y, z'
loop_
 _atom_site_type_symbol
 _atom_site_label
 _atom_site_symmetry_multiplicity
 _atom_site_fract_x
 _atom_site_fract_y
 _atom_site_fract_z
 _atom_site_occupancy
  O  O0  1  0.20484886  0.68689802  0.37338155  1
  O  O1  1  0.68648353  0.20484886  0.87338155  1
  O  O2  1  0.68689802  0.66853268  0.87338155  1
  O  O3  1  0.66853268  0.68648353  0.37338155  1
  O  O4  1  0.33146732  0.31351647  0.62661845  1
  O  O5  1  0.31310198  0.33146732  0.12661845  1
  O  O6  1  0.31351647  0.79515114  0.12661845  1
  O  O7  1  0.79515114  0.31310198  0.62661845  1
  Br  Br8  1  0.37500000  0.62500000  0.25000000  1
  Br  Br9  1  0.62500000  0.37500000  0.75000000  1
  Cs  Cs10  1  0.87500000  0.12500000  0.25000000  1
  Cs  Cs11  1  0.12500000  0.87500000  0.75000000  1
