# generated using pymatgen
data_NdMg12
_symmetry_space_group_name_H-M   'P 1'
_cell_length_a   6.01451659
_cell_length_b   7.83321845
_cell_length_c   7.83321795
_cell_angle_alpha   81.52443443
_cell_angle_beta   67.42385199
_cell_angle_gamma   67.42384986
_symmetry_Int_Tables_number   1
_chemical_formula_structural   NdMg12
_chemical_formula_sum   'Nd1 Mg12'
_cell_volume   314.65366924
_cell_formula_units_Z   1
loop_
 _symmetry_equiv_pos_site_id
 _symmetry_equiv_pos_as_xyz
  1  'x, y, z'
loop_
 _atom_site_type_symbol
 _atom_site_label
 _atom_site_symmetry_multiplicity
 _atom_site_fract_x
 _atom_site_fract_y
 _atom_site_fract_z
 _atom_site_occupancy
  Nd  Nd0  1  -0.00000000  0.00000000  -0.00000000  1
  Mg  Mg1  1  0.50000000  0.78321726  0.21678274  1
  Mg  Mg2  1  0.35300605  0.64699395  0.64699395  1
  Mg  Mg3  1  0.00000000  0.35300605  0.64699395  1
  Mg  Mg4  1  1.00000000  0.64699395  0.35300605  1
  Mg  Mg5  1  0.71678274  0.78321726  0.78321726  1
  Mg  Mg6  1  -0.00000000  0.50000000  -0.00000000  1
  Mg  Mg7  1  0.50000000  0.21678274  0.78321726  1
  Mg  Mg8  1  0.50000000  0.00000000  0.50000000  1
  Mg  Mg9  1  0.64699395  0.35300605  0.35300605  1
  Mg  Mg10  1  0.28321726  0.21678274  0.21678274  1
  Mg  Mg11  1  -0.00000000  0.00000000  0.50000000  1
  Mg  Mg12  1  0.50000000  0.50000000  -0.00000000  1
