# generated using pymatgen
data_La4PdO7
_symmetry_space_group_name_H-M   'P 1'
_cell_length_a   4.09289211
_cell_length_b   7.00387831
_cell_length_c   7.19344267
_cell_angle_alpha   83.15819406
_cell_angle_beta   73.47177078
_cell_angle_gamma   73.01103296
_symmetry_Int_Tables_number   1
_chemical_formula_structural   La4PdO7
_chemical_formula_sum   'La4 Pd1 O7'
_cell_volume   188.91478219
_cell_formula_units_Z   1
loop_
 _symmetry_equiv_pos_site_id
 _symmetry_equiv_pos_as_xyz
  1  'x, y, z'
loop_
 _atom_site_type_symbol
 _atom_site_label
 _atom_site_symmetry_multiplicity
 _atom_site_fract_x
 _atom_site_fract_y
 _atom_site_fract_z
 _atom_site_occupancy
  O  O0  1  0.79719012  0.85235662  0.55326313  1
  O  O1  1  0.20280988  0.14764338  0.44673687  1
  O  O2  1  0.08967849  0.71042211  0.11022092  1
  O  O3  1  0.91032151  0.28957789  0.88977908  1
  O  O4  1  0.36785812  0.57125146  0.69303230  1
  O  O5  1  0.50000000  0.00000000  0.00000000  1
  O  O6  1  0.63214188  0.42874854  0.30696770  1
  Pd  Pd7  1  0.00000000  0.00000000  0.00000000  1
  La  La8  1  0.58469464  0.21922729  0.61138343  1
  La  La9  1  0.41530536  0.78077271  0.38861657  1
  La  La10  1  0.74936835  0.66099591  0.84026739  1
  La  La11  1  0.25063165  0.33900409  0.15973261  1
