# generated using pymatgen
data_Mg2Sn
_symmetry_space_group_name_H-M   'P 1'
_cell_length_a   11.61482844
_cell_length_b   3.33026871
_cell_length_c   7.79827342
_cell_angle_alpha   90.00000000
_cell_angle_beta   109.00127721
_cell_angle_gamma   90.00000000
_symmetry_Int_Tables_number   1
_chemical_formula_structural   Mg2Sn
_chemical_formula_sum   'Mg8 Sn4'
_cell_volume   285.20508606
_cell_formula_units_Z   4
loop_
 _symmetry_equiv_pos_site_id
 _symmetry_equiv_pos_as_xyz
  1  'x, y, z'
loop_
 _atom_site_type_symbol
 _atom_site_label
 _atom_site_symmetry_multiplicity
 _atom_site_fract_x
 _atom_site_fract_y
 _atom_site_fract_z
 _atom_site_occupancy
  Mg  Mg0  1  0.36192314  0.50000000  0.97010668  1
  Mg  Mg1  1  0.46994972  -0.00000000  0.69381885  1
  Mg  Mg2  1  0.03005028  0.50000000  0.30618115  1
  Mg  Mg3  1  0.13807686  -0.00000000  0.02989332  1
  Mg  Mg4  1  0.86192314  0.00000000  0.97010668  1
  Mg  Mg5  1  0.96994972  0.50000000  0.69381885  1
  Mg  Mg6  1  0.53005028  0.00000000  0.30618115  1
  Mg  Mg7  1  0.63807686  0.50000000  0.02989332  1
  Sn  Sn8  1  0.19107621  -0.00000000  0.64926982  1
  Sn  Sn9  1  0.30892379  0.50000000  0.35073018  1
  Sn  Sn10  1  0.69107621  0.50000000  0.64926982  1
  Sn  Sn11  1  0.80892379  0.00000000  0.35073018  1
