# generated using pymatgen
data_LiCrP2O7
_symmetry_space_group_name_H-M   'P 1'
_cell_length_a   8.40989681
_cell_length_b   5.02824134
_cell_length_c   12.23417663
_cell_angle_alpha   90.00000000
_cell_angle_beta   78.05619280
_cell_angle_gamma   90.00000000
_symmetry_Int_Tables_number   1
_chemical_formula_structural   LiCrP2O7
_chemical_formula_sum   'Li4 Cr4 P8 O28'
_cell_volume   506.14650022
_cell_formula_units_Z   4
loop_
 _symmetry_equiv_pos_site_id
 _symmetry_equiv_pos_as_xyz
  1  'x, y, z'
loop_
 _atom_site_type_symbol
 _atom_site_label
 _atom_site_symmetry_multiplicity
 _atom_site_fract_x
 _atom_site_fract_y
 _atom_site_fract_z
 _atom_site_occupancy
  Li  Li0  1  0.12300854  0.26806971  0.29872171  1
  Li  Li1  1  0.87699210  0.73193179  0.70127835  1
  Li  Li2  1  0.62300824  0.23193104  0.79872141  1
  Li  Li3  1  0.37699116  0.76806846  0.20127800  1
  O  O4  1  0.40742729  0.15873364  0.12045119  1
  O  O5  1  0.90742821  0.34126512  0.62045071  1
  O  O6  1  0.83163893  0.44489433  0.85997745  1
  O  O7  1  0.90764334  0.95813922  0.84253974  1
  O  O8  1  0.09235608  0.04186028  0.15746050  1
  O  O9  1  0.16836049  0.55510517  0.14002279  1
  O  O10  1  0.09257241  0.65873439  0.37954852  1
  O  O11  1  0.09408136  0.93448212  0.59099711  1
  O  O12  1  0.10509036  0.28834614  0.74226152  1
  O  O13  1  0.21347402  0.39419374  0.54372724  1
  O  O14  1  0.06293347  0.28193499  0.94868075  1
  O  O15  1  0.60508979  0.21165461  0.24226181  1
  O  O16  1  0.33163923  0.05510443  0.35997774  1
  O  O17  1  0.40764362  0.54186103  0.34253921  1
  O  O18  1  0.43706651  0.78193374  0.55131919  1
  O  O19  1  0.89491027  0.71165536  0.25773772  1
  O  O20  1  0.28652597  0.89419449  0.95627270  1
  O  O21  1  0.39490963  0.78834490  0.75773842  1
  O  O22  1  0.90591806  0.06551739  0.40900312  1
  O  O23  1  0.71347467  0.10580502  0.04372735  1
  O  O24  1  0.40591863  0.43448137  0.90900283  1
  O  O25  1  0.56293413  0.21806576  0.44868086  1
  O  O26  1  0.59235580  0.45814047  0.65746103  1
  O  O27  1  0.66836141  0.94489508  0.64002231  1
  O  O28  1  0.59257213  0.84126587  0.87954905  1
  O  O29  1  0.93706595  0.71806651  0.05131948  1
  O  O30  1  0.78652540  0.60580577  0.45627300  1
  O  O31  1  0.59408200  0.56551814  0.09099641  1
  P  P32  1  0.58068941  0.26529909  0.11644941  1
  P  P33  1  0.41931001  0.73470241  0.88355083  1
  P  P34  1  0.52788402  0.74120364  0.64278713  1
  P  P35  1  0.91931066  0.76529784  0.38355094  1
  P  P36  1  0.02788430  0.75879662  0.14278661  1
  P  P37  1  0.08068998  0.23470166  0.61644911  1
  P  P38  1  0.47211662  0.25879587  0.35721292  1
  P  P39  1  0.97211632  0.24120289  0.85721263  1
  Cr  Cr40  1  0.76230826  0.75952993  0.96869436  1
  Cr  Cr41  1  0.73769208  0.25952918  0.53130540  1
  Cr  Cr42  1  0.26230856  0.74047032  0.46869465  1
  Cr  Cr43  1  0.23769114  0.24047157  0.03130506  1
