# generated using pymatgen
data_Th3Ga2
_symmetry_space_group_name_H-M   'P 1'
_cell_length_a   4.21828853
_cell_length_b   8.01703550
_cell_length_c   8.01703550
_cell_angle_alpha   90.00000000
_cell_angle_beta   90.00000000
_cell_angle_gamma   90.00000000
_symmetry_Int_Tables_number   1
_chemical_formula_structural   Th3Ga2
_chemical_formula_sum   'Th6 Ga4'
_cell_volume   271.12146057
_cell_formula_units_Z   2
loop_
 _symmetry_equiv_pos_site_id
 _symmetry_equiv_pos_as_xyz
  1  'x, y, z'
loop_
 _atom_site_type_symbol
 _atom_site_label
 _atom_site_symmetry_multiplicity
 _atom_site_fract_x
 _atom_site_fract_y
 _atom_site_fract_z
 _atom_site_occupancy
  Ga  Ga0  1  0.00000000  0.38145236  0.88145236  1
  Ga  Ga1  1  0.00000000  0.11854764  0.38145236  1
  Ga  Ga2  1  0.00000000  0.88145236  0.61854764  1
  Ga  Ga3  1  0.00000000  0.61854764  0.11854764  1
  Th  Th4  1  0.00000000  0.00000000  0.00000000  1
  Th  Th5  1  0.00000000  0.50000000  0.50000000  1
  Th  Th6  1  0.50000000  0.17591256  0.67591256  1
  Th  Th7  1  0.50000000  0.32408744  0.17591256  1
  Th  Th8  1  0.50000000  0.67591256  0.82408744  1
  Th  Th9  1  0.50000000  0.82408744  0.32408744  1
