# generated using pymatgen
data_Bi3Se4Br
_symmetry_space_group_name_H-M   'P 1'
_cell_length_a   4.12547057
_cell_length_b   10.77301391
_cell_length_c   12.20323118
_cell_angle_alpha   113.49328194
_cell_angle_beta   90.00000000
_cell_angle_gamma   101.03872670
_symmetry_Int_Tables_number   1
_chemical_formula_structural   Bi3Se4Br
_chemical_formula_sum   'Bi6 Se8 Br2'
_cell_volume   486.43840311
_cell_formula_units_Z   2
loop_
 _symmetry_equiv_pos_site_id
 _symmetry_equiv_pos_as_xyz
  1  'x, y, z'
loop_
 _atom_site_type_symbol
 _atom_site_label
 _atom_site_symmetry_multiplicity
 _atom_site_fract_x
 _atom_site_fract_y
 _atom_site_fract_z
 _atom_site_occupancy
  Se  Se0  1  0.41443102  0.82886204  0.50800261  1
  Se  Se1  1  0.58556898  0.17113796  0.49199739  1
  Se  Se2  1  0.68653302  0.37306604  0.01835173  1
  Se  Se3  1  0.31346698  0.62693396  0.98164827  1
  Se  Se4  1  0.07702829  0.15405659  0.72700503  1
  Se  Se5  1  0.92297171  0.84594341  0.27299497  1
  Se  Se6  1  0.25350313  0.50700625  0.64259624  1
  Se  Se7  1  0.74649687  0.49299375  0.35740376  1
  Br  Br8  1  0.45670508  0.91341016  0.83460551  1
  Br  Br9  1  0.54329492  0.08658984  0.16539449  1
  Bi  Bi10  1  0.08905514  0.17811028  0.96268225  1
  Bi  Bi11  1  0.91094486  0.82188972  0.03731775  1
  Bi  Bi12  1  0.67269188  0.34538375  0.73725674  1
  Bi  Bi13  1  0.32730812  0.65461625  0.26274326  1
  Bi  Bi14  1  0.15156437  0.30312875  0.41458839  1
  Bi  Bi15  1  0.84843563  0.69687125  0.58541161  1
