# generated using pymatgen
data_MnTlCl3
_symmetry_space_group_name_H-M   'P 1'
_cell_length_a   7.12493173
_cell_length_b   7.14246991
_cell_length_c   10.16815024
_cell_angle_alpha   90.00000000
_cell_angle_beta   90.00000000
_cell_angle_gamma   90.00000000
_symmetry_Int_Tables_number   1
_chemical_formula_structural   MnTlCl3
_chemical_formula_sum   'Mn4 Tl4 Cl12'
_cell_volume   517.45320514
_cell_formula_units_Z   4
loop_
 _symmetry_equiv_pos_site_id
 _symmetry_equiv_pos_as_xyz
  1  'x, y, z'
loop_
 _atom_site_type_symbol
 _atom_site_label
 _atom_site_symmetry_multiplicity
 _atom_site_fract_x
 _atom_site_fract_y
 _atom_site_fract_z
 _atom_site_occupancy
  Cl  Cl0  1  0.71957947  0.28055664  0.51876565  1
  Cl  Cl1  1  0.21957947  0.21944336  0.98123435  1
  Cl  Cl2  1  0.78042053  0.78055664  0.48123435  1
  Cl  Cl3  1  0.28042053  0.71944336  0.01876565  1
  Cl  Cl4  1  0.28042053  0.71944336  0.48123435  1
  Cl  Cl5  1  0.78042053  0.78055664  0.01876565  1
  Cl  Cl6  1  0.21957947  0.21944336  0.51876565  1
  Cl  Cl7  1  0.71957947  0.28055664  0.98123435  1
  Cl  Cl8  1  0.50221863  0.96182337  0.75000000  1
  Cl  Cl9  1  1.00221863  0.53817663  0.75000000  1
  Cl  Cl10  1  -0.00221863  0.46182337  0.25000000  1
  Cl  Cl11  1  0.49778137  0.03817663  0.25000000  1
  Mn  Mn12  1  0.00000000  0.50000000  0.50000000  1
  Mn  Mn13  1  0.50000000  0.00000000  0.00000000  1
  Mn  Mn14  1  0.50000000  0.00000000  0.50000000  1
  Mn  Mn15  1  0.00000000  0.50000000  0.00000000  1
  Tl  Tl16  1  0.01437300  0.99964614  0.25000000  1
  Tl  Tl17  1  0.51437300  0.50035386  0.25000000  1
  Tl  Tl18  1  0.48562700  0.49964614  0.75000000  1
  Tl  Tl19  1  0.98562700  0.00035386  0.75000000  1
