# generated using pymatgen
data_Mg2Sn
_symmetry_space_group_name_H-M   'P 1'
_cell_length_a   5.61012581
_cell_length_b   5.61012543
_cell_length_c   15.56898135
_cell_angle_alpha   90.00000000
_cell_angle_beta   90.00000000
_cell_angle_gamma   119.99999463
_symmetry_Int_Tables_number   1
_chemical_formula_structural   Mg2Sn
_chemical_formula_sum   'Mg12 Sn6'
_cell_volume   424.36154817
_cell_formula_units_Z   6
loop_
 _symmetry_equiv_pos_site_id
 _symmetry_equiv_pos_as_xyz
  1  'x, y, z'
loop_
 _atom_site_type_symbol
 _atom_site_label
 _atom_site_symmetry_multiplicity
 _atom_site_fract_x
 _atom_site_fract_y
 _atom_site_fract_z
 _atom_site_occupancy
  Mg  Mg0  1  0.66560759  0.66560759  -0.00000000  1
  Mg  Mg1  1  0.33439241  0.00000000  -0.00000000  1
  Mg  Mg2  1  0.33333300  0.66666700  0.16666700  1
  Mg  Mg3  1  0.00000000  0.33439241  0.00000000  1
  Mg  Mg4  1  0.33227359  0.99894059  0.33333300  1
  Mg  Mg5  1  0.00105941  0.33333300  0.33333300  1
  Mg  Mg6  1  0.00000000  0.00000000  0.50000000  1
  Mg  Mg7  1  0.66666700  0.66772641  0.33333300  1
  Mg  Mg8  1  0.99894059  0.33227359  0.66666700  1
  Mg  Mg9  1  0.66772641  0.66666700  0.66666700  1
  Mg  Mg10  1  0.66666700  0.33333300  0.83333300  1
  Mg  Mg11  1  0.33333300  0.00105941  0.66666700  1
  Sn  Sn12  1  0.66666700  0.33333300  0.16681765  1
  Sn  Sn13  1  0.00000000  0.00000000  0.16651635  1
  Sn  Sn14  1  0.33333300  0.66666700  0.50015065  1
  Sn  Sn15  1  0.66666700  0.33333300  0.49984935  1
  Sn  Sn16  1  0.00000000  0.00000000  0.83348365  1
  Sn  Sn17  1  0.33333300  0.66666700  0.83318235  1
