# generated using pymatgen
data_Li2MnP2O7
_symmetry_space_group_name_H-M   'P 1'
_cell_length_a   8.03182343
_cell_length_b   13.93808245
_cell_length_c   5.15045050
_cell_angle_alpha   90.00000000
_cell_angle_beta   92.48500888
_cell_angle_gamma   90.00000000
_symmetry_Int_Tables_number   1
_chemical_formula_structural   Li2MnP2O7
_chemical_formula_sum   'Li8 Mn4 P8 O28'
_cell_volume   576.04153115
_cell_formula_units_Z   4
loop_
 _symmetry_equiv_pos_site_id
 _symmetry_equiv_pos_as_xyz
  1  'x, y, z'
loop_
 _atom_site_type_symbol
 _atom_site_label
 _atom_site_symmetry_multiplicity
 _atom_site_fract_x
 _atom_site_fract_y
 _atom_site_fract_z
 _atom_site_occupancy
  Li  Li0  1  0.13951327  0.90889396  0.18226448  1
  Li  Li1  1  0.16920306  0.31010161  0.74392957  1
  Li  Li2  1  0.33079671  0.81010186  0.75607007  1
  Li  Li3  1  0.36048734  0.40889371  0.31773597  1
  Li  Li4  1  0.63951264  0.59110608  0.68226484  1
  Li  Li5  1  0.66920327  0.18989793  0.24392880  1
  Li  Li6  1  0.83079692  0.68989818  0.25607124  1
  Li  Li7  1  0.86048671  0.09110583  0.81773634  1
  O  O8  1  0.17731901  0.03075001  0.40871481  1
  O  O9  1  0.91822308  0.43846764  0.22753210  1
  O  O10  1  0.88019767  0.89917617  0.14245491  1
  O  O11  1  0.83393321  0.27282203  0.06588448  1
  O  O12  1  0.04351129  0.70315102  0.47182859  1
  O  O13  1  0.08177691  0.56153214  0.77246677  1
  O  O14  1  0.11980231  0.10082362  0.85754590  1
  O  O15  1  0.16606678  0.72717776  0.93411633  1
  O  O16  1  0.14060039  0.31298811  0.14006186  1
  O  O17  1  0.95648869  0.29684949  0.52817223  1
  O  O18  1  0.21867216  0.92808020  0.82346673  1
  O  O19  1  0.28132761  0.42808066  0.67653292  1
  O  O20  1  0.32268036  0.53074954  0.09128555  1
  O  O21  1  0.33393300  0.22717750  0.56588332  1
  O  O22  1  0.35939898  0.81298836  0.35993850  1
  O  O23  1  0.38019746  0.60082388  0.64245569  1
  O  O24  1  0.85939960  0.68701168  0.85993701  1
  O  O25  1  0.45648808  0.20315077  0.02817178  1
  O  O26  1  0.54351191  0.79684902  0.97182709  1
  O  O27  1  0.58177712  0.93846790  0.27246794  1
  O  O28  1  0.61980252  0.39917663  0.35754512  1
  O  O29  1  0.64060100  0.18701143  0.64006231  1
  O  O30  1  0.66606699  0.77282229  0.43411555  1
  O  O31  1  0.67731962  0.46925024  0.90871526  1
  O  O32  1  0.71867237  0.57191985  0.32346790  1
  O  O33  1  0.78132782  0.07191959  0.17653214  1
  O  O34  1  0.82268098  0.96924978  0.59128406  1
  O  O35  1  0.41822287  0.06153261  0.72753288  1
  P  P36  1  0.96387967  0.32571603  0.24039091  1
  P  P37  1  0.77985214  0.97306294  0.29686487  1
  P  P38  1  0.72014805  0.47306269  0.20313516  1
  P  P39  1  0.53612052  0.82571628  0.25960913  1
  P  P40  1  0.03612031  0.67428376  0.75960991  1
  P  P41  1  0.22014784  0.02693757  0.70313594  1
  P  P42  1  0.46387946  0.17428423  0.74038974  1
  P  P43  1  0.27985193  0.52693710  0.79686565  1
  Mn  Mn44  1  0.22816957  0.16360863  0.21208041  1
  Mn  Mn45  1  0.27183105  0.66360889  0.28792005  1
  Mn  Mn46  1  0.72816894  0.33639090  0.71208077  1
  Mn  Mn47  1  0.77183042  0.83639116  0.78791846  1
