# generated using pymatgen
data_Pu2S3
_symmetry_space_group_name_H-M   'P 1'
_cell_length_a   21.62621071
_cell_length_b   8.29976009
_cell_length_c   8.29976009
_cell_angle_alpha   89.99999689
_cell_angle_beta   54.85317567
_cell_angle_gamma   54.85317564
_symmetry_Int_Tables_number   1
_chemical_formula_structural   Pu2S3
_chemical_formula_sum   'Pu16 S24'
_cell_volume   865.07760564
_cell_formula_units_Z   8
loop_
 _symmetry_equiv_pos_site_id
 _symmetry_equiv_pos_as_xyz
  1  'x, y, z'
loop_
 _atom_site_type_symbol
 _atom_site_label
 _atom_site_symmetry_multiplicity
 _atom_site_fract_x
 _atom_site_fract_y
 _atom_site_fract_z
 _atom_site_occupancy
  Pu  Pu0  1  0.08616761  0.62074809  0.37074809  1
  Pu  Pu1  1  0.16666700  0.25000000  0.62981878  1
  Pu  Pu2  1  0.33852071  0.37697538  0.24728314  1
  Pu  Pu3  1  0.24716539  0.87925191  0.12925191  1
  Pu  Pu4  1  0.16666700  0.75000000  0.87018122  1
  Pu  Pu5  1  0.33852071  0.10746150  0.73715374  1
  Pu  Pu6  1  0.49481229  0.26284626  0.62302462  1
  Pu  Pu7  1  0.66666700  0.37018122  0.25000000  1
  Pu  Pu8  1  0.58616761  0.87074809  0.12074809  1
  Pu  Pu9  1  0.66666700  0.12981878  0.75000000  1
  Pu  Pu10  1  0.49481229  0.75271686  0.89253850  1
  Pu  Pu11  1  0.74716539  0.62925191  0.37925191  1
  Pu  Pu12  1  0.83852071  0.23715374  0.60746150  1
  Pu  Pu13  1  0.99481229  0.39253850  0.25271686  1
  Pu  Pu14  1  0.99481229  0.12302462  0.76284626  1
  Pu  Pu15  1  0.83852071  0.74728314  0.87697538  1
  S  S16  1  0.12405171  0.48833084  0.99350095  1
  S  S17  1  0.05057551  0.34757840  0.49962522  1
  S  S18  1  0.28275749  0.15242160  0.15135276  1
  S  S19  1  0.05057551  0.00069406  0.34864724  1
  S  S20  1  0.28275749  0.49930594  0.00037478  1
  S  S21  1  0.12405171  0.63951305  0.63434293  1
  S  S22  1  0.20928129  0.01166916  0.86565707  1
  S  S23  1  0.20928129  0.86048695  0.50649905  1
  S  S24  1  0.44851899  0.49918362  0.99658952  1
  S  S25  1  0.38481501  0.34214549  0.50081638  1
  S  S26  1  0.62405171  0.13434293  0.13951305  1
  S  S27  1  0.38481501  0.00341048  0.34473959  1
  S  S28  1  0.62405171  0.49350095  0.98833084  1
  S  S29  1  0.55057551  0.99962522  0.84757840  1
  S  S30  1  0.44851899  0.65526041  0.65785451  1
  S  S31  1  0.55057551  0.84864724  0.50069406  1
  S  S32  1  0.78275749  0.50037478  0.99930594  1
  S  S33  1  0.70928129  0.36565707  0.51166916  1
  S  S34  1  0.70928129  0.00649905  0.36048695  1
  S  S35  1  0.94851899  0.15785451  0.15526041  1
  S  S36  1  0.94851899  0.49658952  0.99918362  1
  S  S37  1  0.88481501  0.00081638  0.84214549  1
  S  S38  1  0.78275749  0.65135276  0.65242160  1
  S  S39  1  0.88481501  0.84473959  0.50341048  1
