# generated using pymatgen
data_Cr(PO3)3
_symmetry_space_group_name_H-M   'P 1'
_cell_length_a   6.61450440
_cell_length_b   6.61768385
_cell_length_c   9.67920900
_cell_angle_alpha   90.00000001
_cell_angle_beta   90.19791082
_cell_angle_gamma   120.01590200
_symmetry_Int_Tables_number   1
_chemical_formula_structural   Cr(PO3)3
_chemical_formula_sum   'Cr2 P6 O18'
_cell_volume   366.86033314
_cell_formula_units_Z   2
loop_
 _symmetry_equiv_pos_site_id
 _symmetry_equiv_pos_as_xyz
  1  'x, y, z'
loop_
 _atom_site_type_symbol
 _atom_site_label
 _atom_site_symmetry_multiplicity
 _atom_site_fract_x
 _atom_site_fract_y
 _atom_site_fract_z
 _atom_site_occupancy
  O  O0  1  0.24110888  0.05527215  0.74846788  1
  O  O1  1  0.94251168  0.18629744  0.75083167  1
  O  O2  1  0.08222986  0.67401174  0.61420792  1
  O  O3  1  0.08879364  0.67294513  0.87950309  1
  O  O4  1  0.32690517  0.91465524  0.38254465  1
  O  O5  1  0.08879369  0.41584775  0.37950291  1
  O  O6  1  0.08222881  0.40821835  0.11420878  1
  O  O7  1  0.32202641  0.90905999  0.11723452  1
  O  O8  1  0.32690442  0.41224933  0.88254483  1
  O  O9  1  0.32202492  0.41296564  0.61723470  1
  O  O10  1  0.58864532  0.91249464  0.88579351  1
  O  O11  1  0.94251184  0.75621261  0.25083149  1
  O  O12  1  0.24110907  0.18583742  0.24846770  1
  O  O13  1  0.81142804  0.05460221  0.25030916  1
  O  O14  1  0.58864559  0.67615053  0.38579332  1
  O  O15  1  0.58127870  0.66963069  0.12046680  1
  O  O16  1  0.81142959  0.75682651  0.75030934  1
  O  O17  1  0.58127898  0.91164800  0.62046594  1
  P  P18  1  0.22021830  0.28554142  0.74983957  1
  P  P19  1  0.71205148  0.93498095  0.75196014  1
  P  P20  1  0.06271269  0.77768592  0.74797976  1
  P  P21  1  0.22021919  0.93467832  0.24984043  1
  P  P22  1  0.06271263  0.28502681  0.24798062  1
  P  P23  1  0.71205214  0.77707087  0.25195996  1
  Cr  Cr24  1  0.33154954  0.66720591  0.49994208  1
  Cr  Cr25  1  0.33155099  0.66434480  0.99994122  1
