# generated using pymatgen
data_Dy2S3
_symmetry_space_group_name_H-M   'P 1'
_cell_length_a   21.60514050
_cell_length_b   8.32367690
_cell_length_c   8.32367669
_cell_angle_alpha   89.99999599
_cell_angle_beta   54.69733106
_cell_angle_gamma   54.69733209
_symmetry_Int_Tables_number   1
_chemical_formula_structural   Dy2S3
_chemical_formula_sum   'Dy16 S24'
_cell_volume   862.59016757
_cell_formula_units_Z   8
loop_
 _symmetry_equiv_pos_site_id
 _symmetry_equiv_pos_as_xyz
  1  'x, y, z'
loop_
 _atom_site_type_symbol
 _atom_site_label
 _atom_site_symmetry_multiplicity
 _atom_site_fract_x
 _atom_site_fract_y
 _atom_site_fract_z
 _atom_site_occupancy
  Dy  Dy0  1  0.99428886  0.11984406  0.76820491  1
  Dy  Dy1  1  0.08576904  0.62134593  0.37134593  1
  Dy  Dy2  1  0.16666700  0.25000000  0.63121897  1
  Dy  Dy3  1  0.33904414  0.38015594  0.25107150  1
  Dy  Dy4  1  0.24756396  0.87865407  0.12865407  1
  Dy  Dy5  1  0.16666700  0.75000000  0.86878103  1
  Dy  Dy6  1  0.33904414  0.10271065  0.73179509  1
  Dy  Dy7  1  0.49428886  0.26820491  0.61984406  1
  Dy  Dy8  1  0.66666700  0.36878103  0.25000000  1
  Dy  Dy9  1  0.58576904  0.87134593  0.12134593  1
  Dy  Dy10  1  0.66666700  0.13121897  0.75000000  1
  Dy  Dy11  1  0.49428886  0.74892850  0.89728935  1
  Dy  Dy12  1  0.74756396  0.62865407  0.37865407  1
  Dy  Dy13  1  0.83904414  0.23179509  0.60271065  1
  Dy  Dy14  1  0.99428886  0.39728935  0.24892850  1
  Dy  Dy15  1  0.83904414  0.75107150  0.88015594  1
  S  S16  1  0.04820095  0.99785813  0.36121865  1
  S  S17  1  0.12844842  0.48674613  0.99109681  1
  S  S18  1  0.04820095  0.35753803  0.49417750  1
  S  S19  1  0.28513205  0.14246197  0.13878135  1
  S  S20  1  0.28513205  0.50214187  0.00582250  1
  S  S21  1  0.20488458  0.01325387  0.87644307  1
  S  S22  1  0.12844842  0.62790762  0.62355693  1
  S  S23  1  0.38214934  0.00286799  0.34785789  1
  S  S24  1  0.20488458  0.87209238  0.50890319  1
  S  S25  1  0.45118466  0.49430491  0.99713201  1
  S  S26  1  0.38214934  0.35068499  0.50569509  1
  S  S27  1  0.62844842  0.12355693  0.12790762  1
  S  S28  1  0.62844842  0.49109681  0.98674613  1
  S  S29  1  0.54820095  0.99417750  0.85753803  1
  S  S30  1  0.45118466  0.65214211  0.64931501  1
  S  S31  1  0.70488458  0.00890319  0.37209238  1
  S  S32  1  0.54820095  0.86121865  0.49785813  1
  S  S33  1  0.78513205  0.50582250  0.00214187  1
  S  S34  1  0.70488458  0.37644307  0.51325387  1
  S  S35  1  0.95118466  0.14931501  0.15214211  1
  S  S36  1  0.95118466  0.49713201  0.99430491  1
  S  S37  1  0.78513205  0.63878135  0.64246197  1
  S  S38  1  0.88214934  0.00569509  0.85068499  1
  S  S39  1  0.88214934  0.84785789  0.50286799  1
