# generated using pymatgen
data_Li3Cr3(PO4)4
_symmetry_space_group_name_H-M   'P 1'
_cell_length_a   13.06038805
_cell_length_b   8.01480323
_cell_length_c   8.86569508
_cell_angle_alpha   90.05955977
_cell_angle_beta   85.83717472
_cell_angle_gamma   90.23089128
_symmetry_Int_Tables_number   1
_chemical_formula_structural   Li3Cr3(PO4)4
_chemical_formula_sum   'Li9 Cr9 P12 O48'
_cell_volume   925.57328642
_cell_formula_units_Z   3
loop_
 _symmetry_equiv_pos_site_id
 _symmetry_equiv_pos_as_xyz
  1  'x, y, z'
loop_
 _atom_site_type_symbol
 _atom_site_label
 _atom_site_symmetry_multiplicity
 _atom_site_fract_x
 _atom_site_fract_y
 _atom_site_fract_z
 _atom_site_occupancy
  Li  Li0  1  0.16645251  0.86295933  0.22882784  1
  Li  Li1  1  0.83149097  0.13297246  0.75976939  1
  Li  Li2  1  0.83157560  0.86796404  0.57047923  1
  Li  Li3  1  0.83217167  0.36102106  0.27409539  1
  Li  Li4  1  0.50028624  0.36123686  0.59166076  1
  Li  Li5  1  0.17343973  0.36701817  0.92885792  1
  Li  Li6  1  0.49176448  0.63204375  0.40674599  1
  Li  Li7  1  0.16972053  0.63482965  0.73840610  1
  Li  Li8  1  0.50245585  0.13597553  0.10621252  1
  O  O9  1  0.56545549  0.91700016  0.07904788  1
  O  O10  1  0.76107501  0.06813051  0.58752308  1
  O  O11  1  0.58429935  0.64535485  0.85815611  1
  O  O12  1  0.91976331  0.63856981  0.52001575  1
  O  O13  1  0.74469085  0.35810269  0.80932432  1
  O  O14  1  0.93351813  0.30341125  0.66942233  1
  O  O15  1  0.90547281  0.93155065  0.74438220  1
  O  O16  1  0.89738571  0.63138136  0.84666708  1
  O  O17  1  0.76914241  0.12994788  0.99551843  1
  O  O18  1  0.23682807  0.87540771  0.00777903  1
  O  O19  1  0.10043129  0.37974464  0.15731359  1
  O  O20  1  0.10540100  0.08127344  0.25353730  1
  O  O21  1  0.06294266  0.69725960  0.31956475  1
  O  O22  1  0.25648765  0.64845083  0.19069039  1
  O  O23  1  0.08344198  0.35408634  0.47603717  1
  O  O24  1  0.40999910  0.35043458  0.14195364  1
  O  O25  1  0.26419297  0.30049193  0.33613793  1
  O  O26  1  0.23060090  0.93190349  0.41719094  1
  O  O27  1  0.60265047  0.30088628  0.01188487  1
  O  O28  1  0.73256185  0.69279563  0.66220726  1
  O  O29  1  0.23011539  0.63262505  0.50421671  1
  O  O30  1  0.10421217  0.13288552  0.65440104  1
  O  O31  1  0.56743943  0.61770852  0.17492064  1
  O  O32  1  0.43067159  0.12358217  0.32500221  1
  O  O33  1  0.09669649  0.43238544  0.75707831  1
  O  O34  1  0.06791691  0.80405958  0.83320615  1
  O  O35  1  0.42571078  0.42648877  0.42113787  1
  O  O36  1  0.39699076  0.80893778  0.48895498  1
  O  O37  1  0.76762908  0.43055148  0.08408270  1
  O  O38  1  0.25507923  0.85803971  0.69210950  1
  O  O39  1  0.73190764  0.80074916  0.15824514  1
  O  O40  1  0.58730404  0.85680533  0.35484920  1
  O  O41  1  0.91636424  0.85313617  0.02500849  1
  O  O42  1  0.08057165  0.13970836  0.97878461  1
  O  O43  1  0.41175530  0.14013146  0.64171749  1
  O  O44  1  0.27065212  0.19105420  0.84496275  1
  O  O45  1  0.74548538  0.14567536  0.30885206  1
  O  O46  1  0.24153418  0.57222794  0.91156362  1
  O  O47  1  0.59874273  0.19422996  0.50238933  1
  O  O48  1  0.56682441  0.56852370  0.57779694  1
  O  O49  1  0.93731072  0.19857214  0.17857126  1
  O  O50  1  0.89339762  0.58071856  0.24560738  1
  O  O51  1  0.40305112  0.69883284  0.99744654  1
  O  O52  1  0.43700024  0.36686019  0.82872992  1
  O  O53  1  0.90021428  0.87838598  0.34198157  1
  O  O54  1  0.76522867  0.37053003  0.49313006  1
  O  O55  1  0.43700626  0.06745449  0.91693845  1
  O  O56  1  0.56321941  0.86724395  0.68038404  1
  P  P57  1  0.38737019  0.30374813  0.31113472  1
  P  P58  1  0.05092576  0.31446469  0.65054335  1
  P  P59  1  0.27942052  0.80721741  0.52474318  1
  P  P60  1  0.61070958  0.79495158  0.19275129  1
  P  P61  1  0.38842234  0.19194042  0.80865599  1
  P  P62  1  0.71813711  0.18972816  0.47963273  1
  P  P63  1  0.61506434  0.68461618  0.68265762  1
  P  P64  1  0.94508485  0.70069826  0.35660268  1
  P  P65  1  0.72065128  0.30438758  0.97548535  1
  P  P66  1  0.05533260  0.20175738  0.14213663  1
  P  P67  1  0.27980708  0.69504587  0.02170212  1
  P  P68  1  0.95063333  0.81382120  0.85095338  1
  Cr  Cr69  1  0.83018242  0.49314772  0.65887788  1
  Cr  Cr70  1  0.50252155  0.85490623  0.89531280  1
  Cr  Cr71  1  0.83472981  0.01179748  0.17222282  1
  Cr  Cr72  1  0.49804681  0.00436615  0.49410114  1
  Cr  Cr73  1  0.17126798  0.99757459  0.83970204  1
  Cr  Cr74  1  0.83464861  0.64326236  0.06088573  1
  Cr  Cr75  1  0.16501601  0.14450360  0.43818672  1
  Cr  Cr76  1  0.50005820  0.48679546  0.00352154  1
  Cr  Cr77  1  0.16623752  0.51095982  0.32871364  1
