# generated using pymatgen
data_Mn4(PO4)3
_symmetry_space_group_name_H-M   'P 1'
_cell_length_a   6.77356686
_cell_length_b   6.77356632
_cell_length_c   10.90424397
_cell_angle_alpha   71.89593842
_cell_angle_beta   71.89593990
_cell_angle_gamma   90.00942019
_symmetry_Int_Tables_number   1
_chemical_formula_structural   Mn4(PO4)3
_chemical_formula_sum   'Mn8 P6 O24'
_cell_volume   449.39203710
_cell_formula_units_Z   2
loop_
 _symmetry_equiv_pos_site_id
 _symmetry_equiv_pos_as_xyz
  1  'x, y, z'
loop_
 _atom_site_type_symbol
 _atom_site_label
 _atom_site_symmetry_multiplicity
 _atom_site_fract_x
 _atom_site_fract_y
 _atom_site_fract_z
 _atom_site_occupancy
  Mn  Mn0  1  0.23059098  0.23061603  0.53880158  1
  Mn  Mn1  1  0.37505915  0.37655747  0.75001110  1
  Mn  Mn2  1  0.62386469  0.12490407  0.25009777  1
  Mn  Mn3  1  0.76951731  0.76935519  0.46121376  1
  Mn  Mn4  1  0.12655747  0.62505915  0.25001110  1
  Mn  Mn5  1  0.51935519  0.01951731  0.96121376  1
  Mn  Mn6  1  0.98061603  0.48059098  0.03880158  1
  Mn  Mn7  1  0.87490407  0.87386469  0.75009777  1
  P  P8  1  0.00020792  0.00003428  0.00002279  1
  P  P9  1  0.75003428  0.25020792  0.50002279  1
  P  P10  1  0.37503687  0.78073774  0.75001306  1
  P  P11  1  0.53073774  0.62503687  0.25001306  1
  P  P12  1  0.87491826  0.46913799  0.75000220  1
  P  P13  1  0.21913799  0.12491826  0.25000220  1
  O  O14  1  0.07836463  0.36741215  0.70665560  1
  O  O15  1  0.26702266  0.57224429  0.86871544  1
  O  O16  1  0.44121350  0.73287200  0.13116164  1
  O  O17  1  0.67195669  0.32419113  0.79331034  1
  O  O18  1  0.42734181  0.13594331  0.13108408  1
  O  O19  1  0.32224429  0.51702266  0.36871544  1
  O  O20  1  0.89302109  0.14366027  0.08306075  1
  O  O21  1  0.85720414  0.47683256  0.41672276  1
  O  O22  1  0.07419113  0.92195669  0.29331034  1
  O  O23  1  0.67582708  0.46498694  0.20666509  1
  O  O24  1  0.22683256  0.10720414  0.91672276  1
  O  O25  1  0.52321842  0.27448708  0.58309943  1
  O  O26  1  0.53474389  0.88233419  0.79330430  1
  O  O27  1  0.88594331  0.67734181  0.63108408  1
  O  O28  1  0.85622518  0.97569308  0.91715454  1
  O  O29  1  0.89366027  0.14302109  0.58306075  1
  O  O30  1  0.63233419  0.78474389  0.29330430  1
  O  O31  1  0.11741215  0.32836463  0.20665560  1
  O  O32  1  0.48287300  0.69121350  0.63116164  1
  O  O33  1  0.21498694  0.92582708  0.70666509  1
  O  O34  1  0.30839613  0.11426883  0.36890477  1
  O  O35  1  0.86426883  0.55839613  0.86890477  1
  O  O36  1  0.02448708  0.77321842  0.08309943  1
  O  O37  1  0.72569308  0.10622518  0.41715454  1
