# generated using pymatgen
data_CaLaTiMnO6
_symmetry_space_group_name_H-M   'P 1'
_cell_length_a   5.56474613
_cell_length_b   5.67398540
_cell_length_c   7.64540074
_cell_angle_alpha   90.00000000
_cell_angle_beta   90.59822213
_cell_angle_gamma   90.00000000
_symmetry_Int_Tables_number   1
_chemical_formula_structural   CaLaTiMnO6
_chemical_formula_sum   'Ca2 La2 Ti2 Mn2 O12'
_cell_volume   241.38492975
_cell_formula_units_Z   2
loop_
 _symmetry_equiv_pos_site_id
 _symmetry_equiv_pos_as_xyz
  1  'x, y, z'
loop_
 _atom_site_type_symbol
 _atom_site_label
 _atom_site_symmetry_multiplicity
 _atom_site_fract_x
 _atom_site_fract_y
 _atom_site_fract_z
 _atom_site_occupancy
  Ca  Ca0  1  0.48993739  0.54848829  0.25093240  1
  Ca  Ca1  1  0.98993739  0.95151171  0.75093240  1
  La  La2  1  0.00843652  0.03961784  0.25002830  1
  La  La3  1  0.50843652  0.46038216  0.75002830  1
  Ti  Ti4  1  0.00113815  0.50143010  0.00118810  1
  Ti  Ti5  1  0.50113815  0.99856990  0.50118810  1
  Mn  Mn6  1  0.00012756  0.50060586  0.49929741  1
  Mn  Mn7  1  0.50012756  0.99939414  0.99929741  1
  O  O8  1  0.07712121  0.52344669  0.74536675  1
  O  O9  1  0.20431704  0.78355943  0.04047787  1
  O  O10  1  0.22192142  0.79764782  0.45809106  1
  O  O11  1  0.28188125  0.30374568  0.04404179  1
  O  O12  1  0.29909626  0.28331233  0.45638921  1
  O  O13  1  0.41602320  0.01994533  0.75418710  1
  O  O14  1  0.57712121  0.97655331  0.24536675  1
  O  O15  1  0.70431704  0.71644057  0.54047787  1
  O  O16  1  0.72192142  0.70235218  0.95809106  1
  O  O17  1  0.78188125  0.19625432  0.54404179  1
  O  O18  1  0.79909626  0.21668767  0.95638921  1
  O  O19  1  0.91602320  0.48005467  0.25418710  1
