# generated using pymatgen
data_Sr2Mg
_symmetry_space_group_name_H-M   'P 1'
_cell_length_a   11.35188943
_cell_length_b   7.08923108
_cell_length_c   7.93501373
_cell_angle_alpha   90.00000000
_cell_angle_beta   125.61441591
_cell_angle_gamma   90.00000000
_symmetry_Int_Tables_number   1
_chemical_formula_structural   Sr2Mg
_chemical_formula_sum   'Sr8 Mg4'
_cell_volume   519.13592602
_cell_formula_units_Z   4
loop_
 _symmetry_equiv_pos_site_id
 _symmetry_equiv_pos_as_xyz
  1  'x, y, z'
loop_
 _atom_site_type_symbol
 _atom_site_label
 _atom_site_symmetry_multiplicity
 _atom_site_fract_x
 _atom_site_fract_y
 _atom_site_fract_z
 _atom_site_occupancy
  Sr  Sr0  1  0.17160421  0.63225135  0.72849488  1
  Sr  Sr1  1  0.32839579  0.13225135  0.77150512  1
  Sr  Sr2  1  0.17160421  0.36774865  0.22849488  1
  Sr  Sr3  1  0.32839579  0.86774865  0.27150512  1
  Sr  Sr4  1  0.67160421  0.13225135  0.72849488  1
  Sr  Sr5  1  0.82839579  0.63225135  0.77150512  1
  Sr  Sr6  1  0.67160421  0.86774865  0.22849488  1
  Sr  Sr7  1  0.82839579  0.36774865  0.27150512  1
  Mg  Mg8  1  0.50000000  0.41081522  0.25000000  1
  Mg  Mg9  1  0.00000000  0.08918478  0.75000000  1
  Mg  Mg10  1  0.00000000  0.91081522  0.25000000  1
  Mg  Mg11  1  0.50000000  0.58918478  0.75000000  1
