# generated using pymatgen
data_CaNdTiMnO6
_symmetry_space_group_name_H-M   'P 1'
_cell_length_a   5.51242933
_cell_length_b   5.67314468
_cell_length_c   7.60129758
_cell_angle_alpha   90.00000000
_cell_angle_beta   90.62848881
_cell_angle_gamma   90.00000000
_symmetry_Int_Tables_number   1
_chemical_formula_structural   CaNdTiMnO6
_chemical_formula_sum   'Ca2 Nd2 Ti2 Mn2 O12'
_cell_volume   237.69962731
_cell_formula_units_Z   2
loop_
 _symmetry_equiv_pos_site_id
 _symmetry_equiv_pos_as_xyz
  1  'x, y, z'
loop_
 _atom_site_type_symbol
 _atom_site_label
 _atom_site_symmetry_multiplicity
 _atom_site_fract_x
 _atom_site_fract_y
 _atom_site_fract_z
 _atom_site_occupancy
  Ca  Ca0  1  0.51205295  0.45108131  0.75001104  1
  Ca  Ca1  1  0.01205295  0.04891869  0.25001104  1
  Nd  Nd2  1  0.98674127  0.94708510  0.75021235  1
  Nd  Nd3  1  0.48674127  0.55291490  0.25021235  1
  Ti  Ti4  1  0.99843034  0.49405847  0.99911508  1
  Ti  Ti5  1  0.49843034  0.00594153  0.49911508  1
  Mn  Mn6  1  0.99864163  0.49756423  0.50052494  1
  Mn  Mn7  1  0.49864163  0.00243577  0.00052494  1
  O  O8  1  0.08812029  0.52347450  0.74588157  1
  O  O9  1  0.20345237  0.78280322  0.04621436  1
  O  O10  1  0.22040638  0.80114997  0.45330504  1
  O  O11  1  0.28153367  0.30176698  0.04731741  1
  O  O12  1  0.29857223  0.28511159  0.45331775  1
  O  O13  1  0.41204886  0.02563214  0.75410048  1
  O  O14  1  0.58812029  0.97652550  0.24588157  1
  O  O15  1  0.70345237  0.71719678  0.54621436  1
  O  O16  1  0.72040638  0.69885003  0.95330504  1
  O  O17  1  0.78153367  0.19823302  0.54731741  1
  O  O18  1  0.79857223  0.21488841  0.95331775  1
  O  O19  1  0.91204886  0.47436786  0.25410048  1
