# generated using pymatgen
data_BaYMnCoO5
_symmetry_space_group_name_H-M   'P 1'
_cell_length_a   5.55967203
_cell_length_b   5.55966843
_cell_length_c   7.78633102
_cell_angle_alpha   90.01434587
_cell_angle_beta   89.99435326
_cell_angle_gamma   90.00041291
_symmetry_Int_Tables_number   1
_chemical_formula_structural   BaYMnCoO5
_chemical_formula_sum   'Ba2 Y2 Mn2 Co2 O10'
_cell_volume   240.67496154
_cell_formula_units_Z   2
loop_
 _symmetry_equiv_pos_site_id
 _symmetry_equiv_pos_as_xyz
  1  'x, y, z'
loop_
 _atom_site_type_symbol
 _atom_site_label
 _atom_site_symmetry_multiplicity
 _atom_site_fract_x
 _atom_site_fract_y
 _atom_site_fract_z
 _atom_site_occupancy
  Ba  Ba0  1  0.00018593  0.00028834  0.00007461  1
  Ba  Ba1  1  0.49999496  0.49994429  0.00007576  1
  Y  Y2  1  0.00003667  0.00006302  0.50000564  1
  Y  Y3  1  0.49991076  0.49986345  0.50000094  1
  Mn  Mn4  1  0.99991338  0.50005993  0.73315984  1
  Mn  Mn5  1  0.50004040  0.99987478  0.26686598  1
  Co  Co6  1  0.99999999  0.50029203  0.26546730  1
  Co  Co7  1  0.50019060  0.99986280  0.73453803  1
  O  O8  1  0.99996637  0.50003945  0.99744013  1
  O  O9  1  0.25404288  0.24581773  0.31698205  1
  O  O10  1  0.24583144  0.25409987  0.68296533  1
  O  O11  1  0.25416042  0.75399876  0.31709347  1
  O  O12  1  0.24583721  0.74595898  0.68295933  1
  O  O13  1  0.50002338  0.99996484  0.00252096  1
  O  O14  1  0.74593741  0.24577441  0.31698070  1
  O  O15  1  0.75405716  0.25417826  0.68288926  1
  O  O16  1  0.74581772  0.75405020  0.31709274  1
  O  O17  1  0.75405332  0.74586887  0.68288793  1
