# generated using pymatgen
data_CaCO3
_symmetry_space_group_name_H-M   'P 1'
_cell_length_a   5.01605496
_cell_length_b   5.81207079
_cell_length_c   8.03479772
_cell_angle_alpha   90.00000000
_cell_angle_beta   90.00000000
_cell_angle_gamma   90.00000000
_symmetry_Int_Tables_number   1
_chemical_formula_structural   CaCO3
_chemical_formula_sum   'Ca4 C4 O12'
_cell_volume   234.24381324
_cell_formula_units_Z   4
loop_
 _symmetry_equiv_pos_site_id
 _symmetry_equiv_pos_as_xyz
  1  'x, y, z'
loop_
 _atom_site_type_symbol
 _atom_site_label
 _atom_site_symmetry_multiplicity
 _atom_site_fract_x
 _atom_site_fract_y
 _atom_site_fract_z
 _atom_site_occupancy
  C  C0  1  0.25000000  0.91647117  0.26220759  1
  C  C1  1  0.75000000  0.08352883  0.73779241  1
  C  C2  1  0.25000000  0.41647117  0.23779241  1
  C  C3  1  0.75000000  0.58352883  0.76220759  1
  O  O4  1  0.47391261  0.41381461  0.31956834  1
  O  O5  1  0.97391261  0.58618539  0.68043166  1
  O  O6  1  0.02608739  0.91381461  0.18043166  1
  O  O7  1  0.52608739  0.08618539  0.81956834  1
  O  O8  1  0.75000000  0.59274404  0.92282215  1
  O  O9  1  0.25000000  0.40725596  0.07717785  1
  O  O10  1  0.75000000  0.09274404  0.57717785  1
  O  O11  1  0.25000000  0.90725596  0.42282215  1
  O  O12  1  0.52608739  0.58618539  0.68043166  1
  O  O13  1  0.02608739  0.41381461  0.31956834  1
  O  O14  1  0.97391261  0.08618539  0.81956834  1
  O  O15  1  0.47391261  0.91381461  0.18043166  1
  Ca  Ca16  1  0.25000000  0.75935553  0.91493876  1
  Ca  Ca17  1  0.75000000  0.24064447  0.08506124  1
  Ca  Ca18  1  0.25000000  0.25935553  0.58506124  1
  Ca  Ca19  1  0.75000000  0.74064447  0.41493876  1
