# generated using pymatgen
data_Zr4N2O5
_symmetry_space_group_name_H-M   'P 1'
_cell_length_a   8.90605523
_cell_length_b   8.87455512
_cell_length_c   8.93316517
_cell_angle_alpha   109.35724727
_cell_angle_beta   109.56316143
_cell_angle_gamma   109.54704112
_symmetry_Int_Tables_number   1
_chemical_formula_structural   Zr4N2O5
_chemical_formula_sum   'Zr16 N8 O20'
_cell_volume   543.15717674
_cell_formula_units_Z   4
loop_
 _symmetry_equiv_pos_site_id
 _symmetry_equiv_pos_as_xyz
  1  'x, y, z'
loop_
 _atom_site_type_symbol
 _atom_site_label
 _atom_site_symmetry_multiplicity
 _atom_site_fract_x
 _atom_site_fract_y
 _atom_site_fract_z
 _atom_site_occupancy
  N  N0  1  0.22946381  0.96896287  0.96866829  1
  N  N1  1  0.49799926  0.99525837  0.28303737  1
  N  N2  1  0.49676203  0.46618000  0.73229873  1
  N  N3  1  0.51963055  0.74595285  0.50073687  1
  N  N4  1  0.71663607  0.21844365  0.71956759  1
  N  N5  1  0.74699591  0.24787377  0.22721066  1
  N  N6  1  0.99825195  0.71478390  0.49731870  1
  N  N7  1  0.00142582  0.26212987  0.03371799  1
  O  O8  1  0.02188917  0.51881649  0.76961176  1
  O  O9  1  0.99977127  0.75270701  0.02791508  1
  O  O10  1  0.43832213  0.93874983  0.73727020  1
  O  O11  1  0.20076694  0.70343591  0.26378398  1
  O  O12  1  0.21041089  0.49446325  0.49907829  1
  O  O13  1  0.22823162  0.25680595  0.75794068  1
  O  O14  1  0.45944160  0.73684471  0.96408702  1
  O  O15  1  0.47888232  0.23544386  0.96434891  1
  O  O16  1  0.25021669  0.02239135  0.49896002  1
  O  O17  1  0.26614081  0.51151397  0.02902024  1
  O  O18  1  0.72976161  0.96863849  0.97068794  1
  O  O19  1  0.27720952  0.24401455  0.28682857  1
  O  O20  1  0.77223038  0.73935217  0.75934195  1
  O  O21  1  0.50325545  0.47196695  0.23771775  1
  O  O22  1  0.73162324  0.76548086  0.26566050  1
  O  O23  1  0.95587802  0.99456893  0.71747993  1
  O  O24  1  0.70577681  0.44433932  0.50326053  1
  O  O25  1  0.76784817  0.49999203  0.03920676  1
  O  O26  1  0.94612722  0.20516773  0.49994164  1
  O  O27  1  0.97993347  0.00473542  0.24436439  1
  Zr  Zr28  1  -0.00004435  0.26977773  0.79424636  1
  Zr  Zr29  1  0.20900289  0.25024146  0.50733480  1
  Zr  Zr30  1  0.46651754  0.95908956  0.50187881  1
  Zr  Zr31  1  0.21560528  0.99861269  0.74043231  1
  Zr  Zr32  1  0.24996941  0.75890116  0.04733586  1
  Zr  Zr33  1  0.00560196  0.00600966  0.00520323  1
  Zr  Zr34  1  0.27254121  0.48518535  0.25965607  1
  Zr  Zr35  1  0.51162695  0.71880593  0.73152661  1
  Zr  Zr36  1  0.71800821  0.99123176  0.21654471  1
  Zr  Zr37  1  0.70899850  0.20040456  0.95798287  1
  Zr  Zr38  1  0.49300159  0.49421365  0.98676402  1
  Zr  Zr39  1  0.48453498  0.21405277  0.20685257  1
  Zr  Zr40  1  0.76229643  0.50076541  0.78606153  1
  Zr  Zr41  1  0.74330468  0.70225541  0.49723816  1
  Zr  Zr42  1  0.98254779  0.76854915  0.26790881  1
  Zr  Zr43  1  0.95100419  0.45828970  0.49397095  1
