# generated using pymatgen
data_CaTi2O4
_symmetry_space_group_name_H-M   'P 1'
_cell_length_a   3.07766691
_cell_length_b   5.14758290
_cell_length_c   10.14774975
_cell_angle_alpha   90.00000000
_cell_angle_beta   90.00000000
_cell_angle_gamma   107.39411819
_symmetry_Int_Tables_number   1
_chemical_formula_structural   CaTi2O4
_chemical_formula_sum   'Ca2 Ti4 O8'
_cell_volume   153.41451427
_cell_formula_units_Z   2
loop_
 _symmetry_equiv_pos_site_id
 _symmetry_equiv_pos_as_xyz
  1  'x, y, z'
loop_
 _atom_site_type_symbol
 _atom_site_label
 _atom_site_symmetry_multiplicity
 _atom_site_fract_x
 _atom_site_fract_y
 _atom_site_fract_z
 _atom_site_occupancy
  Ca  Ca0  1  0.37983626  0.75967153  0.75000000  1
  Ca  Ca1  1  0.62016374  0.24032847  0.25000000  1
  Ti  Ti2  1  0.87587849  0.75175698  0.06464786  1
  Ti  Ti3  1  0.12412151  0.24824302  0.93535214  1
  Ti  Ti4  1  0.87587849  0.75175698  0.43535214  1
  Ti  Ti5  1  0.12412151  0.24824302  0.56464786  1
  O  O6  1  0.23297894  0.46595787  0.39347951  1
  O  O7  1  0.76702106  0.53404213  0.60652049  1
  O  O8  1  0.76702106  0.53404213  0.89347951  1
  O  O9  1  0.23297894  0.46595787  0.10652049  1
  O  O10  1  0.93828968  0.87658037  0.25000000  1
  O  O11  1  0.06171032  0.12341963  0.75000000  1
  O  O12  1  0.50000000  -0.00000000  0.00000000  1
  O  O13  1  0.50000000  -0.00000000  0.50000000  1
