# generated using pymatgen
data_BaRuO3
_symmetry_space_group_name_H-M   'P 1'
_cell_length_a   5.79852403
_cell_length_b   5.79852404
_cell_length_c   14.25288505
_cell_angle_alpha   90.00000000
_cell_angle_beta   90.00000000
_cell_angle_gamma   120.00000002
_symmetry_Int_Tables_number   1
_chemical_formula_structural   BaRuO3
_chemical_formula_sum   'Ba6 Ru6 O18'
_cell_volume   415.01934181
_cell_formula_units_Z   6
loop_
 _symmetry_equiv_pos_site_id
 _symmetry_equiv_pos_as_xyz
  1  'x, y, z'
loop_
 _atom_site_type_symbol
 _atom_site_label
 _atom_site_symmetry_multiplicity
 _atom_site_fract_x
 _atom_site_fract_y
 _atom_site_fract_z
 _atom_site_occupancy
  O  O0  1  0.83516447  0.67032894  0.41969803  1
  O  O1  1  0.32967106  0.16483553  0.41969803  1
  O  O2  1  0.83516447  0.16483553  0.41969803  1
  O  O3  1  0.16483553  0.83516447  0.91969803  1
  O  O4  1  0.16483553  0.83516447  0.58030197  1
  O  O5  1  0.16483553  0.32967106  0.91969803  1
  O  O6  1  0.67032894  0.83516447  0.91969803  1
  O  O7  1  0.32967106  0.16483553  0.08030197  1
  O  O8  1  0.83516447  0.67032894  0.08030197  1
  O  O9  1  0.16483553  0.32967106  0.58030197  1
  O  O10  1  0.67032894  0.83516447  0.58030197  1
  O  O11  1  0.83516447  0.16483553  0.08030197  1
  O  O12  1  0.51082383  0.48917617  0.25000000  1
  O  O13  1  0.02164766  0.51082383  0.75000000  1
  O  O14  1  0.48917617  0.97835234  0.75000000  1
  O  O15  1  0.51082383  0.02164766  0.25000000  1
  O  O16  1  0.97835234  0.48917617  0.25000000  1
  O  O17  1  0.48917617  0.51082383  0.75000000  1
  Ru  Ru18  1  0.33333333  0.66666667  0.83940906  1
  Ru  Ru19  1  0.66666667  0.33333333  0.33940906  1
  Ru  Ru20  1  0.66666667  0.33333333  0.16059094  1
  Ru  Ru21  1  0.33333333  0.66666667  0.66059094  1
  Ru  Ru22  1  0.00000000  0.00000000  0.50000000  1
  Ru  Ru23  1  0.00000000  0.00000000  0.00000000  1
  Ba  Ba24  1  0.33333333  0.66666667  0.41194470  1
  Ba  Ba25  1  0.66666667  0.33333333  0.91194470  1
  Ba  Ba26  1  0.66666667  0.33333333  0.58805530  1
  Ba  Ba27  1  0.33333333  0.66666667  0.08805530  1
  Ba  Ba28  1  0.00000000  0.00000000  0.75000000  1
  Ba  Ba29  1  0.00000000  0.00000000  0.25000000  1
