# generated using pymatgen
data_BaNa2V2CuO8
_symmetry_space_group_name_H-M   'P 1'
_cell_length_a   5.57934280
_cell_length_b   5.57934292
_cell_length_c   14.19100773
_cell_angle_alpha   87.01604069
_cell_angle_beta   87.01604063
_cell_angle_gamma   63.27402275
_symmetry_Int_Tables_number   1
_chemical_formula_structural   BaNa2V2CuO8
_chemical_formula_sum   'Ba2 Na4 V4 Cu2 O16'
_cell_volume   393.82109134
_cell_formula_units_Z   2
loop_
 _symmetry_equiv_pos_site_id
 _symmetry_equiv_pos_as_xyz
  1  'x, y, z'
loop_
 _atom_site_type_symbol
 _atom_site_label
 _atom_site_symmetry_multiplicity
 _atom_site_fract_x
 _atom_site_fract_y
 _atom_site_fract_z
 _atom_site_occupancy
  O  O0  1  0.12828015  0.75782601  0.39311891  1
  O  O1  1  0.24217299  0.87172085  0.10688109  1
  O  O2  1  0.87172085  0.24217399  0.60688209  1
  O  O3  1  0.75782701  0.12827915  0.89311791  1
  O  O4  1  0.99403121  0.30080922  0.41606063  1
  O  O5  1  0.69918978  0.00596879  0.08393937  1
  O  O6  1  0.00596979  0.69919078  0.58393937  1
  O  O7  1  0.30080922  0.99402921  0.91606063  1
  O  O8  1  0.27831718  0.35570849  0.25256238  1
  O  O9  1  0.64429151  0.72168282  0.24743762  1
  O  O10  1  0.72168182  0.64429151  0.74743762  1
  O  O11  1  0.35570749  0.27831718  0.75256338  1
  O  O12  1  0.46905662  0.79083082  0.57705719  1
  O  O13  1  0.20916818  0.53094338  0.92294281  1
  O  O14  1  0.79083082  0.46905662  0.07705819  1
  O  O15  1  0.53094238  0.20916918  0.42294181  1
  Na  Na16  1  0.42148610  0.26051717  0.58869012  1
  Na  Na17  1  0.57851390  0.73948083  0.41130988  1
  Na  Na18  1  0.73948283  0.57851390  0.91130888  1
  Na  Na19  1  0.26051817  0.42148710  0.08869012  1
  V  V20  1  0.76976879  0.58929800  0.62834850  1
  V  V21  1  0.58929700  0.76977079  0.12834750  1
  V  V22  1  0.41070200  0.23022921  0.87165150  1
  V  V23  1  0.23023021  0.41070200  0.37165250  1
  Cu  Cu24  1  0.00000000  0.00000000  0.00000000  1
  Cu  Cu25  1  0.00000000  0.00000000  0.50000000  1
  Ba  Ba26  1  0.12831383  0.87168617  0.75000000  1
  Ba  Ba27  1  0.87168717  0.12831383  0.25000000  1
