# generated using pymatgen
data_MoP2O7
_symmetry_space_group_name_H-M   'P 1'
_cell_length_a   6.51731341
_cell_length_b   6.51639450
_cell_length_c   13.29339991
_cell_angle_alpha   78.67521063
_cell_angle_beta   78.06004955
_cell_angle_gamma   100.22761509
_symmetry_Int_Tables_number   1
_chemical_formula_structural   MoP2O7
_chemical_formula_sum   'Mo4 P8 O28'
_cell_volume   527.40000136
_cell_formula_units_Z   4
loop_
 _symmetry_equiv_pos_site_id
 _symmetry_equiv_pos_as_xyz
  1  'x, y, z'
loop_
 _atom_site_type_symbol
 _atom_site_label
 _atom_site_symmetry_multiplicity
 _atom_site_fract_x
 _atom_site_fract_y
 _atom_site_fract_z
 _atom_site_occupancy
  O  O0  1  0.56233614  0.64578318  0.62756288  1
  O  O1  1  0.77349656  0.18992702  0.87247370  1
  O  O2  1  0.91215371  0.53756893  0.64230388  1
  O  O3  1  0.88521597  0.98269744  0.69929131  1
  O  O4  1  0.22650344  0.81007498  0.12752630  1
  O  O5  1  0.08784529  0.46243007  0.35769612  1
  O  O6  1  0.11478303  0.01730156  0.30070869  1
  O  O7  1  0.09160454  0.19870296  0.51866146  1
  O  O8  1  0.04065541  0.86996866  0.88252976  1
  O  O9  1  0.32007336  0.44552236  0.14218973  1
  O  O10  1  0.25231529  0.92330643  0.61742781  1
  O  O11  1  0.29155614  0.58911668  0.48717847  1
  O  O12  1  0.18167515  0.58468336  0.80064286  1
  O  O13  1  0.57610739  0.77882913  0.01273301  1
  O  O14  1  0.23013032  0.26725061  0.67591179  1
  O  O15  1  0.43766386  0.35421682  0.37243712  1
  O  O16  1  0.21727132  0.61036289  0.98124987  1
  O  O17  1  0.95934559  0.13003234  0.11747024  1
  O  O18  1  0.44309192  0.90612721  0.82396921  1
  O  O19  1  0.78272868  0.38963711  0.01875113  1
  O  O20  1  0.90839446  0.80129604  0.48133954  1
  O  O21  1  0.76987068  0.73275039  0.32408821  1
  O  O22  1  0.42389161  0.22116987  0.98726699  1
  O  O23  1  0.81832485  0.41531564  0.19935714  1
  O  O24  1  0.70844386  0.41088432  0.51282153  1
  O  O25  1  0.74768571  0.07669357  0.38257219  1
  O  O26  1  0.67992664  0.55447764  0.85781027  1
  O  O27  1  0.55690808  0.09387279  0.17603079  1
  P  P28  1  0.22197280  0.75322824  0.86640320  1
  P  P29  1  0.77802920  0.24677276  0.13359680  1
  P  P30  1  0.88048725  0.91141678  0.36648909  1
  P  P31  1  0.76503379  0.59016372  0.56981329  1
  P  P32  1  0.33989675  0.66517455  0.06972182  1
  P  P33  1  0.23496721  0.40983528  0.43018671  1
  P  P34  1  0.11951175  0.08858322  0.63351091  1
  P  P35  1  0.66010325  0.33482545  0.93027918  1
  Mo  Mo36  1  0.73773858  0.87957804  0.85571560  1
  Mo  Mo37  1  0.76473122  0.40639013  0.35579261  1
  Mo  Mo38  1  0.23526778  0.59360987  0.64420739  1
  Mo  Mo39  1  0.26226242  0.12042196  0.14428440  1
