# generated using pymatgen
data_La2RuO5
_symmetry_space_group_name_H-M   'P 1'
_cell_length_a   5.91487614
_cell_length_b   7.93366521
_cell_length_c   9.30671119
_cell_angle_alpha   100.42412487
_cell_angle_beta   90.00000000
_cell_angle_gamma   90.00000000
_symmetry_Int_Tables_number   1
_chemical_formula_structural   La2RuO5
_chemical_formula_sum   'La8 Ru4 O20'
_cell_volume   429.52464084
_cell_formula_units_Z   4
loop_
 _symmetry_equiv_pos_site_id
 _symmetry_equiv_pos_as_xyz
  1  'x, y, z'
loop_
 _atom_site_type_symbol
 _atom_site_label
 _atom_site_symmetry_multiplicity
 _atom_site_fract_x
 _atom_site_fract_y
 _atom_site_fract_z
 _atom_site_occupancy
  O  O0  1  0.16042149  0.10234602  0.42573977  1
  O  O1  1  0.66042149  0.39765398  0.57426023  1
  O  O2  1  0.83957851  0.89765398  0.57426023  1
  O  O3  1  0.33957851  0.60234602  0.42573977  1
  O  O4  1  0.16161950  0.96195092  0.85176067  1
  O  O5  1  0.66161950  0.53804908  0.14823933  1
  O  O6  1  0.83838050  0.03804908  0.14823933  1
  O  O7  1  0.33838050  0.46195092  0.85176067  1
  O  O8  1  0.45341382  0.79620483  0.02608137  1
  O  O9  1  0.95341382  0.70379517  0.97391863  1
  O  O10  1  0.54658618  0.20379517  0.97391863  1
  O  O11  1  0.04658618  0.29620483  0.02608137  1
  O  O12  1  0.48751024  0.27317453  0.27213694  1
  O  O13  1  0.98751024  0.22682547  0.72786306  1
  O  O14  1  0.51248976  0.72682547  0.72786306  1
  O  O15  1  0.01248976  0.77317453  0.27213694  1
  O  O16  1  0.95926923  0.37570268  0.31532643  1
  O  O17  1  0.45926923  0.12429732  0.68467357  1
  O  O18  1  0.04073077  0.62429732  0.68467357  1
  O  O19  1  0.54073077  0.87570268  0.31532643  1
  Ru  Ru20  1  0.74541639  0.78775607  0.14509567  1
  Ru  Ru21  1  0.24541639  0.71224393  0.85490433  1
  Ru  Ru22  1  0.25458361  0.21224393  0.85490433  1
  Ru  Ru23  1  0.75458361  0.28775607  0.14509567  1
  La  La24  1  0.73817452  0.62147208  0.44463223  1
  La  La25  1  0.23817452  0.87852792  0.55536777  1
  La  La26  1  0.26182548  0.37852792  0.55536777  1
  La  La27  1  0.76182548  0.12147208  0.44463223  1
  La  La28  1  0.25102885  0.03526198  0.17672275  1
  La  La29  1  0.75102885  0.46473802  0.82327725  1
  La  La30  1  0.74897115  0.96473802  0.82327725  1
  La  La31  1  0.24897115  0.53526198  0.17672275  1
