# generated using pymatgen
data_YMg
_symmetry_space_group_name_H-M   'P 1'
_cell_length_a   12.28219964
_cell_length_b   3.49304707
_cell_length_c   8.31228199
_cell_angle_alpha   90.00000000
_cell_angle_beta   109.08087360
_cell_angle_gamma   90.00000000
_symmetry_Int_Tables_number   1
_chemical_formula_structural   YMg
_chemical_formula_sum   'Y6 Mg6'
_cell_volume   337.02286221
_cell_formula_units_Z   6
loop_
 _symmetry_equiv_pos_site_id
 _symmetry_equiv_pos_as_xyz
  1  'x, y, z'
loop_
 _atom_site_type_symbol
 _atom_site_label
 _atom_site_symmetry_multiplicity
 _atom_site_fract_x
 _atom_site_fract_y
 _atom_site_fract_z
 _atom_site_occupancy
  Y  Y0  1  0.19282068  0.50000000  0.35516801  1
  Y  Y1  1  0.03144022  -0.00000000  0.58595074  1
  Y  Y2  1  0.21011920  0.50000000  0.94000558  1
  Y  Y3  1  0.69282068  0.00000000  0.35516801  1
  Y  Y4  1  0.53144022  0.50000000  0.58595074  1
  Y  Y5  1  0.71011920  0.00000000  0.94000558  1
  Mg  Mg6  1  0.00129402  -0.00000000  0.00445608  1
  Mg  Mg7  1  0.39840594  0.00000000  0.24587193  1
  Mg  Mg8  1  0.33258694  0.00000000  0.70188066  1
  Mg  Mg9  1  0.50129402  0.50000000  0.00445608  1
  Mg  Mg10  1  0.89840594  0.50000000  0.24587193  1
  Mg  Mg11  1  0.83258694  0.50000000  0.70188066  1
