# generated using pymatgen
data_MgP2H20C4(N2O3)4
_symmetry_space_group_name_H-M   'P 1'
_cell_length_a   5.42271228
_cell_length_b   7.39722308
_cell_length_c   21.79658428
_cell_angle_alpha   90.00000000
_cell_angle_beta   90.00000000
_cell_angle_gamma   91.25636959
_symmetry_Int_Tables_number   1
_chemical_formula_structural   MgP2H20C4(N2O3)4
_chemical_formula_sum   'Mg2 P4 H40 C8 N16 O24'
_cell_volume   874.11646353
_cell_formula_units_Z   2
loop_
 _symmetry_equiv_pos_site_id
 _symmetry_equiv_pos_as_xyz
  1  'x, y, z'
loop_
 _atom_site_type_symbol
 _atom_site_label
 _atom_site_symmetry_multiplicity
 _atom_site_fract_x
 _atom_site_fract_y
 _atom_site_fract_z
 _atom_site_occupancy
  Mg  Mg0  1  0.00000000  0.00000000  0.00000000  1
  Mg  Mg1  1  0.50000000  0.50000000  0.50000000  1
  P  P2  1  0.50913566  0.10415714  0.08405962  1
  P  P3  1  0.99086434  0.39584286  0.58405962  1
  P  P4  1  0.49086434  0.89584286  0.91594038  1
  P  P5  1  0.00913566  0.60415714  0.41594038  1
  O  O6  1  0.30795663  0.13739287  0.03717807  1
  O  O7  1  0.19204337  0.36260713  0.53717807  1
  O  O8  1  0.69204337  0.86260713  0.96282193  1
  O  O9  1  0.80795663  0.63739287  0.46282193  1
  O  O10  1  0.77612639  0.13442457  0.06389769  1
  O  O11  1  0.72387361  0.36557543  0.56389769  1
  O  O12  1  0.22387361  0.86557543  0.93610231  1
  O  O13  1  0.27612639  0.63442457  0.43610231  1
  O  O14  1  0.45963082  0.23444864  0.14069242  1
  O  O15  1  0.04036918  0.26555136  0.64069242  1
  O  O16  1  0.54036918  0.76555136  0.85930758  1
  O  O17  1  0.95963082  0.73444864  0.35930758  1
  O  O18  1  0.47840668  0.90156911  0.10957261  1
  O  O19  1  0.02159332  0.59843089  0.60957261  1
  O  O20  1  0.52159332  0.09843089  0.89042739  1
  O  O21  1  0.97840668  0.40156911  0.39042739  1
  O  O22  1  0.05935236  0.78492993  0.06666990  1
  O  O23  1  0.44064764  0.71507007  0.56666990  1
  O  O24  1  0.94064764  0.21507007  0.93333010  1
  O  O25  1  0.55935236  0.28492993  0.43333010  1
  O  O26  1  0.80067861  0.25842992  0.22540623  1
  O  O27  1  0.69932139  0.24157008  0.72540623  1
  O  O28  1  0.19932139  0.74157008  0.77459377  1
  O  O29  1  0.30067861  0.75842992  0.27459377  1
  C  C30  1  0.97043990  0.62421761  0.07427606  1
  C  C31  1  0.52956010  0.87578239  0.57427606  1
  C  C32  1  0.02956010  0.37578239  0.92572394  1
  C  C33  1  0.47043990  0.12421761  0.42572394  1
  C  C34  1  0.95095643  0.13402420  0.23799384  1
  C  C35  1  0.54904357  0.36597580  0.73799384  1
  C  C36  1  0.04904357  0.86597580  0.76200616  1
  C  C37  1  0.45095643  0.63402420  0.26200616  1
  N  N38  1  0.76890317  0.56721458  0.04372015  1
  N  N39  1  0.73109683  0.93278542  0.54372015  1
  N  N40  1  0.23109683  0.43278542  0.95627985  1
  N  N41  1  0.26890317  0.06721458  0.45627985  1
  N  N42  1  0.07109692  0.51053085  0.11549668  1
  N  N43  1  0.42890308  0.98946915  0.61549668  1
  N  N44  1  0.92890308  0.48946915  0.88450332  1
  N  N45  1  0.57109692  0.01053085  0.38450332  1
  N  N46  1  0.98500112  0.99132140  0.20045392  1
  N  N47  1  0.51499888  0.50867860  0.70045392  1
  N  N48  1  0.01499888  0.00867860  0.79954608  1
  N  N49  1  0.48500112  0.49132140  0.29954608  1
  N  N50  1  0.07783764  0.13552420  0.29159677  1
  N  N51  1  0.42216236  0.36447580  0.79159677  1
  N  N52  1  0.92216236  0.86447580  0.70840323  1
  N  N53  1  0.57783764  0.63552420  0.20840323  1
  H  H54  1  0.59600781  0.23557679  0.17289691  1
  H  H55  1  0.90399219  0.26442321  0.67289691  1
  H  H56  1  0.40399219  0.76442321  0.82710309  1
  H  H57  1  0.09600781  0.73557679  0.32710309  1
  H  H58  1  0.31600531  0.84502134  0.09441747  1
  H  H59  1  0.18399469  0.65497866  0.59441747  1
  H  H60  1  0.68399469  0.15497866  0.90558253  1
  H  H61  1  0.81600531  0.34502134  0.40558253  1
  H  H62  1  0.70191589  0.65403795  0.01128218  1
  H  H63  1  0.79808411  0.84596205  0.51128218  1
  H  H64  1  0.29808411  0.34596205  0.98871782  1
  H  H65  1  0.20191589  0.15403795  0.48871782  1
  H  H66  1  0.72382497  0.43289227  0.04404977  1
  H  H67  1  0.77617503  0.06710773  0.54404977  1
  H  H68  1  0.27617503  0.56710773  0.95595023  1
  H  H69  1  0.22382497  0.93289227  0.45595023  1
  H  H70  1  0.02293248  0.37685601  0.11359062  1
  H  H71  1  0.47706752  0.12314399  0.61359062  1
  H  H72  1  0.97706752  0.62314399  0.88640938  1
  H  H73  1  0.52293248  0.87685601  0.38640938  1
  H  H74  1  0.24392533  0.53734739  0.13154400  1
  H  H75  1  0.25607467  0.96265261  0.63154400  1
  H  H76  1  0.75607467  0.46265261  0.86845600  1
  H  H77  1  0.74392533  0.03734739  0.36845600  1
  H  H78  1  0.92852811  0.99916867  0.15606991  1
  H  H79  1  0.57147189  0.50083133  0.65606991  1
  H  H80  1  0.07147189  0.00083133  0.84393009  1
  H  H81  1  0.42852811  0.49916867  0.34393009  1
  H  H82  1  0.11253562  0.89779327  0.21246501  1
  H  H83  1  0.38746438  0.60220673  0.71246501  1
  H  H84  1  0.88746438  0.10220673  0.78753499  1
  H  H85  1  0.61253562  0.39779327  0.28753499  1
  H  H86  1  0.21859207  0.04862236  0.29779201  1
  H  H87  1  0.28140793  0.45137764  0.79779201  1
  H  H88  1  0.78140793  0.95137764  0.70220799  1
  H  H89  1  0.71859207  0.54862236  0.20220799  1
  H  H90  1  0.07161060  0.24783025  0.31869022  1
  H  H91  1  0.42838940  0.25216975  0.81869022  1
  H  H92  1  0.92838940  0.75216975  0.68130978  1
  H  H93  1  0.57161060  0.74783025  0.18130978  1
