# generated using pymatgen
data_SiNi2P
_symmetry_space_group_name_H-M   'P 1'
_cell_length_a   4.97655386
_cell_length_b   5.86653245
_cell_length_c   13.67547957
_cell_angle_alpha   90.00000000
_cell_angle_beta   90.00000000
_cell_angle_gamma   90.00000000
_symmetry_Int_Tables_number   1
_chemical_formula_structural   SiNi2P
_chemical_formula_sum   'Si8 Ni16 P8'
_cell_volume   399.25719474
_cell_formula_units_Z   8
loop_
 _symmetry_equiv_pos_site_id
 _symmetry_equiv_pos_as_xyz
  1  'x, y, z'
loop_
 _atom_site_type_symbol
 _atom_site_label
 _atom_site_symmetry_multiplicity
 _atom_site_fract_x
 _atom_site_fract_y
 _atom_site_fract_z
 _atom_site_occupancy
  Ni  Ni0  1  0.98789647  0.80321461  0.56529075  1
  Ni  Ni1  1  0.48789647  0.19678539  0.93470925  1
  Ni  Ni2  1  0.51210353  0.30321461  0.43470925  1
  Ni  Ni3  1  0.01210353  0.69678539  0.06529075  1
  Ni  Ni4  1  0.01210353  0.19678539  0.43470925  1
  Ni  Ni5  1  0.51210353  0.80321461  0.06529075  1
  Ni  Ni6  1  0.48789647  0.69678539  0.56529075  1
  Ni  Ni7  1  0.98789647  0.30321461  0.93470925  1
  Ni  Ni8  1  0.98425652  0.80292889  0.32227096  1
  Ni  Ni9  1  0.48425652  0.19707111  0.17772904  1
  Ni  Ni10  1  0.51574348  0.30292889  0.67772904  1
  Ni  Ni11  1  0.01574348  0.69707111  0.82227096  1
  Ni  Ni12  1  0.01574348  0.19707111  0.67772904  1
  Ni  Ni13  1  0.51574348  0.80292889  0.82227096  1
  Ni  Ni14  1  0.48425652  0.69707111  0.32227096  1
  Ni  Ni15  1  0.98425652  0.30292889  0.17772904  1
  P  P16  1  0.68448211  0.93861422  0.68096612  1
  P  P17  1  0.18448211  0.06138578  0.81903388  1
  P  P18  1  0.81551789  0.43861422  0.31903388  1
  P  P19  1  0.31551789  0.56138578  0.18096612  1
  P  P20  1  0.31551789  0.06138578  0.31903388  1
  P  P21  1  0.81551789  0.93861422  0.18096612  1
  P  P22  1  0.18448211  0.56138578  0.68096612  1
  P  P23  1  0.68448211  0.43861422  0.81903388  1
  Si  Si24  1  0.81971306  0.92132970  0.94012496  1
  Si  Si25  1  0.31971306  0.07867030  0.55987504  1
  Si  Si26  1  0.68028694  0.42132970  0.05987504  1
  Si  Si27  1  0.18028694  0.57867030  0.44012496  1
  Si  Si28  1  0.18028694  0.07867030  0.05987504  1
  Si  Si29  1  0.68028694  0.92132970  0.44012496  1
  Si  Si30  1  0.31971306  0.57867030  0.94012496  1
  Si  Si31  1  0.81971306  0.42132970  0.55987504  1
