# generated using pymatgen
data_Ce6Y26O51
_symmetry_space_group_name_H-M   'P 1'
_cell_length_a   9.32005483
_cell_length_b   9.36940964
_cell_length_c   18.66304016
_cell_angle_alpha   109.46640678
_cell_angle_beta   109.28632527
_cell_angle_gamma   109.58734375
_symmetry_Int_Tables_number   1
_chemical_formula_structural   Ce6Y26O51
_chemical_formula_sum   'Ce6 Y26 O51'
_cell_volume   1255.69075483
_cell_formula_units_Z   1
loop_
 _symmetry_equiv_pos_site_id
 _symmetry_equiv_pos_as_xyz
  1  'x, y, z'
loop_
 _atom_site_type_symbol
 _atom_site_label
 _atom_site_symmetry_multiplicity
 _atom_site_fract_x
 _atom_site_fract_y
 _atom_site_fract_z
 _atom_site_occupancy
  Ce  Ce0  1  0.24886161  0.97199354  0.62789274  1
  Ce  Ce1  1  0.71282943  0.47317357  0.61277977  1
  Ce  Ce2  1  0.78615258  0.03188689  0.87420178  1
  Ce  Ce3  1  0.97258741  0.24494083  0.61075986  1
  Ce  Ce4  1  0.77560217  0.02614572  0.37271210  1
  Ce  Ce5  1  0.96995383  0.24847218  0.11124360  1
  O  O6  1  0.02122255  0.48757670  0.88017060  1
  O  O7  1  0.24693307  0.96814128  0.75388642  1
  O  O8  1  0.26104836  0.76784352  0.86559828  1
  O  O9  1  0.23834725  0.27719191  0.87410173  1
  O  O10  1  0.01099541  0.03988191  0.63640865  1
  O  O11  1  0.22583771  0.45480578  0.73220115  1
  O  O12  1  0.24705491  0.71263359  0.61099712  1
  O  O13  1  0.02227915  0.48716612  0.37932325  1
  O  O14  1  0.02837513  0.26541837  0.50203619  1
  O  O15  1  0.50009781  0.00152855  0.63692257  1
  O  O16  1  0.73354444  0.99632715  0.98055495  1
  O  O17  1  0.23890622  0.96944025  0.25692399  1
  O  O18  1  0.26283594  0.76960003  0.36790794  1
  O  O19  1  0.53232370  0.77834965  0.76946531  1
  O  O20  1  0.49170417  0.21315590  0.98036017  1
  O  O21  1  0.53137149  0.55305511  0.87903352  1
  O  O22  1  0.23413920  0.27547360  0.37152501  1
  O  O23  1  0.45661867  0.47078969  0.61037370  1
  O  O24  1  0.49169653  0.73855139  0.50923688  1
  O  O25  1  0.46368380  0.25185015  0.73796307  1
  O  O26  1  0.01043726  0.04209742  0.13641493  1
  O  O27  1  0.22591308  0.45199405  0.23083409  1
  O  O28  1  0.25258077  0.01278564  0.51590885  1
  O  O29  1  0.26316714  0.73771191  0.11520852  1
  O  O30  1  0.03357425  0.26765277  0.00422416  1
  O  O31  1  0.71904649  0.23448528  0.87431576  1
  O  O32  1  0.97233434  0.74940089  0.99562119  1
  O  O33  1  0.73238978  0.99290783  0.48123561  1
  O  O34  1  0.76598977  0.53879043  0.76132937  1
  O  O35  1  0.99607108  0.95926049  0.86670505  1
  O  O36  1  0.52994733  0.76916568  0.26979737  1
  O  O37  1  0.49078418  0.21372095  0.48342920  1
  O  O38  1  0.53294078  0.53836735  0.37462715  1
  O  O39  1  0.77668518  0.74925024  0.64437196  1
  O  O40  1  0.72619854  0.49769995  0.50079652  1
  O  O41  1  0.45455295  0.46814580  0.10996609  1
  O  O42  1  0.48782515  0.75552987  0.01639303  1
  O  O43  1  0.75677367  0.24274396  0.63437792  1
  O  O44  1  0.47174810  0.23233408  0.23085782  1
  O  O45  1  0.79425156  0.04783372  0.75832453  1
  O  O46  1  0.27586756  0.01060924  0.02368464  1
  O  O47  1  0.97836646  0.74644002  0.49641305  1
  O  O48  1  0.72009807  0.23585306  0.37587593  1
  O  O49  1  0.97818712  0.50595297  0.62802790  1
  O  O50  1  0.76901714  0.54108045  0.26256540  1
  O  O51  1  0.98417222  0.96058515  0.36315482  1
  O  O52  1  0.77624449  0.74610017  0.14408994  1
  O  O53  1  0.73039895  0.50014049  0.99950329  1
  O  O54  1  0.74039827  0.22502708  0.13365101  1
  O  O55  1  0.76025716  0.03360266  0.24605845  1
  O  O56  1  0.98199969  0.50573119  0.12896573  1
  Y  Y57  1  0.01689567  0.00721604  0.75449254  1
  Y  Y58  1  0.02977404  0.74255134  0.88906122  1
  Y  Y59  1  0.97062642  0.50054717  0.49850215  1
  Y  Y60  1  0.02834453  0.74548004  0.38685325  1
  Y  Y61  1  0.27767702  0.53286845  0.87672700  1
  Y  Y62  1  0.25382678  0.21408897  0.98481061  1
  Y  Y63  1  0.25166304  0.71922794  0.73579608  1
  Y  Y64  1  0.49121378  0.28419635  0.87295861  1
  Y  Y65  1  0.22387056  0.96916496  0.12768886  1
  Y  Y66  1  0.97192790  0.50442939  0.99842584  1
  Y  Y67  1  0.00598465  0.00407728  0.25196093  1
  Y  Y68  1  0.50438360  0.50864501  0.74934745  1
  Y  Y69  1  0.24809977  0.22046118  0.48250366  1
  Y  Y70  1  0.25180842  0.72414682  0.23678650  1
  Y  Y71  1  0.28157952  0.53202619  0.37428718  1
  Y  Y72  1  0.53089128  0.77459389  0.64069263  1
  Y  Y73  1  0.48440924  0.27206349  0.36944707  1
  Y  Y74  1  0.72992775  0.26594518  0.75641690  1
  Y  Y75  1  0.74827100  0.75349871  0.51472883  1
  Y  Y76  1  0.50168864  0.49400062  0.24567200  1
  Y  Y77  1  0.49499747  0.99316990  0.51211849  1
  Y  Y78  1  0.52765441  0.74782529  0.13968440  1
  Y  Y79  1  0.71386228  0.46895990  0.11225254  1
  Y  Y80  1  0.74909852  0.28441294  0.26409905  1
  Y  Y81  1  0.74729525  0.75526718  0.01713494  1
  Y  Y82  1  0.49540736  0.99274159  0.00014160  1
