# generated using pymatgen
data_Ta16(Cu3O16)3
_symmetry_space_group_name_H-M   'P 1'
_cell_length_a   15.16497834
_cell_length_b   10.73765487
_cell_length_c   10.74683505
_cell_angle_alpha   60.11675288
_cell_angle_beta   45.12555602
_cell_angle_gamma   45.07676436
_symmetry_Int_Tables_number   1
_chemical_formula_structural   Ta16(Cu3O16)3
_chemical_formula_sum   'Ta16 Cu9 O48'
_cell_volume   878.07684120
_cell_formula_units_Z   1
loop_
 _symmetry_equiv_pos_site_id
 _symmetry_equiv_pos_as_xyz
  1  'x, y, z'
loop_
 _atom_site_type_symbol
 _atom_site_label
 _atom_site_symmetry_multiplicity
 _atom_site_fract_x
 _atom_site_fract_y
 _atom_site_fract_z
 _atom_site_occupancy
  Cu  Cu0  1  0.25000000  0.00000000  0.00000000  1
  Cu  Cu1  1  0.00000000  0.50000000  0.00000000  1
  Cu  Cu2  1  -0.00025191  0.50050381  0.50000000  1
  Cu  Cu3  1  0.75000000  0.00000000  0.00000000  1
  Cu  Cu4  1  0.50000000  0.50000000  0.00000000  1
  Cu  Cu5  1  0.50025191  0.49949619  0.50000000  1
  Cu  Cu6  1  0.25000000  0.00000000  0.50000000  1
  Cu  Cu7  1  0.49858783  0.00000000  0.50000000  1
  Cu  Cu8  1  0.00141217  0.00000000  0.50000000  1
  O  O9  1  0.06290029  0.18576503  0.99875703  1
  O  O10  1  0.25133468  0.18576503  0.00124297  1
  O  O11  1  0.06182431  0.00000000  0.68800089  1
  O  O12  1  0.25557687  0.29288719  0.19595907  1
  O  O13  1  0.04992041  0.70550909  0.19465010  1
  O  O14  1  0.25017480  0.00000000  0.68800089  1
  O  O15  1  0.18757233  0.31942270  0.50000000  1
  O  O16  1  0.00586863  0.68294855  0.50000000  1
  O  O17  1  0.56165733  0.18576503  0.00124297  1
  O  O18  1  0.24866532  0.81423497  0.99875703  1
  O  O19  1  0.31255353  0.50046352  0.19072557  1
  O  O20  1  0.00327910  0.50046352  0.80927443  1
  O  O21  1  0.49458528  0.19133278  0.31826869  1
  O  O22  1  0.00541472  0.80866722  0.68173131  1
  O  O23  1  0.31285397  0.19133278  0.68173131  1
  O  O24  1  0.18714603  0.80866722  0.31826869  1
  O  O25  1  0.18744647  0.49953648  0.80927443  1
  O  O26  1  0.49672090  0.49953648  0.19072557  1
  O  O27  1  0.75257764  0.18576503  0.99875703  1
  O  O28  1  0.43709971  0.81423497  0.00124297  1
  O  O29  1  0.31242767  0.68057730  0.50000000  1
  O  O30  1  0.49413137  0.31705145  0.50000000  1
  O  O31  1  0.54775210  0.00000000  0.70516801  1
  O  O32  1  0.24982520  0.00000000  0.31199911  1
  O  O33  1  0.75542949  0.29449091  0.19465010  1
  O  O34  1  0.45007959  0.29449091  0.80534990  1
  O  O35  1  0.54846406  0.70711281  0.19595907  1
  O  O36  1  0.24442313  0.70711281  0.80404093  1
  O  O37  1  0.74707989  0.00000000  0.70516801  1
  O  O38  1  0.43817569  0.00000000  0.31199911  1
  O  O39  1  0.68881718  0.31705145  0.50000000  1
  O  O40  1  0.50699503  0.68057730  0.50000000  1
  O  O41  1  0.74742236  0.81423497  0.00124297  1
  O  O42  1  0.81301705  0.49953648  0.19072557  1
  O  O43  1  0.50374262  0.49953648  0.80927443  1
  O  O44  1  0.99581325  0.19133278  0.31826869  1
  O  O45  1  0.50418675  0.80866722  0.68173131  1
  O  O46  1  0.68591806  0.80866722  0.31826869  1
  O  O47  1  0.81408194  0.19133278  0.68173131  1
  O  O48  1  0.68698295  0.50046352  0.80927443  1
  O  O49  1  0.99625738  0.50046352  0.19072557  1
  O  O50  1  0.93834267  0.81423497  0.99875703  1
  O  O51  1  0.99300497  0.31942270  0.50000000  1
  O  O52  1  0.81118282  0.68294855  0.50000000  1
  O  O53  1  0.75292011  0.00000000  0.29483199  1
  O  O54  1  0.74457051  0.70550909  0.80534990  1
  O  O55  1  0.95153594  0.29288719  0.80404093  1
  O  O56  1  0.95224790  0.00000000  0.29483199  1
  Ta  Ta57  1  0.12528104  0.25388371  0.24789079  1
  Ta  Ta58  1  0.37294445  0.25388371  0.24789079  1
  Ta  Ta59  1  0.12083524  0.25388371  0.75210921  1
  Ta  Ta60  1  0.11983039  0.75347727  0.25109367  1
  Ta  Ta61  1  0.12705555  0.74611629  0.75210921  1
  Ta  Ta62  1  0.62907594  0.24652273  0.25109367  1
  Ta  Ta63  1  0.38016961  0.24652273  0.74890633  1
  Ta  Ta64  1  0.37916476  0.74611629  0.24789079  1
  Ta  Ta65  1  0.62440134  0.24652273  0.74890633  1
  Ta  Ta66  1  0.62682816  0.74611629  0.24789079  1
  Ta  Ta67  1  0.87330767  0.24652273  0.25109367  1
  Ta  Ta68  1  0.37471896  0.74611629  0.75210921  1
  Ta  Ta69  1  0.62669233  0.75347727  0.74890633  1
  Ta  Ta70  1  0.87317184  0.25388371  0.75210921  1
  Ta  Ta71  1  0.87559866  0.75347727  0.25109367  1
  Ta  Ta72  1  0.87092406  0.75347727  0.74890633  1
