# generated using pymatgen
data_Li2MnP2O7
_symmetry_space_group_name_H-M   'P 1'
_cell_length_a   9.46276406
_cell_length_b   8.19917227
_cell_length_c   9.46263678
_cell_angle_alpha   71.16233810
_cell_angle_beta   149.17528686
_cell_angle_gamma   119.06739177
_symmetry_Int_Tables_number   1
_chemical_formula_structural   Li2MnP2O7
_chemical_formula_sum   'Li4 Mn2 P4 O14'
_cell_volume   321.44425351
_cell_formula_units_Z   2
loop_
 _symmetry_equiv_pos_site_id
 _symmetry_equiv_pos_as_xyz
  1  'x, y, z'
loop_
 _atom_site_type_symbol
 _atom_site_label
 _atom_site_symmetry_multiplicity
 _atom_site_fract_x
 _atom_site_fract_y
 _atom_site_fract_z
 _atom_site_occupancy
  Li  Li0  1  0.50332105  0.67098738  0.95042530  1
  Li  Li1  1  0.27948669  0.82899870  0.33234950  1
  Li  Li2  1  0.72050249  0.17099682  0.66764556  1
  Li  Li3  1  0.49666694  0.32900335  0.04956336  1
  O  O4  1  0.20683845  0.05193047  0.87027029  1
  O  O5  1  0.82370114  0.26876370  0.26197122  1
  O  O6  1  0.00685985  0.76882958  0.94505466  1
  O  O7  1  0.17627853  0.73122759  0.73800959  1
  O  O8  1  0.99313472  0.23117377  0.05493868  1
  O  O9  1  0.37593984  0.46555100  0.76255078  1
  O  O10  1  0.18152231  0.55184813  0.34500941  1
  O  O11  1  0.27075158  0.24992975  0.52080915  1
  O  O12  1  0.79315001  0.94806478  0.12971938  1
  O  O13  1  0.29697353  0.03435544  0.41043580  1
  O  O14  1  0.72922886  0.75006000  0.47917721  1
  O  O15  1  0.81847551  0.44814218  0.65499519  1
  O  O16  1  0.62403240  0.53443354  0.23742718  1
  O  O17  1  0.70300578  0.96563681  0.58954643  1
  P  P18  1  0.84169485  0.60717968  0.52704266  1
  P  P19  1  0.91990796  0.89291314  0.73447368  1
  P  P20  1  0.15830891  0.39281693  0.47295578  1
  P  P21  1  0.08008288  0.10707935  0.26551658  1
  Mn  Mn22  1  0.00009737  0.50004482  0.00008520  1
  Mn  Mn23  1  0.50003837  1.00002808  1.00002640  1
