# generated using pymatgen
data_In4GeSe4
_symmetry_space_group_name_H-M   'P 1'
_cell_length_a   12.84671253
_cell_length_b   12.84671253
_cell_length_c   12.84671253
_cell_angle_alpha   90.00000000
_cell_angle_beta   90.00000000
_cell_angle_gamma   90.00000000
_symmetry_Int_Tables_number   1
_chemical_formula_structural   In4GeSe4
_chemical_formula_sum   'In32 Ge8 Se32'
_cell_volume   2120.19603580
_cell_formula_units_Z   8
loop_
 _symmetry_equiv_pos_site_id
 _symmetry_equiv_pos_as_xyz
  1  'x, y, z'
loop_
 _atom_site_type_symbol
 _atom_site_label
 _atom_site_symmetry_multiplicity
 _atom_site_fract_x
 _atom_site_fract_y
 _atom_site_fract_z
 _atom_site_occupancy
  Ge  Ge0  1  0.10082748  0.89917252  0.39917252  1
  Ge  Ge1  1  0.10082748  0.60082748  0.89917252  1
  Ge  Ge2  1  0.39917252  0.39917252  0.39917252  1
  Ge  Ge3  1  0.39917252  0.10082748  0.89917252  1
  Ge  Ge4  1  0.60082748  0.89917252  0.10082748  1
  Ge  Ge5  1  0.60082748  0.60082748  0.60082748  1
  Ge  Ge6  1  0.89917252  0.10082748  0.60082748  1
  Ge  Ge7  1  0.89917252  0.39917252  0.10082748  1
  In  In8  1  0.04008074  0.05954620  0.27774582  1
  In  In9  1  0.04008074  0.44045380  0.77774582  1
  In  In10  1  0.05954620  0.27774582  0.04008074  1
  In  In11  1  0.05954620  0.22225418  0.54008074  1
  In  In12  1  0.22139753  0.72139753  0.77860247  1
  In  In13  1  0.22139753  0.77860247  0.27860247  1
  In  In14  1  0.22225418  0.95991926  0.55954620  1
  In  In15  1  0.22225418  0.54008074  0.05954620  1
  In  In16  1  0.27774582  0.04008074  0.05954620  1
  In  In17  1  0.27774582  0.45991926  0.55954620  1
  In  In18  1  0.27860247  0.22139753  0.77860247  1
  In  In19  1  0.27860247  0.27860247  0.27860247  1
  In  In20  1  0.44045380  0.72225418  0.54008074  1
  In  In21  1  0.44045380  0.77774582  0.04008074  1
  In  In22  1  0.45991926  0.55954620  0.27774582  1
  In  In23  1  0.45991926  0.94045380  0.77774582  1
  In  In24  1  0.54008074  0.05954620  0.22225418  1
  In  In25  1  0.54008074  0.44045380  0.72225418  1
  In  In26  1  0.55954620  0.22225418  0.95991926  1
  In  In27  1  0.55954620  0.27774582  0.45991926  1
  In  In28  1  0.72139753  0.72139753  0.72139753  1
  In  In29  1  0.72139753  0.77860247  0.22139753  1
  In  In30  1  0.72225418  0.95991926  0.94045380  1
  In  In31  1  0.72225418  0.54008074  0.44045380  1
  In  In32  1  0.77774582  0.45991926  0.94045380  1
  In  In33  1  0.77774582  0.04008074  0.44045380  1
  In  In34  1  0.77860247  0.22139753  0.72139753  1
  In  In35  1  0.77860247  0.27860247  0.22139753  1
  In  In36  1  0.94045380  0.72225418  0.95991926  1
  In  In37  1  0.94045380  0.77774582  0.45991926  1
  In  In38  1  0.95991926  0.94045380  0.72225418  1
  In  In39  1  0.95991926  0.55954620  0.22225418  1
  Se  Se40  1  0.42504673  0.57495327  0.07495327  1
  Se  Se41  1  0.57495327  0.07495327  0.42504673  1
  Se  Se42  1  0.92504673  0.92504673  0.92504673  1
  Se  Se43  1  0.92504673  0.57495327  0.42504673  1
  Se  Se44  1  0.07507834  0.25709561  0.33211499  1
  Se  Se45  1  0.07507834  0.24290439  0.83211499  1
  Se  Se46  1  0.07495327  0.42504673  0.57495327  1
  Se  Se47  1  0.07495327  0.07495327  0.07495327  1
  Se  Se48  1  0.16788501  0.92492166  0.75709561  1
  Se  Se49  1  0.16788501  0.57507834  0.25709561  1
  Se  Se50  1  0.24290439  0.66788501  0.57507834  1
  Se  Se51  1  0.24290439  0.83211499  0.07507834  1
  Se  Se52  1  0.25709561  0.16788501  0.57507834  1
  Se  Se53  1  0.25709561  0.33211499  0.07507834  1
  Se  Se54  1  0.33211499  0.07507834  0.25709561  1
  Se  Se55  1  0.33211499  0.42492166  0.75709561  1
  Se  Se56  1  0.42504673  0.92504673  0.57495327  1
  Se  Se57  1  0.42492166  0.75709561  0.33211499  1
  Se  Se58  1  0.42492166  0.74290439  0.83211499  1
  Se  Se59  1  0.57507834  0.25709561  0.16788501  1
  Se  Se60  1  0.57507834  0.24290439  0.66788501  1
  Se  Se61  1  0.57495327  0.42504673  0.92504673  1
  Se  Se62  1  0.66788501  0.57507834  0.24290439  1
  Se  Se63  1  0.66788501  0.92492166  0.74290439  1
  Se  Se64  1  0.74290439  0.66788501  0.92492166  1
  Se  Se65  1  0.74290439  0.83211499  0.42492166  1
  Se  Se66  1  0.75709561  0.16788501  0.92492166  1
  Se  Se67  1  0.75709561  0.33211499  0.42492166  1
  Se  Se68  1  0.83211499  0.42492166  0.74290439  1
  Se  Se69  1  0.83211499  0.07507834  0.24290439  1
  Se  Se70  1  0.92492166  0.74290439  0.66788501  1
  Se  Se71  1  0.92492166  0.75709561  0.16788501  1
