# generated using pymatgen
data_Pr4V5(Si2O11)2
_symmetry_space_group_name_H-M   'P 1'
_cell_length_a   5.71176793
_cell_length_b   7.36029210
_cell_length_c   11.18159120
_cell_angle_alpha   99.65597692
_cell_angle_beta   90.00000000
_cell_angle_gamma   112.83087611
_symmetry_Int_Tables_number   1
_chemical_formula_structural   Pr4V5(Si2O11)2
_chemical_formula_sum   'Pr4 V5 Si4 O22'
_cell_volume   426.01354955
_cell_formula_units_Z   1
loop_
 _symmetry_equiv_pos_site_id
 _symmetry_equiv_pos_as_xyz
  1  'x, y, z'
loop_
 _atom_site_type_symbol
 _atom_site_label
 _atom_site_symmetry_multiplicity
 _atom_site_fract_x
 _atom_site_fract_y
 _atom_site_fract_z
 _atom_site_occupancy
  O  O0  1  0.22141444  0.44282889  0.86824639  1
  O  O1  1  0.77858556  0.55717211  0.13175461  1
  O  O2  1  0.16536387  0.85947710  0.08753707  1
  O  O3  1  0.30588677  0.14052290  0.91246393  1
  O  O4  1  0.83463613  0.14052290  0.91246393  1
  O  O5  1  0.69411323  0.85947710  0.08753707  1
  O  O6  1  0.81277544  0.62554988  0.90035515  1
  O  O7  1  0.18722556  0.37445012  0.09964485  1
  O  O8  1  0.41213443  0.82426985  0.83777927  1
  O  O9  1  0.58786557  0.17573115  0.16221973  1
  O  O10  1  0.96461730  0.45321378  0.31151244  1
  O  O11  1  0.51140351  0.54678722  0.68848856  1
  O  O12  1  0.03538270  0.54678722  0.68848856  1
  O  O13  1  0.34982890  0.69965680  0.48305368  1
  O  O14  1  0.65017110  0.30034320  0.51694632  1
  O  O15  1  0.14282513  0.28565126  0.47623420  1
  O  O16  1  0.85717487  0.71434874  0.52376580  1
  O  O17  1  0.48859649  0.45321378  0.31151244  1
  O  O18  1  0.78179958  0.04549328  0.63063260  1
  O  O19  1  0.26369370  0.04549328  0.63063260  1
  O  O20  1  0.21820042  0.95450672  0.36936640  1
  O  O21  1  0.73630630  0.95450672  0.36936640  1
  Si  Si22  1  0.13854564  0.27709128  0.95764400  1
  Si  Si23  1  0.86145436  0.72290872  0.04235600  1
  Si  Si24  1  0.29654525  0.59309049  0.77067458  1
  Si  Si25  1  0.70345475  0.40690951  0.22932542  1
  V  V26  1  0.50000000  0.00000000  0.00000000  1
  V  V27  1  0.50000000  0.49999900  0.50000000  1
  V  V28  1  0.50000000  0.00000000  0.50000000  1
  V  V29  1  0.00000000  0.00000000  0.50000000  1
  V  V30  1  0.00000000  0.49999900  0.50000000  1
  Pr  Pr31  1  0.92678000  0.85356000  0.75121231  1
  Pr  Pr32  1  0.07322000  0.14644000  0.24878669  1
  Pr  Pr33  1  0.64356819  0.28713637  0.75663062  1
  Pr  Pr34  1  0.35643081  0.71286263  0.24336838  1
