# generated using pymatgen
data_MgZn2
_symmetry_space_group_name_H-M   'P 1'
_cell_length_a   4.87410538
_cell_length_b   4.87410524
_cell_length_c   15.25437828
_cell_angle_alpha   90.00000000
_cell_angle_beta   90.00000000
_cell_angle_gamma   119.99999534
_symmetry_Int_Tables_number   1
_chemical_formula_structural   MgZn2
_chemical_formula_sum   'Mg6 Zn12'
_cell_volume   313.84483113
_cell_formula_units_Z   6
loop_
 _symmetry_equiv_pos_site_id
 _symmetry_equiv_pos_as_xyz
  1  'x, y, z'
loop_
 _atom_site_type_symbol
 _atom_site_label
 _atom_site_symmetry_multiplicity
 _atom_site_fract_x
 _atom_site_fract_y
 _atom_site_fract_z
 _atom_site_occupancy
  Mg  Mg0  1  0.66666700  0.33333300  0.16646221  1
  Mg  Mg1  1  0.00000000  -0.00000000  0.16687179  1
  Mg  Mg2  1  0.33333300  0.66666700  0.49979521  1
  Mg  Mg3  1  0.66666700  0.33333300  0.50020479  1
  Mg  Mg4  1  0.00000000  -0.00000000  0.83312821  1
  Mg  Mg5  1  0.33333300  0.66666700  0.83353779  1
  Zn  Zn6  1  0.66197572  0.66197572  -0.00000000  1
  Zn  Zn7  1  0.33802428  1.00000000  -0.00000000  1
  Zn  Zn8  1  0.33333300  0.66666700  0.16666700  1
  Zn  Zn9  1  1.00000000  0.33802428  -0.00000000  1
  Zn  Zn10  1  0.32864172  0.99530872  0.33333300  1
  Zn  Zn11  1  0.00469128  0.33333300  0.33333300  1
  Zn  Zn12  1  0.00000000  -0.00000000  0.50000000  1
  Zn  Zn13  1  0.66666700  0.67135828  0.33333300  1
  Zn  Zn14  1  0.99530872  0.32864172  0.66666700  1
  Zn  Zn15  1  0.67135828  0.66666700  0.66666700  1
  Zn  Zn16  1  0.66666700  0.33333300  0.83333300  1
  Zn  Zn17  1  0.33333300  0.00469128  0.66666700  1
