# generated using pymatgen
data_LiMnP2O7
_symmetry_space_group_name_H-M   'P 1'
_cell_length_a   6.95283000
_cell_length_b   8.07030330
_cell_length_c   9.68128322
_cell_angle_alpha   90.00036590
_cell_angle_beta   112.37249999
_cell_angle_gamma   89.99990532
_symmetry_Int_Tables_number   1
_chemical_formula_structural   LiMnP2O7
_chemical_formula_sum   'Li4 Mn4 P8 O28'
_cell_volume   502.34118954
_cell_formula_units_Z   4
loop_
 _symmetry_equiv_pos_site_id
 _symmetry_equiv_pos_as_xyz
  1  'x, y, z'
loop_
 _atom_site_type_symbol
 _atom_site_label
 _atom_site_symmetry_multiplicity
 _atom_site_fract_x
 _atom_site_fract_y
 _atom_site_fract_z
 _atom_site_occupancy
  Li  Li0  1  0.20732485  0.87049318  0.52378293  1
  Li  Li1  1  0.20732492  0.62950550  0.02378401  1
  Li  Li2  1  0.79267588  0.37049442  0.97621673  1
  Li  Li3  1  0.79267575  0.12950591  0.47621761  1
  O  O4  1  0.38707188  0.08124963  0.63572956  1
  O  O5  1  0.84867997  0.93513759  0.15079378  1
  O  O6  1  0.95477657  0.68276021  0.39808879  1
  O  O7  1  0.77319229  0.40517268  0.28807231  1
  O  O8  1  0.09464569  0.41374101  0.86925353  1
  O  O9  1  0.15131968  0.06486189  0.84920655  1
  O  O10  1  0.04522324  0.31723983  0.60191139  1
  O  O11  1  0.22680753  0.59482719  0.71192745  1
  O  O12  1  0.09464675  0.08625894  0.36925229  1
  O  O13  1  0.15132016  0.43513916  0.34920581  1
  O  O14  1  0.04522321  0.18275668  0.10191125  1
  O  O15  1  0.90535527  0.58625869  0.13074667  1
  O  O16  1  0.53596646  0.22825460  0.89492874  1
  O  O17  1  0.53212797  0.91153777  0.86427861  1
  O  O18  1  0.22680753  0.90517107  0.21192702  1
  O  O19  1  0.46787114  0.41153706  0.63571831  1
  O  O20  1  0.46403276  0.72825307  0.60507193  1
  O  O21  1  0.61292672  0.58125129  0.86426766  1
  O  O22  1  0.90535347  0.91374091  0.63074767  1
  O  O23  1  0.53596739  0.27174717  0.39492839  1
  O  O24  1  0.53212986  0.58846361  0.36428109  1
  O  O25  1  0.77319198  0.09482762  0.78807257  1
  O  O26  1  0.46787213  0.08846192  0.13572104  1
  O  O27  1  0.46403429  0.77174570  0.10507101  1
  O  O28  1  0.61292715  0.91874948  0.36427010  1
  O  O29  1  0.95477772  0.81724234  0.89808880  1
  O  O30  1  0.84868006  0.56486123  0.65079443  1
  O  O31  1  0.38707265  0.41874787  0.13573200  1
  P  P32  1  0.95281982  0.53866053  0.29705581  1
  P  P33  1  0.95281822  0.96133945  0.79705723  1
  P  P34  1  0.54632719  0.41822145  0.30005725  1
  P  P35  1  0.45367545  0.91822159  0.19994405  1
  P  P36  1  0.04718011  0.46133865  0.70294381  1
  P  P37  1  0.04718172  0.03865965  0.20294265  1
  P  P38  1  0.54632481  0.08177819  0.80005575  1
  P  P39  1  0.45367263  0.58177912  0.69994263  1
  Mn  Mn40  1  0.27597508  0.23547985  0.99576142  1
  Mn  Mn41  1  0.27598138  0.26451964  0.49575702  1
  Mn  Mn42  1  0.72402223  0.73548426  0.50424511  1
  Mn  Mn43  1  0.72402544  0.76451843  0.00424126  1
