# generated using pymatgen
data_La10(Si2O9)3
_symmetry_space_group_name_H-M   'P 1'
_cell_length_a   9.95502611
_cell_length_b   19.59809135
_cell_length_c   7.29913816
_cell_angle_alpha   90.00000000
_cell_angle_beta   90.00000000
_cell_angle_gamma   120.42947598
_symmetry_Int_Tables_number   1
_chemical_formula_structural   La10(Si2O9)3
_chemical_formula_sum   'La20 Si12 O54'
_cell_volume   1227.89884923
_cell_formula_units_Z   2
loop_
 _symmetry_equiv_pos_site_id
 _symmetry_equiv_pos_as_xyz
  1  'x, y, z'
loop_
 _atom_site_type_symbol
 _atom_site_label
 _atom_site_symmetry_multiplicity
 _atom_site_fract_x
 _atom_site_fract_y
 _atom_site_fract_z
 _atom_site_occupancy
  La  La0  1  0.24210204  0.99615881  0.23931442  1
  La  La1  1  0.00592624  0.61119200  0.25266835  1
  La  La2  1  0.33842234  0.83446041  0.50140009  1
  La  La3  1  0.33219696  0.83396964  1.00228795  1
  La  La4  1  0.23958279  0.61556478  0.74833585  1
  La  La5  1  0.24210204  0.49615881  0.26068558  1
  La  La6  1  0.77812105  0.89569877  0.24588752  1
  La  La7  1  0.00592624  0.11119200  0.24733165  1
  La  La8  1  0.67311633  0.67148043  0.50586804  1
  La  La9  1  0.66221557  0.66964850  0.00481122  1
  La  La10  1  0.33219696  0.33396964  0.49771205  1
  La  La11  1  0.33842234  0.33446041  -0.00140009  1
  La  La12  1  0.99968606  0.88130700  0.75389127  1
  La  La13  1  0.23958279  0.11556478  0.75166415  1
  La  La14  1  0.77064467  0.50288958  0.79256202  1
  La  La15  1  0.77812105  0.39569877  0.25411248  1
  La  La16  1  0.66221557  0.16964850  0.49518878  1
  La  La17  1  0.67311633  0.17148043  0.99413196  1
  La  La18  1  0.99968606  0.38130700  0.74610873  1
  La  La19  1  0.77064467  0.00288958  0.70743798  1
  O  O20  1  0.25633136  0.95286587  0.92514403  1
  O  O21  1  0.26355087  0.95502630  0.56394868  1
  O  O22  1  0.13496692  0.79980506  0.74676503  1
  O  O23  1  0.15933005  0.83403525  0.24886592  1
  O  O24  1  0.09236914  0.67144575  0.57477119  1
  O  O25  1  0.08912742  0.67437807  0.93686547  1
  O  O26  1  0.03291824  0.49995126  0.33506695  1
  O  O27  1  0.01216744  0.49866768  0.75677562  1
  O  O28  1  0.47054744  0.93655253  0.75578288  1
  O  O29  1  0.33732000  0.74910115  0.24951410  1
  O  O30  1  0.49584837  0.92221853  0.25073308  1
  O  O31  1  0.40012209  0.76424478  0.76864285  1
  O  O32  1  0.34846822  0.62884153  0.07699828  1
  O  O33  1  0.35368713  0.63584535  0.44314846  1
  O  O34  1  0.62568979  0.86379403  0.55988372  1
  O  O35  1  0.66240808  0.87650755  0.92414465  1
  O  O36  1  0.26355087  0.45502630  0.93605132  1
  O  O37  1  0.25633136  0.45286587  0.57485597  1
  O  O38  1  0.13496692  0.29980506  0.75323497  1
  O  O39  1  0.15933005  0.33403525  0.25113408  1
  O  O40  1  0.60138163  0.73774329  0.25185542  1
  O  O41  1  0.48469990  0.58281726  0.74690054  1
  O  O42  1  0.08912742  0.17437807  0.56313453  1
  O  O43  1  0.09236914  0.17144575  0.92522881  1
  O  O44  1  0.67050055  0.75739337  0.74881018  1
  O  O45  1  0.52417327  0.56714973  0.30084489  1
  O  O46  1  0.03291824  0.99995126  0.16493305  1
  O  O47  1  0.47054744  0.43655253  0.74421712  1
  O  O48  1  0.33732000  0.24910115  0.25048590  1
  O  O49  1  0.91085883  0.82162648  0.06013582  1
  O  O50  1  0.91810506  0.83232675  0.42635403  1
  O  O51  1  0.49584837  0.42221853  0.24926692  1
  O  O52  1  0.40012209  0.26424478  0.73135715  1
  O  O53  1  0.84504362  0.66836953  0.74873165  1
  O  O54  1  0.86958217  0.70035550  0.25818914  1
  O  O55  1  0.75177078  0.54360162  0.40190797  1
  O  O56  1  0.66296250  0.55132123  0.03326097  1
  O  O57  1  0.35368713  0.13584535  0.05685154  1
  O  O58  1  0.34846822  0.12884153  0.42300172  1
  O  O59  1  0.66240808  0.37650755  0.57585535  1
  O  O60  1  0.62568979  0.36379403  0.94011628  1
  O  O61  1  0.85680745  0.50365489  0.07653343  1
  O  O62  1  0.60138163  0.23774329  0.24814458  1
  O  O63  1  0.48469990  0.08281726  0.75309946  1
  O  O64  1  0.67050055  0.25739337  0.75118982  1
  O  O65  1  0.52417327  0.06714973  0.19915511  1
  O  O66  1  0.91810506  0.33232675  0.07364597  1
  O  O67  1  0.91085883  0.32162648  0.43986418  1
  O  O68  1  0.84504362  0.16836953  0.75126835  1
  O  O69  1  0.86958217  0.20035550  0.24181086  1
  O  O70  1  0.66296250  0.05132123  0.46673903  1
  O  O71  1  0.75177078  0.04360162  0.09809203  1
  O  O72  1  0.85680745  0.00365489  0.42346657  1
  O  O73  1  0.01216744  0.99866768  0.74322438  1
  Si  Si74  1  0.03328786  0.70180210  0.75190604  1
  Si  Si75  1  0.37660580  0.98591313  0.74695230  1
  Si  Si76  1  0.40882387  0.68968488  0.25578615  1
  Si  Si77  1  0.59269861  0.81403354  0.75217407  1
  Si  Si78  1  0.03328786  0.20180210  0.74809396  1
  Si  Si79  1  0.37660580  0.48591313  0.75304770  1
  Si  Si80  1  0.61619039  0.51875245  0.24542128  1
  Si  Si81  1  0.96964113  0.79780362  0.24853613  1
  Si  Si82  1  0.40882387  0.18968488  0.24421385  1
  Si  Si83  1  0.59269861  0.31403354  0.74782593  1
  Si  Si84  1  0.61619039  0.01875245  0.25457872  1
  Si  Si85  1  0.96964113  0.29780362  0.25146387  1
