# generated using pymatgen
data_Ta32Cu17O96
_symmetry_space_group_name_H-M   'P 1'
_cell_length_a   7.57275330
_cell_length_b   7.58866151
_cell_length_c   30.51388974
_cell_angle_alpha   90.00000000
_cell_angle_beta   90.00000000
_cell_angle_gamma   90.00000000
_symmetry_Int_Tables_number   1
_chemical_formula_structural   Ta32Cu17O96
_chemical_formula_sum   'Ta32 Cu17 O96'
_cell_volume   1753.54357806
_cell_formula_units_Z   1
loop_
 _symmetry_equiv_pos_site_id
 _symmetry_equiv_pos_as_xyz
  1  'x, y, z'
loop_
 _atom_site_type_symbol
 _atom_site_label
 _atom_site_symmetry_multiplicity
 _atom_site_fract_x
 _atom_site_fract_y
 _atom_site_fract_z
 _atom_site_occupancy
  Cu  Cu0  1  0.00000000  0.00000000  0.12496769  1
  Cu  Cu1  1  0.00000000  0.50000000  0.12519642  1
  Cu  Cu2  1  0.00000000  0.00000000  0.37503231  1
  Cu  Cu3  1  0.00000000  0.50000000  0.37480358  1
  Cu  Cu4  1  0.00000000  0.00000000  0.62483334  1
  Cu  Cu5  1  0.00000000  0.50000000  0.62469615  1
  Cu  Cu6  1  0.00000000  0.50000000  0.75000000  1
  Cu  Cu7  1  0.00000000  0.00000000  0.87516666  1
  Cu  Cu8  1  0.00000000  0.50000000  0.87530385  1
  Cu  Cu9  1  0.50000000  0.00000000  0.00065685  1
  Cu  Cu10  1  0.50000000  0.00000000  0.25000000  1
  Cu  Cu11  1  0.50000000  0.00000000  0.49934315  1
  Cu  Cu12  1  0.50000000  0.00000000  0.75000000  1
  Cu  Cu13  1  0.50000000  0.00000000  0.12488545  1
  Cu  Cu14  1  0.50000000  0.00000000  0.37511455  1
  Cu  Cu15  1  0.50000000  0.00000000  0.62385427  1
  Cu  Cu16  1  0.50000000  0.00000000  0.87614573  1
  O  O17  1  0.00000000  0.28697710  0.04751860  1
  O  O18  1  0.00000000  0.71302290  0.04751860  1
  O  O19  1  0.00000000  0.28683963  0.20214275  1
  O  O20  1  0.00000000  0.28683963  0.29785725  1
  O  O21  1  0.00000000  0.71316037  0.29785725  1
  O  O22  1  0.00000000  0.28697710  0.45248140  1
  O  O23  1  0.00000000  0.28760332  0.54832266  1
  O  O24  1  0.00000000  0.71239668  0.54832266  1
  O  O25  1  0.00000000  0.30507962  0.70510802  1
  O  O26  1  0.00000000  0.30507962  0.79489198  1
  O  O27  1  0.00000000  0.69492038  0.70510802  1
  O  O28  1  0.00000000  0.69492038  0.79489198  1
  O  O29  1  0.18818837  0.00000000  0.07898894  1
  O  O30  1  0.18809491  0.00000000  0.32919424  1
  O  O31  1  0.18809491  0.00000000  0.17080576  1
  O  O32  1  0.18850856  0.00000000  0.57956840  1
  O  O33  1  0.18237126  0.00000000  0.67291383  1
  O  O34  1  0.18818837  0.00000000  0.42101106  1
  O  O35  1  0.18237126  0.00000000  0.82708617  1
  O  O36  1  0.18850856  0.00000000  0.92043160  1
  O  O37  1  0.18867309  0.31588829  0.12491499  1
  O  O38  1  0.18867309  0.68411171  0.12491499  1
  O  O39  1  0.18867309  0.68411171  0.37508501  1
  O  O40  1  0.18867309  0.31588829  0.37508501  1
  O  O41  1  0.18830950  0.31290296  0.62584083  1
  O  O42  1  0.18830950  0.68709704  0.62584083  1
  O  O43  1  0.18830950  0.31290296  0.87415917  1
  O  O44  1  0.18830950  0.68709704  0.87415917  1
  O  O45  1  0.30407768  0.50000000  0.19799314  1
  O  O46  1  0.30456001  0.50000000  0.44835844  1
  O  O47  1  0.30592181  0.50000000  0.69846390  1
  O  O48  1  0.30372448  0.50000000  0.94703882  1
  O  O49  1  0.30456001  0.50000000  0.05164156  1
  O  O50  1  0.30407768  0.50000000  0.30200686  1
  O  O51  1  0.30372448  0.50000000  0.55296118  1
  O  O52  1  0.30592181  0.50000000  0.80153610  1
  O  O53  1  0.30989124  0.18347477  0.99978630  1
  O  O54  1  0.31067850  0.18312966  0.25000000  1
  O  O55  1  0.30989124  0.81652523  0.99978630  1
  O  O56  1  0.30989124  0.18347477  0.50021370  1
  O  O57  1  0.31067850  0.81687034  0.25000000  1
  O  O58  1  0.30970248  0.18496252  0.75000000  1
  O  O59  1  0.30989124  0.81652523  0.50021370  1
  O  O60  1  0.30970248  0.81503748  0.75000000  1
  O  O61  1  0.50000000  0.81146925  0.32957210  1
  O  O62  1  0.50000000  0.18853075  0.17042790  1
  O  O63  1  0.50000000  0.81169935  0.07914633  1
  O  O64  1  0.50000000  0.18830065  0.42085367  1
  O  O65  1  0.50000000  0.81136309  0.82941756  1
  O  O66  1  0.50000000  0.18863691  0.67058244  1
  O  O67  1  0.50000000  0.80982396  0.57945407  1
  O  O68  1  0.50000000  0.19017604  0.92054593  1
  O  O69  1  0.50000000  0.18830065  0.07914633  1
  O  O70  1  0.50000000  0.18853075  0.32957210  1
  O  O71  1  0.50000000  0.19017604  0.57945407  1
  O  O72  1  0.50000000  0.18863691  0.82941756  1
  O  O73  1  0.50000000  0.81169935  0.42085367  1
  O  O74  1  0.50000000  0.81146925  0.17042790  1
  O  O75  1  0.50000000  0.80982396  0.92054593  1
  O  O76  1  0.50000000  0.81136309  0.67058244  1
  O  O77  1  0.69010876  0.18347477  0.99978630  1
  O  O78  1  0.69010876  0.81652523  0.99978630  1
  O  O79  1  0.68932150  0.18312966  0.25000000  1
  O  O80  1  0.69010876  0.18347477  0.50021370  1
  O  O81  1  0.68932150  0.81687034  0.25000000  1
  O  O82  1  0.69010876  0.81652523  0.50021370  1
  O  O83  1  0.69029752  0.18496252  0.75000000  1
  O  O84  1  0.69029752  0.81503748  0.75000000  1
  O  O85  1  0.69543999  0.50000000  0.05164156  1
  O  O86  1  0.69592232  0.50000000  0.30200686  1
  O  O87  1  0.69407819  0.50000000  0.80153610  1
  O  O88  1  0.69627552  0.50000000  0.55296118  1
  O  O89  1  0.69592232  0.50000000  0.19799314  1
  O  O90  1  0.69543999  0.50000000  0.44835844  1
  O  O91  1  0.69407819  0.50000000  0.69846390  1
  O  O92  1  0.69627552  0.50000000  0.94703882  1
  O  O93  1  0.81132691  0.31588829  0.12491499  1
  O  O94  1  0.81132691  0.68411171  0.12491499  1
  O  O95  1  0.81132691  0.31588829  0.37508501  1
  O  O96  1  0.81169050  0.31290296  0.62584083  1
  O  O97  1  0.81132691  0.68411171  0.37508501  1
  O  O98  1  0.81169050  0.68709704  0.62584083  1
  O  O99  1  0.81169050  0.31290296  0.87415917  1
  O  O100  1  0.81169050  0.68709704  0.87415917  1
  O  O101  1  0.81181163  0.00000000  0.07898894  1
  O  O102  1  0.81190509  0.00000000  0.17080576  1
  O  O103  1  0.81190509  0.00000000  0.32919424  1
  O  O104  1  0.81149144  0.00000000  0.57956840  1
  O  O105  1  0.81762874  0.00000000  0.67291383  1
  O  O106  1  0.81762874  0.00000000  0.82708617  1
  O  O107  1  0.81181163  0.00000000  0.42101106  1
  O  O108  1  0.81149144  0.00000000  0.92043160  1
  O  O109  1  0.00000000  0.71316037  0.20214275  1
  O  O110  1  0.00000000  0.71302290  0.45248140  1
  O  O111  1  0.00000000  0.28760332  0.95167734  1
  O  O112  1  0.00000000  0.71239668  0.95167734  1
  Ta  Ta113  1  0.24780320  0.74536860  0.18847730  1
  Ta  Ta114  1  0.24696573  0.74442024  0.43781074  1
  Ta  Ta115  1  0.25125478  0.74615215  0.68757319  1
  Ta  Ta116  1  0.24822690  0.74606122  0.93905509  1
  Ta  Ta117  1  0.24696573  0.74442024  0.06218926  1
  Ta  Ta118  1  0.24780320  0.25463140  0.18847730  1
  Ta  Ta119  1  0.24780320  0.74536860  0.31152270  1
  Ta  Ta120  1  0.24696573  0.25557976  0.43781074  1
  Ta  Ta121  1  0.24822690  0.74606122  0.56094491  1
  Ta  Ta122  1  0.25125478  0.25384785  0.68757319  1
  Ta  Ta123  1  0.24822690  0.25393878  0.93905509  1
  Ta  Ta124  1  0.25125478  0.74615215  0.81242681  1
  Ta  Ta125  1  0.24696573  0.25557976  0.06218926  1
  Ta  Ta126  1  0.24780320  0.25463140  0.31152270  1
  Ta  Ta127  1  0.24822690  0.25393878  0.56094491  1
  Ta  Ta128  1  0.25125478  0.25384785  0.81242681  1
  Ta  Ta129  1  0.75219680  0.74536860  0.18847730  1
  Ta  Ta130  1  0.75303427  0.74442024  0.43781074  1
  Ta  Ta131  1  0.74874522  0.74615215  0.68757319  1
  Ta  Ta132  1  0.75177310  0.74606122  0.93905509  1
  Ta  Ta133  1  0.75219680  0.25463140  0.18847730  1
  Ta  Ta134  1  0.75303427  0.74442024  0.06218926  1
  Ta  Ta135  1  0.75303427  0.25557976  0.43781074  1
  Ta  Ta136  1  0.74874522  0.25384785  0.68757319  1
  Ta  Ta137  1  0.75219680  0.74536860  0.31152270  1
  Ta  Ta138  1  0.75177310  0.74606122  0.56094491  1
  Ta  Ta139  1  0.74874522  0.74615215  0.81242681  1
  Ta  Ta140  1  0.75177310  0.25393878  0.93905509  1
  Ta  Ta141  1  0.75303427  0.25557976  0.06218926  1
  Ta  Ta142  1  0.75219680  0.25463140  0.31152270  1
  Ta  Ta143  1  0.75177310  0.25393878  0.56094491  1
  Ta  Ta144  1  0.74874522  0.25384785  0.81242681  1
