# generated using pymatgen
data_Li2Mo(PO3)5
_symmetry_space_group_name_H-M   'P 1'
_cell_length_a   5.35725534
_cell_length_b   13.95404733
_cell_length_c   9.11084302
_cell_angle_alpha   90.00000000
_cell_angle_beta   100.18123591
_cell_angle_gamma   90.00000000
_symmetry_Int_Tables_number   1
_chemical_formula_structural   Li2Mo(PO3)5
_chemical_formula_sum   'Li4 Mo2 P10 O30'
_cell_volume   670.35999923
_cell_formula_units_Z   2
loop_
 _symmetry_equiv_pos_site_id
 _symmetry_equiv_pos_as_xyz
  1  'x, y, z'
loop_
 _atom_site_type_symbol
 _atom_site_label
 _atom_site_symmetry_multiplicity
 _atom_site_fract_x
 _atom_site_fract_y
 _atom_site_fract_z
 _atom_site_occupancy
  Li  Li0  1  0.07697402  0.14254063  0.07056040  1
  Li  Li1  1  0.07697402  0.35745937  0.07056040  1
  Li  Li2  1  0.92302598  0.64254063  0.92943960  1
  Li  Li3  1  0.92302598  0.85746037  0.92943960  1
  O  O4  1  0.45362757  0.00924130  0.72844660  1
  O  O5  1  0.80354177  0.55061915  0.06441072  1
  O  O6  1  0.19645823  0.05062015  0.93558928  1
  O  O7  1  0.19645823  0.44938085  0.93558928  1
  O  O8  1  0.17801960  0.75000000  0.92198965  1
  O  O9  1  0.13488317  0.14706313  0.69734473  1
  O  O10  1  0.13488317  0.35293687  0.69734473  1
  O  O11  1  0.05444257  0.25000000  0.47087383  1
  O  O12  1  0.15266905  0.07924059  0.43670801  1
  O  O13  1  0.15266905  0.42075941  0.43670801  1
  O  O14  1  0.27298927  0.62787654  0.48773568  1
  O  O15  1  0.27298927  0.87212346  0.48773568  1
  O  O16  1  0.80354177  0.94938085  0.06441072  1
  O  O17  1  0.45362757  0.49075970  0.72844660  1
  O  O18  1  0.54850774  0.16029528  0.87407814  1
  O  O19  1  0.54850774  0.33970472  0.87407814  1
  O  O20  1  0.32914465  0.25000000  0.06237822  1
  O  O21  1  0.67085535  0.75000000  0.93762178  1
  O  O22  1  0.45149126  0.66029528  0.12592186  1
  O  O23  1  0.82198140  0.25000000  0.07801035  1
  O  O24  1  0.54637043  0.50924130  0.27155340  1
  O  O25  1  0.54637043  0.99075870  0.27155340  1
  O  O26  1  0.72701173  0.12787654  0.51226432  1
  O  O27  1  0.72701173  0.37212346  0.51226432  1
  O  O28  1  0.84733195  0.57924059  0.56329199  1
  O  O29  1  0.84733195  0.92075941  0.56329199  1
  O  O30  1  0.94555743  0.75000000  0.52912617  1
  O  O31  1  0.86511783  0.64706413  0.30265527  1
  O  O32  1  0.86511783  0.85293687  0.30265527  1
  O  O33  1  0.45149126  0.83970472  0.12592186  1
  P  P34  1  0.99245616  0.85647521  0.47474431  1
  P  P35  1  0.99245616  0.64352379  0.47474431  1
  P  P36  1  0.00754384  0.14352379  0.52525569  1
  P  P37  1  0.00754384  0.35647621  0.52525569  1
  P  P38  1  0.33080351  0.08235722  0.81461411  1
  P  P39  1  0.33080351  0.41764178  0.81461411  1
  P  P40  1  0.66919649  0.91764278  0.18538589  1
  P  P41  1  0.55812476  0.25000000  0.98815537  1
  P  P42  1  0.66919649  0.58235722  0.18538589  1
  P  P43  1  0.44187424  0.75000000  0.01184463  1
  Mo  Mo44  1  0.50000000  0.00000000  0.50000000  1
  Mo  Mo45  1  0.50000000  0.50000000  0.50000000  1
