# generated using pymatgen
data_Li2NiP2O7
_symmetry_space_group_name_H-M   'P 1'
_cell_length_a   8.07775995
_cell_length_b   13.34650731
_cell_length_c   5.04894766
_cell_angle_alpha   90.00000000
_cell_angle_beta   92.50510654
_cell_angle_gamma   90.00000000
_symmetry_Int_Tables_number   1
_chemical_formula_structural   Li2NiP2O7
_chemical_formula_sum   'Li8 Ni4 P8 O28'
_cell_volume   543.80625626
_cell_formula_units_Z   4
loop_
 _symmetry_equiv_pos_site_id
 _symmetry_equiv_pos_as_xyz
  1  'x, y, z'
loop_
 _atom_site_type_symbol
 _atom_site_label
 _atom_site_symmetry_multiplicity
 _atom_site_fract_x
 _atom_site_fract_y
 _atom_site_fract_z
 _atom_site_occupancy
  Li  Li0  1  0.13323508  0.89196470  0.16975945  1
  Li  Li1  1  0.16485758  0.30081690  0.74162257  1
  Li  Li2  1  0.33514142  0.80081690  0.75837643  1
  Li  Li3  1  0.36676392  0.39196470  0.33024055  1
  Li  Li4  1  0.63323508  0.60803530  0.66975845  1
  Li  Li5  1  0.66485858  0.19918310  0.24162257  1
  Li  Li6  1  0.83514242  0.69918310  0.25837643  1
  Li  Li7  1  0.86676492  0.10803530  0.83024055  1
  O  O8  1  0.17987004  0.03528618  0.39872077  1
  O  O9  1  0.92356959  0.43834352  0.22360965  1
  O  O10  1  0.86960048  0.89167179  0.14040322  1
  O  O11  1  0.84109880  0.26890439  0.04027256  1
  O  O12  1  0.04960847  0.71210150  0.47756732  1
  O  O13  1  0.07643141  0.56165648  0.77639135  1
  O  O14  1  0.13039952  0.10832821  0.85959778  1
  O  O15  1  0.15890120  0.73109661  0.95972744  1
  O  O16  1  0.14474533  0.30734558  0.14168698  1
  O  O17  1  0.95039053  0.28789950  0.52243368  1
  O  O18  1  0.22003526  0.92563118  0.81674857  1
  O  O19  1  0.27996474  0.42563118  0.68325043  1
  O  O20  1  0.32012996  0.53528618  0.10127923  1
  O  O21  1  0.34109880  0.23109561  0.54027356  1
  O  O22  1  0.35525467  0.80734558  0.35831202  1
  O  O23  1  0.36960148  0.60832821  0.64040322  1
  O  O24  1  0.85525467  0.69265442  0.85831202  1
  O  O25  1  0.45039153  0.21210050  0.02243368  1
  O  O26  1  0.54960947  0.78789950  0.97756732  1
  O  O27  1  0.57643041  0.93834352  0.27639135  1
  O  O28  1  0.63039952  0.39167179  0.35959778  1
  O  O29  1  0.64474533  0.19265442  0.64168698  1
  O  O30  1  0.65890220  0.76890339  0.45972744  1
  O  O31  1  0.67987004  0.46471282  0.89872177  1
  O  O32  1  0.72003426  0.57436882  0.31674857  1
  O  O33  1  0.77996474  0.07436882  0.18325043  1
  O  O34  1  0.82012996  0.96471382  0.60127923  1
  O  O35  1  0.42356859  0.06165548  0.72360965  1
  P  P36  1  0.96680849  0.32075545  0.23254422  1
  P  P37  1  0.77503626  0.97086852  0.30090573  1
  P  P38  1  0.72496374  0.47086952  0.19909427  1
  P  P39  1  0.53319251  0.82075645  0.26745478  1
  P  P40  1  0.03319151  0.67924355  0.76745478  1
  P  P41  1  0.22496374  0.02913048  0.69909527  1
  P  P42  1  0.46680849  0.17924455  0.73254422  1
  P  P43  1  0.27503526  0.52913148  0.80090373  1
  Ni  Ni44  1  0.24070908  0.16300915  0.20599811  1
  Ni  Ni45  1  0.25929092  0.66301015  0.29400289  1
  Ni  Ni46  1  0.74070908  0.33698985  0.70599811  1
  Ni  Ni47  1  0.75929092  0.83698985  0.79400089  1
