# generated using pymatgen
data_BaBiO3
_symmetry_space_group_name_H-M   'P 1'
_cell_length_a   6.26232858
_cell_length_b   6.26226731
_cell_length_c   6.26227114
_cell_angle_alpha   60.00000867
_cell_angle_beta   60.00030382
_cell_angle_gamma   60.00021674
_symmetry_Int_Tables_number   1
_chemical_formula_structural   BaBiO3
_chemical_formula_sum   'Ba2 Bi2 O6'
_cell_volume   173.65450718
_cell_formula_units_Z   2
loop_
 _symmetry_equiv_pos_site_id
 _symmetry_equiv_pos_as_xyz
  1  'x, y, z'
loop_
 _atom_site_type_symbol
 _atom_site_label
 _atom_site_symmetry_multiplicity
 _atom_site_fract_x
 _atom_site_fract_y
 _atom_site_fract_z
 _atom_site_occupancy
  O  O0  1  0.25444191  0.74554160  0.25448099  1
  O  O1  1  0.25444516  0.25447787  0.74553867  1
  O  O2  1  0.74555855  0.25445831  0.25446444  1
  Ba  Ba3  1  0.75000538  0.74999839  0.74999873  1
  O  O4  1  0.74555546  0.74552222  0.25446098  1
  Ba  Ba5  1  0.24999313  0.25000152  0.25000195  1
  O  O6  1  0.74555850  0.25445804  0.74551888  1
  O  O7  1  0.25444182  0.74554192  0.74553545  1
  Bi  Bi8  1  0.50000011  0.49999988  0.50000006  1
  Bi  Bi9  1  -0.00000003  0.00000025  0.99999985  1
