# generated using pymatgen
data_NaYbGeO4
_symmetry_space_group_name_H-M   'P 1'
_cell_length_a   5.42041698
_cell_length_b   6.54027173
_cell_length_c   11.58707291
_cell_angle_alpha   90.00000000
_cell_angle_beta   90.00000000
_cell_angle_gamma   90.00000000
_symmetry_Int_Tables_number   1
_chemical_formula_structural   NaYbGeO4
_chemical_formula_sum   'Na4 Yb4 Ge4 O16'
_cell_volume   410.77332103
_cell_formula_units_Z   4
loop_
 _symmetry_equiv_pos_site_id
 _symmetry_equiv_pos_as_xyz
  1  'x, y, z'
loop_
 _atom_site_type_symbol
 _atom_site_label
 _atom_site_symmetry_multiplicity
 _atom_site_fract_x
 _atom_site_fract_y
 _atom_site_fract_z
 _atom_site_occupancy
  Yb  Yb0  1  0.49545631  0.25000000  0.72581743  1
  Yb  Yb1  1  0.00454369  0.25000000  0.22581743  1
  Yb  Yb2  1  0.50454369  0.75000000  0.27418257  1
  Yb  Yb3  1  0.99545631  0.75000000  0.77418257  1
  Na  Na4  1  0.00000000  0.50000000  0.50000000  1
  Na  Na5  1  0.00000000  0.00000000  0.50000000  1
  Na  Na6  1  0.50000000  0.50000000  0.00000000  1
  Na  Na7  1  0.50000000  0.00000000  0.00000000  1
  Ge  Ge8  1  0.05164617  0.25000000  0.89955739  1
  Ge  Ge9  1  0.44835383  0.25000000  0.39955739  1
  Ge  Ge10  1  0.94835383  0.75000000  0.10044261  1
  Ge  Ge11  1  0.55164617  0.75000000  0.60044261  1
  O  O12  1  0.22962628  0.75000000  0.60761245  1
  O  O13  1  0.79547728  0.95949575  0.16932160  1
  O  O14  1  0.29547728  0.45949575  0.33067840  1
  O  O15  1  0.67792183  0.75000000  0.45786928  1
  O  O16  1  0.29547728  0.04050425  0.33067840  1
  O  O17  1  0.79547728  0.54050425  0.16932160  1
  O  O18  1  0.32207817  0.25000000  0.54213072  1
  O  O19  1  0.27037372  0.75000000  0.10761245  1
  O  O20  1  0.17792183  0.25000000  0.04213072  1
  O  O21  1  0.70452272  0.54050425  0.66932160  1
  O  O22  1  0.70452272  0.95949575  0.66932160  1
  O  O23  1  0.20452272  0.04050425  0.83067840  1
  O  O24  1  0.82207817  0.75000000  0.95786928  1
  O  O25  1  0.20452272  0.45949575  0.83067840  1
  O  O26  1  0.77037372  0.25000000  0.39238755  1
  O  O27  1  0.72962628  0.25000000  0.89238755  1
