# generated using pymatgen
data_RbClO4
_symmetry_space_group_name_H-M   'P 1'
_cell_length_a   5.50172785
_cell_length_b   5.49651011
_cell_length_c   5.50172696
_cell_angle_alpha   59.96859219
_cell_angle_beta   59.99999909
_cell_angle_gamma   59.96858878
_symmetry_Int_Tables_number   1
_chemical_formula_structural   RbClO4
_chemical_formula_sum   'Rb1 Cl1 O4'
_cell_volume   117.58822107
_cell_formula_units_Z   1
loop_
 _symmetry_equiv_pos_site_id
 _symmetry_equiv_pos_as_xyz
  1  'x, y, z'
loop_
 _atom_site_type_symbol
 _atom_site_label
 _atom_site_symmetry_multiplicity
 _atom_site_fract_x
 _atom_site_fract_y
 _atom_site_fract_z
 _atom_site_occupancy
  O  O0  1  0.67376291  0.10886407  0.10868651  1
  O  O1  1  0.10868651  0.10886407  0.67376291  1
  O  O2  1  0.10868651  0.10886407  0.10868651  1
  Rb  Rb3  1  0.50010483  0.49968551  0.50010483  1
  O  O4  1  0.10886007  0.67341980  0.10886007  1
  Cl  Cl5  1  0.99989918  0.00030247  0.99989918  1
