# generated using pymatgen
data_La2Si2O7
_symmetry_space_group_name_H-M   'P 1'
_cell_length_a   7.41487528
_cell_length_b   10.21394587
_cell_length_c   23.60618962
_cell_angle_alpha   90.00000000
_cell_angle_beta   90.00000000
_cell_angle_gamma   90.65030563
_symmetry_Int_Tables_number   1
_chemical_formula_structural   La2Si2O7
_chemical_formula_sum   'La24 Si24 O84'
_cell_volume   1787.70279865
_cell_formula_units_Z   12
loop_
 _symmetry_equiv_pos_site_id
 _symmetry_equiv_pos_as_xyz
  1  'x, y, z'
loop_
 _atom_site_type_symbol
 _atom_site_label
 _atom_site_symmetry_multiplicity
 _atom_site_fract_x
 _atom_site_fract_y
 _atom_site_fract_z
 _atom_site_occupancy
  La  La0  1  0.91013013  0.26415231  0.31583968  1
  La  La1  1  0.40520303  0.73917032  0.18418261  1
  La  La2  1  0.14948150  0.36096106  0.15794209  1
  La  La3  1  0.08986987  0.73584769  0.68416032  1
  La  La4  1  0.08986987  0.23584769  0.81583968  1
  La  La5  1  0.91013013  0.76415231  0.18416032  1
  La  La6  1  0.64313627  0.50727719  0.07475950  1
  La  La7  1  0.59479697  0.26082968  0.81581739  1
  La  La8  1  0.64313627  0.00727719  0.42524050  1
  La  La9  1  0.32781787  0.36435320  0.66557152  1
  La  La10  1  0.40520303  0.23917032  0.31581739  1
  La  La11  1  0.32781787  0.86435320  0.83442848  1
  La  La12  1  0.13376622  0.00800345  0.07685165  1
  La  La13  1  0.13376622  0.50800345  0.42314835  1
  La  La14  1  0.14948150  0.86096106  0.34205791  1
  La  La15  1  0.35686373  0.99272281  0.57475950  1
  La  La16  1  0.86623378  0.49199655  0.57685165  1
  La  La17  1  0.85051850  0.13903894  0.65794209  1
  La  La18  1  0.59479697  0.76082968  0.68418261  1
  La  La19  1  0.85051850  0.63903894  0.84205791  1
  La  La20  1  0.35686373  0.49272281  0.92524050  1
  La  La21  1  0.86623378  0.99199655  0.92314835  1
  La  La22  1  0.67218213  0.13564680  0.16557152  1
  La  La23  1  0.67218213  0.63564680  0.33442848  1
  Si  Si24  1  0.85135862  0.87273758  0.57988297  1
  Si  Si25  1  0.80724057  0.44227050  0.72417219  1
  Si  Si26  1  0.58182402  0.76622313  0.96692587  1
  Si  Si27  1  0.41817598  0.73377687  0.46692587  1
  Si  Si28  1  0.41817598  0.23377687  0.03307413  1
  Si  Si29  1  0.15902660  0.26124445  0.53505404  1
  Si  Si30  1  0.69227980  0.93529419  0.28031961  1
  Si  Si31  1  0.14864138  0.62726242  0.07988297  1
  Si  Si32  1  0.69227980  0.43529419  0.21968039  1
  Si  Si33  1  0.14864138  0.12726242  0.42011703  1
  Si  Si34  1  0.64128311  0.38280746  0.41699717  1
  Si  Si35  1  0.35871689  0.11719254  0.91699717  1
  Si  Si36  1  0.35871689  0.61719254  0.58300283  1
  Si  Si37  1  0.30772020  0.06470581  0.71968039  1
  Si  Si38  1  0.58182402  0.26622313  0.53307413  1
  Si  Si39  1  0.15902660  0.76124445  0.96494596  1
  Si  Si40  1  0.84097340  0.73875555  0.46494596  1
  Si  Si41  1  0.85135862  0.37273758  0.92011703  1
  Si  Si42  1  0.80724057  0.94227050  0.77582781  1
  Si  Si43  1  0.64128311  0.88280746  0.08300283  1
  Si  Si44  1  0.19275943  0.05772950  0.22417219  1
  Si  Si45  1  0.19275943  0.55772950  0.27582781  1
  Si  Si46  1  0.84097340  0.23875555  0.03505404  1
  Si  Si47  1  0.30772020  0.56470581  0.78031961  1
  O  O48  1  0.20809522  0.89600071  0.22460086  1
  O  O49  1  0.86714179  0.90125995  0.71059751  1
  O  O50  1  0.57482302  0.11995458  0.50813749  1
  O  O51  1  0.38163786  0.14362861  0.21548538  1
  O  O52  1  0.34762889  0.12236165  0.98719530  1
  O  O53  1  0.95209053  0.39805988  0.67586162  1
  O  O54  1  0.36955916  0.10037511  0.78528753  1
  O  O55  1  0.71145909  0.09681526  0.28086936  1
  O  O56  1  0.16822565  0.13434575  0.49095459  1
  O  O57  1  0.67667747  0.94955568  0.60620290  1
  O  O58  1  0.04790947  0.10194012  0.17586162  1
  O  O59  1  0.82038569  0.95740297  0.10889621  1
  O  O60  1  0.13285821  0.09874005  0.28940249  1
  O  O61  1  0.61836214  0.85637139  0.78451462  1
  O  O62  1  0.71145909  0.59681526  0.21913064  1
  O  O63  1  0.56316011  0.88415814  0.33247367  1
  O  O64  1  0.37221407  0.80347419  0.94896921  1
  O  O65  1  0.90612097  0.28156786  0.09748312  1
  O  O66  1  0.17961431  0.04259703  0.89110379  1
  O  O67  1  0.35170764  0.76744274  0.60972696  1
  O  O68  1  0.12390482  0.15495702  0.71512019  1
  O  O69  1  0.94604839  0.62088104  0.49385338  1
  O  O70  1  0.84779060  0.72533291  0.60932527  1
  O  O71  1  0.03717757  0.44549783  0.89989479  1
  O  O72  1  0.05395161  0.37911896  0.50614662  1
  O  O73  1  0.09387903  0.71843214  0.90251688  1
  O  O74  1  0.62778593  0.19652581  0.05103079  1
  O  O75  1  0.96282243  0.05450217  0.39989479  1
  O  O76  1  0.90612097  0.78156786  0.40251688  1
  O  O77  1  0.96282243  0.55450217  0.10010521  1
  O  O78  1  0.61836214  0.35637139  0.71548538  1
  O  O79  1  0.17961431  0.54259703  0.60889621  1
  O  O80  1  0.70403476  0.78227883  0.91077525  1
  O  O81  1  0.28854091  0.90318474  0.71913064  1
  O  O82  1  0.09387903  0.21843214  0.59748312  1
  O  O83  1  0.62778593  0.69652581  0.44896921  1
  O  O84  1  0.95209053  0.89805988  0.82413838  1
  O  O85  1  0.67667747  0.44955568  0.89379710  1
  O  O86  1  0.15220940  0.77466709  0.10932527  1
  O  O87  1  0.20809522  0.39600071  0.27539914  1
  O  O88  1  0.63044084  0.39962489  0.28528753  1
  O  O89  1  0.53829843  0.54512841  0.60644214  1
  O  O90  1  0.70403476  0.28227883  0.58922475  1
  O  O91  1  0.87609518  0.84504298  0.28487981  1
  O  O92  1  0.42517698  0.38004542  0.00813749  1
  O  O93  1  0.56316011  0.38415814  0.16752633  1
  O  O94  1  0.63044084  0.89962489  0.21471247  1
  O  O95  1  0.46170157  0.95487159  0.10644214  1
  O  O96  1  0.12390482  0.65495702  0.78487981  1
  O  O97  1  0.53829843  0.04512841  0.89355786  1
  O  O98  1  0.03717757  0.94549783  0.60010521  1
  O  O99  1  0.37221407  0.30347419  0.55103079  1
  O  O100  1  0.42517698  0.88004542  0.49186251  1
  O  O101  1  0.32332253  0.05044432  0.39379710  1
  O  O102  1  0.34762889  0.62236165  0.51280470  1
  O  O103  1  0.29596524  0.71772117  0.41077525  1
  O  O104  1  0.38163786  0.64362861  0.28451462  1
  O  O105  1  0.79190478  0.60399929  0.72460086  1
  O  O106  1  0.64829236  0.23255726  0.39027304  1
  O  O107  1  0.46170157  0.45487159  0.39355786  1
  O  O108  1  0.36955916  0.60037511  0.71471247  1
  O  O109  1  0.86714179  0.40125995  0.78940249  1
  O  O110  1  0.64829236  0.73255726  0.10972696  1
  O  O111  1  0.43683989  0.61584186  0.83247367  1
  O  O112  1  0.35170764  0.26744274  0.89027304  1
  O  O113  1  0.29596524  0.21772117  0.08922475  1
  O  O114  1  0.05395161  0.87911896  0.99385338  1
  O  O115  1  0.57482302  0.61995458  0.99186251  1
  O  O116  1  0.16822565  0.63434575  0.00904541  1
  O  O117  1  0.79190478  0.10399929  0.77539914  1
  O  O118  1  0.15220940  0.27466709  0.39067473  1
  O  O119  1  0.83177435  0.36565425  0.99095459  1
  O  O120  1  0.94604839  0.12088104  0.00614662  1
  O  O121  1  0.32332253  0.55044432  0.10620290  1
  O  O122  1  0.65237111  0.37763835  0.48719530  1
  O  O123  1  0.13285821  0.59874005  0.21059751  1
  O  O124  1  0.83177435  0.86565425  0.50904541  1
  O  O125  1  0.65237111  0.87763835  0.01280470  1
  O  O126  1  0.84779060  0.22533291  0.89067473  1
  O  O127  1  0.43683989  0.11584186  0.66752633  1
  O  O128  1  0.87609518  0.34504298  0.21512019  1
  O  O129  1  0.04790947  0.60194012  0.32413838  1
  O  O130  1  0.28854091  0.40318474  0.78086936  1
  O  O131  1  0.82038569  0.45740297  0.39110379  1
