# generated using pymatgen
data_ZnGa3N3O
_symmetry_space_group_name_H-M   'P 1'
_cell_length_a   6.47360804
_cell_length_b   6.47408966
_cell_length_c   10.52069956
_cell_angle_alpha   89.90404334
_cell_angle_beta   90.03163050
_cell_angle_gamma   120.00012138
_symmetry_Int_Tables_number   1
_chemical_formula_structural   ZnGa3N3O
_chemical_formula_sum   'Zn4 Ga12 N12 O4'
_cell_volume   381.85562824
_cell_formula_units_Z   4
loop_
 _symmetry_equiv_pos_site_id
 _symmetry_equiv_pos_as_xyz
  1  'x, y, z'
loop_
 _atom_site_type_symbol
 _atom_site_label
 _atom_site_symmetry_multiplicity
 _atom_site_fract_x
 _atom_site_fract_y
 _atom_site_fract_z
 _atom_site_occupancy
  Zn  Zn0  1  0.83837780  0.66153283  0.74578682  1
  Zn  Zn1  1  0.66066071  0.32192987  0.99557262  1
  Zn  Zn2  1  0.66578451  0.83287262  0.49418830  1
  Zn  Zn3  1  0.32210811  0.16134077  0.24312583  1
  Ga  Ga4  1  0.83542384  0.17400005  0.75214329  1
  Ga  Ga5  1  0.32553621  0.66495314  0.75036943  1
  Ga  Ga6  1  0.33327529  0.16475946  0.75035637  1
  Ga  Ga7  1  0.16545122  0.33075325  0.00037415  1
  Ga  Ga8  1  0.66440497  0.83989453  0.00054606  1
  Ga  Ga9  1  0.16084566  0.34043503  0.50027794  1
  Ga  Ga10  1  0.84048514  0.67502679  0.25215447  1
  Ga  Ga11  1  0.67861828  0.33838496  0.50239369  1
  Ga  Ga12  1  0.32928341  0.66369546  0.25036260  1
  Ga  Ga13  1  0.84134198  0.16569285  0.25190839  1
  Ga  Ga14  1  0.17552855  0.83991785  0.00189867  1
  Ga  Ga15  1  0.16171589  0.82054918  0.50210927  1
  N  N16  1  0.66047352  0.32286966  0.68680749  1
  N  N17  1  0.17657037  0.83909654  0.68600986  1
  N  N18  1  0.83913147  0.16230631  0.93609419  1
  N  N19  1  0.83679676  0.17364353  0.43624258  1
  N  N20  1  0.32641593  0.66304782  0.43619234  1
  N  N21  1  0.83690959  0.66264673  0.43699721  1
  N  N22  1  0.16242359  0.82311852  0.18586358  1
  N  N23  1  0.16731104  0.33325328  0.68672839  1
  N  N24  1  0.32319616  0.16242222  0.93657808  1
  N  N25  1  0.33334852  0.66581695  0.93680681  1
  N  N26  1  0.66567047  0.83269683  0.18768521  1
  N  N27  1  0.16269381  0.33902097  0.18589566  1
  O  O28  1  0.33341323  0.16745155  0.44634737  1
  O  O29  1  0.66033233  0.83853157  0.69705769  1
  O  O30  1  0.67815835  0.33953411  0.19544772  1
  O  O31  1  0.83831328  0.67880477  0.94566192  1
