# generated using pymatgen
data_V2ZnO6
_symmetry_space_group_name_H-M   'P 1'
_cell_length_a   3.55242939
_cell_length_b   5.06438993
_cell_length_c   6.79462762
_cell_angle_alpha   107.30291670
_cell_angle_beta   90.00040109
_cell_angle_gamma   110.53396315
_symmetry_Int_Tables_number   1
_chemical_formula_structural   V2ZnO6
_chemical_formula_sum   'V2 Zn1 O6'
_cell_volume   108.54755603
_cell_formula_units_Z   1
loop_
 _symmetry_equiv_pos_site_id
 _symmetry_equiv_pos_as_xyz
  1  'x, y, z'
loop_
 _atom_site_type_symbol
 _atom_site_label
 _atom_site_symmetry_multiplicity
 _atom_site_fract_x
 _atom_site_fract_y
 _atom_site_fract_z
 _atom_site_occupancy
  Zn  Zn0  1  0.00000000  0.00000000  0.00000000  1
  V  V1  1  0.20221904  0.40442546  0.66466502  1
  V  V2  1  0.79778096  0.59557454  0.33533498  1
  O  O3  1  0.04526723  0.09052154  0.73574514  1
  O  O4  1  0.95473277  0.90947846  0.26425486  1
  O  O5  1  0.34873477  0.69749840  0.88616611  1
  O  O6  1  0.65126523  0.30250160  0.11383389  1
  O  O7  1  0.30168176  0.60334682  0.42913059  1
  O  O8  1  0.69831824  0.39665318  0.57086941  1
