# generated using pymatgen
data_Y2SiO5
_symmetry_space_group_name_H-M   'P 1'
_cell_length_a   6.74924729
_cell_length_b   6.95507015
_cell_length_c   9.14394627
_cell_angle_alpha   90.00000000
_cell_angle_beta   106.37794193
_cell_angle_gamma   90.00000000
_symmetry_Int_Tables_number   1
_chemical_formula_structural   Y2SiO5
_chemical_formula_sum   'Y8 Si4 O20'
_cell_volume   411.81339244
_cell_formula_units_Z   4
loop_
 _symmetry_equiv_pos_site_id
 _symmetry_equiv_pos_as_xyz
  1  'x, y, z'
loop_
 _atom_site_type_symbol
 _atom_site_label
 _atom_site_symmetry_multiplicity
 _atom_site_fract_x
 _atom_site_fract_y
 _atom_site_fract_z
 _atom_site_occupancy
  Y  Y0  1  0.06502776  0.64083975  0.87723446  1
  Y  Y1  1  0.93497224  0.35916025  0.12276554  1
  Y  Y2  1  0.43497224  0.14083975  0.12276554  1
  Y  Y3  1  0.56502776  0.85916025  0.87723446  1
  Y  Y4  1  0.26812362  0.12544336  0.47285808  1
  Y  Y5  1  0.23187638  0.62544336  0.52714192  1
  Y  Y6  1  0.76812362  0.37455664  0.47285808  1
  Y  Y7  1  0.73187638  0.87455664  0.52714192  1
  Si  Si8  1  0.52904255  0.41222718  0.79942051  1
  Si  Si9  1  0.97095745  0.91222718  0.20057949  1
  Si  Si10  1  0.47095745  0.58777282  0.20057949  1
  Si  Si11  1  0.02904255  0.08777282  0.79942051  1
  O  O12  1  0.44124664  0.88104923  0.61390771  1
  O  O13  1  0.99005157  0.13510492  0.61503640  1
  O  O14  1  0.34301212  0.57319394  0.79248416  1
  O  O15  1  0.97527818  0.72147632  0.10187509  1
  O  O16  1  0.55875336  0.11895077  0.38609229  1
  O  O17  1  0.76858224  0.04810319  0.12653990  1
  O  O18  1  0.05875336  0.38104923  0.38609229  1
  O  O19  1  0.65698788  0.42680606  0.20751584  1
  O  O20  1  0.52472182  0.22147632  0.89812491  1
  O  O21  1  0.02472182  0.27852368  0.89812491  1
  O  O22  1  0.73141776  0.54810319  0.87346010  1
  O  O23  1  0.84301212  0.92680606  0.79248416  1
  O  O24  1  0.94124664  0.61895077  0.61390771  1
  O  O25  1  0.23141776  0.95189681  0.87346010  1
  O  O26  1  0.15698788  0.07319394  0.20751584  1
  O  O27  1  0.49005157  0.36489508  0.61503640  1
  O  O28  1  0.50994843  0.63510492  0.38496360  1
  O  O29  1  0.47527818  0.77852368  0.10187509  1
  O  O30  1  0.00994843  0.86489508  0.38496360  1
  O  O31  1  0.26858224  0.45189681  0.12653990  1
