# generated using pymatgen
data_Mg2Sn
_symmetry_space_group_name_H-M   'P 1'
_cell_length_a   3.26645527
_cell_length_b   16.18397412
_cell_length_c   5.42108982
_cell_angle_alpha   90.00000000
_cell_angle_beta   90.00000000
_cell_angle_gamma   90.00000000
_symmetry_Int_Tables_number   1
_chemical_formula_structural   Mg2Sn
_chemical_formula_sum   'Mg8 Sn4'
_cell_volume   286.58172583
_cell_formula_units_Z   4
loop_
 _symmetry_equiv_pos_site_id
 _symmetry_equiv_pos_as_xyz
  1  'x, y, z'
loop_
 _atom_site_type_symbol
 _atom_site_label
 _atom_site_symmetry_multiplicity
 _atom_site_fract_x
 _atom_site_fract_y
 _atom_site_fract_z
 _atom_site_occupancy
  Mg  Mg0  1  0.50000000  0.38935383  0.25000000  1
  Mg  Mg1  1  0.00000000  0.22318010  0.25000000  1
  Mg  Mg2  1  0.50000000  0.27681990  0.75000000  1
  Mg  Mg3  1  0.00000000  0.11064617  0.75000000  1
  Mg  Mg4  1  -0.00000000  0.88935383  0.25000000  1
  Mg  Mg5  1  0.50000000  0.72318010  0.25000000  1
  Mg  Mg6  1  -0.00000000  0.77681990  0.75000000  1
  Mg  Mg7  1  0.50000000  0.61064617  0.75000000  1
  Sn  Sn8  1  0.50000000  0.05666031  0.25000000  1
  Sn  Sn9  1  -0.00000000  0.44333969  0.75000000  1
  Sn  Sn10  1  -0.00000000  0.55666031  0.25000000  1
  Sn  Sn11  1  0.50000000  0.94333969  0.75000000  1
