# generated using pymatgen
data_PH7CN2O5
_symmetry_space_group_name_H-M   'P 1'
_cell_length_a   7.63273764
_cell_length_b   9.02345375
_cell_length_c   17.74263192
_cell_angle_alpha   90.00000000
_cell_angle_beta   90.00000000
_cell_angle_gamma   90.00000000
_symmetry_Int_Tables_number   1
_chemical_formula_structural   PH7CN2O5
_chemical_formula_sum   'P8 H56 C8 N16 O40'
_cell_volume   1221.99991108
_cell_formula_units_Z   8
loop_
 _symmetry_equiv_pos_site_id
 _symmetry_equiv_pos_as_xyz
  1  'x, y, z'
loop_
 _atom_site_type_symbol
 _atom_site_label
 _atom_site_symmetry_multiplicity
 _atom_site_fract_x
 _atom_site_fract_y
 _atom_site_fract_z
 _atom_site_occupancy
  P  P0  1  0.27929609  0.30828158  0.31171079  1
  P  P1  1  0.77929609  0.19171842  0.68828921  1
  P  P2  1  0.72070391  0.80828158  0.18828921  1
  P  P3  1  0.22070391  0.69171842  0.81171079  1
  P  P4  1  0.72070391  0.69171842  0.68828921  1
  P  P5  1  0.22070391  0.80828158  0.31171079  1
  P  P6  1  0.27929609  0.19171842  0.81171079  1
  P  P7  1  0.77929609  0.30828158  0.18828921  1
  O  O8  1  0.09157561  0.36357864  0.33737335  1
  O  O9  1  0.59157561  0.13642136  0.66262665  1
  O  O10  1  0.90842439  0.86357864  0.16262665  1
  O  O11  1  0.40842439  0.63642136  0.83737335  1
  O  O12  1  0.90842439  0.63642136  0.66262665  1
  O  O13  1  0.40842439  0.86357864  0.33737335  1
  O  O14  1  0.09157561  0.13642136  0.83737335  1
  O  O15  1  0.59157561  0.36357864  0.16262665  1
  O  O16  1  0.38745518  0.43496288  0.27717171  1
  O  O17  1  0.88745518  0.06503712  0.72282829  1
  O  O18  1  0.61254482  0.93496288  0.22282829  1
  O  O19  1  0.11254482  0.56503712  0.77717171  1
  O  O20  1  0.61254482  0.56503712  0.72282829  1
  O  O21  1  0.11254482  0.93496288  0.27717171  1
  O  O22  1  0.38745518  0.06503712  0.77717171  1
  O  O23  1  0.88745518  0.43496288  0.22282829  1
  O  O24  1  0.25445797  0.19031010  0.24697440  1
  O  O25  1  0.75445797  0.30968990  0.75302560  1
  O  O26  1  0.74554203  0.69031010  0.25302560  1
  O  O27  1  0.24554203  0.80968990  0.74697440  1
  O  O28  1  0.74554203  0.80968990  0.75302560  1
  O  O29  1  0.24554203  0.69031010  0.24697440  1
  O  O30  1  0.25445797  0.30968990  0.74697440  1
  O  O31  1  0.75445797  0.19031010  0.25302560  1
  O  O32  1  0.36321783  0.24079340  0.38213157  1
  O  O33  1  0.86321783  0.25920660  0.61786843  1
  O  O34  1  0.63678217  0.74079340  0.11786843  1
  O  O35  1  0.13678217  0.75920660  0.88213157  1
  O  O36  1  0.63678217  0.75920660  0.61786843  1
  O  O37  1  0.13678217  0.74079340  0.38213157  1
  O  O38  1  0.36321783  0.25920660  0.88213157  1
  O  O39  1  0.86321783  0.24079340  0.11786843  1
  O  O40  1  0.63242189  0.30566287  0.44640038  1
  O  O41  1  0.13242189  0.19433713  0.55359962  1
  O  O42  1  0.36757811  0.80566287  0.05359962  1
  O  O43  1  0.86757811  0.69433713  0.94640038  1
  O  O44  1  0.36757811  0.69433713  0.55359962  1
  O  O45  1  0.86757811  0.80566287  0.44640038  1
  O  O46  1  0.63242189  0.19433713  0.94640038  1
  O  O47  1  0.13242189  0.30566287  0.05359962  1
  N  N48  1  0.78408794  0.48550871  0.50664637  1
  N  N49  1  0.28408794  0.01449129  0.49335363  1
  N  N50  1  0.21591206  0.98550871  0.99335363  1
  N  N51  1  0.71591206  0.51449129  0.00664637  1
  N  N52  1  0.21591206  0.51449129  0.49335363  1
  N  N53  1  0.71591206  0.98550871  0.50664637  1
  N  N54  1  0.78408794  0.01449129  0.00664637  1
  N  N55  1  0.28408794  0.48550871  0.99335363  1
  N  N56  1  0.63136138  0.54114248  0.39698038  1
  N  N57  1  0.13136138  0.95885752  0.60301962  1
  N  N58  1  0.36863862  0.04114248  0.10301962  1
  N  N59  1  0.86863862  0.45885752  0.89698038  1
  N  N60  1  0.36863862  0.45885752  0.60301962  1
  N  N61  1  0.86863862  0.04114248  0.39698038  1
  N  N62  1  0.63136138  0.95885752  0.89698038  1
  N  N63  1  0.13136138  0.54114248  0.10301962  1
  C  C64  1  0.68175571  0.44468369  0.44953842  1
  C  C65  1  0.18175571  0.05531631  0.55046158  1
  C  C66  1  0.31824429  0.94468369  0.05046158  1
  C  C67  1  0.81824429  0.55531631  0.94953842  1
  C  C68  1  0.31824429  0.55531631  0.55046158  1
  C  C69  1  0.81824429  0.94468369  0.44953842  1
  C  C70  1  0.68175571  0.05531631  0.94953842  1
  C  C71  1  0.18175571  0.44468369  0.05046158  1
  H  H72  1  0.01134638  0.39241285  0.29397090  1
  H  H73  1  0.51134638  0.10758715  0.70602910  1
  H  H74  1  0.98865362  0.89241285  0.20602910  1
  H  H75  1  0.48865362  0.60758715  0.79397090  1
  H  H76  1  0.98865362  0.60758715  0.70602910  1
  H  H77  1  0.48865362  0.89241285  0.29397090  1
  H  H78  1  0.01134638  0.10758715  0.79397090  1
  H  H79  1  0.51134638  0.39241285  0.20602910  1
  H  H80  1  0.80740901  0.41223603  0.54979912  1
  H  H81  1  0.30740901  0.08776397  0.45020088  1
  H  H82  1  0.19259099  0.91223603  0.95020088  1
  H  H83  1  0.69259099  0.58776397  0.04979912  1
  H  H84  1  0.19259099  0.58776397  0.45020088  1
  H  H85  1  0.69259099  0.91223603  0.54979912  1
  H  H86  1  0.80740901  0.08776397  0.04979912  1
  H  H87  1  0.30740901  0.41223603  0.95020088  1
  H  H88  1  0.82256648  0.59281619  0.51210096  1
  H  H89  1  0.32256648  0.90718381  0.48789904  1
  H  H90  1  0.17743352  0.09281619  0.98789904  1
  H  H91  1  0.67743352  0.40718381  0.01210096  1
  H  H92  1  0.17743352  0.40718381  0.48789904  1
  H  H93  1  0.67743352  0.09281619  0.51210096  1
  H  H94  1  0.82256648  0.90718381  0.01210096  1
  H  H95  1  0.32256648  0.59281619  0.98789904  1
  H  H96  1  0.55905427  0.50707773  0.35151780  1
  H  H97  1  0.05905427  0.99292227  0.64848220  1
  H  H98  1  0.44094573  0.00707773  0.14848220  1
  H  H99  1  0.94094573  0.49292227  0.85151780  1
  H  H100  1  0.44094573  0.49292227  0.64848220  1
  H  H101  1  0.94094573  0.00707773  0.35151780  1
  H  H102  1  0.55905427  0.99292227  0.85151780  1
  H  H103  1  0.05905427  0.50707773  0.14848220  1
  H  H104  1  0.67648273  0.64715889  0.39786588  1
  H  H105  1  0.17648273  0.85284111  0.60213412  1
  H  H106  1  0.32351727  0.14715889  0.10213412  1
  H  H107  1  0.82351727  0.35284111  0.89786588  1
  H  H108  1  0.32351727  0.35284111  0.60213412  1
  H  H109  1  0.82351727  0.14715889  0.39786588  1
  H  H110  1  0.67648273  0.85284111  0.89786588  1
  H  H111  1  0.17648273  0.64715889  0.10213412  1
  H  H112  1  0.19815264  0.09152253  0.26135509  1
  H  H113  1  0.69815264  0.40847747  0.73864491  1
  H  H114  1  0.80184736  0.59152253  0.23864491  1
  H  H115  1  0.30184736  0.90847747  0.76135509  1
  H  H116  1  0.80184736  0.90847747  0.73864491  1
  H  H117  1  0.30184736  0.59152253  0.26135509  1
  H  H118  1  0.19815264  0.40847747  0.76135509  1
  H  H119  1  0.69815264  0.09152253  0.23864491  1
  H  H120  1  0.51115160  0.28301854  0.41187443  1
  H  H121  1  0.01115160  0.21698146  0.58812557  1
  H  H122  1  0.48884840  0.78301854  0.08812557  1
  H  H123  1  0.98884840  0.71698146  0.91187443  1
  H  H124  1  0.48884840  0.71698146  0.58812557  1
  H  H125  1  0.98884840  0.78301854  0.41187443  1
  H  H126  1  0.51115160  0.21698146  0.91187443  1
  H  H127  1  0.01115160  0.28301854  0.08812557  1
