# generated using pymatgen
data_Ca11Si4SO18
_symmetry_space_group_name_H-M   'P 1'
_cell_length_a   8.67741216
_cell_length_b   8.67741172
_cell_length_c   8.67741156
_cell_angle_alpha   105.25499868
_cell_angle_beta   105.25499789
_cell_angle_gamma   118.27924184
_symmetry_Int_Tables_number   1
_chemical_formula_structural   Ca11Si4SO18
_chemical_formula_sum   'Ca11 Si4 S1 O18'
_cell_volume   493.93892968
_cell_formula_units_Z   1
loop_
 _symmetry_equiv_pos_site_id
 _symmetry_equiv_pos_as_xyz
  1  'x, y, z'
loop_
 _atom_site_type_symbol
 _atom_site_label
 _atom_site_symmetry_multiplicity
 _atom_site_fract_x
 _atom_site_fract_y
 _atom_site_fract_z
 _atom_site_occupancy
  Ca  Ca0  1  0.00357501  0.50357501  0.50000000  1
  Ca  Ca1  1  0.95111529  0.20569040  0.74542488  1
  Ca  Ca2  1  0.05029810  0.80799624  0.24230187  1
  Ca  Ca3  1  0.19200376  0.94970190  0.75769813  1
  Ca  Ca4  1  0.50000000  0.50000000  0.00000000  1
  Ca  Ca5  1  0.49642499  0.99642499  0.50000000  1
  Ca  Ca6  1  0.46026552  0.20569040  0.25457512  1
  Ca  Ca7  1  0.79430960  0.53973448  0.74542488  1
  Ca  Ca8  1  0.56569437  0.80799624  0.75769813  1
  Ca  Ca9  1  0.19200376  0.43430563  0.24230187  1
  Ca  Ca10  1  0.79430960  0.04888471  0.25457512  1
  Si  Si11  1  0.28910263  0.71089737  1.00000000  1
  Si  Si12  1  0.28910263  0.28910263  0.57820525  1
  Si  Si13  1  0.71089737  0.71089737  0.42179475  1
  Si  Si14  1  0.71089737  0.28910263  0.00000000  1
  S  S15  1  0.00000000  0.00000000  0.00000000  1
  O  O16  1  0.20672328  0.49612049  0.00145493  1
  O  O17  1  0.20672328  0.20526835  0.71060278  1
  O  O18  1  0.50387951  0.50533443  0.71060278  1
  O  O19  1  0.68585468  0.13976146  0.81722667  1
  O  O20  1  0.50387951  0.79327672  0.99854507  1
  O  O21  1  0.68585468  0.86862800  0.54609321  1
  O  O22  1  0.79473165  0.50533443  0.00145493  1
  O  O23  1  0.32253479  0.13976146  0.45390679  1
  O  O24  1  0.13137200  0.67746521  0.81722667  1
  O  O25  1  0.25000000  0.75000000  0.50000000  1
  O  O26  1  0.32253479  0.86862800  0.18277333  1
  O  O27  1  0.49466557  0.49612049  0.28939722  1
  O  O28  1  0.86023854  0.67746521  0.54609321  1
  O  O29  1  0.86023854  0.31414532  0.18277333  1
  O  O30  1  0.49466557  0.20526835  0.99854507  1
  O  O31  1  0.13137200  0.31414532  0.45390679  1
  O  O32  1  0.79473165  0.79327672  0.28939722  1
  O  O33  1  0.75000000  0.25000000  0.50000000  1
