# generated using pymatgen
data_Re2SCl12
_symmetry_space_group_name_H-M   'P 1'
_cell_length_a   8.72758466
_cell_length_b   9.15314683
_cell_length_c   11.39862983
_cell_angle_alpha   90.00000000
_cell_angle_beta   90.00000000
_cell_angle_gamma   94.99520995
_symmetry_Int_Tables_number   1
_chemical_formula_structural   Re2SCl12
_chemical_formula_sum   'Re4 S2 Cl24'
_cell_volume   907.11959937
_cell_formula_units_Z   2
loop_
 _symmetry_equiv_pos_site_id
 _symmetry_equiv_pos_as_xyz
  1  'x, y, z'
loop_
 _atom_site_type_symbol
 _atom_site_label
 _atom_site_symmetry_multiplicity
 _atom_site_fract_x
 _atom_site_fract_y
 _atom_site_fract_z
 _atom_site_occupancy
  Re  Re0  1  0.85961568  0.62587052  0.25000000  1
  Re  Re1  1  0.36099873  0.60778977  0.75000000  1
  Re  Re2  1  0.14038432  0.37412948  0.75000000  1
  Re  Re3  1  0.63900127  0.39221023  0.25000000  1
  S  S4  1  0.16960700  0.93339313  0.25000000  1
  S  S5  1  0.83039300  0.06660687  0.75000000  1
  Cl  Cl6  1  0.38542728  0.78296316  0.89525723  1
  Cl  Cl7  1  0.82809622  0.92585996  0.61175986  1
  Cl  Cl8  1  0.37992832  0.42042064  0.25000000  1
  Cl  Cl9  1  0.61457272  0.21703684  0.10474277  1
  Cl  Cl10  1  0.04652609  0.67698236  0.10541421  1
  Cl  Cl11  1  0.62007168  0.57957936  0.75000000  1
  Cl  Cl12  1  0.67071488  0.58083527  0.40253822  1
  Cl  Cl13  1  0.17190378  0.07414004  0.11175986  1
  Cl  Cl14  1  0.17190378  0.07414004  0.38824014  1
  Cl  Cl15  1  0.38828181  0.87796705  0.25000000  1
  Cl  Cl16  1  0.80992043  0.87318763  0.25000000  1
  Cl  Cl17  1  0.32928512  0.41916473  0.90253822  1
  Cl  Cl18  1  0.61457272  0.21703684  0.39525723  1
  Cl  Cl19  1  0.61171819  0.12203295  0.75000000  1
  Cl  Cl20  1  0.04652609  0.67698236  0.39458579  1
  Cl  Cl21  1  0.67071488  0.58083527  0.09746178  1
  Cl  Cl22  1  0.19007957  0.12681237  0.75000000  1
  Cl  Cl23  1  0.91727724  0.37319956  0.25000000  1
  Cl  Cl24  1  0.95347391  0.32301764  0.60541421  1
  Cl  Cl25  1  0.82809622  0.92585996  0.88824014  1
  Cl  Cl26  1  0.08272276  0.62680044  0.75000000  1
  Cl  Cl27  1  0.32928512  0.41916473  0.59746178  1
  Cl  Cl28  1  0.38542728  0.78296316  0.60474277  1
  Cl  Cl29  1  0.95347391  0.32301764  0.89458579  1
