# generated using pymatgen
data_Ba2NiF6
_symmetry_space_group_name_H-M   'P 1'
_cell_length_a   4.13170889
_cell_length_b   4.13170890
_cell_length_c   8.75523714
_cell_angle_alpha   103.64800738
_cell_angle_beta   103.64800739
_cell_angle_gamma   89.99999997
_symmetry_Int_Tables_number   1
_chemical_formula_structural   Ba2NiF6
_chemical_formula_sum   'Ba2 Ni1 F6'
_cell_volume   140.89400175
_cell_formula_units_Z   1
loop_
 _symmetry_equiv_pos_site_id
 _symmetry_equiv_pos_as_xyz
  1  'x, y, z'
loop_
 _atom_site_type_symbol
 _atom_site_label
 _atom_site_symmetry_multiplicity
 _atom_site_fract_x
 _atom_site_fract_y
 _atom_site_fract_z
 _atom_site_occupancy
  F  F0  1  0.61888133  0.61888133  0.23776266  1
  F  F1  1  0.38111867  0.38111867  0.76223734  1
  F  F2  1  0.00000000  0.50000000  0.00000000  1
  F  F3  1  0.75000000  0.25000000  0.50000000  1
  F  F4  1  0.25000000  0.75000000  0.50000000  1
  F  F5  1  0.50000000  0.00000000  0.00000000  1
  Ni  Ni6  1  0.50000000  0.50000000  0.00000000  1
  Ba  Ba7  1  0.84883870  0.84883870  0.69767740  1
  Ba  Ba8  1  0.15116130  0.15116130  0.30232260  1
