# generated using pymatgen
data_K2ReCl5O
_symmetry_space_group_name_H-M   'P 1'
_cell_length_a   6.96726084
_cell_length_b   10.18461747
_cell_length_c   13.54696954
_cell_angle_alpha   90.00000000
_cell_angle_beta   90.00000000
_cell_angle_gamma   90.00000000
_symmetry_Int_Tables_number   1
_chemical_formula_structural   K2ReCl5O
_chemical_formula_sum   'K8 Re4 Cl20 O4'
_cell_volume   961.27787359
_cell_formula_units_Z   4
loop_
 _symmetry_equiv_pos_site_id
 _symmetry_equiv_pos_as_xyz
  1  'x, y, z'
loop_
 _atom_site_type_symbol
 _atom_site_label
 _atom_site_symmetry_multiplicity
 _atom_site_fract_x
 _atom_site_fract_y
 _atom_site_fract_z
 _atom_site_occupancy
  K  K0  1  0.81970965  0.99873095  0.63965444  1
  K  K1  1  0.18029035  0.49873095  0.36034556  1
  K  K2  1  0.31970965  0.00126905  0.86034556  1
  K  K3  1  0.68029035  0.99873095  0.13965444  1
  K  K4  1  0.31970965  0.49873095  0.86034556  1
  K  K5  1  0.68029035  0.50126905  0.13965444  1
  K  K6  1  0.81970965  0.50126905  0.63965444  1
  K  K7  1  0.18029035  0.00126905  0.36034556  1
  Re  Re8  1  0.82382855  0.75000000  0.90221659  1
  Re  Re9  1  0.17617145  0.25000000  0.09778341  1
  Re  Re10  1  0.32382855  0.25000000  0.59778341  1
  Re  Re11  1  0.67617145  0.75000000  0.40221659  1
  Cl  Cl12  1  0.30428025  0.01551001  0.61088009  1
  Cl  Cl13  1  0.69571975  0.98448999  0.38911991  1
  Cl  Cl14  1  0.19571975  0.48448999  0.11088009  1
  Cl  Cl15  1  0.19571975  0.01551001  0.11088009  1
  Cl  Cl16  1  0.43217761  0.75000000  0.27801580  1
  Cl  Cl17  1  0.09876045  0.25000000  0.74463334  1
  Cl  Cl18  1  0.80428025  0.51551001  0.88911991  1
  Cl  Cl19  1  0.06782239  0.75000000  0.77801580  1
  Cl  Cl20  1  0.80428025  0.98448999  0.88911991  1
  Cl  Cl21  1  0.03077202  0.25000000  0.50414598  1
  Cl  Cl22  1  0.46922798  0.25000000  0.00414598  1
  Cl  Cl23  1  0.96922798  0.75000000  0.49585402  1
  Cl  Cl24  1  0.90123955  0.75000000  0.25536666  1
  Cl  Cl25  1  0.40123955  0.25000000  0.24463334  1
  Cl  Cl26  1  0.53077202  0.75000000  0.99585402  1
  Cl  Cl27  1  0.59876045  0.75000000  0.75536666  1
  Cl  Cl28  1  0.56782239  0.25000000  0.72198420  1
  Cl  Cl29  1  0.93217761  0.25000000  0.22198420  1
  Cl  Cl30  1  0.69571975  0.51551001  0.38911991  1
  Cl  Cl31  1  0.30428025  0.48448999  0.61088009  1
  O  O32  1  0.02602444  0.25000000  0.99932299  1
  O  O33  1  0.47397556  0.25000000  0.49932299  1
  O  O34  1  0.52602444  0.75000000  0.50067701  1
  O  O35  1  0.97397556  0.75000000  0.00067701  1
