# generated using pymatgen
data_Li6CaCeO6
_symmetry_space_group_name_H-M   'P 1'
_cell_length_a   10.16240630
_cell_length_b   10.16240521
_cell_length_c   10.74252767
_cell_angle_alpha   90.00000000
_cell_angle_beta   90.00000000
_cell_angle_gamma   120.00000047
_symmetry_Int_Tables_number   1
_chemical_formula_structural   Li6CaCeO6
_chemical_formula_sum   'Li36 Ca6 Ce6 O36'
_cell_volume   960.79375760
_cell_formula_units_Z   6
loop_
 _symmetry_equiv_pos_site_id
 _symmetry_equiv_pos_as_xyz
  1  'x, y, z'
loop_
 _atom_site_type_symbol
 _atom_site_label
 _atom_site_symmetry_multiplicity
 _atom_site_fract_x
 _atom_site_fract_y
 _atom_site_fract_z
 _atom_site_occupancy
  Li  Li0  1  0.91654477  0.77360958  0.06488763  1
  Li  Li1  1  0.89226492  0.47510709  0.06446729  1
  Li  Li2  1  0.14293519  0.22639042  0.43511237  1
  Li  Li3  1  0.41715784  0.89226492  0.93553271  1
  Li  Li4  1  0.77360958  0.91654477  0.43511237  1
  Li  Li5  1  0.77360958  0.85706481  0.93511237  1
  Li  Li6  1  0.10773508  0.52489291  0.93553271  1
  Li  Li7  1  0.44017848  0.19071555  0.93485125  1
  Li  Li8  1  0.41715784  0.52489291  0.43553271  1
  Li  Li9  1  0.91654477  0.14293519  0.56488763  1
  Li  Li10  1  0.80928445  0.55982152  0.43485125  1
  Li  Li11  1  0.89226492  0.41715784  0.56446729  1
  Li  Li12  1  0.85706481  0.77360958  0.56488763  1
  Li  Li13  1  0.55982152  0.75053807  0.56514875  1
  Li  Li14  1  0.85706481  0.08345523  0.06488763  1
  Li  Li15  1  0.52489291  0.41715784  0.06446729  1
  Li  Li16  1  0.80928445  0.24946193  0.93485125  1
  Li  Li17  1  0.44017848  0.24946193  0.43485125  1
  Li  Li18  1  0.58284216  0.10773508  0.06446729  1
  Li  Li19  1  0.08345523  0.85706481  0.43511237  1
  Li  Li20  1  0.22639042  0.14293519  0.06488763  1
  Li  Li21  1  0.47510709  0.58284216  0.93553271  1
  Li  Li22  1  0.24946193  0.44017848  0.06514875  1
  Li  Li23  1  0.14293519  0.91654477  0.93511237  1
  Li  Li24  1  0.24946193  0.80928445  0.56514875  1
  Li  Li25  1  0.47510709  0.89226492  0.43553271  1
  Li  Li26  1  0.75053807  0.19071555  0.43485125  1
  Li  Li27  1  0.19071555  0.44017848  0.56514875  1
  Li  Li28  1  0.55982152  0.80928445  0.06514875  1
  Li  Li29  1  0.58284216  0.47510709  0.56446729  1
  Li  Li30  1  0.10773508  0.58284216  0.43553271  1
  Li  Li31  1  0.22639042  0.08345523  0.56488763  1
  Li  Li32  1  0.19071555  0.75053807  0.06514875  1
  Li  Li33  1  0.08345523  0.22639042  0.93511237  1
  Li  Li34  1  0.75053807  0.55982152  0.93485125  1
  Li  Li35  1  0.52489291  0.10773508  0.56446729  1
  Ca  Ca36  1  0.33333300  0.66666700  0.75012943  1
  Ca  Ca37  1  0.66666700  0.33333300  0.24987057  1
  Ca  Ca38  1  -0.00000000  -0.00000000  0.25000000  1
  Ca  Ca39  1  0.33333300  0.66666700  0.25012943  1
  Ca  Ca40  1  0.66666700  0.33333300  0.74987057  1
  Ca  Ca41  1  -0.00000000  0.00000000  0.75000000  1
  Ce  Ce42  1  0.66654177  -0.00000000  0.75000000  1
  Ce  Ce43  1  0.33345823  0.33345823  0.75000000  1
  Ce  Ce44  1  0.33345823  0.00000000  0.25000000  1
  Ce  Ce45  1  0.00000000  0.66654177  0.75000000  1
  Ce  Ce46  1  -0.00000000  0.33345823  0.25000000  1
  Ce  Ce47  1  0.66654177  0.66654177  0.25000000  1
  O  O48  1  0.24699254  0.45003730  0.88080950  1
  O  O49  1  0.88337151  0.46352087  0.88037358  1
  O  O50  1  0.24699254  0.79695524  0.38080950  1
  O  O51  1  0.78322127  0.91365908  0.61946741  1
  O  O52  1  0.08634092  0.21677873  0.11946741  1
  O  O53  1  0.54996270  0.79695524  0.88080950  1
  O  O54  1  0.58014936  0.11662849  0.88037358  1
  O  O55  1  0.41985064  0.53647913  0.61962642  1
  O  O56  1  0.46352087  0.88337151  0.61962642  1
  O  O57  1  0.45003730  0.24699254  0.61919050  1
  O  O58  1  0.78322127  0.86956219  0.11946741  1
  O  O59  1  0.08634092  0.86956219  0.61946741  1
  O  O60  1  0.20304476  0.45003730  0.38080950  1
  O  O61  1  0.88337151  0.41985064  0.38037358  1
  O  O62  1  0.54996270  0.75300746  0.38080950  1
  O  O63  1  0.11662849  0.58014936  0.61962642  1
  O  O64  1  0.13043781  0.91365908  0.11946741  1
  O  O65  1  0.45003730  0.20304476  0.11919050  1
  O  O66  1  0.20304476  0.75300746  0.88080950  1
  O  O67  1  0.86956219  0.08634092  0.88053259  1
  O  O68  1  0.86956219  0.78322127  0.38053259  1
  O  O69  1  0.91365908  0.13043781  0.38053259  1
  O  O70  1  0.53647913  0.41985064  0.88037358  1
  O  O71  1  0.21677873  0.13043781  0.88053259  1
  O  O72  1  0.91365908  0.78322127  0.88053259  1
  O  O73  1  0.79695524  0.54996270  0.61919050  1
  O  O74  1  0.79695524  0.24699254  0.11919050  1
  O  O75  1  0.75300746  0.20304476  0.61919050  1
  O  O76  1  0.13043781  0.21677873  0.61946741  1
  O  O77  1  0.58014936  0.46352087  0.38037358  1
  O  O78  1  0.41985064  0.88337151  0.11962642  1
  O  O79  1  0.53647913  0.11662849  0.38037358  1
  O  O80  1  0.21677873  0.08634092  0.38053259  1
  O  O81  1  0.46352087  0.58014936  0.11962642  1
  O  O82  1  0.75300746  0.54996270  0.11919050  1
  O  O83  1  0.11662849  0.53647913  0.11962642  1
