# generated using pymatgen
data_K4Ru(NO2)6
_symmetry_space_group_name_H-M   'P 1'
_cell_length_a   8.70904489
_cell_length_b   8.70904441
_cell_length_c   8.70904492
_cell_angle_alpha   51.73121535
_cell_angle_beta   51.73121782
_cell_angle_gamma   51.73121574
_symmetry_Int_Tables_number   1
_chemical_formula_structural   K4Ru(NO2)6
_chemical_formula_sum   'K4 Ru1 N6 O12'
_cell_volume   376.21321704
_cell_formula_units_Z   1
loop_
 _symmetry_equiv_pos_site_id
 _symmetry_equiv_pos_as_xyz
  1  'x, y, z'
loop_
 _atom_site_type_symbol
 _atom_site_label
 _atom_site_symmetry_multiplicity
 _atom_site_fract_x
 _atom_site_fract_y
 _atom_site_fract_z
 _atom_site_occupancy
  K  K0  1  0.62097096  0.62097096  0.62097096  1
  K  K1  1  0.37902904  0.37902904  0.37902904  1
  K  K2  1  0.19252048  0.19252048  0.19252048  1
  K  K3  1  0.80747952  0.80747952  0.80747952  1
  Ru  Ru4  1  0.00000000  0.00000000  0.00000000  1
  N  N5  1  0.92739357  0.30759598  0.92803338  1
  N  N6  1  0.30759598  0.92803338  0.92739357  1
  N  N7  1  0.07196662  0.07260643  0.69240402  1
  N  N8  1  0.92803338  0.92739357  0.30759598  1
  N  N9  1  0.69240402  0.07196662  0.07260643  1
  N  N10  1  0.07260643  0.69240402  0.07196662  1
  O  O11  1  0.06812529  0.85796112  0.36717640  1
  O  O12  1  0.36717640  0.06812529  0.85796112  1
  O  O13  1  0.14203888  0.63282360  0.93187471  1
  O  O14  1  0.26055280  0.04330146  0.55761939  1
  O  O15  1  0.44238061  0.73944720  0.95669854  1
  O  O16  1  0.93187471  0.14203888  0.63282360  1
  O  O17  1  0.73944720  0.95669854  0.44238061  1
  O  O18  1  0.95669854  0.44238061  0.73944720  1
  O  O19  1  0.85796112  0.36717640  0.06812529  1
  O  O20  1  0.04330146  0.55761939  0.26055280  1
  O  O21  1  0.55761939  0.26055280  0.04330146  1
  O  O22  1  0.63282360  0.93187471  0.14203888  1
