# generated using pymatgen
data_LiTiMnF6
_symmetry_space_group_name_H-M   'P 1'
_cell_length_a   8.91647743
_cell_length_b   8.91647744
_cell_length_c   4.71914053
_cell_angle_alpha   90.00000000
_cell_angle_beta   90.00000000
_cell_angle_gamma   120.00000002
_symmetry_Int_Tables_number   1
_chemical_formula_structural   LiTiMnF6
_chemical_formula_sum   'Li3 Ti3 Mn3 F18'
_cell_volume   324.92278823
_cell_formula_units_Z   3
loop_
 _symmetry_equiv_pos_site_id
 _symmetry_equiv_pos_as_xyz
  1  'x, y, z'
loop_
 _atom_site_type_symbol
 _atom_site_label
 _atom_site_symmetry_multiplicity
 _atom_site_fract_x
 _atom_site_fract_y
 _atom_site_fract_z
 _atom_site_occupancy
  Li  Li0  1  0.00000000  0.00000000  0.00000000  1
  Li  Li1  1  0.33333333  0.66666667  0.49356538  1
  Li  Li2  1  0.66666667  0.33333333  0.50643462  1
  F  F3  1  0.21920465  0.10793074  0.24397810  1
  F  F4  1  0.78001852  0.22031204  0.73011677  1
  F  F5  1  0.77968796  0.55970647  0.73011677  1
  F  F6  1  0.44029353  0.21998148  0.73011677  1
  F  F7  1  0.55970647  0.77968796  0.26988323  1
  F  F8  1  0.21998148  0.44029353  0.26988323  1
  F  F9  1  0.88872609  0.78079535  0.24397810  1
  F  F10  1  0.11127391  0.89206926  0.75602190  1
  F  F11  1  0.89206926  0.11127391  0.24397810  1
  F  F12  1  0.10793074  0.21920465  0.75602190  1
  F  F13  1  0.46565407  0.57229253  0.72417850  1
  F  F14  1  0.78079535  0.88872609  0.75602190  1
  F  F15  1  0.57229253  0.46565407  0.27582150  1
  F  F16  1  0.42770747  0.89336154  0.72417850  1
  F  F17  1  0.10663846  0.53434593  0.72417850  1
  F  F18  1  0.89336154  0.42770747  0.27582150  1
  F  F19  1  0.53434593  0.10663846  0.27582150  1
  F  F20  1  0.22031204  0.78001852  0.26988323  1
  Ti  Ti21  1  0.31448335  0.00000000  0.50000000  1
  Ti  Ti22  1  0.68551665  0.68551665  0.50000000  1
  Ti  Ti23  1  0.00000000  0.31448335  0.50000000  1
  Mn  Mn24  1  0.64770175  0.00000000  0.00000000  1
  Mn  Mn25  1  0.35229825  0.35229825  0.00000000  1
  Mn  Mn26  1  0.00000000  0.64770175  0.00000000  1
