# generated using pymatgen
data_Bi2O3
_symmetry_space_group_name_H-M   'P 1'
_cell_length_a   5.25405129
_cell_length_b   5.72459972
_cell_length_c   12.81170353
_cell_angle_alpha   90.00000000
_cell_angle_beta   90.00000000
_cell_angle_gamma   90.00000000
_symmetry_Int_Tables_number   1
_chemical_formula_structural   Bi2O3
_chemical_formula_sum   'Bi8 O12'
_cell_volume   385.34197002
_cell_formula_units_Z   4
loop_
 _symmetry_equiv_pos_site_id
 _symmetry_equiv_pos_as_xyz
  1  'x, y, z'
loop_
 _atom_site_type_symbol
 _atom_site_label
 _atom_site_symmetry_multiplicity
 _atom_site_fract_x
 _atom_site_fract_y
 _atom_site_fract_z
 _atom_site_occupancy
  Bi  Bi0  1  0.95057081  0.67953716  0.62531236  1
  Bi  Bi1  1  0.54942919  0.17953716  0.62531236  1
  Bi  Bi2  1  0.45057081  0.32046284  0.12531236  1
  Bi  Bi3  1  0.45057081  0.82046284  0.37468764  1
  Bi  Bi4  1  0.95057081  0.17953716  0.87468764  1
  Bi  Bi5  1  0.54942919  0.67953716  0.87468764  1
  Bi  Bi6  1  0.04942919  0.82046284  0.12531236  1
  Bi  Bi7  1  0.04942919  0.32046284  0.37468764  1
  O  O8  1  0.38110748  0.66984346  0.05669884  1
  O  O9  1  0.11889252  0.16984346  0.05669884  1
  O  O10  1  0.25000000  0.51804102  0.25000000  1
  O  O11  1  0.75000000  0.48195898  0.75000000  1
  O  O12  1  0.75000000  0.98195898  0.75000000  1
  O  O13  1  0.11889252  0.66984346  0.44330116  1
  O  O14  1  0.38110748  0.16984346  0.44330116  1
  O  O15  1  0.88110748  0.83015654  0.94330116  1
  O  O16  1  0.61889252  0.33015654  0.94330116  1
  O  O17  1  0.61889252  0.83015654  0.55669884  1
  O  O18  1  0.88110748  0.33015654  0.55669884  1
  O  O19  1  0.25000000  0.01804102  0.25000000  1
