# generated using pymatgen
data_Ag4Se(IO2)2
_symmetry_space_group_name_H-M   'P 1'
_cell_length_a   7.28181153
_cell_length_b   9.52658898
_cell_length_c   13.24164293
_cell_angle_alpha   90.00000000
_cell_angle_beta   90.00000000
_cell_angle_gamma   90.00000000
_symmetry_Int_Tables_number   1
_chemical_formula_structural   Ag4Se(IO2)2
_chemical_formula_sum   'Ag16 Se4 I8 O16'
_cell_volume   918.58370071
_cell_formula_units_Z   4
loop_
 _symmetry_equiv_pos_site_id
 _symmetry_equiv_pos_as_xyz
  1  'x, y, z'
loop_
 _atom_site_type_symbol
 _atom_site_label
 _atom_site_symmetry_multiplicity
 _atom_site_fract_x
 _atom_site_fract_y
 _atom_site_fract_z
 _atom_site_occupancy
  Ag  Ag0  1  0.78381461  0.12470350  0.41715917  1
  Ag  Ag1  1  0.03832047  0.01885029  0.01601341  1
  Ag  Ag2  1  0.43240022  0.76356397  0.80703524  1
  Ag  Ag3  1  0.53832047  0.48114971  0.51601341  1
  Ag  Ag4  1  0.93240022  0.73643603  0.30703524  1
  Ag  Ag5  1  0.43240022  0.26356397  0.69296476  1
  Ag  Ag6  1  0.78381461  0.62470350  0.08284083  1
  Ag  Ag7  1  0.93240022  0.23643603  0.19296476  1
  Ag  Ag8  1  0.28381461  0.87529650  0.58284083  1
  Ag  Ag9  1  0.86687579  0.04191668  0.75865296  1
  Ag  Ag10  1  0.03832047  0.51885029  0.48398659  1
  Ag  Ag11  1  0.53832047  0.98114971  0.98398659  1
  Ag  Ag12  1  0.86687579  0.54191668  0.74134704  1
  Ag  Ag13  1  0.36687579  0.45808332  0.25865296  1
  Ag  Ag14  1  0.36687579  0.95808332  0.24134704  1
  Ag  Ag15  1  0.28381461  0.37529650  0.91715917  1
  Se  Se16  1  0.78163587  0.31663536  0.92913557  1
  Se  Se17  1  0.28163587  0.18336464  0.42913557  1
  Se  Se18  1  0.28163587  0.68336464  0.07086443  1
  Se  Se19  1  0.78163587  0.81663536  0.57086443  1
  I  I20  1  0.27349954  0.54312560  0.68557469  1
  I  I21  1  0.79884710  0.26639523  0.61109067  1
  I  I22  1  0.77349954  0.95687440  0.18557469  1
  I  I23  1  0.77349954  0.45687440  0.31442531  1
  I  I24  1  0.29884710  0.73360477  0.38890933  1
  I  I25  1  0.29884710  0.23360477  0.11109067  1
  I  I26  1  0.79884710  0.76639523  0.88890933  1
  I  I27  1  0.27349954  0.04312560  0.81442531  1
  O  O28  1  0.28500460  0.86426445  0.07550871  1
  O  O29  1  0.46983284  0.12440547  0.36767452  1
  O  O30  1  0.96983284  0.37559453  0.86767452  1
  O  O31  1  0.96983284  0.87559453  0.63232548  1
  O  O32  1  0.78054762  0.36631223  0.05060992  1
  O  O33  1  0.78500460  0.63573555  0.57550871  1
  O  O34  1  0.78054762  0.86631223  0.44939008  1
  O  O35  1  0.78500460  0.13573555  0.92449129  1
  O  O36  1  0.59854132  0.37721422  0.86546234  1
  O  O37  1  0.28500460  0.36426445  0.42449129  1
  O  O38  1  0.59854132  0.87721422  0.63453766  1
  O  O39  1  0.09854132  0.62278578  0.13453766  1
  O  O40  1  0.28054762  0.13368777  0.55060992  1
  O  O41  1  0.28054762  0.63368777  0.94939008  1
  O  O42  1  0.46983284  0.62440547  0.13232548  1
  O  O43  1  0.09854132  0.12278578  0.36546234  1
