# generated using pymatgen
data_Cu4Si2NiS7
_symmetry_space_group_name_H-M   'P 1'
_cell_length_a   5.28272157
_cell_length_b   6.34672008
_cell_length_c   8.17813921
_cell_angle_alpha   97.92696428
_cell_angle_beta   89.99580887
_cell_angle_gamma   114.59944814
_symmetry_Int_Tables_number   1
_chemical_formula_structural   Cu4Si2NiS7
_chemical_formula_sum   'Si2 Cu4 Ni1 S7'
_cell_volume   246.42705589
_cell_formula_units_Z   1
loop_
 _symmetry_equiv_pos_site_id
 _symmetry_equiv_pos_as_xyz
  1  'x, y, z'
loop_
 _atom_site_type_symbol
 _atom_site_label
 _atom_site_symmetry_multiplicity
 _atom_site_fract_x
 _atom_site_fract_y
 _atom_site_fract_z
 _atom_site_occupancy
  Si  Si0  1  0.43430604  0.85113941  0.28228234  1
  Cu  Cu1  1  0.84112788  0.72020256  0.56519307  1
  Si  Si2  1  0.58315896  0.14876242  0.71770590  1
  Cu  Cu3  1  0.12075206  0.27989440  0.43478604  1
  Cu  Cu4  1  0.28485460  0.57987662  0.86067915  1
  Cu  Cu5  1  0.70507748  0.42014838  0.13932177  1
  Ni  Ni6  1  0.99987688  0.00016860  -0.00000375  1
  S  S7  1  0.51210990  0.57000369  0.35081039  1
  S  S8  1  0.11173341  0.72351980  0.08562455  1
  S  S9  1  0.80484931  0.12648333  0.21327250  1
  S  S10  1  0.26847982  0.99998400  0.50001026  1
  S  S11  1  0.67839837  0.87342054  0.78681096  1
  S  S12  1  0.94211656  0.42998205  0.64920537  1
  S  S13  1  0.38815872  0.27641421  0.91430145  1
