# generated using pymatgen
data_Zn8B3H3O14
_symmetry_space_group_name_H-M   'P 1'
_cell_length_a   7.62428937
_cell_length_b   7.62428977
_cell_length_c   7.62428962
_cell_angle_alpha   65.40775177
_cell_angle_beta   65.40775022
_cell_angle_gamma   65.40775390
_symmetry_Int_Tables_number   1
_chemical_formula_structural   Zn8B3H3O14
_chemical_formula_sum   'Zn8 B3 H3 O14'
_cell_volume   350.26261586
_cell_formula_units_Z   1
loop_
 _symmetry_equiv_pos_site_id
 _symmetry_equiv_pos_as_xyz
  1  'x, y, z'
loop_
 _atom_site_type_symbol
 _atom_site_label
 _atom_site_symmetry_multiplicity
 _atom_site_fract_x
 _atom_site_fract_y
 _atom_site_fract_z
 _atom_site_occupancy
  Zn  Zn0  1  0.40822565  0.40822565  0.40822565  1
  Zn  Zn1  1  0.51731962  0.77065673  0.95574453  1
  Zn  Zn2  1  0.77065673  0.95574453  0.51731962  1
  Zn  Zn3  1  0.48268038  0.04425547  0.22934327  1
  Zn  Zn4  1  0.95574453  0.51731962  0.77065673  1
  Zn  Zn5  1  0.22934327  0.48268038  0.04425547  1
  Zn  Zn6  1  0.59177435  0.59177435  0.59177435  1
  Zn  Zn7  1  0.04425547  0.22934327  0.48268038  1
  B  B8  1  0.79810911  0.50000000  0.20189089  1
  B  B9  1  0.20189089  0.79810911  0.50000000  1
  B  B10  1  0.50000000  0.20189089  0.79810911  1
  H  H11  1  0.00000000  0.13971950  0.86028050  1
  H  H12  1  0.86028050  1.00000000  0.13971950  1
  H  H13  1  0.13971950  0.86028050  1.00000000  1
  O  O14  1  0.74312231  0.00000000  0.25687769  1
  O  O15  1  0.70350060  0.70350060  0.70350060  1
  O  O16  1  1.00000000  0.25687769  0.74312231  1
  O  O17  1  0.45774981  0.38858159  0.81854131  1
  O  O18  1  0.38858159  0.81854131  0.45774981  1
  O  O19  1  0.03231109  0.96768891  0.50000000  1
  O  O20  1  0.54225019  0.18145869  0.61141841  1
  O  O21  1  0.25687769  0.74312231  0.00000000  1
  O  O22  1  0.18145869  0.61141841  0.54225019  1
  O  O23  1  0.81854131  0.45774981  0.38858159  1
  O  O24  1  0.96768891  0.50000000  0.03231109  1
  O  O25  1  0.29649940  0.29649940  0.29649940  1
  O  O26  1  0.61141841  0.54225019  0.18145869  1
  O  O27  1  0.50000000  0.03231109  0.96768891  1
