# generated using pymatgen
data_BaFeCuF7
_symmetry_space_group_name_H-M   'P 1'
_cell_length_a   5.73360107
_cell_length_b   7.44609004
_cell_length_c   7.44608999
_cell_angle_alpha   86.39493598
_cell_angle_beta   69.43181837
_cell_angle_gamma   69.43182541
_symmetry_Int_Tables_number   1
_chemical_formula_structural   BaFeCuF7
_chemical_formula_sum   'Ba2 Fe2 Cu2 F14'
_cell_volume   277.99284920
_cell_formula_units_Z   2
loop_
 _symmetry_equiv_pos_site_id
 _symmetry_equiv_pos_as_xyz
  1  'x, y, z'
loop_
 _atom_site_type_symbol
 _atom_site_label
 _atom_site_symmetry_multiplicity
 _atom_site_fract_x
 _atom_site_fract_y
 _atom_site_fract_z
 _atom_site_occupancy
  Ba  Ba0  1  0.74129830  0.31201122  0.67478507  1
  Ba  Ba1  1  0.24129830  0.67478507  0.31201122  1
  Fe  Fe2  1  0.88055132  0.69927759  0.91917095  1
  Fe  Fe3  1  0.38055132  0.91917095  0.69927759  1
  Cu  Cu4  1  0.11365356  0.28264450  0.08644999  1
  Cu  Cu5  1  0.61365356  0.08644999  0.28264450  1
  F  F6  1  0.26192260  0.03062768  0.48375644  1
  F  F7  1  0.72232456  0.81871528  0.18607899  1
  F  F8  1  0.47859994  0.67044306  0.58490863  1
  F  F9  1  0.98926797  0.05748750  0.19849450  1
  F  F10  1  0.00810698  0.41471385  0.32622660  1
  F  F11  1  0.76192260  0.48375644  0.03062768  1
  F  F12  1  0.97859994  0.58490863  0.67044306  1
  F  F13  1  0.00542980  0.91578309  0.82288747  1
  F  F14  1  0.50810698  0.32622660  0.41471385  1
  F  F15  1  0.71224498  0.95779899  0.56333861  1
  F  F16  1  0.48926797  0.19849450  0.05748750  1
  F  F17  1  0.21224498  0.56333861  0.95779899  1
  F  F18  1  0.50542980  0.82288747  0.91578309  1
  F  F19  1  0.22232456  0.18607899  0.81871528  1
