# generated using pymatgen
data_K2Cr4O13
_symmetry_space_group_name_H-M   'P 1'
_cell_length_a   7.70193874
_cell_length_b   8.94250241
_cell_length_c   9.55354680
_cell_angle_alpha   92.50490577
_cell_angle_beta   90.00000000
_cell_angle_gamma   90.00000000
_symmetry_Int_Tables_number   1
_chemical_formula_structural   K2Cr4O13
_chemical_formula_sum   'K4 Cr8 O26'
_cell_volume   657.36804251
_cell_formula_units_Z   2
loop_
 _symmetry_equiv_pos_site_id
 _symmetry_equiv_pos_as_xyz
  1  'x, y, z'
loop_
 _atom_site_type_symbol
 _atom_site_label
 _atom_site_symmetry_multiplicity
 _atom_site_fract_x
 _atom_site_fract_y
 _atom_site_fract_z
 _atom_site_occupancy
  K  K0  1  0.59360557  0.19665728  0.75746994  1
  K  K1  1  0.40639443  0.19665728  0.25746994  1
  K  K2  1  0.10382512  0.45586069  0.89611866  1
  K  K3  1  0.89617488  0.45586069  0.39611866  1
  Cr  Cr4  1  0.57155040  0.48465686  0.03225803  1
  Cr  Cr5  1  0.42844960  0.48465686  0.53225803  1
  Cr  Cr6  1  0.56610640  0.82820757  0.98710041  1
  Cr  Cr7  1  0.43389360  0.82820757  0.48710041  1
  Cr  Cr8  1  0.89252106  0.81933957  0.75590851  1
  Cr  Cr9  1  0.10747894  0.81933957  0.25590851  1
  Cr  Cr10  1  0.07038338  0.14233705  0.63179805  1
  Cr  Cr11  1  0.92961662  0.14233705  0.13179805  1
  O  O12  1  0.74144507  0.46798324  0.93168680  1
  O  O13  1  0.25855493  0.46798324  0.43168680  1
  O  O14  1  0.45662256  0.65803283  0.99237148  1
  O  O15  1  0.54337744  0.65803283  0.49237148  1
  O  O16  1  0.43872932  0.34483440  0.99978373  1
  O  O17  1  0.56127068  0.34483440  0.49978373  1
  O  O18  1  0.62696197  0.48910460  0.19622833  1
  O  O19  1  0.37303803  0.48910460  0.69622833  1
  O  O20  1  0.43070155  0.96430285  0.00410571  1
  O  O21  1  0.56929845  0.96430285  0.50410571  1
  O  O22  1  0.70135138  0.83677668  0.11358563  1
  O  O23  1  0.29864862  0.83677668  0.61358563  1
  O  O24  1  0.67752744  0.84031864  0.82549462  1
  O  O25  1  0.32247256  0.84031864  0.32549462  1
  O  O26  1  0.89721791  0.67119027  0.65483462  1
  O  O27  1  0.10278209  0.67119027  0.15483462  1
  O  O28  1  0.02768746  0.79771311  0.87990424  1
  O  O29  1  0.97231254  0.79771311  0.37990424  1
  O  O30  1  0.15055343  0.12917105  0.47429573  1
  O  O31  1  0.84944657  0.12917105  0.97429573  1
  O  O32  1  0.22544595  0.16372943  0.74598365  1
  O  O33  1  0.77455405  0.16372943  0.24598365  1
  O  O34  1  0.93820888  0.97655479  0.66455469  1
  O  O35  1  0.06179112  0.97655479  0.16455469  1
  O  O36  1  0.94011117  0.28678008  0.64685516  1
  O  O37  1  0.05988883  0.28678008  0.14685516  1
