# generated using pymatgen
data_NaP(WO4)2
_symmetry_space_group_name_H-M   'P 1'
_cell_length_a   5.46769240
_cell_length_b   6.84767746
_cell_length_c   9.15564488
_cell_angle_alpha   99.19409471
_cell_angle_beta   90.00000000
_cell_angle_gamma   90.00000000
_symmetry_Int_Tables_number   1
_chemical_formula_structural   NaP(WO4)2
_chemical_formula_sum   'Na2 P2 W4 O16'
_cell_volume   338.39244943
_cell_formula_units_Z   2
loop_
 _symmetry_equiv_pos_site_id
 _symmetry_equiv_pos_as_xyz
  1  'x, y, z'
loop_
 _atom_site_type_symbol
 _atom_site_label
 _atom_site_symmetry_multiplicity
 _atom_site_fract_x
 _atom_site_fract_y
 _atom_site_fract_z
 _atom_site_occupancy
  Na  Na0  1  0.25000000  0.72498346  0.56379772  1
  Na  Na1  1  0.75000000  0.27501654  0.43620228  1
  P  P2  1  0.25000000  0.22222028  0.62339764  1
  P  P3  1  0.75000000  0.77777972  0.37660236  1
  W  W4  1  0.75000000  0.94956116  0.75313528  1
  W  W5  1  0.25000000  0.64016073  0.90811297  1
  W  W6  1  0.75000000  0.35983927  0.09188703  1
  W  W7  1  0.25000000  0.05043884  0.24686472  1
  O  O8  1  0.48521122  0.10995082  0.65125352  1
  O  O9  1  0.98521122  0.89004918  0.34874648  1
  O  O10  1  0.25000000  0.43429112  0.70929208  1
  O  O11  1  0.49189318  0.78150437  0.80284368  1
  O  O12  1  0.00810682  0.78150437  0.80284368  1
  O  O13  1  0.75000000  0.56570888  0.29070792  1
  O  O14  1  0.51478878  0.89004918  0.34874648  1
  O  O15  1  0.50000000  0.50000000  0.00000000  1
  O  O16  1  0.25000000  0.24591417  0.45613618  1
  O  O17  1  0.01478878  0.10995082  0.65125352  1
  O  O18  1  0.75000000  0.14136578  0.91921686  1
  O  O19  1  0.99189318  0.21849563  0.19715632  1
  O  O20  1  0.50810682  0.21849563  0.19715632  1
  O  O21  1  0.00000000  0.50000000  0.00000000  1
  O  O22  1  0.75000000  0.75408583  0.54386382  1
  O  O23  1  0.25000000  0.85863422  0.08078314  1
