# generated using pymatgen
data_AlPO4
_symmetry_space_group_name_H-M   'P 1'
_cell_length_a   8.52825315
_cell_length_b   18.74511169
_cell_length_c   18.73562061
_cell_angle_alpha   120.01675899
_cell_angle_beta   90.01357528
_cell_angle_gamma   89.97286320
_symmetry_Int_Tables_number   1
_chemical_formula_structural   AlPO4
_chemical_formula_sum   'Al18 P18 O72'
_cell_volume   2593.42334688
_cell_formula_units_Z   18
loop_
 _symmetry_equiv_pos_site_id
 _symmetry_equiv_pos_as_xyz
  1  'x, y, z'
loop_
 _atom_site_type_symbol
 _atom_site_label
 _atom_site_symmetry_multiplicity
 _atom_site_fract_x
 _atom_site_fract_y
 _atom_site_fract_z
 _atom_site_occupancy
  Al  Al0  1  0.73741336  0.50663194  0.82326168  1
  Al  Al1  1  0.23810170  0.00911962  0.58323585  1
  Al  Al2  1  0.73648584  0.83332353  0.49550546  1
  Al  Al3  1  0.73741336  0.68337026  0.17673832  1
  Al  Al4  1  0.73887810  0.01019526  0.42675731  1
  Al  Al5  1  0.73554100  0.43557816  0.00000000  1
  Al  Al6  1  0.23545963  0.50737035  0.66293450  1
  Al  Al7  1  0.73553090  0.18618679  0.67127008  1
  Al  Al8  1  0.73648584  0.33781808  0.50449454  1
  Al  Al9  1  0.23731399  0.59528676  1.00000000  1
  Al  Al10  1  0.23589452  0.34937294  0.83117665  1
  Al  Al11  1  0.73553090  0.51491671  0.32872992  1
  Al  Al12  1  0.23810170  0.42588377  0.41676415  1
  Al  Al13  1  0.73887810  0.58343796  0.57324269  1
  Al  Al14  1  0.23572547  0.17965951  0.50675499  1
  Al  Al15  1  0.23589452  0.51819630  0.16882335  1
  Al  Al16  1  0.23545963  0.84443585  0.33706550  1
  Al  Al17  1  0.23572547  0.67290452  0.49324501  1
  P  P18  1  0.61062499  0.50550155  0.66401326  1
  P  P19  1  0.10934232  0.50820328  0.82219250  1
  P  P20  1  0.61147066  0.17889930  0.50449416  1
  P  P21  1  0.11346047  0.58698543  0.57502842  1
  P  P22  1  0.10910554  0.83240178  0.49466784  1
  P  P23  1  0.61082832  0.59689983  1.00000000  1
  P  P24  1  0.61000017  0.00905537  0.58604594  1
  P  P25  1  0.61000017  0.42300943  0.41395406  1
  P  P26  1  0.61132439  0.34742753  0.82945388  1
  P  P27  1  0.61147066  0.67440513  0.49550584  1
  P  P28  1  0.11491421  0.43376810  0.00000000  1
  P  P29  1  0.10934232  0.68601078  0.17780750  1
  P  P30  1  0.10910554  0.33773394  0.50533216  1
  P  P31  1  0.61062499  0.84148829  0.33598674  1
  P  P32  1  0.10990456  0.18728500  0.67413262  1
  P  P33  1  0.11346047  0.01195700  0.42497158  1
  P  P34  1  0.10990456  0.51315238  0.32586738  1
  P  P35  1  0.61132439  0.51797365  0.17054612  1
  O  O36  1  0.69810958  0.19501418  0.58358461  1
  O  O37  1  0.93552203  0.70844518  0.19688361  1
  O  O38  1  0.70113533  0.59576228  0.18563849  1
  O  O39  1  0.43674534  0.37056918  0.84198074  1
  O  O40  1  0.43674534  0.52858844  0.15801926  1
  O  O41  1  0.14144591  0.35244697  0.43265799  1
  O  O42  1  0.43597477  0.00410791  0.60424945  1
  O  O43  1  0.93480544  0.20314175  0.69439788  1
  O  O44  1  0.15046303  0.41443085  0.58817484  1
  O  O45  1  0.93480544  0.50874387  0.30560212  1
  O  O46  1  0.62950990  0.26070588  0.75508947  1
  O  O47  1  0.43653663  0.16573482  0.51319956  1
  O  O48  1  0.15170180  0.66895611  0.57814755  1
  O  O49  1  0.43608490  0.86035034  0.35603977  1
  O  O50  1  0.22040209  0.01085292  0.49087623  1
  O  O51  1  0.14708439  0.67034861  0.09059585  1
  O  O52  1  0.93540883  0.81131351  0.49444161  1
  O  O53  1  0.68690810  0.42360190  0.59993123  1
  O  O54  1  0.43624615  0.61705057  1.00000000  1
  O  O55  1  0.15289178  0.10093319  0.65926356  1
  O  O56  1  0.43597477  0.39985847  0.39575055  1
  O  O57  1  0.14144591  0.91978898  0.56734201  1
  O  O58  1  0.69177936  0.57847065  0.66206808  1
  O  O59  1  0.15289178  0.44166963  0.34073644  1
  O  O60  1  0.14494100  0.42404197  0.81452889  1
  O  O61  1  0.14856901  0.59104943  0.65781199  1
  O  O62  1  0.62950990  0.50561640  0.24491053  1
  O  O63  1  0.93967106  0.01283688  0.44844114  1
  O  O64  1  0.62769767  0.51525558  1.00000000  1
  O  O65  1  0.68201345  0.43246747  0.34379344  1
  O  O66  1  0.68115053  0.10148847  0.42913641  1
  O  O67  1  0.62768409  0.51689222  0.75043233  1
  O  O68  1  0.14494100  0.60951308  0.18547111  1
  O  O69  1  0.69637193  0.35510495  0.42194543  1
  O  O70  1  0.68690810  0.82367067  0.40006877  1
  O  O71  1  0.68976137  0.58846375  0.92222595  1
  O  O72  1  0.69637193  0.93315953  0.57805457  1
  O  O73  1  0.70113533  0.41012380  0.81436151  1
  O  O74  1  0.93824926  0.45135610  0.00000000  1
  O  O75  1  0.63069221  0.25239690  0.49088171  1
  O  O76  1  0.43653663  0.65253526  0.48680044  1
  O  O77  1  0.20871444  0.77075980  0.50616478  1
  O  O78  1  0.21345148  0.50266861  0.00000000  1
  O  O79  1  0.22040209  0.51997669  0.50912377  1
  O  O80  1  0.69177936  0.91640257  0.33793192  1
  O  O81  1  0.20871444  0.26459502  0.49383522  1
  O  O82  1  0.68976137  0.66623780  0.07777405  1
  O  O83  1  0.68201345  0.08867403  0.65620656  1
  O  O84  1  0.14638190  0.59739469  0.40200002  1
  O  O85  1  0.20898829  0.51930552  0.76039175  1
  O  O86  1  0.43608490  0.50431057  0.64396023  1
  O  O87  1  0.15046303  0.82625601  0.41182516  1
  O  O88  1  0.14708439  0.57975277  0.90940415  1
  O  O89  1  0.62538769  0.50520392  0.49538623  1
  O  O90  1  0.14856901  0.93323745  0.34218801  1
  O  O91  1  0.93540883  0.31687191  0.50555839  1
  O  O92  1  0.67821795  0.44139252  0.09316632  1
  O  O93  1  0.15768404  0.35275250  0.92096195  1
  O  O94  1  0.62538769  0.00981769  0.50461377  1
  O  O95  1  0.68115053  0.67235206  0.57086359  1
  O  O96  1  0.14638190  0.19539468  0.59799998  1
  O  O97  1  0.63069221  0.76151519  0.50911829  1
  O  O98  1  0.20546815  0.25098167  0.74782592  1
  O  O99  1  0.62768409  0.76645989  0.24956767  1
  O  O100  1  0.69810958  0.61142957  0.41641539  1
  O  O101  1  0.67821795  0.34822620  0.90683368  1
  O  O102  1  0.15170180  0.09080856  0.42185245  1
  O  O103  1  0.93552203  0.51156157  0.80311639  1
  O  O104  1  0.20898829  0.75891377  0.23960825  1
  O  O105  1  0.93967106  0.56439574  0.55155886  1
  O  O106  1  0.15768404  0.43179055  0.07903805  1
  O  O107  1  0.20546815  0.50315575  0.25217408  1
