# generated using pymatgen
data_Bi6Rh12O29
_symmetry_space_group_name_H-M   'P 1'
_cell_length_a   9.63526128
_cell_length_b   11.86016702
_cell_length_c   11.86016781
_cell_angle_alpha   63.54672902
_cell_angle_beta   84.10383195
_cell_angle_gamma   84.10383020
_symmetry_Int_Tables_number   1
_chemical_formula_structural   Bi6Rh12O29
_chemical_formula_sum   'Bi12 Rh24 O58'
_cell_volume   1204.53325449
_cell_formula_units_Z   2
loop_
 _symmetry_equiv_pos_site_id
 _symmetry_equiv_pos_as_xyz
  1  'x, y, z'
loop_
 _atom_site_type_symbol
 _atom_site_label
 _atom_site_symmetry_multiplicity
 _atom_site_fract_x
 _atom_site_fract_y
 _atom_site_fract_z
 _atom_site_occupancy
  Bi  Bi0  1  0.67101419  0.42887042  0.42887042  1
  Bi  Bi1  1  0.31477196  0.89148732  0.89148732  1
  Bi  Bi2  1  0.64279371  0.75302372  0.42040323  1
  Bi  Bi3  1  0.64279371  0.42040323  0.75302372  1
  Bi  Bi4  1  0.65723335  0.09896091  0.76899794  1
  Bi  Bi5  1  0.68522804  0.10851268  0.10851268  1
  Bi  Bi6  1  0.34276665  0.90103909  0.23100206  1
  Bi  Bi7  1  0.65723335  0.76899794  0.09896091  1
  Bi  Bi8  1  0.32898581  0.57112958  0.57112958  1
  Bi  Bi9  1  0.35720629  0.57959677  0.24697628  1
  Bi  Bi10  1  0.35720629  0.24697628  0.57959677  1
  Bi  Bi11  1  0.34276665  0.23100206  0.90103909  1
  Rh  Rh12  1  0.00531208  0.11429569  0.61729898  1
  Rh  Rh13  1  0.98766233  0.63389023  0.63389023  1
  Rh  Rh14  1  0.00000000  0.12186100  0.87813900  1
  Rh  Rh15  1  0.99468792  0.38270102  0.88570431  1
  Rh  Rh16  1  0.00555585  0.13430116  0.13430116  1
  Rh  Rh17  1  0.00531208  0.61729898  0.11429569  1
  Rh  Rh18  1  0.99468792  0.88570431  0.38270102  1
  Rh  Rh19  1  0.49940207  0.25602245  0.25602245  1
  Rh  Rh20  1  0.77604058  0.39305803  0.14091016  1
  Rh  Rh21  1  0.00000000  0.62823217  0.37176783  1
  Rh  Rh22  1  0.22395942  0.85908984  0.60694197  1
  Rh  Rh23  1  0.77604058  0.14091016  0.39305803  1
  Rh  Rh24  1  0.22754762  0.11197750  0.36173972  1
  Rh  Rh25  1  0.22395942  0.60694197  0.85908984  1
  Rh  Rh26  1  0.22754762  0.36173972  0.11197750  1
  Rh  Rh27  1  1.00000000  0.37176783  0.62823217  1
  Rh  Rh28  1  1.00000000  0.87813900  0.12186100  1
  Rh  Rh29  1  0.50000000  0.00000000  0.50000000  1
  Rh  Rh30  1  0.77245238  0.88802250  0.63826028  1
  Rh  Rh31  1  0.50000000  0.50000000  0.00000000  1
  Rh  Rh32  1  0.50059793  0.74397755  0.74397755  1
  Rh  Rh33  1  0.77245238  0.63826028  0.88802250  1
  Rh  Rh34  1  0.01233767  0.36610977  0.36610977  1
  Rh  Rh35  1  0.99444415  0.86569884  0.86569884  1
  O  O36  1  0.90121394  0.46130621  0.46130621  1
  O  O37  1  0.89199286  0.71590093  0.20545289  1
  O  O38  1  0.88061313  0.96776988  0.71445882  1
  O  O39  1  0.34330953  0.94355654  0.43383782  1
  O  O40  1  0.12877865  0.28146251  0.28146251  1
  O  O41  1  0.38685136  0.17363221  0.43103188  1
  O  O42  1  0.10800714  0.28409907  0.79454711  1
  O  O43  1  0.87214219  0.46820587  0.96972508  1
  O  O44  1  0.40783983  0.72910530  0.38338919  1
  O  O45  1  0.40945902  0.81421047  0.08609681  1
  O  O46  1  0.33875612  0.68564401  0.68564401  1
  O  O47  1  0.65669047  0.05644346  0.56616218  1
  O  O48  1  0.61314864  0.56896812  0.82636779  1
  O  O49  1  0.89087635  0.21854134  0.46709439  1
  O  O50  1  0.40448246  0.44266574  0.44266574  1
  O  O51  1  0.88061313  0.71445882  0.96776988  1
  O  O52  1  0.11571164  0.27850530  0.53483715  1
  O  O53  1  0.61433939  0.08625030  0.32828575  1
  O  O54  1  0.11938687  0.03223012  0.28554118  1
  O  O55  1  0.12785781  0.53179413  0.03027492  1
  O  O56  1  0.88428836  0.72149470  0.46516285  1
  O  O57  1  0.87122135  0.71853749  0.71853749  1
  O  O58  1  0.38566061  0.91374970  0.67171425  1
  O  O59  1  0.40945902  0.08609681  0.81421047  1
  O  O60  1  0.87214219  0.96972508  0.46820587  1
  O  O61  1  0.34802471  0.19241818  0.19241818  1
  O  O62  1  0.65197529  0.80758182  0.80758182  1
  O  O63  1  0.09878606  0.53869379  0.53869379  1
  O  O64  1  0.89101669  0.96179738  0.96179738  1
  O  O65  1  0.34330953  0.43383782  0.94355654  1
  O  O66  1  0.11938687  0.28554118  0.03223012  1
  O  O67  1  0.59054098  0.91390319  0.18578953  1
  O  O68  1  0.65669047  0.56616218  0.05644346  1
  O  O69  1  0.59216017  0.27089470  0.61661081  1
  O  O70  1  0.12836190  0.78174393  0.78174393  1
  O  O71  1  0.59551754  0.55733426  0.55733426  1
  O  O72  1  0.11571164  0.53483715  0.27850530  1
  O  O73  1  0.38685136  0.43103188  0.17363221  1
  O  O74  1  0.10912365  0.78145866  0.53290561  1
  O  O75  1  0.10800714  0.79454711  0.28409907  1
  O  O76  1  0.88428836  0.46516285  0.72149470  1
  O  O77  1  0.59054098  0.18578953  0.91390319  1
  O  O78  1  0.38566061  0.67171425  0.91374970  1
  O  O79  1  0.10898331  0.03820262  0.03820262  1
  O  O80  1  0.12785781  0.03027492  0.53179413  1
  O  O81  1  0.10942626  0.02420496  0.78685172  1
  O  O82  1  0.89087635  0.46709439  0.21854134  1
  O  O83  1  0.87163810  0.21825607  0.21825607  1
  O  O84  1  0.10912365  0.53290561  0.78145866  1
  O  O85  1  0.89057374  0.21314828  0.97579504  1
  O  O86  1  0.61433939  0.32828575  0.08625030  1
  O  O87  1  0.61314864  0.82636779  0.56896812  1
  O  O88  1  0.40783983  0.38338919  0.72910530  1
  O  O89  1  0.66124388  0.31435599  0.31435599  1
  O  O90  1  0.89199286  0.20545289  0.71590093  1
  O  O91  1  0.10942626  0.78685172  0.02420496  1
  O  O92  1  0.89057374  0.97579504  0.21314828  1
  O  O93  1  0.59216017  0.61661081  0.27089470  1
