# generated using pymatgen
data_Ba5Yb8Ni4O21
_symmetry_space_group_name_H-M   'P 1'
_cell_length_a   5.65872861
_cell_length_b   9.97035939
_cell_length_c   9.96989917
_cell_angle_alpha   85.38235934
_cell_angle_beta   73.51459140
_cell_angle_gamma   73.51413476
_symmetry_Int_Tables_number   1
_chemical_formula_structural   Ba5Yb8Ni4O21
_chemical_formula_sum   'Ba5 Yb8 Ni4 O21'
_cell_volume   517.20038720
_cell_formula_units_Z   1
loop_
 _symmetry_equiv_pos_site_id
 _symmetry_equiv_pos_as_xyz
  1  'x, y, z'
loop_
 _atom_site_type_symbol
 _atom_site_label
 _atom_site_symmetry_multiplicity
 _atom_site_fract_x
 _atom_site_fract_y
 _atom_site_fract_z
 _atom_site_occupancy
  Yb  Yb0  1  0.25046182  0.91937276  0.57975315  1
  Yb  Yb1  1  0.83019839  0.42022197  0.91937338  1
  Yb  Yb2  1  0.16980161  0.57977803  0.08062662  1
  Yb  Yb3  1  0.74953818  0.08062724  0.42024685  1
  Yb  Yb4  1  0.40723668  0.95356704  0.23187109  1
  Yb  Yb5  1  0.63919759  0.76810818  0.95355212  1
  Yb  Yb6  1  0.36080241  0.23189182  0.04644788  1
  Yb  Yb7  1  0.59276332  0.04643296  0.76812891  1
  Ba  Ba8  1  0.14730561  0.32053741  0.38482307  1
  Ba  Ba9  1  0.53212226  0.61521498  0.32054664  1
  Ba  Ba10  1  0.46787774  0.38478502  0.67945336  1
  Ba  Ba11  1  0.85269439  0.67946259  0.61517693  1
  Ba  Ba12  1  0.00000000  0.00000000  0.00000000  1
  Ni  Ni13  1  0.04139489  0.20194259  0.71540197  1
  Ni  Ni14  1  0.75667090  0.28469470  0.20198568  1
  Ni  Ni15  1  0.24332910  0.71530530  0.79801432  1
  Ni  Ni16  1  0.95860511  0.79805741  0.28459803  1
  O  O17  1  0.50000000  0.00000000  0.00000000  1
  O  O18  1  0.36125576  0.66393277  0.61360101  1
  O  O19  1  0.97483541  0.38636565  0.66396344  1
  O  O20  1  0.02516459  0.61363435  0.33603656  1
  O  O21  1  0.63874424  0.33606723  0.38639899  1
  O  O22  1  0.36669710  0.13033043  0.59518263  1
  O  O23  1  0.96178130  0.40484492  0.13035447  1
  O  O24  1  0.49698287  0.59518198  0.86967716  1
  O  O25  1  0.09212157  0.86969388  0.40483431  1
  O  O26  1  0.63330290  0.86966957  0.40481737  1
  O  O27  1  0.03821870  0.59515508  0.86964553  1
  O  O28  1  0.50301713  0.40481802  0.13032284  1
  O  O29  1  0.90787843  0.13030612  0.59516569  1
  O  O30  1  0.41832283  0.85487652  0.77458127  1
  O  O31  1  0.19290271  0.22537725  0.85490723  1
  O  O32  1  0.27314072  0.77461966  0.14510738  1
  O  O33  1  0.04774523  0.14513267  0.22541205  1
  O  O34  1  0.58167717  0.14512348  0.22541873  1
  O  O35  1  0.80709729  0.77462275  0.14509277  1
  O  O36  1  0.72685928  0.22538034  0.85489262  1
  O  O37  1  0.95225477  0.85486733  0.77458795  1
