# generated using pymatgen
data_Mg5Sb
_symmetry_space_group_name_H-M   'P 1'
_cell_length_a   5.55164112
_cell_length_b   5.55164089
_cell_length_c   15.65856721
_cell_angle_alpha   90.00000000
_cell_angle_beta   90.00000000
_cell_angle_gamma   120.00000136
_symmetry_Int_Tables_number   1
_chemical_formula_structural   Mg5Sb
_chemical_formula_sum   'Mg15 Sb3'
_cell_volume   417.95102668
_cell_formula_units_Z   3
loop_
 _symmetry_equiv_pos_site_id
 _symmetry_equiv_pos_as_xyz
  1  'x, y, z'
loop_
 _atom_site_type_symbol
 _atom_site_label
 _atom_site_symmetry_multiplicity
 _atom_site_fract_x
 _atom_site_fract_y
 _atom_site_fract_z
 _atom_site_occupancy
  Mg  Mg0  1  0.00004100  0.33337400  0.66666700  1
  Mg  Mg1  1  0.33333300  0.66666700  0.49979487  1
  Mg  Mg2  1  0.66662600  0.66666700  0.66666700  1
  Mg  Mg3  1  0.33333300  0.99995900  0.66666700  1
  Mg  Mg4  1  0.66666700  0.33333300  0.50020513  1
  Mg  Mg5  1  0.66670800  0.66670800  0.00000000  1
  Mg  Mg6  1  0.00000000  0.00000000  0.83312787  1
  Mg  Mg7  1  0.33329200  0.00000000  0.00000000  1
  Mg  Mg8  1  0.00000000  0.33329200  0.00000000  1
  Mg  Mg9  1  0.33333300  0.66666700  0.83353813  1
  Mg  Mg10  1  0.33337400  0.00004100  0.33333300  1
  Mg  Mg11  1  0.66666700  0.33333300  0.16646187  1
  Mg  Mg12  1  0.99995900  0.33333300  0.33333300  1
  Mg  Mg13  1  0.66666700  0.66662600  0.33333300  1
  Mg  Mg14  1  0.00000000  0.00000000  0.16687213  1
  Sb  Sb15  1  0.00000000  0.00000000  0.50000000  1
  Sb  Sb16  1  0.66666700  0.33333300  0.83333300  1
  Sb  Sb17  1  0.33333300  0.66666700  0.16666700  1
