# generated using pymatgen
data_Hg3PClO4
_symmetry_space_group_name_H-M   'P 1'
_cell_length_a   8.50610772
_cell_length_b   8.50610772
_cell_length_c   8.50610772
_cell_angle_alpha   90.00000000
_cell_angle_beta   90.00000000
_cell_angle_gamma   90.00000000
_symmetry_Int_Tables_number   1
_chemical_formula_structural   Hg3PClO4
_chemical_formula_sum   'Hg12 P4 Cl4 O16'
_cell_volume   615.44979980
_cell_formula_units_Z   4
loop_
 _symmetry_equiv_pos_site_id
 _symmetry_equiv_pos_as_xyz
  1  'x, y, z'
loop_
 _atom_site_type_symbol
 _atom_site_label
 _atom_site_symmetry_multiplicity
 _atom_site_fract_x
 _atom_site_fract_y
 _atom_site_fract_z
 _atom_site_occupancy
  Hg  Hg0  1  0.35565341  0.95733139  0.11303797  1
  Hg  Hg1  1  0.38696203  0.64434659  0.45733139  1
  Hg  Hg2  1  0.88696203  0.85565341  0.54266861  1
  Hg  Hg3  1  0.61303797  0.14434659  0.04266861  1
  Hg  Hg4  1  0.64434659  0.45733139  0.38696203  1
  Hg  Hg5  1  0.45733139  0.38696203  0.64434659  1
  Hg  Hg6  1  0.95733139  0.11303797  0.35565341  1
  Hg  Hg7  1  0.04266861  0.61303797  0.14434659  1
  Hg  Hg8  1  0.54266861  0.88696203  0.85565341  1
  Hg  Hg9  1  0.85565341  0.54266861  0.88696203  1
  Hg  Hg10  1  0.14434659  0.04266861  0.61303797  1
  Hg  Hg11  1  0.11303797  0.35565341  0.95733139  1
  P  P12  1  0.51593738  0.01593738  0.48406262  1
  P  P13  1  0.98406262  0.98406262  0.98406262  1
  P  P14  1  0.01593738  0.48406262  0.51593738  1
  P  P15  1  0.48406262  0.51593738  0.01593738  1
  Cl  Cl16  1  0.23525990  0.23525990  0.23525990  1
  Cl  Cl17  1  0.73525990  0.26474010  0.76474010  1
  Cl  Cl18  1  0.26474010  0.76474010  0.73525990  1
  Cl  Cl19  1  0.76474010  0.73525990  0.26474010  1
  O  O20  1  0.40727724  0.90266359  0.38379332  1
  O  O21  1  0.40266359  0.11620668  0.59272276  1
  O  O22  1  0.59272276  0.40266359  0.11620668  1
  O  O23  1  0.38033802  0.61966198  0.11966198  1
  O  O24  1  0.88033802  0.88033802  0.88033802  1
  O  O25  1  0.61620668  0.90727724  0.59733641  1
  O  O26  1  0.88379332  0.09272276  0.09733641  1
  O  O27  1  0.09733641  0.88379332  0.09272276  1
  O  O28  1  0.90266359  0.38379332  0.40727724  1
  O  O29  1  0.11966198  0.38033802  0.61966198  1
  O  O30  1  0.61966198  0.11966198  0.38033802  1
  O  O31  1  0.90727724  0.59733641  0.61620668  1
  O  O32  1  0.09272276  0.09733641  0.88379332  1
  O  O33  1  0.11620668  0.59272276  0.40266359  1
  O  O34  1  0.59733641  0.61620668  0.90727724  1
  O  O35  1  0.38379332  0.40727724  0.90266359  1
