# generated using pymatgen
data_Ce2CuGe6
_symmetry_space_group_name_H-M   'P 1'
_cell_length_a   4.17789388
_cell_length_b   4.11328697
_cell_length_c   10.99079844
_cell_angle_alpha   100.78499852
_cell_angle_beta   90.00000000
_cell_angle_gamma   90.00000000
_symmetry_Int_Tables_number   1
_chemical_formula_structural   Ce2CuGe6
_chemical_formula_sum   'Ce2 Cu1 Ge6'
_cell_volume   185.53926882
_cell_formula_units_Z   1
loop_
 _symmetry_equiv_pos_site_id
 _symmetry_equiv_pos_as_xyz
  1  'x, y, z'
loop_
 _atom_site_type_symbol
 _atom_site_label
 _atom_site_symmetry_multiplicity
 _atom_site_fract_x
 _atom_site_fract_y
 _atom_site_fract_z
 _atom_site_occupancy
  Cu  Cu0  1  0.50000000  0.22571664  0.45143329  1
  Ge  Ge1  1  0.00000000  0.28452887  0.56905774  1
  Ge  Ge2  1  0.50000000  0.78512369  0.57024738  1
  Ge  Ge3  1  0.50000000  0.90069293  0.80138587  1
  Ge  Ge4  1  0.00000000  0.39982431  0.79964862  1
  Ge  Ge5  1  0.50000000  0.54559731  0.09119462  1
  Ge  Ge6  1  0.50000000  0.11637971  0.23275942  1
  Ce  Ce7  1  0.00000000  0.66982495  0.33964990  1
  Ce  Ce8  1  0.00000000  0.00331159  0.00662317  1
