# generated using pymatgen
data_Ca3SiBr2
_symmetry_space_group_name_H-M   'P 1'
_cell_length_a   4.39859576
_cell_length_b   5.92055016
_cell_length_c   7.77592329
_cell_angle_alpha   112.37636095
_cell_angle_beta   106.42101030
_cell_angle_gamma   90.00428202
_symmetry_Int_Tables_number   1
_chemical_formula_structural   Ca3SiBr2
_chemical_formula_sum   'Ca3 Si1 Br2'
_cell_volume   178.28688468
_cell_formula_units_Z   1
loop_
 _symmetry_equiv_pos_site_id
 _symmetry_equiv_pos_as_xyz
  1  'x, y, z'
loop_
 _atom_site_type_symbol
 _atom_site_label
 _atom_site_symmetry_multiplicity
 _atom_site_fract_x
 _atom_site_fract_y
 _atom_site_fract_z
 _atom_site_occupancy
  Ca  Ca0  1  0.36367749  0.36365304  0.72730942  1
  Ca  Ca1  1  0.00000000  0.00000000  0.00000000  1
  Ca  Ca2  1  0.63632251  0.63634696  0.27269058  1
  Si  Si3  1  0.00000000  0.50000000  0.00000000  1
  Br  Br4  1  0.32304367  0.82265015  0.64531714  1
  Br  Br5  1  0.67695633  0.17734985  0.35468286  1
