# generated using pymatgen
data_Fe7Mo6
_symmetry_space_group_name_H-M   'P 1'
_cell_length_a   8.94064883
_cell_length_b   8.94064914
_cell_length_c   8.94064904
_cell_angle_alpha   30.87672482
_cell_angle_beta   30.87672143
_cell_angle_gamma   30.87672152
_symmetry_Int_Tables_number   1
_chemical_formula_structural   Fe7Mo6
_chemical_formula_sum   'Fe7 Mo6'
_cell_volume   166.94249384
_cell_formula_units_Z   1
loop_
 _symmetry_equiv_pos_site_id
 _symmetry_equiv_pos_as_xyz
  1  'x, y, z'
loop_
 _atom_site_type_symbol
 _atom_site_label
 _atom_site_symmetry_multiplicity
 _atom_site_fract_x
 _atom_site_fract_y
 _atom_site_fract_z
 _atom_site_occupancy
  Fe  Fe0  1  0.09151899  0.58913366  0.09151899  1
  Fe  Fe1  1  0.09151899  0.09151899  0.58913366  1
  Fe  Fe2  1  0.90848101  0.90848101  0.41086634  1
  Fe  Fe3  1  0.41086634  0.90848101  0.90848101  1
  Fe  Fe4  1  0.00000000  -0.00000000  -0.00000000  1
  Fe  Fe5  1  0.58913366  0.09151899  0.09151899  1
  Fe  Fe6  1  0.90848101  0.41086634  0.90848101  1
  Mo  Mo7  1  0.34655816  0.34655816  0.34655816  1
  Mo  Mo8  1  0.16589102  0.16589102  0.16589102  1
  Mo  Mo9  1  0.54930710  0.54930710  0.54930710  1
  Mo  Mo10  1  0.65344184  0.65344184  0.65344184  1
  Mo  Mo11  1  0.45069290  0.45069290  0.45069290  1
  Mo  Mo12  1  0.83410898  0.83410898  0.83410898  1
