# generated using pymatgen
data_YMoO4F
_symmetry_space_group_name_H-M   'P 1'
_cell_length_a   5.27935301
_cell_length_b   6.74759828
_cell_length_c   12.46077163
_cell_angle_alpha   90.00000000
_cell_angle_beta   90.00000000
_cell_angle_gamma   113.08429175
_symmetry_Int_Tables_number   1
_chemical_formula_structural   YMoO4F
_chemical_formula_sum   'Y4 Mo4 O16 F4'
_cell_volume   408.34682240
_cell_formula_units_Z   4
loop_
 _symmetry_equiv_pos_site_id
 _symmetry_equiv_pos_as_xyz
  1  'x, y, z'
loop_
 _atom_site_type_symbol
 _atom_site_label
 _atom_site_symmetry_multiplicity
 _atom_site_fract_x
 _atom_site_fract_y
 _atom_site_fract_z
 _atom_site_occupancy
  Y  Y0  1  0.63900152  0.79998757  0.05146823  1
  Y  Y1  1  0.36099848  0.20001243  0.94853177  1
  Y  Y2  1  0.63900152  0.29998757  0.44853177  1
  Y  Y3  1  0.36099848  0.70001243  0.55146823  1
  Mo  Mo4  1  0.92166690  0.86994619  0.35663063  1
  Mo  Mo5  1  0.07833310  0.63005381  0.85663063  1
  Mo  Mo6  1  0.92166690  0.36994619  0.14336937  1
  Mo  Mo7  1  0.07833310  0.13005381  0.64336937  1
  O  O8  1  0.19239745  0.20512596  0.77716798  1
  O  O9  1  0.00343907  0.33692684  0.56901692  1
  O  O10  1  0.19239745  0.70512596  0.72283202  1
  O  O11  1  0.69204165  0.96199438  0.43462710  1
  O  O12  1  0.80760255  0.79487404  0.22283202  1
  O  O13  1  0.76208211  0.40751253  0.84690976  1
  O  O14  1  0.23791789  0.09248747  0.34690976  1
  O  O15  1  0.76208211  0.90751253  0.65309024  1
  O  O16  1  0.80760255  0.29487404  0.27716798  1
  O  O17  1  0.00343907  0.83692684  0.93098308  1
  O  O18  1  0.30795835  0.53800562  0.93462710  1
  O  O19  1  0.30795835  0.03800562  0.56537290  1
  O  O20  1  0.23791789  0.59248747  0.15309024  1
  O  O21  1  0.99656093  0.66307316  0.43098308  1
  O  O22  1  0.99656093  0.16307316  0.06901692  1
  O  O23  1  0.69204165  0.46199438  0.06537290  1
  F  F24  1  0.54472897  0.96346177  0.90212810  1
  F  F25  1  0.45527103  0.53653823  0.40212810  1
  F  F26  1  0.45527103  0.03653823  0.09787190  1
  F  F27  1  0.54472897  0.46346177  0.59787190  1
