# generated using pymatgen
data_RbH3WO7
_symmetry_space_group_name_H-M   'P 1'
_cell_length_a   6.54184792
_cell_length_b   8.28508362
_cell_length_c   12.67250469
_cell_angle_alpha   106.68701612
_cell_angle_beta   92.92909016
_cell_angle_gamma   104.70322442
_symmetry_Int_Tables_number   1
_chemical_formula_structural   RbH3WO7
_chemical_formula_sum   'Rb4 H12 W4 O28'
_cell_volume   630.65403952
_cell_formula_units_Z   4
loop_
 _symmetry_equiv_pos_site_id
 _symmetry_equiv_pos_as_xyz
  1  'x, y, z'
loop_
 _atom_site_type_symbol
 _atom_site_label
 _atom_site_symmetry_multiplicity
 _atom_site_fract_x
 _atom_site_fract_y
 _atom_site_fract_z
 _atom_site_occupancy
  Rb  Rb0  1  0.21600052  0.24251914  0.86069998  1
  Rb  Rb1  1  0.09862947  0.26249414  0.53911131  1
  Rb  Rb2  1  0.78399948  0.75748086  0.13930002  1
  Rb  Rb3  1  0.90137053  0.73750586  0.46088869  1
  H  H4  1  0.39753021  0.00691037  0.08222208  1
  H  H5  1  0.60338030  0.57481665  0.66684263  1
  H  H6  1  0.36208880  0.69131799  0.27531567  1
  H  H7  1  0.67309981  0.49142827  0.81259026  1
  H  H8  1  0.32690019  0.50857173  0.18740974  1
  H  H9  1  0.78109597  0.74955063  0.72806035  1
  H  H10  1  0.60246979  0.99308963  0.91777792  1
  H  H11  1  0.21890403  0.25044937  0.27193965  1
  H  H12  1  0.63791120  0.30868201  0.72468433  1
  H  H13  1  0.16456210  0.02292106  0.06552321  1
  H  H14  1  0.39661970  0.42518335  0.33315737  1
  H  H15  1  0.83543790  0.97707894  0.93447679  1
  W  W16  1  0.18432726  0.70706272  0.87541604  1
  W  W17  1  0.56051371  0.12502972  0.34241102  1
  W  W18  1  0.43948629  0.87497028  0.65758898  1
  W  W19  1  0.81567274  0.29293728  0.12458396  1
  O  O20  1  0.76221832  0.36365089  0.41167283  1
  O  O21  1  0.57389872  0.32579806  0.04056515  1
  O  O22  1  0.78354613  0.39761601  0.00433881  1
  O  O23  1  0.71446655  0.05917229  0.73106980  1
  O  O24  1  0.64378989  0.29258906  0.49447637  1
  O  O25  1  0.35621011  0.70741094  0.50552363  1
  O  O26  1  0.33460457  0.30485283  0.33672822  1
  O  O27  1  0.23778168  0.63634911  0.58832717  1
  O  O28  1  0.11351469  0.29951634  0.09026943  1
  O  O29  1  0.57328349  0.40547604  0.74843590  1
  O  O30  1  0.26610965  0.96373959  0.02727135  1
  O  O31  1  0.42671651  0.59452396  0.25156410  1
  O  O32  1  0.66539543  0.69514717  0.66327178  1
  O  O33  1  0.88712183  0.48694635  0.23810149  1
  O  O34  1  0.73472547  0.99418629  0.34906384  1
  O  O35  1  0.30521075  0.99698238  0.39357756  1
  O  O36  1  0.11287817  0.51305365  0.76189851  1
  O  O37  1  0.61059048  0.14247610  0.19026832  1
  O  O38  1  0.28553345  0.94082771  0.26893020  1
  O  O39  1  0.26527453  0.00581371  0.65093616  1
  O  O40  1  0.69478925  0.00301762  0.60642244  1
  O  O41  1  0.21645387  0.60238399  0.99566119  1
  O  O42  1  0.73389035  0.03626041  0.97272865  1
  O  O43  1  0.95762493  0.82707432  0.84560808  1
  O  O44  1  0.88648531  0.70048366  0.90973057  1
  O  O45  1  0.38940952  0.85752390  0.80973168  1
  O  O46  1  0.04237507  0.17292568  0.15439192  1
  O  O47  1  0.42610128  0.67420194  0.95943485  1
