# generated using pymatgen
data_KVH6SO9
_symmetry_space_group_name_H-M   'P 1'
_cell_length_a   6.28131220
_cell_length_b   6.62436929
_cell_length_c   9.95093412
_cell_angle_alpha   90.00000000
_cell_angle_beta   90.00000000
_cell_angle_gamma   107.11459912
_symmetry_Int_Tables_number   1
_chemical_formula_structural   KVH6SO9
_chemical_formula_sum   'K2 V2 H12 S2 O18'
_cell_volume   395.72050932
_cell_formula_units_Z   2
loop_
 _symmetry_equiv_pos_site_id
 _symmetry_equiv_pos_as_xyz
  1  'x, y, z'
loop_
 _atom_site_type_symbol
 _atom_site_label
 _atom_site_symmetry_multiplicity
 _atom_site_fract_x
 _atom_site_fract_y
 _atom_site_fract_z
 _atom_site_occupancy
  K  K0  1  0.69999002  0.18715478  0.15315088  1
  K  K1  1  0.30000998  0.81284522  0.65315088  1
  V  V2  1  0.38851551  0.62250531  0.00241149  1
  V  V3  1  0.61148449  0.37749469  0.50241149  1
  H  H4  1  0.23745624  0.30676184  0.21601830  1
  H  H5  1  0.80029648  0.82032672  0.58246401  1
  H  H6  1  0.53624556  0.66286898  0.26625101  1
  H  H7  1  0.46375444  0.33713102  0.76625101  1
  H  H8  1  0.96955878  0.68681497  0.35603742  1
  H  H9  1  0.03044122  0.31318503  0.85603742  1
  H  H10  1  0.11278409  0.92279539  0.35205482  1
  H  H11  1  0.76254376  0.69323816  0.71601830  1
  H  H12  1  0.68587359  0.25836678  0.76648539  1
  H  H13  1  0.19970352  0.17967328  0.08246401  1
  H  H14  1  0.31412641  0.74163322  0.26648539  1
  H  H15  1  0.88721591  0.07720461  0.85205482  1
  S  S16  1  0.92479384  0.73665644  0.00251884  1
  S  S17  1  0.07520616  0.26334356  0.50251884  1
  O  O18  1  0.96930463  0.93096190  0.08127000  1
  O  O19  1  0.07198467  0.60551702  0.04971018  1
  O  O20  1  0.92801533  0.39448298  0.54971018  1
  O  O21  1  0.46335164  0.86371065  0.94093750  1
  O  O22  1  0.30625974  0.40979490  0.53317013  1
  O  O23  1  0.05077700  0.22231946  0.35688337  1
  O  O24  1  0.03069537  0.06903810  0.58127000  1
  O  O25  1  0.44412477  0.72966761  0.20969095  1
  O  O26  1  0.30021213  0.30721988  0.12483140  1
  O  O27  1  0.53664836  0.13628935  0.44093750  1
  O  O28  1  0.69374026  0.59020510  0.03317013  1
  O  O29  1  0.94922300  0.77768054  0.85688337  1
  O  O30  1  0.87554283  0.22015379  0.86488170  1
  O  O31  1  0.32264116  0.46516001  0.86573160  1
  O  O32  1  0.12445717  0.77984621  0.36488170  1
  O  O33  1  0.55587523  0.27033139  0.70969095  1
  O  O34  1  0.69978787  0.69278012  0.62483140  1
  O  O35  1  0.67735884  0.53483999  0.36573160  1
