# generated using pymatgen
data_TiCl3
_symmetry_space_group_name_H-M   'P 1'
_cell_length_a   6.13177365
_cell_length_b   6.09809111
_cell_length_c   19.33794206
_cell_angle_alpha   89.87389976
_cell_angle_beta   89.74918446
_cell_angle_gamma   59.81712214
_symmetry_Int_Tables_number   1
_chemical_formula_structural   TiCl3
_chemical_formula_sum   'Ti6 Cl18'
_cell_volume   625.04815505
_cell_formula_units_Z   6
loop_
 _symmetry_equiv_pos_site_id
 _symmetry_equiv_pos_as_xyz
  1  'x, y, z'
loop_
 _atom_site_type_symbol
 _atom_site_label
 _atom_site_symmetry_multiplicity
 _atom_site_fract_x
 _atom_site_fract_y
 _atom_site_fract_z
 _atom_site_occupancy
  Ti  Ti0  1  0.34195870  0.68089610  0.33452041  1
  Ti  Ti1  1  0.65804130  0.31910390  0.66547959  1
  Ti  Ti2  1  0.34055414  0.31889172  0.00000000  1
  Ti  Ti3  1  0.97714520  0.68089610  0.66547959  1
  Ti  Ti4  1  0.65944586  0.68110828  1.00000000  1
  Ti  Ti5  1  0.02285480  0.31910390  0.33452041  1
  Cl  Cl6  1  0.64538478  0.35422781  0.92831804  1
  Cl  Cl7  1  0.67162469  0.64596173  0.73703376  1
  Cl  Cl8  1  0.96435923  1.00000000  0.74073756  1
  Cl  Cl9  1  0.66968019  1.00000000  0.59046480  1
  Cl  Cl10  1  0.33031981  0.00000000  0.40953520  1
  Cl  Cl11  1  0.35046342  1.00000000  0.92524040  1
  Cl  Cl12  1  0.96387246  0.35363478  0.59399628  1
  Cl  Cl13  1  0.31758642  0.35403827  0.73703376  1
  Cl  Cl14  1  0.03612754  0.64636522  0.40600372  1
  Cl  Cl15  1  0.31750724  0.64636522  0.59399628  1
  Cl  Cl16  1  0.35461522  0.64577219  0.07168196  1
  Cl  Cl17  1  -0.00038741  0.64577219  0.92831804  1
  Cl  Cl18  1  0.03564077  0.00000000  0.25926244  1
  Cl  Cl19  1  0.32837531  0.35403827  0.26296624  1
  Cl  Cl20  1  0.68249276  0.35363478  0.40600372  1
  Cl  Cl21  1  1.00038741  0.35422781  0.07168196  1
  Cl  Cl22  1  0.64953658  0.00000000  0.07475960  1
  Cl  Cl23  1  0.68241358  0.64596173  0.26296624  1
