# generated using pymatgen
data_WSeS2Cl5
_symmetry_space_group_name_H-M   'P 1'
_cell_length_a   9.75100323
_cell_length_b   10.19505964
_cell_length_c   13.88144783
_cell_angle_alpha   71.98311404
_cell_angle_beta   69.42091768
_cell_angle_gamma   61.42616220
_symmetry_Int_Tables_number   1
_chemical_formula_structural   WSeS2Cl5
_chemical_formula_sum   'W4 Se4 S8 Cl20'
_cell_volume   1117.71702240
_cell_formula_units_Z   4
loop_
 _symmetry_equiv_pos_site_id
 _symmetry_equiv_pos_as_xyz
  1  'x, y, z'
loop_
 _atom_site_type_symbol
 _atom_site_label
 _atom_site_symmetry_multiplicity
 _atom_site_fract_x
 _atom_site_fract_y
 _atom_site_fract_z
 _atom_site_occupancy
  W  W0  1  0.23706887  0.40985986  0.73922038  1
  W  W1  1  0.38560044  0.09130240  0.76081852  1
  W  W2  1  0.76293113  0.59014014  0.26077962  1
  W  W3  1  0.61439956  0.90869760  0.23918148  1
  Se  Se4  1  0.91976108  0.56407991  0.73892637  1
  Se  Se5  1  0.77778171  0.06291023  0.23877427  1
  Se  Se6  1  0.08023892  0.43592009  0.26107363  1
  Se  Se7  1  0.22221829  0.93708977  0.76122573  1
  S  S8  1  0.54063382  0.73279441  0.39150526  1
  S  S9  1  0.66552769  0.76600728  0.10854502  1
  S  S10  1  0.75363372  0.73555267  0.37629009  1
  S  S11  1  0.86607222  0.76330268  0.12365442  1
  S  S12  1  0.13392778  0.23669732  0.87634558  1
  S  S13  1  0.24636628  0.26444733  0.62370991  1
  S  S14  1  0.33447231  0.23399272  0.89145498  1
  S  S15  1  0.45936618  0.26720559  0.60849474  1
  Cl  Cl16  1  0.86398431  0.47842567  0.63328565  1
  Cl  Cl17  1  0.86407518  0.98469365  0.38481054  1
  Cl  Cl18  1  0.48267524  0.10106370  0.35301668  1
  Cl  Cl19  1  0.76573027  0.48578064  0.88500428  1
  Cl  Cl20  1  0.13592482  0.01530635  0.61518946  1
  Cl  Cl21  1  0.38040064  0.87746897  0.90479535  1
  Cl  Cl22  1  0.65513301  0.00946135  0.77079022  1
  Cl  Cl23  1  0.23426973  0.51421936  0.11499572  1
  Cl  Cl24  1  0.51732476  0.89893630  0.64698332  1
  Cl  Cl25  1  0.83810115  0.37628887  0.40477709  1
  Cl  Cl26  1  0.13601569  0.52157433  0.36671435  1
  Cl  Cl27  1  0.02489984  0.97736100  0.13309379  1
  Cl  Cl28  1  0.93741304  0.39778992  0.14695738  1
  Cl  Cl29  1  0.61959936  0.12253103  0.09520465  1
  Cl  Cl30  1  0.16189885  0.62371113  0.59522291  1
  Cl  Cl31  1  0.06258696  0.60221008  0.85304262  1
  Cl  Cl32  1  0.97510016  0.02263900  0.86690621  1
  Cl  Cl33  1  0.43475831  0.49180477  0.72905522  1
  Cl  Cl34  1  0.34486699  0.99053865  0.22920978  1
  Cl  Cl35  1  0.56524169  0.50819523  0.27094478  1
