# generated using pymatgen
data_Ce10Ga5Br4
_symmetry_space_group_name_H-M   'P 1'
_cell_length_a   7.94028786
_cell_length_b   7.94028771
_cell_length_c   16.71205271
_cell_angle_alpha   103.74267848
_cell_angle_beta   103.74267821
_cell_angle_gamma   89.99999669
_symmetry_Int_Tables_number   1
_chemical_formula_structural   Ce10Ga5Br4
_chemical_formula_sum   'Ce20 Ga10 Br8'
_cell_volume   992.42027332
_cell_formula_units_Z   2
loop_
 _symmetry_equiv_pos_site_id
 _symmetry_equiv_pos_as_xyz
  1  'x, y, z'
loop_
 _atom_site_type_symbol
 _atom_site_label
 _atom_site_symmetry_multiplicity
 _atom_site_fract_x
 _atom_site_fract_y
 _atom_site_fract_z
 _atom_site_occupancy
  Ce  Ce0  1  0.96589316  0.46589316  0.58992735  1
  Ce  Ce1  1  0.75898776  0.25898776  0.85313361  1
  Ce  Ce2  1  0.25898776  0.09414585  0.85313361  1
  Ce  Ce3  1  0.62403419  0.12403419  0.58992735  1
  Ce  Ce4  1  0.87596581  0.03410684  0.41007265  1
  Ce  Ce5  1  0.65460312  0.65460312  0.30920623  1
  Ce  Ce6  1  0.46589316  0.62403419  0.58992735  1
  Ce  Ce7  1  0.84539688  0.84539688  0.69079377  1
  Ce  Ce8  1  0.59414585  0.75898776  0.85313361  1
  Ce  Ce9  1  0.53410684  0.37596581  0.41007265  1
  Ce  Ce10  1  0.09414585  0.59414585  0.85313361  1
  Ce  Ce11  1  0.37596581  0.87596581  0.41007265  1
  Ce  Ce12  1  0.03410684  0.53410684  0.41007265  1
  Ce  Ce13  1  0.15460312  0.15460312  0.30920623  1
  Ce  Ce14  1  0.40585415  0.24101224  0.14686639  1
  Ce  Ce15  1  0.12403419  0.96589316  0.58992735  1
  Ce  Ce16  1  0.90585415  0.40585415  0.14686639  1
  Ce  Ce17  1  0.74101224  0.90585415  0.14686639  1
  Ce  Ce18  1  0.34539688  0.34539688  0.69079377  1
  Ce  Ce19  1  0.24101224  0.74101224  0.14686639  1
  Ga  Ga20  1  0.01242224  0.76150173  0.27392397  1
  Ga  Ga21  1  0.76150173  0.26150173  0.27392397  1
  Ga  Ga22  1  0.23849827  0.73849827  0.72607603  1
  Ga  Ga23  1  0.26150173  0.51242224  0.27392397  1
  Ga  Ga24  1  0.73849827  0.48757776  0.72607603  1
  Ga  Ga25  1  0.98757776  0.23849827  0.72607603  1
  Ga  Ga26  1  0.51242224  0.01242224  0.27392397  1
  Ga  Ga27  1  0.75000000  0.75000000  0.50000000  1
  Ga  Ga28  1  0.48757776  0.98757776  0.72607603  1
  Ga  Ga29  1  0.25000000  0.25000000  0.50000000  1
  Br  Br30  1  0.94283384  0.94283384  0.88566769  1
  Br  Br31  1  0.44283384  0.44283384  0.88566769  1
  Br  Br32  1  0.35759714  0.85759714  0.00000000  1
  Br  Br33  1  0.64240286  0.14240286  1.00000000  1
  Br  Br34  1  0.55716616  0.55716616  0.11433231  1
  Br  Br35  1  0.05716616  0.05716616  0.11433231  1
  Br  Br36  1  0.14240286  0.35759714  0.00000000  1
  Br  Br37  1  0.85759714  0.64240286  1.00000000  1
