# generated using pymatgen
data_Te2WCl6
_symmetry_space_group_name_H-M   'P 1'
_cell_length_a   6.69974031
_cell_length_b   7.83180047
_cell_length_c   11.54732143
_cell_angle_alpha   102.23461690
_cell_angle_beta   103.92069386
_cell_angle_gamma   88.46552465
_symmetry_Int_Tables_number   1
_chemical_formula_structural   Te2WCl6
_chemical_formula_sum   'Te4 W2 Cl12'
_cell_volume   574.56022272
_cell_formula_units_Z   2
loop_
 _symmetry_equiv_pos_site_id
 _symmetry_equiv_pos_as_xyz
  1  'x, y, z'
loop_
 _atom_site_type_symbol
 _atom_site_label
 _atom_site_symmetry_multiplicity
 _atom_site_fract_x
 _atom_site_fract_y
 _atom_site_fract_z
 _atom_site_occupancy
  Te  Te0  1  0.73623784  0.85204115  0.49431355  1
  Te  Te1  1  0.61693834  0.09549916  0.67193729  1
  Te  Te2  1  0.26376216  0.14795885  0.50568645  1
  Te  Te3  1  0.38306166  0.90450084  0.32806271  1
  W  W4  1  0.79129064  0.32906094  0.19569102  1
  W  W5  1  0.20870936  0.67093906  0.80430898  1
  Cl  Cl6  1  0.73017561  0.36959703  0.39116225  1
  Cl  Cl7  1  0.85931589  0.28869717  0.00497280  1
  Cl  Cl8  1  0.87878101  0.55225951  0.71700003  1
  Cl  Cl9  1  0.66522077  0.60858161  0.18155358  1
  Cl  Cl10  1  0.53218365  0.79663187  0.88796420  1
  Cl  Cl11  1  0.14068411  0.71130283  0.99502720  1
  Cl  Cl12  1  0.07969236  0.95155844  0.78253773  1
  Cl  Cl13  1  0.26982439  0.63040297  0.60883775  1
  Cl  Cl14  1  0.33477923  0.39141839  0.81844642  1
  Cl  Cl15  1  0.92030764  0.04844156  0.21746227  1
  Cl  Cl16  1  0.46781635  0.20336813  0.11203580  1
  Cl  Cl17  1  0.12121899  0.44774049  0.28299997  1
