# generated using pymatgen
data_Y3(B3Os4)2
_symmetry_space_group_name_H-M   'P 1'
_cell_length_a   5.52517370
_cell_length_b   5.52924701
_cell_length_c   9.26282345
_cell_angle_alpha   81.43030075
_cell_angle_beta   72.64780268
_cell_angle_gamma   60.02436632
_symmetry_Int_Tables_number   1
_chemical_formula_structural   Y3(B3Os4)2
_chemical_formula_sum   'Y3 B6 Os8'
_cell_volume   233.97188672
_cell_formula_units_Z   1
loop_
 _symmetry_equiv_pos_site_id
 _symmetry_equiv_pos_as_xyz
  1  'x, y, z'
loop_
 _atom_site_type_symbol
 _atom_site_label
 _atom_site_symmetry_multiplicity
 _atom_site_fract_x
 _atom_site_fract_y
 _atom_site_fract_z
 _atom_site_occupancy
  Y  Y0  1  0.00000000  0.00000000  0.00000000  1
  Y  Y1  1  0.82029279  0.00000000  0.35941442  1
  Y  Y2  1  0.17970721  0.00000000  0.64058558  1
  B  B3  1  0.17605061  0.29747946  0.35041932  1
  B  B4  1  0.82394939  0.70252054  0.64958068  1
  B  B5  1  0.52646993  0.29747946  0.64958068  1
  B  B6  1  0.31802055  0.36395889  0.00000000  1
  B  B7  1  0.47353007  0.70252054  0.35041932  1
  B  B8  1  0.68197945  0.63604111  0.00000000  1
  Os  Os9  1  0.57974709  0.00000000  0.84050582  1
  Os  Os10  1  0.40972957  0.50000000  0.18054086  1
  Os  Os11  1  0.90972957  0.50000000  0.18054086  1
  Os  Os12  1  0.09027043  0.50000000  0.81945914  1
  Os  Os13  1  0.42025291  0.00000000  0.15949418  1
  Os  Os14  1  0.75000000  0.50000000  0.50000000  1
  Os  Os15  1  0.59027043  0.50000000  0.81945914  1
  Os  Os16  1  0.25000000  0.50000000  0.50000000  1
