# generated using pymatgen
data_LiCr2P3O10
_symmetry_space_group_name_H-M   'P 1'
_cell_length_a   4.74408983
_cell_length_b   8.65783797
_cell_length_c   9.49294030
_cell_angle_alpha   90.00000000
_cell_angle_beta   102.23630635
_cell_angle_gamma   90.00000000
_symmetry_Int_Tables_number   1
_chemical_formula_structural   LiCr2P3O10
_chemical_formula_sum   'Li2 Cr4 P6 O20'
_cell_volume   381.05083152
_cell_formula_units_Z   2
loop_
 _symmetry_equiv_pos_site_id
 _symmetry_equiv_pos_as_xyz
  1  'x, y, z'
loop_
 _atom_site_type_symbol
 _atom_site_label
 _atom_site_symmetry_multiplicity
 _atom_site_fract_x
 _atom_site_fract_y
 _atom_site_fract_z
 _atom_site_occupancy
  Li  Li0  1  0.00000000  0.00000000  0.00000000  1
  Li  Li1  1  0.00000000  0.50000000  0.00000000  1
  Cr  Cr2  1  0.04168623  0.06417958  0.33051848  1
  Cr  Cr3  1  0.04168623  0.43582042  0.33051848  1
  Cr  Cr4  1  0.95831377  0.56417958  0.66948152  1
  Cr  Cr5  1  0.95831377  0.93582042  0.66948152  1
  P  P6  1  0.32508361  0.25000000  0.82462000  1
  P  P7  1  0.53087839  0.75000000  0.86559755  1
  P  P8  1  0.41979499  0.75000000  0.45010491  1
  P  P9  1  0.58020501  0.25000000  0.54989509  1
  P  P10  1  0.46912161  0.25000000  0.13440245  1
  P  P11  1  0.67491639  0.75000000  0.17538000  1
  O  O12  1  0.15297328  0.10171612  0.81578767  1
  O  O13  1  0.15297328  0.39828388  0.81578767  1
  O  O14  1  0.22734780  0.75000000  0.76409608  1
  O  O15  1  0.25437688  0.60278356  0.46570714  1
  O  O16  1  0.25437688  0.89721644  0.46570714  1
  O  O17  1  0.27787113  0.25000000  0.44850294  1
  O  O18  1  0.55970818  0.25000000  0.97384877  1
  O  O19  1  0.30203720  0.10237420  0.14379615  1
  O  O20  1  0.30203720  0.39762580  0.14379615  1
  O  O21  1  0.53248394  0.25000000  0.71477332  1
  O  O22  1  0.46751606  0.75000000  0.28522668  1
  O  O23  1  0.69796280  0.60237420  0.85620385  1
  O  O24  1  0.69796280  0.89762580  0.85620385  1
  O  O25  1  0.44029182  0.75000000  0.02615123  1
  O  O26  1  0.72212887  0.75000000  0.55149706  1
  O  O27  1  0.74562312  0.10278356  0.53429286  1
  O  O28  1  0.74562312  0.39721644  0.53429286  1
  O  O29  1  0.77265220  0.25000000  0.23590392  1
  O  O30  1  0.84702672  0.60171612  0.18421233  1
  O  O31  1  0.84702672  0.89828388  0.18421233  1
