# generated using pymatgen
data_Nd5Mo3O16
_symmetry_space_group_name_H-M   'P 1'
_cell_length_a   11.13778323
_cell_length_b   11.13778323
_cell_length_c   11.13778323
_cell_angle_alpha   90.00000000
_cell_angle_beta   90.00000000
_cell_angle_gamma   90.00000000
_symmetry_Int_Tables_number   1
_chemical_formula_structural   Nd5Mo3O16
_chemical_formula_sum   'Nd20 Mo12 O64'
_cell_volume   1381.64440741
_cell_formula_units_Z   4
loop_
 _symmetry_equiv_pos_site_id
 _symmetry_equiv_pos_as_xyz
  1  'x, y, z'
loop_
 _atom_site_type_symbol
 _atom_site_label
 _atom_site_symmetry_multiplicity
 _atom_site_fract_x
 _atom_site_fract_y
 _atom_site_fract_z
 _atom_site_occupancy
  Nd  Nd0  1  0.98977695  0.75000000  0.75000000  1
  Nd  Nd1  1  0.75000000  0.51022305  0.75000000  1
  Nd  Nd2  1  0.50000000  0.50000000  0.00000000  1
  Nd  Nd3  1  0.01022305  0.25000000  0.25000000  1
  Nd  Nd4  1  0.00000000  0.50000000  0.50000000  1
  Nd  Nd5  1  0.50000000  0.00000000  0.50000000  1
  Nd  Nd6  1  0.25000000  0.25000000  0.48977695  1
  Nd  Nd7  1  0.51022305  0.75000000  0.75000000  1
  Nd  Nd8  1  0.75000000  0.75000000  0.98977695  1
  Nd  Nd9  1  0.00000000  0.00000000  0.00000000  1
  Nd  Nd10  1  0.75000000  0.75000000  0.51022305  1
  Nd  Nd11  1  0.48977695  0.25000000  0.25000000  1
  Nd  Nd12  1  0.25000000  0.01022305  0.25000000  1
  Nd  Nd13  1  0.50000000  0.00000000  0.00000000  1
  Nd  Nd14  1  0.00000000  0.50000000  0.00000000  1
  Nd  Nd15  1  0.25000000  0.48977695  0.25000000  1
  Nd  Nd16  1  0.25000000  0.25000000  0.01022305  1
  Nd  Nd17  1  0.50000000  0.50000000  0.50000000  1
  Nd  Nd18  1  0.00000000  0.00000000  0.50000000  1
  Nd  Nd19  1  0.75000000  0.98977695  0.75000000  1
  Mo  Mo20  1  0.75000000  0.50000000  0.25000000  1
  Mo  Mo21  1  0.25000000  0.75000000  0.50000000  1
  Mo  Mo22  1  0.50000000  0.75000000  0.25000000  1
  Mo  Mo23  1  0.00000000  0.75000000  0.25000000  1
  Mo  Mo24  1  0.75000000  0.00000000  0.25000000  1
  Mo  Mo25  1  0.75000000  0.25000000  0.00000000  1
  Mo  Mo26  1  0.25000000  0.75000000  0.00000000  1
  Mo  Mo27  1  0.75000000  0.25000000  0.50000000  1
  Mo  Mo28  1  0.00000000  0.25000000  0.75000000  1
  Mo  Mo29  1  0.25000000  0.00000000  0.75000000  1
  Mo  Mo30  1  0.25000000  0.50000000  0.75000000  1
  Mo  Mo31  1  0.50000000  0.25000000  0.75000000  1
  O  O32  1  0.87900263  0.87900263  0.62099737  1
  O  O33  1  0.36635892  0.58436140  0.83025709  1
  O  O34  1  0.41563860  0.86635892  0.16974291  1
  O  O35  1  0.91563860  0.13364108  0.66974291  1
  O  O36  1  0.87900263  0.62099737  0.87900263  1
  O  O37  1  0.12099737  0.12099737  0.12099737  1
  O  O38  1  0.86635892  0.33025709  0.08436140  1
  O  O39  1  0.66974291  0.58436140  0.36635892  1
  O  O40  1  0.63364108  0.16974291  0.08436140  1
  O  O41  1  0.66974291  0.36635892  0.91563860  1
  O  O42  1  0.62099737  0.87900263  0.62099737  1
  O  O43  1  0.37900263  0.37900263  0.12099737  1
  O  O44  1  0.36635892  0.91563860  0.66974291  1
  O  O45  1  0.37900263  0.12099737  0.12099737  1
  O  O46  1  0.33025709  0.41563860  0.63364108  1
  O  O47  1  0.13364108  0.66974291  0.91563860  1
  O  O48  1  0.63364108  0.41563860  0.16974291  1
  O  O49  1  0.83025709  0.13364108  0.91563860  1
  O  O50  1  0.62099737  0.87900263  0.87900263  1
  O  O51  1  0.91563860  0.83025709  0.13364108  1
  O  O52  1  0.37900263  0.37900263  0.37900263  1
  O  O53  1  0.58436140  0.13364108  0.83025709  1
  O  O54  1  0.41563860  0.33025709  0.86635892  1
  O  O55  1  0.83025709  0.36635892  0.58436140  1
  O  O56  1  0.33025709  0.86635892  0.41563860  1
  O  O57  1  0.87900263  0.62099737  0.62099737  1
  O  O58  1  0.91563860  0.36635892  0.83025709  1
  O  O59  1  0.36635892  0.66974291  0.58436140  1
  O  O60  1  0.12099737  0.37900263  0.12099737  1
  O  O61  1  0.87900263  0.87900263  0.87900263  1
  O  O62  1  0.66974291  0.91563860  0.13364108  1
  O  O63  1  0.08436140  0.33025709  0.63364108  1
  O  O64  1  0.41563860  0.16974291  0.63364108  1
  O  O65  1  0.63364108  0.08436140  0.33025709  1
  O  O66  1  0.13364108  0.91563860  0.83025709  1
  O  O67  1  0.86635892  0.41563860  0.33025709  1
  O  O68  1  0.58436140  0.66974291  0.13364108  1
  O  O69  1  0.41563860  0.63364108  0.33025709  1
  O  O70  1  0.66974291  0.13364108  0.58436140  1
  O  O71  1  0.91563860  0.66974291  0.36635892  1
  O  O72  1  0.37900263  0.12099737  0.37900263  1
  O  O73  1  0.62099737  0.62099737  0.87900263  1
  O  O74  1  0.16974291  0.08436140  0.63364108  1
  O  O75  1  0.08436140  0.16974291  0.86635892  1
  O  O76  1  0.33025709  0.08436140  0.86635892  1
  O  O77  1  0.12099737  0.37900263  0.37900263  1
  O  O78  1  0.16974291  0.63364108  0.41563860  1
  O  O79  1  0.86635892  0.08436140  0.16974291  1
  O  O80  1  0.08436140  0.63364108  0.16974291  1
  O  O81  1  0.36635892  0.83025709  0.91563860  1
  O  O82  1  0.83025709  0.58436140  0.13364108  1
  O  O83  1  0.63364108  0.33025709  0.41563860  1
  O  O84  1  0.58436140  0.36635892  0.66974291  1
  O  O85  1  0.16974291  0.41563860  0.86635892  1
  O  O86  1  0.58436140  0.83025709  0.36635892  1
  O  O87  1  0.33025709  0.63364108  0.08436140  1
  O  O88  1  0.12099737  0.12099737  0.37900263  1
  O  O89  1  0.13364108  0.58436140  0.66974291  1
  O  O90  1  0.62099737  0.62099737  0.62099737  1
  O  O91  1  0.08436140  0.86635892  0.33025709  1
  O  O92  1  0.86635892  0.16974291  0.41563860  1
  O  O93  1  0.13364108  0.83025709  0.58436140  1
  O  O94  1  0.83025709  0.91563860  0.36635892  1
  O  O95  1  0.16974291  0.86635892  0.08436140  1
