# generated using pymatgen
data_Rb2Cr4O13
_symmetry_space_group_name_H-M   'P 1'
_cell_length_a   7.79620149
_cell_length_b   9.61212740
_cell_length_c   17.85599505
_cell_angle_alpha   91.95310884
_cell_angle_beta   90.00000000
_cell_angle_gamma   90.00000000
_symmetry_Int_Tables_number   1
_chemical_formula_structural   Rb2Cr4O13
_chemical_formula_sum   'Rb8 Cr16 O52'
_cell_volume   1337.31666057
_cell_formula_units_Z   4
loop_
 _symmetry_equiv_pos_site_id
 _symmetry_equiv_pos_as_xyz
  1  'x, y, z'
loop_
 _atom_site_type_symbol
 _atom_site_label
 _atom_site_symmetry_multiplicity
 _atom_site_fract_x
 _atom_site_fract_y
 _atom_site_fract_z
 _atom_site_occupancy
  Rb  Rb0  1  0.33474574  0.17815338  0.93084832  1
  Rb  Rb1  1  0.66525426  0.82184662  0.06915168  1
  Rb  Rb2  1  0.64107662  0.81599572  0.57523457  1
  Rb  Rb3  1  0.35892338  0.18400428  0.42476543  1
  Rb  Rb4  1  0.83474574  0.32184662  0.06915168  1
  Rb  Rb5  1  0.14107662  0.68400428  0.42476543  1
  Rb  Rb6  1  0.16525426  0.67815338  0.93084832  1
  Rb  Rb7  1  0.85892338  0.31599572  0.57523457  1
  Cr  Cr8  1  0.86173852  0.68076296  0.75122108  1
  Cr  Cr9  1  0.13826148  0.31923704  0.24877892  1
  Cr  Cr10  1  0.68458632  0.55957037  0.91176578  1
  Cr  Cr11  1  0.63826148  0.18076296  0.75122108  1
  Cr  Cr12  1  0.36173852  0.81923704  0.24877892  1
  Cr  Cr13  1  0.68624530  0.53965355  0.41735289  1
  Cr  Cr14  1  0.18624530  0.96034645  0.58264711  1
  Cr  Cr15  1  0.31134339  0.40760271  0.75400974  1
  Cr  Cr16  1  0.81134339  0.09239729  0.24599026  1
  Cr  Cr17  1  0.18865661  0.90760271  0.75400974  1
  Cr  Cr18  1  0.18458632  0.94042963  0.08823422  1
  Cr  Cr19  1  0.81375470  0.03965355  0.41735289  1
  Cr  Cr20  1  0.68865661  0.59239729  0.24599026  1
  Cr  Cr21  1  0.31541368  0.44042963  0.08823422  1
  Cr  Cr22  1  0.81541368  0.05957037  0.91176578  1
  Cr  Cr23  1  0.31375470  0.46034645  0.58264711  1
  O  O24  1  0.81414776  0.57544566  0.98356133  1
  O  O25  1  0.42544436  0.24829038  0.76230057  1
  O  O26  1  0.40450004  0.59395651  0.08961531  1
  O  O27  1  0.17681900  0.42063663  0.82223164  1
  O  O28  1  0.07455564  0.74829038  0.76230057  1
  O  O29  1  0.09549996  0.09395651  0.08961531  1
  O  O30  1  0.14883776  0.12669133  0.58709581  1
  O  O31  1  0.00796474  0.87266832  0.57685324  1
  O  O32  1  0.94274937  0.96431225  0.24092838  1
  O  O33  1  0.68952227  0.07806649  0.48873424  1
  O  O34  1  0.03942342  0.81942527  0.08084109  1
  O  O35  1  0.53942342  0.68057473  0.91915891  1
  O  O36  1  0.92544436  0.25170962  0.23769943  1
  O  O37  1  0.32318100  0.92063663  0.82223164  1
  O  O38  1  0.85116224  0.87330867  0.41290419  1
  O  O39  1  0.68585224  0.07544566  0.98356133  1
  O  O40  1  0.82318100  0.57936337  0.17776836  1
  O  O41  1  0.44274937  0.53568775  0.75907162  1
  O  O42  1  0.27135305  0.19318143  0.25504966  1
  O  O43  1  0.59549996  0.40604349  0.91038469  1
  O  O44  1  0.77135305  0.30681857  0.74495034  1
  O  O45  1  0.22864695  0.69318143  0.25504966  1
  O  O46  1  0.68280888  0.08177757  0.82763002  1
  O  O47  1  0.81047773  0.57806649  0.48873424  1
  O  O48  1  0.31414776  0.92455434  0.01643867  1
  O  O49  1  0.57455564  0.75170962  0.23769943  1
  O  O50  1  0.18952227  0.42193351  0.51126576  1
  O  O51  1  0.72864695  0.80681857  0.74495034  1
  O  O52  1  0.20124818  0.41216686  0.66955154  1
  O  O53  1  0.99203526  0.12733168  0.42314676  1
  O  O54  1  0.31719112  0.91822243  0.17236998  1
  O  O55  1  0.50796474  0.62733168  0.42314676  1
  O  O56  1  0.14753765  0.41138556  0.32557015  1
  O  O57  1  0.05725063  0.03568775  0.75907162  1
  O  O58  1  0.85246235  0.58861444  0.67442985  1
  O  O59  1  0.81719112  0.58177757  0.82763002  1
  O  O60  1  0.18280888  0.41822243  0.17236998  1
  O  O61  1  0.64753765  0.08861444  0.67442985  1
  O  O62  1  0.67681900  0.07936337  0.17776836  1
  O  O63  1  0.35246235  0.91138556  0.32557015  1
  O  O64  1  0.55725063  0.46431225  0.24092838  1
  O  O65  1  0.35116224  0.62669133  0.58709581  1
  O  O66  1  0.64883776  0.37330867  0.41290419  1
  O  O67  1  0.49203526  0.37266832  0.57685324  1
  O  O68  1  0.96057658  0.18057473  0.91915891  1
  O  O69  1  0.46057658  0.31942527  0.08084109  1
  O  O70  1  0.90450004  0.90604349  0.91038469  1
  O  O71  1  0.70124818  0.08783314  0.33044846  1
  O  O72  1  0.29875182  0.91216686  0.66955154  1
  O  O73  1  0.31047773  0.92193351  0.51126576  1
  O  O74  1  0.18585224  0.42455434  0.01643867  1
  O  O75  1  0.79875182  0.58783314  0.33044846  1
