# generated using pymatgen
data_Mg2BN2Cl
_symmetry_space_group_name_H-M   'P 1'
_cell_length_a   6.68485372
_cell_length_b   9.83892706
_cell_length_c   10.65497972
_cell_angle_alpha   90.00000000
_cell_angle_beta   90.00000000
_cell_angle_gamma   90.00000000
_symmetry_Int_Tables_number   1
_chemical_formula_structural   Mg2BN2Cl
_chemical_formula_sum   'Mg16 B8 N16 Cl8'
_cell_volume   700.79706897
_cell_formula_units_Z   8
loop_
 _symmetry_equiv_pos_site_id
 _symmetry_equiv_pos_as_xyz
  1  'x, y, z'
loop_
 _atom_site_type_symbol
 _atom_site_label
 _atom_site_symmetry_multiplicity
 _atom_site_fract_x
 _atom_site_fract_y
 _atom_site_fract_z
 _atom_site_occupancy
  Mg  Mg0  1  0.69707973  0.95179144  0.05774778  1
  Mg  Mg1  1  0.94185141  0.24916652  0.80718086  1
  Mg  Mg2  1  0.94185141  0.25083348  0.30718086  1
  Mg  Mg3  1  0.44185141  0.24916652  0.69281914  1
  Mg  Mg4  1  0.44185141  0.25083348  0.19281914  1
  Mg  Mg5  1  0.19707973  0.95179144  0.44225222  1
  Mg  Mg6  1  0.30292027  0.45179144  0.44225222  1
  Mg  Mg7  1  0.55814859  0.75083348  0.30718086  1
  Mg  Mg8  1  0.55814859  0.74916652  0.80718086  1
  Mg  Mg9  1  0.30292027  0.04820856  0.94225222  1
  Mg  Mg10  1  0.69707973  0.54820856  0.55774778  1
  Mg  Mg11  1  0.80292027  0.04820856  0.55774778  1
  Mg  Mg12  1  0.05814859  0.74916652  0.69281914  1
  Mg  Mg13  1  0.05814859  0.75083348  0.19281914  1
  Mg  Mg14  1  0.19707973  0.54820856  0.94225222  1
  Mg  Mg15  1  0.80292027  0.45179144  0.05774778  1
  B  B16  1  0.64340782  0.03922446  0.80136718  1
  B  B17  1  0.64340782  0.46077554  0.30136718  1
  B  B18  1  0.85659218  0.96077554  0.30136718  1
  B  B19  1  0.35659218  0.96077554  0.19863282  1
  B  B20  1  0.35659218  0.53922446  0.69863282  1
  B  B21  1  0.14340782  0.46077554  0.19863282  1
  B  B22  1  0.85659218  0.53922446  0.80136718  1
  B  B23  1  0.14340782  0.03922446  0.69863282  1
  N  N24  1  0.07103142  0.94319602  0.62238896  1
  N  N25  1  0.92896858  0.44319602  0.87761104  1
  N  N26  1  0.29461765  0.64064994  0.77370041  1
  N  N27  1  0.70538235  0.35935006  0.22629959  1
  N  N28  1  0.70538235  0.14064994  0.72629959  1
  N  N29  1  0.57103142  0.94319602  0.87761104  1
  N  N30  1  0.29461765  0.85935006  0.27370041  1
  N  N31  1  0.92896858  0.05680398  0.37761104  1
  N  N32  1  0.20538235  0.14064994  0.77370041  1
  N  N33  1  0.42896858  0.05680398  0.12238896  1
  N  N34  1  0.20538235  0.35935006  0.27370041  1
  N  N35  1  0.79461765  0.85935006  0.22629959  1
  N  N36  1  0.42896858  0.44319602  0.62238896  1
  N  N37  1  0.79461765  0.64064994  0.72629959  1
  N  N38  1  0.57103142  0.55680398  0.37761104  1
  N  N39  1  0.07103142  0.55680398  0.12238896  1
  Cl  Cl40  1  0.43575559  0.15779439  0.45894221  1
  Cl  Cl41  1  0.06424441  0.65779439  0.45894221  1
  Cl  Cl42  1  0.56424441  0.65779439  0.04105779  1
  Cl  Cl43  1  0.43575559  0.34220561  0.95894221  1
  Cl  Cl44  1  0.56424441  0.84220561  0.54105779  1
  Cl  Cl45  1  0.06424441  0.84220561  0.95894221  1
  Cl  Cl46  1  0.93575559  0.34220561  0.54105779  1
  Cl  Cl47  1  0.93575559  0.15779439  0.04105779  1
