# generated using pymatgen
data_TiNi
_symmetry_space_group_name_H-M   'P 1'
_cell_length_a   5.32283969
_cell_length_b   7.23611498
_cell_length_c   7.23602144
_cell_angle_alpha   119.99588788
_cell_angle_beta   89.99900115
_cell_angle_gamma   89.99958832
_symmetry_Int_Tables_number   1
_chemical_formula_structural   TiNi
_chemical_formula_sum   'Ti9 Ni9'
_cell_volume   241.37779532
_cell_formula_units_Z   9
loop_
 _symmetry_equiv_pos_site_id
 _symmetry_equiv_pos_as_xyz
  1  'x, y, z'
loop_
 _atom_site_type_symbol
 _atom_site_label
 _atom_site_symmetry_multiplicity
 _atom_site_fract_x
 _atom_site_fract_y
 _atom_site_fract_z
 _atom_site_occupancy
  Ti  Ti0  1  0.00867589  0.00002233  -0.00000060  1
  Ti  Ti1  1  0.94857912  0.66671310  0.33337074  1
  Ti  Ti2  1  0.01507212  0.33334236  0.66669923  1
  Ti  Ti3  1  0.64166930  0.34560116  0.01162783  1
  Ti  Ti4  1  0.64156316  0.98822825  0.33391896  1
  Ti  Ti5  1  0.64162731  0.66606559  0.65434738  1
  Ti  Ti6  1  0.32990419  0.66772784  0.99324471  1
  Ti  Ti7  1  0.32979681  0.00679204  0.67449136  1
  Ti  Ti8  1  0.32984720  0.32548227  0.33226785  1
  Ni  Ni9  1  0.53969121  0.00000228  0.99996184  1
  Ni  Ni10  1  0.40650058  0.66665550  0.33338445  1
  Ni  Ni11  1  0.54297727  0.33328806  0.66661465  1
  Ni  Ni12  1  0.12400812  0.35010920  0.01704754  1
  Ni  Ni13  1  0.12396631  0.98305834  0.33315844  1
  Ni  Ni14  1  0.12398563  0.66685655  0.64988153  1
  Ni  Ni15  1  0.83774887  0.66609898  0.97676429  1
  Ni  Ni16  1  0.83767297  0.02322734  0.68927658  1
  Ni  Ni17  1  0.83771395  0.31072882  0.33394321  1
