# generated using pymatgen
data_Li9Co3P8O29
_symmetry_space_group_name_H-M   'P 1'
_cell_length_a   9.66501431
_cell_length_b   9.66474157
_cell_length_c   13.68650493
_cell_angle_alpha   89.99992762
_cell_angle_beta   90.00935073
_cell_angle_gamma   119.99709281
_symmetry_Int_Tables_number   1
_chemical_formula_structural   Li9Co3P8O29
_chemical_formula_sum   'Li18 Co6 P16 O58'
_cell_volume   1107.20656160
_cell_formula_units_Z   2
loop_
 _symmetry_equiv_pos_site_id
 _symmetry_equiv_pos_as_xyz
  1  'x, y, z'
loop_
 _atom_site_type_symbol
 _atom_site_label
 _atom_site_symmetry_multiplicity
 _atom_site_fract_x
 _atom_site_fract_y
 _atom_site_fract_z
 _atom_site_occupancy
  Li  Li0  1  0.10019616  0.76335362  0.93605818  1
  Li  Li1  1  0.76325338  0.10034247  0.56395991  1
  Li  Li2  1  0.66215181  0.89923526  0.93613507  1
  Li  Li3  1  0.33728383  0.10049790  0.06392427  1
  Li  Li4  1  0.33338746  0.66669702  0.11978150  1
  Li  Li5  1  0.33778535  0.23705983  0.56387281  1
  Li  Li6  1  0.66684151  0.33349736  0.88030285  1
  Li  Li7  1  0.23675195  0.33707113  0.93603442  1
  Li  Li8  1  0.10055558  0.33737130  0.43604634  1
  Li  Li9  1  0.00028479  0.00080452  0.50009748  1
  Li  Li10  1  0.76311167  0.66274990  0.06393396  1
  Li  Li11  1  0.99960969  0.00059477  0.99988645  1
  Li  Li12  1  0.66667538  0.33332487  0.38021854  1
  Li  Li13  1  0.66269088  0.76321225  0.43607689  1
  Li  Li14  1  0.23687876  0.89967541  0.43606520  1
  Li  Li15  1  0.89982794  0.66313511  0.56394279  1
  Li  Li16  1  0.33319772  0.66668703  0.61970543  1
  Li  Li17  1  0.89942804  0.23681974  0.06394705  1
  Co  Co18  1  0.43379905  0.43368077  0.75006973  1
  Co  Co19  1  0.56625698  0.56629634  0.24999346  1
  Co  Co20  1  0.56621358  0.99989192  0.74992538  1
  Co  Co21  1  0.43374171  0.00004420  0.25001440  1
  Co  Co22  1  0.00000817  0.56611916  0.75000511  1
  Co  Co23  1  0.00001173  0.43383134  0.24999799  1
  P  P24  1  0.67894839  0.90761995  0.15749097  1
  P  P25  1  0.66660932  0.33337912  0.12890437  1
  P  P26  1  0.09250777  0.32087272  0.65749852  1
  P  P27  1  0.32123667  0.09246129  0.84257743  1
  P  P28  1  0.77133964  0.67902615  0.84250775  1
  P  P29  1  0.22857916  0.32104342  0.15745110  1
  P  P30  1  0.33338902  0.66675437  0.37110412  1
  P  P31  1  0.90749260  0.22834494  0.84250101  1
  P  P32  1  0.66663214  0.33313514  0.62882657  1
  P  P33  1  0.67876985  0.77121625  0.65741713  1
  P  P34  1  0.09238019  0.77143017  0.15746196  1
  P  P35  1  0.22864784  0.90769819  0.65749024  1
  P  P36  1  0.33340440  0.66656805  0.87117120  1
  P  P37  1  0.32105970  0.22868986  0.34251127  1
  P  P38  1  0.90761705  0.67905088  0.34254436  1
  P  P39  1  0.77143834  0.09245737  0.34254178  1
  O  O40  1  0.89249836  0.51352782  0.33210813  1
  O  O41  1  0.25852806  0.33590737  0.65774871  1
  O  O42  1  0.74146510  0.07737743  0.84226302  1
  O  O43  1  0.21237073  0.21244601  0.24999697  1
  O  O44  1  0.37895631  0.89246041  0.66790978  1
  O  O45  1  0.99998353  0.21223636  0.74999101  1
  O  O46  1  0.22835347  0.00252488  0.93325780  1
  O  O47  1  0.67703554  0.49131095  0.16581540  1
  O  O48  1  0.78738566  0.78762660  0.75000663  1
  O  O49  1  0.48654374  0.37905643  0.33205136  1
  O  O50  1  0.99733768  0.22529233  0.93323911  1
  O  O51  1  0.22567079  0.99753313  0.56674985  1
  O  O52  1  0.32298362  0.81429305  0.33422653  1
  O  O53  1  0.89243224  0.37879058  0.83208488  1
  O  O54  1  0.99755180  0.77188193  0.43325309  1
  O  O55  1  0.77425700  0.77180480  0.93324666  1
  O  O56  1  0.81456196  0.49108127  0.66536363  1
  O  O57  1  0.48667761  0.10746812  0.83211693  1
  O  O58  1  0.78763210  0.00002679  0.25001134  1
  O  O59  1  0.49125601  0.67710670  0.33415603  1
  O  O60  1  0.92236847  0.25855580  0.34234341  1
  O  O61  1  0.66355474  0.92212042  0.65750546  1
  O  O62  1  0.25844763  0.92239036  0.15766302  1
  O  O63  1  0.22830612  0.22581251  0.43325448  1
  O  O64  1  0.33353906  0.66679203  0.48223944  1
  O  O65  1  0.00244733  0.77428618  0.06674199  1
  O  O66  1  0.07765035  0.33622560  0.15762960  1
  O  O67  1  0.37899071  0.48650841  0.16789287  1
  O  O68  1  0.50893034  0.32293309  0.66596974  1
  O  O69  1  0.21261588  0.00026137  0.74998993  1
  O  O70  1  0.62103030  0.10752452  0.33209205  1
  O  O71  1  0.66584331  0.33262785  0.51769136  1
  O  O72  1  0.66381427  0.74154050  0.15765394  1
  O  O73  1  0.33423681  0.66699682  0.98230697  1
  O  O74  1  0.18546326  0.67656534  0.83462394  1
  O  O75  1  0.51333303  0.62078450  0.66787493  1
  O  O76  1  0.67716559  0.18571285  0.66580719  1
  O  O77  1  0.00266590  0.22802221  0.56675309  1
  O  O78  1  0.22555883  0.22816035  0.06673184  1
  O  O79  1  0.81423462  0.32307883  0.16573844  1
  O  O80  1  0.74152833  0.66390188  0.34236087  1
  O  O81  1  0.77166021  0.77415839  0.56673837  1
  O  O82  1  0.62106273  0.51347017  0.83206075  1
  O  O83  1  0.51347384  0.89253781  0.16794897  1
  O  O84  1  0.77446379  0.00260838  0.43326864  1
  O  O85  1  0.07772117  0.74158728  0.65776673  1
  O  O86  1  0.10761423  0.48639315  0.66794470  1
  O  O87  1  0.50874363  0.18584487  0.16583457  1
  O  O88  1  0.32289505  0.50859304  0.83424919  1
  O  O89  1  0.77171454  0.99750074  0.06674982  1
  O  O90  1  0.18577898  0.50883804  0.33425425  1
  O  O91  1  0.10756378  0.62106563  0.16792450  1
  O  O92  1  0.33644572  0.25857783  0.84248133  1
  O  O93  1  0.66645372  0.33332269  0.01776875  1
  O  O94  1  0.99996741  0.78761693  0.24999420  1
  O  O95  1  0.33617115  0.07772955  0.34234012  1
  O  O96  1  0.49109422  0.81400628  0.83397664  1
  O  O97  1  0.92227745  0.66385781  0.84224705  1
