# generated using pymatgen
data_Rb2FeI4
_symmetry_space_group_name_H-M   'P 1'
_cell_length_a   7.89586348
_cell_length_b   8.34604991
_cell_length_c   10.49171902
_cell_angle_alpha   90.00000000
_cell_angle_beta   109.21604493
_cell_angle_gamma   90.00000000
_symmetry_Int_Tables_number   1
_chemical_formula_structural   Rb2FeI4
_chemical_formula_sum   'Rb4 Fe2 I8'
_cell_volume   652.87494204
_cell_formula_units_Z   2
loop_
 _symmetry_equiv_pos_site_id
 _symmetry_equiv_pos_as_xyz
  1  'x, y, z'
loop_
 _atom_site_type_symbol
 _atom_site_label
 _atom_site_symmetry_multiplicity
 _atom_site_fract_x
 _atom_site_fract_y
 _atom_site_fract_z
 _atom_site_occupancy
  Rb  Rb0  1  0.20144173  0.74021449  0.03965532  1
  Rb  Rb1  1  0.28902278  0.73931418  0.58217871  1
  Rb  Rb2  1  0.71097722  0.23931418  0.41782129  1
  Rb  Rb3  1  0.79855827  0.24021449  0.96034468  1
  Fe  Fe4  1  0.79622083  0.74489889  0.21084596  1
  Fe  Fe5  1  0.20377917  0.24489889  0.78915404  1
  I  I6  1  0.62822902  0.75038283  0.94807429  1
  I  I7  1  0.58390390  0.74772554  0.35823775  1
  I  I8  1  0.00968110  0.49366060  0.26890010  1
  I  I9  1  0.37177098  0.25038283  0.05192571  1
  I  I10  1  0.98503651  0.49250347  0.72547624  1
  I  I11  1  0.41609610  0.24772554  0.64176225  1
  I  I12  1  0.99031890  0.99366060  0.73109990  1
  I  I13  1  0.01496349  0.99250347  0.27452376  1
