# generated using pymatgen
data_SrNb4O6
_symmetry_space_group_name_H-M   'P 1'
_cell_length_a   4.21587863
_cell_length_b   4.21585887
_cell_length_c   16.41247406
_cell_angle_alpha   90.00070018
_cell_angle_beta   90.00028982
_cell_angle_gamma   90.00042647
_symmetry_Int_Tables_number   1
_chemical_formula_structural   SrNb4O6
_chemical_formula_sum   'Sr2 Nb8 O12'
_cell_volume   291.70791710
_cell_formula_units_Z   2
loop_
 _symmetry_equiv_pos_site_id
 _symmetry_equiv_pos_as_xyz
  1  'x, y, z'
loop_
 _atom_site_type_symbol
 _atom_site_label
 _atom_site_symmetry_multiplicity
 _atom_site_fract_x
 _atom_site_fract_y
 _atom_site_fract_z
 _atom_site_occupancy
  Sr  Sr0  1  0.99999212  0.00000764  0.87549753  1
  Sr  Sr1  1  -0.00000455  0.00000933  0.12451017  1
  Nb  Nb2  1  0.50000081  0.99999870  0.36850216  1
  Nb  Nb3  1  -0.00000010  0.49999752  0.63149551  1
  Nb  Nb4  1  0.49999402  0.49999389  -0.00001774  1
  Nb  Nb5  1  0.50000007  0.50000022  0.24771235  1
  Nb  Nb6  1  0.49999603  0.50000134  0.75230710  1
  Nb  Nb7  1  -0.00000110  0.49999998  0.36850183  1
  Nb  Nb8  1  0.50000195  -0.00000052  0.63149542  1
  Nb  Nb9  1  0.50000336  0.49999918  0.49999722  1
  O  O10  1  0.50000858  -0.00000342  0.76201984  1
  O  O11  1  0.49999619  0.49999007  0.11972252  1
  O  O12  1  -0.00000019  0.49999944  0.76201998  1
  O  O13  1  0.50000017  0.50000607  0.88028627  1
  O  O14  1  0.00000227  -0.00000135  0.62993391  1
  O  O15  1  0.49999654  0.99999682  0.23797437  1
  O  O16  1  0.00000021  -0.00000106  0.37006295  1
  O  O17  1  0.50000370  0.99999704  0.49999943  1
  O  O18  1  0.00000104  0.49999813  0.23797425  1
  O  O19  1  -0.00000218  0.50000543  0.00000234  1
  O  O20  1  0.00000372  0.50000078  0.49999889  1
  O  O21  1  0.50000734  0.00000476  0.00000372  1
