# generated using pymatgen
data_H3SNO3
_symmetry_space_group_name_H-M   'P 1'
_cell_length_a   8.38270883
_cell_length_b   8.38791059
_cell_length_c   9.30148820
_cell_angle_alpha   90.00000000
_cell_angle_beta   90.00000000
_cell_angle_gamma   90.00000000
_symmetry_Int_Tables_number   1
_chemical_formula_structural   H3SNO3
_chemical_formula_sum   'H24 S8 N8 O24'
_cell_volume   654.01937358
_cell_formula_units_Z   8
loop_
 _symmetry_equiv_pos_site_id
 _symmetry_equiv_pos_as_xyz
  1  'x, y, z'
loop_
 _atom_site_type_symbol
 _atom_site_label
 _atom_site_symmetry_multiplicity
 _atom_site_fract_x
 _atom_site_fract_y
 _atom_site_fract_z
 _atom_site_occupancy
  H  H0  1  0.22698297  0.07126441  0.58895747  1
  H  H1  1  0.72698297  0.42873559  0.58895747  1
  H  H2  1  0.86528502  0.05655159  0.85356227  1
  H  H3  1  0.21899130  0.91513782  0.98413766  1
  H  H4  1  0.78100870  0.08486218  0.01586234  1
  H  H5  1  0.13471498  0.44344841  0.35356227  1
  H  H6  1  0.27301703  0.57126441  0.41104253  1
  H  H7  1  0.36528502  0.44344841  0.85356227  1
  H  H8  1  0.77301703  0.42873559  0.08895747  1
  H  H9  1  0.28100870  0.91513782  0.48413766  1
  H  H10  1  0.77301703  0.92873559  0.41104253  1
  H  H11  1  0.72698297  0.92873559  0.91104253  1
  H  H12  1  0.27301703  0.07126441  0.08895747  1
  H  H13  1  0.71899130  0.08486218  0.51586234  1
  H  H14  1  0.36528502  0.94344841  0.64643773  1
  H  H15  1  0.13471498  0.94344841  0.14643773  1
  H  H16  1  0.71899130  0.58486218  0.98413766  1
  H  H17  1  0.63471498  0.55655159  0.14643773  1
  H  H18  1  0.63471498  0.05655159  0.35356227  1
  H  H19  1  0.21899130  0.41513782  0.51586234  1
  H  H20  1  0.22698297  0.57126441  0.91104253  1
  H  H21  1  0.28100870  0.41513782  0.01586234  1
  H  H22  1  0.78100870  0.58486218  0.48413766  1
  H  H23  1  0.86528502  0.55655159  0.64643773  1
  S  S24  1  0.10036531  0.33297232  0.82466029  1
  S  S25  1  0.89963469  0.66702768  0.17533971  1
  S  S26  1  0.39963469  0.83297232  0.17533971  1
  S  S27  1  0.60036531  0.16702768  0.82466029  1
  S  S28  1  0.39963469  0.33297232  0.32466029  1
  S  S29  1  0.89963469  0.16702768  0.32466029  1
  S  S30  1  0.10036531  0.83297232  0.67533971  1
  S  S31  1  0.60036531  0.66702768  0.67533971  1
  N  N32  1  0.76016047  0.54724915  0.58879517  1
  N  N33  1  0.23983953  0.95275085  0.08879517  1
  N  N34  1  0.26016047  0.95275085  0.58879517  1
  N  N35  1  0.23983953  0.45275085  0.41120483  1
  N  N36  1  0.76016047  0.04724915  0.91120483  1
  N  N37  1  0.73983953  0.54724915  0.08879517  1
  N  N38  1  0.73983953  0.04724915  0.41120483  1
  N  N39  1  0.26016047  0.45275085  0.91120483  1
  O  O40  1  0.96830061  0.44405593  0.82229444  1
  O  O41  1  0.82868994  0.70419208  0.31416661  1
  O  O42  1  0.03169939  0.55594407  0.17770556  1
  O  O43  1  0.08449715  0.69961110  0.57719464  1
  O  O44  1  0.58449715  0.30038890  0.92280536  1
  O  O45  1  0.08449715  0.19961110  0.92280536  1
  O  O46  1  0.82868994  0.20419208  0.18583339  1
  O  O47  1  0.32868994  0.79580792  0.31416661  1
  O  O48  1  0.67131006  0.20419208  0.68583339  1
  O  O49  1  0.53169939  0.94405593  0.17770556  1
  O  O50  1  0.41550285  0.69961110  0.07719464  1
  O  O51  1  0.32868994  0.29580792  0.18583339  1
  O  O52  1  0.46830061  0.55594407  0.67770556  1
  O  O53  1  0.91550285  0.30038890  0.42280536  1
  O  O54  1  0.67131006  0.70419208  0.81416661  1
  O  O55  1  0.58449715  0.80038890  0.57719464  1
  O  O56  1  0.41550285  0.19961110  0.42280536  1
  O  O57  1  0.17131006  0.29580792  0.68583339  1
  O  O58  1  0.96830061  0.94405593  0.67770556  1
  O  O59  1  0.53169939  0.44405593  0.32229444  1
  O  O60  1  0.46830061  0.05594407  0.82229444  1
  O  O61  1  0.03169939  0.05594407  0.32229444  1
  O  O62  1  0.91550285  0.80038890  0.07719464  1
  O  O63  1  0.17131006  0.79580792  0.81416661  1
