# generated using pymatgen
data_Ba(HO)2
_symmetry_space_group_name_H-M   'P 1'
_cell_length_a   9.15379605
_cell_length_b   8.25639332
_cell_length_c   7.07440881
_cell_angle_alpha   90.00000000
_cell_angle_beta   99.46804546
_cell_angle_gamma   90.00000000
_symmetry_Int_Tables_number   1
_chemical_formula_structural   Ba(HO)2
_chemical_formula_sum   'Ba8 H16 O16'
_cell_volume   527.38152866
_cell_formula_units_Z   8
loop_
 _symmetry_equiv_pos_site_id
 _symmetry_equiv_pos_as_xyz
  1  'x, y, z'
loop_
 _atom_site_type_symbol
 _atom_site_label
 _atom_site_symmetry_multiplicity
 _atom_site_fract_x
 _atom_site_fract_y
 _atom_site_fract_z
 _atom_site_occupancy
  Ba  Ba0  1  0.90697222  0.12445338  0.25883913  1
  Ba  Ba1  1  0.40697222  0.37554662  0.75883913  1
  Ba  Ba2  1  0.09302778  0.87554662  0.74116087  1
  Ba  Ba3  1  0.59302778  0.62445338  0.24116087  1
  Ba  Ba4  1  0.33489933  0.04621480  0.26473511  1
  Ba  Ba5  1  0.83489933  0.45378520  0.76473511  1
  Ba  Ba6  1  0.66510067  0.95378520  0.73526489  1
  Ba  Ba7  1  0.16510067  0.54621480  0.23526489  1
  H  H8  1  0.71611357  0.89603878  0.38428301  1
  H  H9  1  0.21611357  0.60396122  0.88428301  1
  H  H10  1  0.28388643  0.10396122  0.61571699  1
  H  H11  1  0.78388643  0.39603878  0.11571699  1
  H  H12  1  0.02931983  0.84419182  0.22747149  1
  H  H13  1  0.52931983  0.65580818  0.72747149  1
  H  H14  1  0.97068017  0.15580818  0.77252851  1
  H  H15  1  0.47068017  0.34419182  0.27252851  1
  H  H16  1  0.85091411  0.74362508  0.02170922  1
  H  H17  1  0.35091411  0.75637492  0.52170922  1
  H  H18  1  0.14908589  0.25637492  0.97829078  1
  H  H19  1  0.64908589  0.24362508  0.47829078  1
  H  H20  1  0.39550155  0.80509623  0.94898035  1
  H  H21  1  0.89550155  0.69490377  0.44898035  1
  H  H22  1  0.60449845  0.19490377  0.05101965  1
  H  H23  1  0.10449845  0.30509623  0.55101965  1
  O  O24  1  0.63526173  0.97066223  0.33233126  1
  O  O25  1  0.13526173  0.52933777  0.83233126  1
  O  O26  1  0.36473827  0.02933777  0.66766874  1
  O  O27  1  0.86473827  0.47066223  0.16766874  1
  O  O28  1  0.09719468  0.85822297  0.35213396  1
  O  O29  1  0.59719468  0.64177703  0.85213396  1
  O  O30  1  0.90280532  0.14177703  0.64786604  1
  O  O31  1  0.40280532  0.35822297  0.14786604  1
  O  O32  1  0.90162460  0.84548406  0.00533997  1
  O  O33  1  0.40162460  0.65451594  0.50533997  1
  O  O34  1  0.09837540  0.15451594  0.99466003  1
  O  O35  1  0.59837540  0.34548406  0.49466003  1
  O  O36  1  0.32587737  0.78084697  0.03597060  1
  O  O37  1  0.82587737  0.71915303  0.53597060  1
  O  O38  1  0.67412263  0.21915303  0.96402940  1
  O  O39  1  0.17412263  0.28084697  0.46402940  1
