# generated using pymatgen
data_U3(Si3Pd10)2
_symmetry_space_group_name_H-M   'P 1'
_cell_length_a   8.76396033
_cell_length_b   8.76424866
_cell_length_c   8.76189193
_cell_angle_alpha   59.99464963
_cell_angle_beta   60.00839277
_cell_angle_gamma   59.98451230
_symmetry_Int_Tables_number   1
_chemical_formula_structural   U3(Si3Pd10)2
_chemical_formula_sum   'U3 Si6 Pd20'
_cell_volume   475.83578484
_cell_formula_units_Z   1
loop_
 _symmetry_equiv_pos_site_id
 _symmetry_equiv_pos_as_xyz
  1  'x, y, z'
loop_
 _atom_site_type_symbol
 _atom_site_label
 _atom_site_symmetry_multiplicity
 _atom_site_fract_x
 _atom_site_fract_y
 _atom_site_fract_z
 _atom_site_occupancy
  U  U0  1  0.25002165  0.24987691  0.25010780  1
  U  U1  1  0.75002143  0.74996152  0.75001817  1
  U  U2  1  0.99998476  0.00000839  0.00000349  1
  Si  Si3  1  0.26702532  0.26703733  0.73296696  1
  Si  Si4  1  0.73301585  0.26698670  0.26698080  1
  Si  Si5  1  0.73296856  0.73298266  0.26702125  1
  Si  Si6  1  0.73303523  0.26696548  0.73303383  1
  Si  Si7  1  0.26697549  0.73302611  0.73301057  1
  Si  Si8  1  0.26695716  0.73304141  0.26696397  1
  Pd  Pd9  1  0.65374425  0.00010876  0.00011637  1
  Pd  Pd10  1  0.85079191  0.38308444  0.38306896  1
  Pd  Pd11  1  0.65378818  0.34602010  0.00008801  1
  Pd  Pd12  1  0.00009819  0.00009790  0.34603743  1
  Pd  Pd13  1  0.34601989  0.00012779  0.65378301  1
  Pd  Pd14  1  0.14987079  0.61671721  0.61670049  1
  Pd  Pd15  1  0.00012280  0.34603140  0.65377093  1
  Pd  Pd16  1  0.38307906  0.38308143  0.85073759  1
  Pd  Pd17  1  0.00008787  0.65376493  0.34602094  1
  Pd  Pd18  1  0.38305967  0.38308686  0.38309840  1
  Pd  Pd19  1  0.00008730  0.65378136  0.00012577  1
  Pd  Pd20  1  0.00013148  0.34601568  0.00005606  1
  Pd  Pd21  1  0.61671327  0.61672249  0.61672521  1
  Pd  Pd22  1  0.61670490  0.61672808  0.14983769  1
  Pd  Pd23  1  0.61671499  0.14986065  0.61671221  1
  Pd  Pd24  1  0.65376595  0.00008677  0.34601723  1
  Pd  Pd25  1  0.34603727  0.00011514  0.00006896  1
  Pd  Pd26  1  0.38307741  0.85078418  0.38306296  1
  Pd  Pd27  1  0.34600958  0.65379332  0.00009803  1
  Pd  Pd28  1  0.00008977  0.00010500  0.65376690  1
