# generated using pymatgen
data_VAgO3
_symmetry_space_group_name_H-M   'P 1'
_cell_length_a   5.60195729
_cell_length_b   7.29770241
_cell_length_c   7.29770179
_cell_angle_alpha   86.78468567
_cell_angle_beta   82.89048803
_cell_angle_gamma   82.89048813
_symmetry_Int_Tables_number   1
_chemical_formula_structural   VAgO3
_chemical_formula_sum   'V4 Ag4 O12'
_cell_volume   293.51847213
_cell_formula_units_Z   4
loop_
 _symmetry_equiv_pos_site_id
 _symmetry_equiv_pos_as_xyz
  1  'x, y, z'
loop_
 _atom_site_type_symbol
 _atom_site_label
 _atom_site_symmetry_multiplicity
 _atom_site_fract_x
 _atom_site_fract_y
 _atom_site_fract_z
 _atom_site_occupancy
  V  V0  1  0.28549422  0.88710983  0.71482855  1
  V  V1  1  0.78549422  0.71482855  0.88710983  1
  V  V2  1  0.71450578  0.11289017  0.28517145  1
  V  V3  1  0.21450578  0.28517145  0.11289017  1
  Ag  Ag4  1  0.25000000  0.78130701  0.21869299  1
  Ag  Ag5  1  0.75000000  0.58923849  0.41076151  1
  Ag  Ag6  1  0.25000000  0.41076151  0.58923849  1
  Ag  Ag7  1  0.75000000  0.21869299  0.78130701  1
  O  O8  1  0.33511097  0.36217934  0.90464897  1
  O  O9  1  0.42606294  0.09631846  0.19746995  1
  O  O10  1  0.57393706  0.90368154  0.80253005  1
  O  O11  1  0.92606294  0.19746995  0.09631846  1
  O  O12  1  0.32971830  0.73349534  0.54238667  1
  O  O13  1  0.67028170  0.26650466  0.45761333  1
  O  O14  1  0.82971830  0.54238667  0.73349534  1
  O  O15  1  0.66488903  0.63782066  0.09535103  1
  O  O16  1  0.17028170  0.45761333  0.26650466  1
  O  O17  1  0.16488903  0.09535103  0.63782066  1
  O  O18  1  0.07393706  0.80253005  0.90368154  1
  O  O19  1  0.83511097  0.90464897  0.36217934  1
