# generated using pymatgen
data_H4SO5
_symmetry_space_group_name_H-M   'P 1'
_cell_length_a   7.66924954
_cell_length_b   6.96571432
_cell_length_c   8.83197212
_cell_angle_alpha   90.00000000
_cell_angle_beta   108.69469056
_cell_angle_gamma   90.00000000
_symmetry_Int_Tables_number   1
_chemical_formula_structural   H4SO5
_chemical_formula_sum   'H16 S4 O20'
_cell_volume   446.92663673
_cell_formula_units_Z   4
loop_
 _symmetry_equiv_pos_site_id
 _symmetry_equiv_pos_as_xyz
  1  'x, y, z'
loop_
 _atom_site_type_symbol
 _atom_site_label
 _atom_site_symmetry_multiplicity
 _atom_site_fract_x
 _atom_site_fract_y
 _atom_site_fract_z
 _atom_site_occupancy
  H  H0  1  0.60973297  0.68698832  0.11911263  1
  H  H1  1  0.60973297  0.81301168  0.61911263  1
  H  H2  1  0.03528612  0.65922377  0.05648213  1
  H  H3  1  0.03528612  0.84077623  0.55648213  1
  H  H4  1  0.63997089  0.30946373  0.72186895  1
  H  H5  1  0.76906640  0.44608416  0.87774666  1
  H  H6  1  0.63372665  0.26988279  0.90607107  1
  H  H7  1  0.26505572  0.56812235  0.64796250  1
  H  H8  1  0.22485112  0.95790537  0.57681339  1
  H  H9  1  0.19286847  0.89556273  0.73762523  1
  H  H10  1  0.19286847  0.60443727  0.23762523  1
  H  H11  1  0.26505572  0.93187765  0.14796250  1
  H  H12  1  0.22485112  0.54209463  0.07681339  1
  H  H13  1  0.76906640  0.05391584  0.37774666  1
  H  H14  1  0.63997089  0.19053627  0.22186895  1
  H  H15  1  0.63372665  0.23011721  0.40607107  1
  S  S16  1  0.31490411  0.33235852  0.51064894  1
  S  S17  1  0.73372489  0.81097534  0.95337527  1
  S  S18  1  0.73372489  0.68902466  0.45337527  1
  S  S19  1  0.31490411  0.16764148  0.01064894  1
  O  O20  1  0.22675092  0.03607885  0.88142564  1
  O  O21  1  0.83734138  0.55506378  0.57260803  1
  O  O22  1  0.83734138  0.94493622  0.07260803  1
  O  O23  1  0.22675092  0.46392115  0.38142564  1
  O  O24  1  0.31431729  0.43627843  0.67199266  1
  O  O25  1  0.64515155  0.88694343  0.79285002  1
  O  O26  1  0.64515155  0.61305657  0.29285002  1
  O  O27  1  0.31431729  0.06372157  0.17199266  1
  O  O28  1  0.51385482  0.29792670  0.53642591  1
  O  O29  1  0.56874032  0.72421521  0.00082868  1
  O  O30  1  0.56874032  0.77578479  0.50082868  1
  O  O31  1  0.51385482  0.20207330  0.03642591  1
  O  O32  1  0.21425501  0.15325629  0.50130114  1
  O  O33  1  0.85483970  0.63888909  0.94780040  1
  O  O34  1  0.85483970  0.86111091  0.44780040  1
  O  O35  1  0.21425501  0.34674371  0.00130114  1
  O  O36  1  0.71294163  0.31220254  0.84114679  1
  O  O37  1  0.17901905  0.84166534  0.62709895  1
  O  O38  1  0.17901905  0.65833466  0.12709895  1
  O  O39  1  0.71294163  0.18779746  0.34114679  1
