# generated using pymatgen
data_H9BrO4
_symmetry_space_group_name_H-M   'P 1'
_cell_length_a   7.22761614
_cell_length_b   11.33227319
_cell_length_c   7.95181495
_cell_angle_alpha   90.00000000
_cell_angle_beta   110.11915803
_cell_angle_gamma   90.00000000
_symmetry_Int_Tables_number   1
_chemical_formula_structural   H9BrO4
_chemical_formula_sum   'H36 Br4 O16'
_cell_volume   611.55341136
_cell_formula_units_Z   4
loop_
 _symmetry_equiv_pos_site_id
 _symmetry_equiv_pos_as_xyz
  1  'x, y, z'
loop_
 _atom_site_type_symbol
 _atom_site_label
 _atom_site_symmetry_multiplicity
 _atom_site_fract_x
 _atom_site_fract_y
 _atom_site_fract_z
 _atom_site_occupancy
  H  H0  1  0.34036292  0.31804627  0.04916156  1
  H  H1  1  0.34680213  0.18067273  0.08398017  1
  H  H2  1  0.65963708  0.81804627  0.95083844  1
  H  H3  1  0.65319787  0.68067273  0.91601983  1
  H  H4  1  0.94623072  0.17187304  0.12921353  1
  H  H5  1  0.07502864  0.25233743  0.03777701  1
  H  H6  1  0.05376928  0.67187304  0.87078647  1
  H  H7  1  0.92497136  0.75233743  0.96222299  1
  H  H8  1  0.80678632  0.25166956  0.94617129  1
  H  H9  1  0.66380895  0.25316279  0.68378519  1
  H  H10  1  0.55456485  0.18177691  0.79358286  1
  H  H11  1  0.44543515  0.68177691  0.20641714  1
  H  H12  1  0.19321368  0.75166956  0.05382871  1
  H  H13  1  0.33619105  0.75316279  0.31621481  1
  H  H14  1  0.68699820  0.31836495  0.42249055  1
  H  H15  1  0.63867585  0.18170574  0.41540793  1
  H  H16  1  0.31300180  0.81836495  0.57750945  1
  H  H17  1  0.36132415  0.68170574  0.58459207  1
  H  H18  1  0.12772760  0.14614396  0.47977828  1
  H  H19  1  0.97547939  0.23039884  0.52297861  1
  H  H20  1  0.87227240  0.64614396  0.52022172  1
  H  H21  1  0.02452061  0.73039884  0.47702139  1
  H  H22  1  0.35093524  0.40286584  0.39342086  1
  H  H23  1  0.18991351  0.31972163  0.47933192  1
  H  H24  1  0.64906476  0.90286584  0.60657914  1
  H  H25  1  0.81008649  0.81972163  0.52066908  1
  H  H26  1  0.44180741  0.51002127  0.73031627  1
  H  H27  1  0.64185408  0.54689383  0.70859380  1
  H  H28  1  0.35814592  0.04689383  0.29140620  1
  H  H29  1  0.55819259  0.01002127  0.26968373  1
  H  H30  1  0.99069362  0.50618431  0.06869277  1
  H  H31  1  0.98232643  0.60409791  0.20827978  1
  H  H32  1  0.12859635  0.44963660  0.34114619  1
  H  H33  1  0.01767357  0.10409791  0.79172022  1
  H  H34  1  0.00930638  0.00618431  0.93130723  1
  H  H35  1  0.87140365  0.94963660  0.65885381  1
  Br  Br36  1  0.96671891  0.50227245  0.75495182  1
  Br  Br37  1  0.03328109  0.00227245  0.24504818  1
  Br  Br38  1  0.52314870  0.46418779  0.23573762  1
  Br  Br39  1  0.47685130  0.96418779  0.76426238  1
  O  O40  1  0.26315808  0.24409817  0.01021994  1
  O  O41  1  0.73684192  0.74409817  0.98978006  1
  O  O42  1  0.93992115  0.24957642  0.06446645  1
  O  O43  1  0.06007885  0.74957642  0.93553355  1
  O  O44  1  0.63210658  0.25397852  0.79732511  1
  O  O45  1  0.36789342  0.75397852  0.20267489  1
  O  O46  1  0.72569610  0.24379444  0.49247587  1
  O  O47  1  0.27430390  0.74379444  0.50752413  1
  O  O48  1  0.11909548  0.22059728  0.54191803  1
  O  O49  1  0.88090452  0.72059728  0.45808197  1
  O  O50  1  0.23819382  0.40402355  0.44193784  1
  O  O51  1  0.76180618  0.90402355  0.55806216  1
  O  O52  1  0.52101899  0.57871581  0.72606390  1
  O  O53  1  0.47898101  0.07871581  0.27393610  1
  O  O54  1  0.99519365  0.51979095  0.19304926  1
  O  O55  1  0.00480635  0.01979095  0.80695074  1
