# generated using pymatgen
data_Ba(HO)2
_symmetry_space_group_name_H-M   'P 1'
_cell_length_a   9.30648392
_cell_length_b   8.10048064
_cell_length_c   6.89112265
_cell_angle_alpha   90.00000000
_cell_angle_beta   95.82699781
_cell_angle_gamma   90.00000000
_symmetry_Int_Tables_number   1
_chemical_formula_structural   Ba(HO)2
_chemical_formula_sum   'Ba8 H16 O16'
_cell_volume   516.81674222
_cell_formula_units_Z   8
loop_
 _symmetry_equiv_pos_site_id
 _symmetry_equiv_pos_as_xyz
  1  'x, y, z'
loop_
 _atom_site_type_symbol
 _atom_site_label
 _atom_site_symmetry_multiplicity
 _atom_site_fract_x
 _atom_site_fract_y
 _atom_site_fract_z
 _atom_site_occupancy
  Ba  Ba0  1  0.90173362  0.13134292  0.24729654  1
  Ba  Ba1  1  0.40173362  0.36865708  0.74729654  1
  Ba  Ba2  1  0.09826638  0.86865708  0.75270346  1
  Ba  Ba3  1  0.59826638  0.63134292  0.25270346  1
  Ba  Ba4  1  0.32686053  0.02627828  0.29472241  1
  Ba  Ba5  1  0.82686053  0.47372172  0.79472241  1
  Ba  Ba6  1  0.67313947  0.97372172  0.70527759  1
  Ba  Ba7  1  0.17313947  0.52627828  0.20527759  1
  H  H8  1  0.61581149  0.03466888  0.15071297  1
  H  H9  1  0.11581149  0.46533112  0.65071297  1
  H  H10  1  0.38418851  0.96533112  0.84928703  1
  H  H11  1  0.88418851  0.53466888  0.34928703  1
  H  H12  1  0.02527733  0.83263849  0.22747251  1
  H  H13  1  0.52527733  0.66736151  0.72747251  1
  H  H14  1  0.97472267  0.16736151  0.77252749  1
  H  H15  1  0.47472267  0.33263849  0.27252749  1
  H  H16  1  0.81537126  0.80889338  0.06553859  1
  H  H17  1  0.31537126  0.69110662  0.56553859  1
  H  H18  1  0.18462874  0.19110662  0.93446141  1
  H  H19  1  0.68462874  0.30889338  0.43446141  1
  H  H20  1  0.39694634  0.73317997  0.95635649  1
  H  H21  1  0.89694634  0.76682003  0.45635649  1
  H  H22  1  0.60305366  0.26682003  0.04364351  1
  H  H23  1  0.10305366  0.23317997  0.54364351  1
  O  O24  1  0.62855915  0.96357948  0.26690968  1
  O  O25  1  0.12855915  0.53642052  0.76690968  1
  O  O26  1  0.37144085  0.03642052  0.73309032  1
  O  O27  1  0.87144085  0.46357948  0.23309032  1
  O  O28  1  0.08313413  0.84533101  0.35601151  1
  O  O29  1  0.58313413  0.65466899  0.85601151  1
  O  O30  1  0.91686587  0.15466899  0.64398849  1
  O  O31  1  0.41686587  0.34533101  0.14398849  1
  O  O32  1  0.89871412  0.84076956  -0.00082395  1
  O  O33  1  0.39871412  0.65923044  0.49917605  1
  O  O34  1  0.10128588  0.15923044  0.00082395  1
  O  O35  1  0.60128588  0.34076956  0.50082395  1
  O  O36  1  0.32378172  0.77786697  0.03580859  1
  O  O37  1  0.82378172  0.72213303  0.53580859  1
  O  O38  1  0.67621828  0.22213303  0.96419141  1
  O  O39  1  0.17621828  0.27786697  0.46419141  1
