# generated using pymatgen
data_HfMo2Se8(Cl7O)2
_symmetry_space_group_name_H-M   'P 1'
_cell_length_a   7.39290555
_cell_length_b   13.86918708
_cell_length_c   15.68562425
_cell_angle_alpha   104.29372862
_cell_angle_beta   90.00000000
_cell_angle_gamma   90.00000000
_symmetry_Int_Tables_number   1
_chemical_formula_structural   HfMo2Se8(Cl7O)2
_chemical_formula_sum   'Hf2 Mo4 Se16 Cl28 O4'
_cell_volume   1558.51473732
_cell_formula_units_Z   2
loop_
 _symmetry_equiv_pos_site_id
 _symmetry_equiv_pos_as_xyz
  1  'x, y, z'
loop_
 _atom_site_type_symbol
 _atom_site_label
 _atom_site_symmetry_multiplicity
 _atom_site_fract_x
 _atom_site_fract_y
 _atom_site_fract_z
 _atom_site_occupancy
  Hf  Hf0  1  0.00000000  0.00000000  0.00000000  1
  Hf  Hf1  1  0.50000000  0.00000000  0.50000000  1
  Mo  Mo2  1  0.19162960  0.44628724  0.40183448  1
  Mo  Mo3  1  0.69162960  0.55371276  0.09816552  1
  Mo  Mo4  1  0.80837040  0.55371276  0.59816552  1
  Mo  Mo5  1  0.30837040  0.44628724  0.90183448  1
  Se  Se6  1  0.88358892  0.84762834  0.28545401  1
  Se  Se7  1  0.99267792  0.25778681  0.63442154  1
  Se  Se8  1  0.50732208  0.25778681  0.13442154  1
  Se  Se9  1  0.61641108  0.84762834  0.78545401  1
  Se  Se10  1  0.75352431  0.29030324  0.23076034  1
  Se  Se11  1  0.25352431  0.70969676  0.26923966  1
  Se  Se12  1  0.63128536  0.18239375  0.31020787  1
  Se  Se13  1  0.36871464  0.81760625  0.68979213  1
  Se  Se14  1  0.86871464  0.18239375  0.81020787  1
  Se  Se15  1  0.38358892  0.15237166  0.21454599  1
  Se  Se16  1  0.11641108  0.15237166  0.71454599  1
  Se  Se17  1  0.00732208  0.74221319  0.36557846  1
  Se  Se18  1  0.49267792  0.74221319  0.86557846  1
  Se  Se19  1  0.24647569  0.70969676  0.76923966  1
  Se  Se20  1  0.74647569  0.29030324  0.73076034  1
  Se  Se21  1  0.13128536  0.81760625  0.18979213  1
  Cl  Cl22  1  0.11227806  0.16832185  0.07788414  1
  Cl  Cl23  1  0.78490770  0.07252478  0.46998326  1
  Cl  Cl24  1  0.97219694  0.70994018  0.62211765  1
  Cl  Cl25  1  0.66039179  0.53234002  0.93972678  1
  Cl  Cl26  1  0.62072813  0.97634465  0.64089424  1
  Cl  Cl27  1  0.71509230  0.07252478  0.96998326  1
  Cl  Cl28  1  0.61227806  0.83167815  0.42211586  1
  Cl  Cl29  1  0.88772194  0.83167815  0.92211586  1
  Cl  Cl30  1  0.28490770  0.92747522  0.03001674  1
  Cl  Cl31  1  0.87927187  0.97634465  0.14089424  1
  Cl  Cl32  1  0.22334385  0.62087303  0.93210036  1
  Cl  Cl33  1  0.77665615  0.37912697  0.06789964  1
  Cl  Cl34  1  0.33960821  0.46765998  0.06027322  1
  Cl  Cl35  1  0.37927187  0.02365535  0.35910576  1
  Cl  Cl36  1  0.72334385  0.37912697  0.56789964  1
  Cl  Cl37  1  0.16039179  0.46765998  0.56027322  1
  Cl  Cl38  1  0.60994309  0.54673167  0.24144709  1
  Cl  Cl39  1  0.47219694  0.29005982  0.87788235  1
  Cl  Cl40  1  0.12072813  0.02365535  0.85910576  1
  Cl  Cl41  1  0.38772194  0.16832185  0.57788414  1
  Cl  Cl42  1  0.02780306  0.29005982  0.37788235  1
  Cl  Cl43  1  0.89005691  0.54673167  0.74144709  1
  Cl  Cl44  1  0.39005691  0.45326833  0.75855291  1
  Cl  Cl45  1  0.83960821  0.53234002  0.43972678  1
  Cl  Cl46  1  0.10994309  0.45326833  0.25855291  1
  Cl  Cl47  1  0.21509230  0.92747522  0.53001674  1
  Cl  Cl48  1  0.27665615  0.62087303  0.43210036  1
  Cl  Cl49  1  0.52780306  0.70994018  0.12211765  1
  O  O50  1  0.09668587  0.39789210  0.88835515  1
  O  O51  1  0.59668587  0.60210790  0.61164485  1
  O  O52  1  0.90331413  0.60210790  0.11164485  1
  O  O53  1  0.40331413  0.39789210  0.38835515  1
