# generated using pymatgen
data_Sr7Mn4O13
_symmetry_space_group_name_H-M   'P 1'
_cell_length_a   6.94116361
_cell_length_b   9.98433971
_cell_length_c   10.29548335
_cell_angle_alpha   90.00000000
_cell_angle_beta   94.56492434
_cell_angle_gamma   90.00000000
_symmetry_Int_Tables_number   1
_chemical_formula_structural   Sr7Mn4O13
_chemical_formula_sum   'Sr14 Mn8 O26'
_cell_volume   711.24382215
_cell_formula_units_Z   2
loop_
 _symmetry_equiv_pos_site_id
 _symmetry_equiv_pos_as_xyz
  1  'x, y, z'
loop_
 _atom_site_type_symbol
 _atom_site_label
 _atom_site_symmetry_multiplicity
 _atom_site_fract_x
 _atom_site_fract_y
 _atom_site_fract_z
 _atom_site_occupancy
  Sr  Sr0  1  0.00711289  0.32262518  0.96141254  1
  Sr  Sr1  1  0.33681597  0.14084923  0.19726943  1
  Sr  Sr2  1  0.83781892  0.50872827  0.65754571  1
  Sr  Sr3  1  0.16218108  0.49127173  0.34245429  1
  Sr  Sr4  1  0.16218108  0.00872827  0.84245429  1
  Sr  Sr5  1  0.50000000  0.50000000  0.00000000  1
  Sr  Sr6  1  0.99288711  0.67737482  0.03858746  1
  Sr  Sr7  1  0.99288711  0.82262518  0.53858746  1
  Sr  Sr8  1  0.00711289  0.17737482  0.46141254  1
  Sr  Sr9  1  0.66318403  0.64084923  0.30273057  1
  Sr  Sr10  1  0.66318403  0.85915077  0.80273057  1
  Sr  Sr11  1  0.33681597  0.35915077  0.69726943  1
  Sr  Sr12  1  0.83781892  0.99127173  0.15754571  1
  Sr  Sr13  1  0.50000000  0.00000000  0.50000000  1
  Mn  Mn14  1  0.42672958  0.83532905  0.07873223  1
  Mn  Mn15  1  0.57327042  0.33532905  0.42126777  1
  Mn  Mn16  1  0.57327042  0.16467095  0.92126777  1
  Mn  Mn17  1  0.22723429  0.82443279  0.28103214  1
  Mn  Mn18  1  0.77276571  0.32443279  0.21896786  1
  Mn  Mn19  1  0.42672958  0.66467095  0.57873223  1
  Mn  Mn20  1  0.22723429  0.67556721  0.78103214  1
  Mn  Mn21  1  0.77276571  0.17556721  0.71896786  1
  O  O22  1  0.84805374  0.47150696  0.11867529  1
  O  O23  1  0.84043435  0.40958507  0.41709425  1
  O  O24  1  0.50000000  0.50000000  0.50000000  1
  O  O25  1  0.67351073  0.32462899  0.82983224  1
  O  O26  1  0.00397941  0.22603657  0.19756545  1
  O  O27  1  0.33931058  0.24721986  0.95689944  1
  O  O28  1  0.00397941  0.27396343  0.69756545  1
  O  O29  1  0.66068942  0.74721986  0.54310056  1
  O  O30  1  0.15194626  0.97150696  0.38132471  1
  O  O31  1  0.84805374  0.02849304  0.61867529  1
  O  O32  1  0.33931058  0.25278014  0.45689944  1
  O  O33  1  0.15956565  0.59041493  0.58290575  1
  O  O34  1  0.32648927  0.82462899  0.67016776  1
  O  O35  1  0.49271229  0.89661484  0.27527271  1
  O  O36  1  0.66068942  0.75278014  0.04310056  1
  O  O37  1  0.15956565  0.90958507  0.08290575  1
  O  O38  1  0.67351073  0.17537101  0.32983224  1
  O  O39  1  0.99602059  0.77396343  0.80243455  1
  O  O40  1  0.99602059  0.72603657  0.30243455  1
  O  O41  1  0.15194626  0.52849304  0.88132471  1
  O  O42  1  0.32648927  0.67537101  0.17016776  1
  O  O43  1  0.49271229  0.60338516  0.77527271  1
  O  O44  1  0.50728771  0.39661484  0.22472729  1
  O  O45  1  0.84043435  0.09041493  0.91709425  1
  O  O46  1  0.50728771  0.10338516  0.72472729  1
  O  O47  1  0.50000000  0.00000000  0.00000000  1
