# generated using pymatgen
data_Al(HO)3
_symmetry_space_group_name_H-M   'P 1'
_cell_length_a   9.00607991
_cell_length_b   4.96565037
_cell_length_c   9.67454937
_cell_angle_alpha   90.40555493
_cell_angle_beta   88.72241146
_cell_angle_gamma   88.27387100
_symmetry_Int_Tables_number   1
_chemical_formula_structural   Al(HO)3
_chemical_formula_sum   'Al8 H24 O24'
_cell_volume   432.33911296
_cell_formula_units_Z   8
loop_
 _symmetry_equiv_pos_site_id
 _symmetry_equiv_pos_as_xyz
  1  'x, y, z'
loop_
 _atom_site_type_symbol
 _atom_site_label
 _atom_site_symmetry_multiplicity
 _atom_site_fract_x
 _atom_site_fract_y
 _atom_site_fract_z
 _atom_site_occupancy
  Al  Al0  1  0.33574812  0.99795630  0.50170668  1
  Al  Al1  1  0.83553344  0.49618485  0.99864989  1
  Al  Al2  1  0.66811369  0.00593520  0.50185759  1
  Al  Al3  1  0.16597500  0.50780342  0.00039365  1
  Al  Al4  1  0.16419867  0.50772424  0.49886293  1
  Al  Al5  1  0.65981425  0.99948325  0.99860475  1
  Al  Al6  1  0.83873093  0.49506350  0.49884756  1
  Al  Al7  1  0.33950268  0.99887147  0.00080197  1
  H  H8  1  0.39290179  0.54758975  0.61909486  1
  H  H9  1  0.89081880  0.93932172  0.11934768  1
  H  H10  1  0.69433281  0.30774310  0.29283316  1
  H  H11  1  0.10816656  0.06525182  0.88195713  1
  H  H12  1  0.80920998  0.18805918  0.70626567  1
  H  H13  1  0.30594474  0.31614287  0.20516517  1
  H  H14  1  0.19672392  0.81488557  0.29435788  1
  H  H15  1  0.69498076  0.68560257  0.79290454  1
  H  H16  1  0.98416688  0.84664571  0.60090834  1
  H  H17  1  0.49839019  0.89397039  0.20446155  1
  H  H18  1  0.01667442  0.15341039  0.39826227  1
  H  H19  1  0.49653598  0.34169556  0.89210120  1
  H  H20  1  0.49769813  0.12898567  0.70620268  1
  H  H21  1  0.99697632  0.37452571  0.20544348  1
  H  H22  1  0.53613723  0.67458875  0.38147395  1
  H  H23  1  0.00276334  0.62947952  0.79466778  1
  H  H24  1  0.19396183  0.20761074  0.70502182  1
  H  H25  1  0.58816719  0.44265097  0.10707251  1
  H  H26  1  0.80431708  0.79837735  0.29527593  1
  H  H27  1  0.30537784  0.70225579  0.79551252  1
  H  H28  1  0.60522976  0.55035446  0.61360548  1
  H  H29  1  0.10330240  0.97053396  0.11570377  1
  H  H30  1  0.42107079  0.38323896  0.38287600  1
  H  H31  1  0.89822038  0.02755136  0.88833031  1
  O  O32  1  0.31292451  0.68417216  0.61171871  1
  O  O33  1  0.80720802  0.81930937  0.11231977  1
  O  O34  1  0.68237677  0.32537719  0.39471686  1
  O  O35  1  0.19110200  0.18724620  0.88693581  1
  O  O36  1  0.81528263  0.17755755  0.60404386  1
  O  O37  1  0.30946908  0.32073724  0.10287922  1
  O  O38  1  0.18986873  0.82196473  0.39698159  1
  O  O39  1  0.68922213  0.67824601  0.89566985  1
  O  O40  1  0.99614993  0.64906731  0.60528300  1
  O  O41  1  0.49994721  0.86279988  0.10375866  1
  O  O42  1  0.00748574  0.35133379  0.39253805  1
  O  O43  1  0.50178820  0.14349439  0.88991006  1
  O  O44  1  0.49813821  0.15741529  0.60392028  1
  O  O45  1  0.99725106  0.35223930  0.10270867  1
  O  O46  1  0.50874319  0.86529273  0.39416595  1
  O  O47  1  0.00059064  0.65206444  0.89742545  1
  O  O48  1  0.18634820  0.19235429  0.60326724  1
  O  O49  1  0.67863930  0.32632294  0.10570090  1
  O  O50  1  0.81729622  0.81279863  0.39633657  1
  O  O51  1  0.31708417  0.68222851  0.89633860  1
  O  O52  1  0.68501730  0.68024389  0.61337118  1
  O  O53  1  0.18157884  0.82888570  0.11225105  1
  O  O54  1  0.32178845  0.30901418  0.38717776  1
  O  O55  1  0.81977759  0.16956417  0.89203120  1
