# generated using pymatgen
data_CuMoO4
_symmetry_space_group_name_H-M   'P 1'
_cell_length_a   6.35825014
_cell_length_b   8.17341479
_cell_length_c   9.92916943
_cell_angle_alpha   104.34520482
_cell_angle_beta   103.17688207
_cell_angle_gamma   94.72394402
_symmetry_Int_Tables_number   1
_chemical_formula_structural   CuMoO4
_chemical_formula_sum   'Cu6 Mo6 O24'
_cell_volume   481.45338606
_cell_formula_units_Z   6
loop_
 _symmetry_equiv_pos_site_id
 _symmetry_equiv_pos_as_xyz
  1  'x, y, z'
loop_
 _atom_site_type_symbol
 _atom_site_label
 _atom_site_symmetry_multiplicity
 _atom_site_fract_x
 _atom_site_fract_y
 _atom_site_fract_z
 _atom_site_occupancy
  Cu  Cu0  1  0.90389884  0.80397008  0.99420327  1
  Cu  Cu1  1  0.42749742  0.52766602  0.33409343  1
  Cu  Cu2  1  0.09610116  0.19602992  0.00579673  1
  Cu  Cu3  1  0.72045189  0.23315820  0.43471326  1
  Cu  Cu4  1  0.57250258  0.47233398  0.66590657  1
  Cu  Cu5  1  0.27954811  0.76684180  0.56528674  1
  Mo  Mo6  1  0.41544424  0.87878795  0.11097219  1
  Mo  Mo7  1  0.06998800  0.53974500  0.77593154  1
  Mo  Mo8  1  0.58455576  0.12121205  0.88902781  1
  Mo  Mo9  1  0.78496987  0.87732528  0.64970222  1
  Mo  Mo10  1  0.21503013  0.12267472  0.35029778  1
  Mo  Mo11  1  0.93001200  0.46025500  0.22406846  1
  O  O12  1  0.17634856  0.75626563  0.93990698  1
  O  O13  1  0.20899604  0.34561145  0.19762449  1
  O  O14  1  0.87464685  0.03091777  0.84636613  1
  O  O15  1  0.54688635  0.28352817  0.80742165  1
  O  O16  1  0.10617400  0.39717948  0.87972079  1
  O  O17  1  0.30510866  0.54208127  0.70392705  1
  O  O18  1  0.50463350  0.07500890  0.27298570  1
  O  O19  1  0.55792991  0.70315492  0.52315994  1
  O  O20  1  0.79406430  0.02277868  0.55007418  1
  O  O21  1  0.20593570  0.97722132  0.44992582  1
  O  O22  1  0.82365144  0.24373437  0.06009302  1
  O  O23  1  0.97241344  0.22316639  0.35923638  1
  O  O24  1  0.15859616  0.58705481  0.38515779  1
  O  O25  1  0.79100396  0.65438855  0.80237551  1
  O  O26  1  0.12535315  0.96908223  0.15363387  1
  O  O27  1  0.89382600  0.60282052  0.12027921  1
  O  O28  1  0.44207009  0.29684508  0.47684006  1
  O  O29  1  0.69489134  0.45791873  0.29607295  1
  O  O30  1  0.02758656  0.77683361  0.64076362  1
  O  O31  1  0.49536650  0.92499110  0.72701430  1
  O  O32  1  0.45311365  0.71647183  0.19257835  1
  O  O33  1  0.84140384  0.41294519  0.61484221  1
  O  O34  1  0.63863156  0.88867078  0.02517001  1
  O  O35  1  0.36136844  0.11132922  0.97482999  1
