# generated using pymatgen
data_Al3Bi5I12
_symmetry_space_group_name_H-M   'P 1'
_cell_length_a   8.35858771
_cell_length_b   19.10878896
_cell_length_c   22.47994417
_cell_angle_alpha   90.00000000
_cell_angle_beta   90.00000000
_cell_angle_gamma   90.00000000
_symmetry_Int_Tables_number   1
_chemical_formula_structural   Al3Bi5I12
_chemical_formula_sum   'Al12 Bi20 I48'
_cell_volume   3590.55262539
_cell_formula_units_Z   4
loop_
 _symmetry_equiv_pos_site_id
 _symmetry_equiv_pos_as_xyz
  1  'x, y, z'
loop_
 _atom_site_type_symbol
 _atom_site_label
 _atom_site_symmetry_multiplicity
 _atom_site_fract_x
 _atom_site_fract_y
 _atom_site_fract_z
 _atom_site_occupancy
  Al  Al0  1  0.46178860  0.25000000  0.42432346  1
  Al  Al1  1  0.67260696  0.53941960  0.86683563  1
  Al  Al2  1  0.67260696  0.96058040  0.86683563  1
  Al  Al3  1  0.32739304  0.46058040  0.13316437  1
  Al  Al4  1  0.03821140  0.25000000  0.92432346  1
  Al  Al5  1  0.82739304  0.96058040  0.36683563  1
  Al  Al6  1  0.17260696  0.46058040  0.63316437  1
  Al  Al7  1  0.32739304  0.03941960  0.13316437  1
  Al  Al8  1  0.96178860  0.75000000  0.07567654  1
  Al  Al9  1  0.82739304  0.53941960  0.36683563  1
  Al  Al10  1  0.17260696  0.03941960  0.63316437  1
  Al  Al11  1  0.53821140  0.75000000  0.57567654  1
  Bi  Bi12  1  0.41374374  0.66025622  0.27729666  1
  Bi  Bi13  1  0.42627514  0.75000000  0.16499404  1
  Bi  Bi14  1  0.91374374  0.33974378  0.22270334  1
  Bi  Bi15  1  0.91374374  0.16025622  0.22270334  1
  Bi  Bi16  1  0.27038018  0.25000000  0.75923411  1
  Bi  Bi17  1  0.41356118  0.25000000  0.62891270  1
  Bi  Bi18  1  0.08625626  0.83974378  0.77729666  1
  Bi  Bi19  1  0.57372486  0.25000000  0.83500596  1
  Bi  Bi20  1  0.92627514  0.25000000  0.33500596  1
  Bi  Bi21  1  0.08625626  0.66025622  0.77729666  1
  Bi  Bi22  1  0.77038018  0.75000000  0.74076589  1
  Bi  Bi23  1  0.58643882  0.75000000  0.37108730  1
  Bi  Bi24  1  0.41374374  0.83974378  0.27729666  1
  Bi  Bi25  1  0.22961982  0.25000000  0.25923411  1
  Bi  Bi26  1  0.58625626  0.33974378  0.72270334  1
  Bi  Bi27  1  0.72961982  0.75000000  0.24076589  1
  Bi  Bi28  1  0.91356118  0.75000000  0.87108730  1
  Bi  Bi29  1  0.58625626  0.16025622  0.72270334  1
  Bi  Bi30  1  0.07372486  0.75000000  0.66499404  1
  Bi  Bi31  1  0.08643882  0.25000000  0.12891270  1
  I  I32  1  0.18096229  0.75000000  0.99500648  1
  I  I33  1  0.47952456  0.85484775  0.86224140  1
  I  I34  1  0.97223737  0.43306296  0.40814351  1
  I  I35  1  0.49180660  0.35644531  0.35539087  1
  I  I36  1  0.47223737  0.56693704  0.09185649  1
  I  I37  1  0.68096229  0.25000000  0.50499352  1
  I  I38  1  0.02047544  0.64515225  0.36224140  1
  I  I39  1  0.02776263  0.93306296  0.59185649  1
  I  I40  1  0.81903771  0.25000000  0.00499352  1
  I  I41  1  0.97223737  0.06693704  0.40814351  1
  I  I42  1  0.50819340  0.85644531  0.64460913  1
  I  I43  1  0.21285770  0.47988394  0.23912819  1
  I  I44  1  0.21285770  0.02011606  0.23912819  1
  I  I45  1  0.52776263  0.06693704  0.90814351  1
  I  I46  1  0.91238347  0.57712821  0.93146054  1
  I  I47  1  0.47952456  0.64515225  0.86224140  1
  I  I48  1  0.00819340  0.14355469  0.85539087  1
  I  I49  1  0.47223737  0.93306296  0.09185649  1
  I  I50  1  0.99180660  0.85644531  0.14460913  1
  I  I51  1  0.91238347  0.92287179  0.93146054  1
  I  I52  1  0.81403478  0.75000000  0.52584064  1
  I  I53  1  0.02776263  0.56693704  0.59185649  1
  I  I54  1  0.28714230  0.47988394  0.73912819  1
  I  I55  1  0.02047544  0.85484775  0.36224140  1
  I  I56  1  0.31403478  0.25000000  0.97415936  1
  I  I57  1  0.78714230  0.52011606  0.76087181  1
  I  I58  1  0.31903771  0.75000000  0.49500648  1
  I  I59  1  0.08761653  0.07712821  0.06853946  1
  I  I60  1  0.78714230  0.97988394  0.76087181  1
  I  I61  1  0.68596522  0.75000000  0.02584064  1
  I  I62  1  0.52776263  0.43306296  0.90814351  1
  I  I63  1  0.50819340  0.64355469  0.64460913  1
  I  I64  1  0.97952456  0.35484775  0.63775860  1
  I  I65  1  0.49180660  0.14355469  0.35539087  1
  I  I66  1  0.41238347  0.07712821  0.56853946  1
  I  I67  1  0.58761653  0.57712821  0.43146054  1
  I  I68  1  0.08761653  0.42287179  0.06853946  1
  I  I69  1  0.52047544  0.14515225  0.13775860  1
  I  I70  1  0.18596522  0.25000000  0.47415936  1
  I  I71  1  0.58761653  0.92287179  0.43146054  1
  I  I72  1  0.71285770  0.97988394  0.26087181  1
  I  I73  1  0.28714230  0.02011606  0.73912819  1
  I  I74  1  0.52047544  0.35484775  0.13775860  1
  I  I75  1  0.97952456  0.14515225  0.63775860  1
  I  I76  1  0.41238347  0.42287179  0.56853946  1
  I  I77  1  0.99180660  0.64355469  0.14460913  1
  I  I78  1  0.71285770  0.52011606  0.26087181  1
  I  I79  1  0.00819340  0.35644531  0.85539087  1
