# generated using pymatgen
data_U2O5
_symmetry_space_group_name_H-M   'P 1'
_cell_length_a   6.96322944
_cell_length_b   8.31763319
_cell_length_c   30.96074088
_cell_angle_alpha   90.00000000
_cell_angle_beta   90.01194014
_cell_angle_gamma   90.00000000
_symmetry_Int_Tables_number   1
_chemical_formula_structural   U2O5
_chemical_formula_sum   'U32 O80'
_cell_volume   1793.17140413
_cell_formula_units_Z   16
loop_
 _symmetry_equiv_pos_site_id
 _symmetry_equiv_pos_as_xyz
  1  'x, y, z'
loop_
 _atom_site_type_symbol
 _atom_site_label
 _atom_site_symmetry_multiplicity
 _atom_site_fract_x
 _atom_site_fract_y
 _atom_site_fract_z
 _atom_site_occupancy
  U  U0  1  0.24359205  0.00009841  0.15944919  1
  U  U1  1  0.74356482  0.49990174  0.34049334  1
  U  U2  1  0.21545811  0.49995678  0.78745351  1
  U  U3  1  0.75640795  0.99990159  0.84055081  1
  U  U4  1  0.28453054  0.50004348  0.28744325  1
  U  U5  1  0.24239347  0.00007104  0.02483436  1
  U  U6  1  0.71546946  0.49995652  0.71255675  1
  U  U7  1  0.74356482  0.00009826  0.34049334  1
  U  U8  1  0.21717127  0.49991617  0.40570096  1
  U  U9  1  0.71729681  0.00008343  0.09427375  1
  U  U10  1  0.78454189  0.50004322  0.21254649  1
  U  U11  1  0.21545811  0.00004322  0.78745351  1
  U  U12  1  0.24239347  0.49992896  0.02483436  1
  U  U13  1  0.25643518  0.99990174  0.65950666  1
  U  U14  1  0.25643518  0.50009826  0.65950666  1
  U  U15  1  0.24359205  0.49990159  0.15944919  1
  U  U16  1  0.74233944  0.00007366  0.47514191  1
  U  U17  1  0.75760653  0.99992896  0.97516564  1
  U  U18  1  0.25766056  0.99992634  0.52485809  1
  U  U19  1  0.75760653  0.50007104  0.97516564  1
  U  U20  1  0.28270319  0.99991657  0.90572625  1
  U  U21  1  0.21717127  0.00008383  0.40570096  1
  U  U22  1  0.75640795  0.50009841  0.84055081  1
  U  U23  1  0.78282873  0.99991617  0.59429904  1
  U  U24  1  0.28270319  0.50008343  0.90572625  1
  U  U25  1  0.74233944  0.49992634  0.47514191  1
  U  U26  1  0.25766056  0.50007366  0.52485809  1
  U  U27  1  0.71546946  0.00004348  0.71255675  1
  U  U28  1  0.78282873  0.50008383  0.59429904  1
  U  U29  1  0.71729681  0.49991657  0.09427375  1
  U  U30  1  0.28453054  0.99995652  0.28744325  1
  U  U31  1  0.78454189  0.99995678  0.21254649  1
  O  O32  1  0.56595683  0.00112970  0.03636168  1
  O  O33  1  0.74351593  0.25000000  0.47627599  1
  O  O34  1  0.93405398  0.50112969  0.53638779  1
  O  O35  1  0.94332080  0.50024726  0.66535324  1
  O  O36  1  0.75591948  0.25000000  0.97567278  1
  O  O37  1  0.93447281  0.50004027  0.04143320  1
  O  O38  1  0.28048208  0.25000000  0.90448336  1
  O  O39  1  0.78562337  0.25000000  0.21378460  1
  O  O40  1  0.22213820  0.25000000  0.40413281  1
  O  O41  1  0.38740942  0.00082174  0.72789005  1
  O  O42  1  0.21437663  0.75000000  0.78621540  1
  O  O43  1  0.44322662  0.99975319  0.83470108  1
  O  O44  1  0.30013630  0.00180218  0.09415207  1
  O  O45  1  0.56552460  0.49996106  0.54144307  1
  O  O46  1  0.56595683  0.49887030  0.03636168  1
  O  O47  1  0.24351888  0.25000000  0.02372234  1
  O  O48  1  0.24633327  0.75000000  0.16275130  1
  O  O49  1  0.43111439  0.50035393  0.35172643  1
  O  O50  1  0.55677338  0.49975319  0.16529892  1
  O  O51  1  0.56888561  0.49964607  0.64827357  1
  O  O52  1  0.06594602  0.00112969  0.46361221  1
  O  O53  1  0.27784841  0.75000000  0.90415212  1
  O  O54  1  0.75366673  0.25000000  0.83724870  1
  O  O55  1  0.71951792  0.75000000  0.09551664  1
  O  O56  1  0.77786180  0.75000000  0.59586719  1
  O  O57  1  0.11260665  0.99917622  0.22788846  1
  O  O58  1  0.75648112  0.75000000  0.97627766  1
  O  O59  1  0.44322662  0.50024681  0.83470108  1
  O  O60  1  0.28561083  0.25000000  0.28620291  1
  O  O61  1  0.43111439  0.99964607  0.35172643  1
  O  O62  1  0.69986370  0.99819782  0.90584793  1
  O  O63  1  0.61259058  0.99917826  0.27210995  1
  O  O64  1  0.19991506  0.50179705  0.59422724  1
  O  O65  1  0.06894734  0.49964469  0.85177069  1
  O  O66  1  0.56888561  0.00035393  0.64827357  1
  O  O67  1  0.72215159  0.25000000  0.09584788  1
  O  O68  1  0.55677338  0.00024681  0.16529892  1
  O  O69  1  0.21487276  0.25000000  0.78639400  1
  O  O70  1  0.38740942  0.49917826  0.72789005  1
  O  O71  1  0.74537881  0.25000000  0.33628577  1
  O  O72  1  0.06894734  0.00035531  0.85177069  1
  O  O73  1  0.88739335  0.49917622  0.77211154  1
  O  O74  1  0.28511595  0.75000000  0.28638133  1
  O  O75  1  0.75461999  0.75000000  0.83630171  1
  O  O76  1  0.11260665  0.50082378  0.22788846  1
  O  O77  1  0.25367004  0.25000000  0.66276931  1
  O  O78  1  0.24408052  0.75000000  0.02432722  1
  O  O79  1  0.94332080  0.99975274  0.66535324  1
  O  O80  1  0.25648407  0.75000000  0.52372401  1
  O  O81  1  0.80008494  0.49820295  0.40577276  1
  O  O82  1  0.06594602  0.49887031  0.46361221  1
  O  O83  1  0.06552719  0.00004027  0.95856680  1
  O  O84  1  0.93105266  0.50035531  0.14822931  1
  O  O85  1  0.24538001  0.25000000  0.16369829  1
  O  O86  1  0.78512724  0.75000000  0.21360600  1
  O  O87  1  0.43447540  0.50003894  0.45855693  1
  O  O88  1  0.06552719  0.49995973  0.95856680  1
  O  O89  1  0.74407257  0.75000000  0.47567019  1
  O  O90  1  0.05667920  0.49975274  0.33464676  1
  O  O91  1  0.93405398  0.99887031  0.53638779  1
  O  O92  1  0.25462119  0.75000000  0.66371423  1
  O  O93  1  0.80008494  0.00179705  0.40577276  1
  O  O94  1  0.21950419  0.75000000  0.40446384  1
  O  O95  1  0.78049581  0.25000000  0.59553616  1
  O  O96  1  0.74632996  0.75000000  0.33723069  1
  O  O97  1  0.43447540  0.99996106  0.45855693  1
  O  O98  1  0.61259058  0.50082174  0.27210995  1
  O  O99  1  0.56552460  0.00003894  0.54144307  1
  O  O100  1  0.71438917  0.75000000  0.71379709  1
  O  O101  1  0.93105266  0.99964469  0.14822931  1
  O  O102  1  0.25592743  0.25000000  0.52432981  1
  O  O103  1  0.43404317  0.99887030  0.96363832  1
  O  O104  1  0.19991506  0.99820295  0.59422724  1
  O  O105  1  0.71488405  0.25000000  0.71361867  1
  O  O106  1  0.43404317  0.50112970  0.96363832  1
  O  O107  1  0.93447281  0.99995973  0.04143320  1
  O  O108  1  0.30013630  0.49819782  0.09415207  1
  O  O109  1  0.69986370  0.50180218  0.90584793  1
  O  O110  1  0.88739335  0.00082378  0.77211154  1
  O  O111  1  0.05667920  0.00024726  0.33464676  1
