# generated using pymatgen
data_Na2UO4
_symmetry_space_group_name_H-M   'P 1'
_cell_length_a   5.97754532
_cell_length_b   5.92911101
_cell_length_c   12.20275918
_cell_angle_alpha   89.99894271
_cell_angle_beta   90.00225935
_cell_angle_gamma   90.00068025
_symmetry_Int_Tables_number   1
_chemical_formula_structural   Na2UO4
_chemical_formula_sum   'Na8 U4 O16'
_cell_volume   432.48445253
_cell_formula_units_Z   4
loop_
 _symmetry_equiv_pos_site_id
 _symmetry_equiv_pos_as_xyz
  1  'x, y, z'
loop_
 _atom_site_type_symbol
 _atom_site_label
 _atom_site_symmetry_multiplicity
 _atom_site_fract_x
 _atom_site_fract_y
 _atom_site_fract_z
 _atom_site_occupancy
  Na  Na0  1  0.52897387  0.47337896  0.34289991  1
  Na  Na1  1  0.97102635  0.47337883  0.15709828  1
  Na  Na2  1  0.52897447  0.97337908  0.15709864  1
  Na  Na3  1  0.02897435  0.52662111  0.84290168  1
  Na  Na4  1  0.97102664  0.97338004  0.34289985  1
  Na  Na5  1  0.47102665  0.52662017  0.65710049  1
  Na  Na6  1  0.02897370  0.02662013  0.65710021  1
  Na  Na7  1  0.47102637  0.02661979  0.84290147  1
  U  U8  1  0.49999916  0.50000051  -0.00000017  1
  U  U9  1  -0.00000236  -0.00000233  -0.00000062  1
  U  U10  1  0.49999750  0.00000305  0.49999935  1
  U  U11  1  -0.00000047  0.49999933  0.49999800  1
  O  O12  1  0.18924226  0.19238648  0.47240008  1
  O  O13  1  0.56871763  0.52702980  0.15500477  1
  O  O14  1  0.31074637  0.69237615  0.47240082  1
  O  O15  1  0.68926733  0.80763883  0.97240046  1
  O  O16  1  0.06870938  0.47297249  0.65499007  1
  O  O17  1  0.93129019  0.52702660  0.34501123  1
  O  O18  1  0.81077028  0.30760192  0.97240108  1
  O  O19  1  0.81075803  0.80761140  0.52760025  1
  O  O20  1  0.43128771  0.97297186  0.65499589  1
  O  O21  1  0.68925554  0.30762852  0.52759992  1
  O  O22  1  0.18923224  0.69239876  0.02759994  1
  O  O23  1  0.06871157  0.97297216  0.84500656  1
  O  O24  1  0.56871306  0.02702813  0.34500429  1
  O  O25  1  0.31073107  0.19236044  0.02760016  1
  O  O26  1  0.43128236  0.47297064  0.84499595  1
  O  O27  1  0.93128875  0.02702714  0.15499144  1
