# generated using pymatgen
data_SnSO4
_symmetry_space_group_name_H-M   'P 1'
_cell_length_a   5.15942581
_cell_length_b   7.40802511
_cell_length_c   10.66457766
_cell_angle_alpha   80.82463835
_cell_angle_beta   90.99911442
_cell_angle_gamma   84.31134130
_symmetry_Int_Tables_number   1
_chemical_formula_structural   SnSO4
_chemical_formula_sum   'Sn4 S4 O16'
_cell_volume   400.18599713
_cell_formula_units_Z   4
loop_
 _symmetry_equiv_pos_site_id
 _symmetry_equiv_pos_as_xyz
  1  'x, y, z'
loop_
 _atom_site_type_symbol
 _atom_site_label
 _atom_site_symmetry_multiplicity
 _atom_site_fract_x
 _atom_site_fract_y
 _atom_site_fract_z
 _atom_site_occupancy
  Sn  Sn0  1  0.71017928  0.27483009  0.85714034  1
  Sn  Sn1  1  0.28982072  0.72516991  0.14285966  1
  Sn  Sn2  1  0.69576761  0.29915420  0.36303789  1
  Sn  Sn3  1  0.30423239  0.70084580  0.63696211  1
  S  S4  1  0.78745952  0.77180709  0.91771576  1
  S  S5  1  0.24934933  0.18569827  0.59204942  1
  S  S6  1  0.75065067  0.81430173  0.40795058  1
  S  S7  1  0.21254048  0.22819291  0.08228424  1
  O  O8  1  0.84793372  0.73873512  0.29710567  1
  O  O9  1  0.68635962  0.96934440  0.88462686  1
  O  O10  1  0.53443565  0.70351955  0.46101503  1
  O  O11  1  0.04440256  0.19589608  0.49063850  1
  O  O12  1  0.31364038  0.03065560  0.11537314  1
  O  O13  1  0.64449712  0.68324951  0.02822875  1
  O  O14  1  0.24069152  0.32417631  0.19195867  1
  O  O15  1  0.63529619  0.00936255  0.37060877  1
  O  O16  1  0.15206628  0.26126488  0.70289433  1
  O  O17  1  0.95559744  0.80410392  0.50936150  1
  O  O18  1  0.36470381  0.99063745  0.62939123  1
  O  O19  1  0.46556435  0.29648045  0.53898497  1
  O  O20  1  0.75930848  0.67582369  0.80804133  1
  O  O21  1  0.92704043  0.24339896  0.04384423  1
  O  O22  1  0.07295957  0.75660104  0.95615577  1
  O  O23  1  0.35550288  0.31675049  0.97177125  1
