# generated using pymatgen
data_BaNd2CuO5
_symmetry_space_group_name_H-M   'P 1'
_cell_length_a   5.88366528
_cell_length_b   6.76578988
_cell_length_c   6.76578988
_cell_angle_alpha   90.00000000
_cell_angle_beta   90.00000000
_cell_angle_gamma   90.00000000
_symmetry_Int_Tables_number   1
_chemical_formula_structural   BaNd2CuO5
_chemical_formula_sum   'Ba2 Nd4 Cu2 O10'
_cell_volume   269.33014822
_cell_formula_units_Z   2
loop_
 _symmetry_equiv_pos_site_id
 _symmetry_equiv_pos_as_xyz
  1  'x, y, z'
loop_
 _atom_site_type_symbol
 _atom_site_label
 _atom_site_symmetry_multiplicity
 _atom_site_fract_x
 _atom_site_fract_y
 _atom_site_fract_z
 _atom_site_occupancy
  O  O0  1  0.24333251  0.63893431  0.13893431  1
  O  O1  1  0.24333251  0.36106569  0.86106569  1
  O  O2  1  0.24333251  0.13893431  0.36106569  1
  O  O3  1  0.24333251  0.86106569  0.63893431  1
  O  O4  1  0.75666749  0.63893431  0.13893431  1
  O  O5  1  0.75666749  0.86106569  0.63893431  1
  O  O6  1  0.75666749  0.13893431  0.36106569  1
  O  O7  1  0.75666749  0.36106569  0.86106569  1
  O  O8  1  0.50000000  0.00000000  0.00000000  1
  O  O9  1  0.50000000  0.50000000  0.50000000  1
  Cu  Cu10  1  0.00000000  0.50000000  0.00000000  1
  Cu  Cu11  1  0.00000000  0.00000000  0.50000000  1
  Ba  Ba12  1  0.00000000  0.50000000  0.50000000  1
  Ba  Ba13  1  0.00000000  0.00000000  0.00000000  1
  Nd  Nd14  1  0.50000000  0.82677924  0.32677924  1
  Nd  Nd15  1  0.50000000  0.67322076  0.82677924  1
  Nd  Nd16  1  0.50000000  0.32677924  0.17322076  1
  Nd  Nd17  1  0.50000000  0.17322076  0.67322076  1
