# generated using pymatgen
data_CuHgSCl
_symmetry_space_group_name_H-M   'P 1'
_cell_length_a   4.09464712
_cell_length_b   9.03609932
_cell_length_c   10.15795507
_cell_angle_alpha   89.99840478
_cell_angle_beta   90.00014753
_cell_angle_gamma   90.00017668
_symmetry_Int_Tables_number   1
_chemical_formula_structural   CuHgSCl
_chemical_formula_sum   'Cu4 Hg4 S4 Cl4'
_cell_volume   375.84066091
_cell_formula_units_Z   4
loop_
 _symmetry_equiv_pos_site_id
 _symmetry_equiv_pos_as_xyz
  1  'x, y, z'
loop_
 _atom_site_type_symbol
 _atom_site_label
 _atom_site_symmetry_multiplicity
 _atom_site_fract_x
 _atom_site_fract_y
 _atom_site_fract_z
 _atom_site_occupancy
  Cu  Cu0  1  0.00000343  0.22938176  0.91479528  1
  Cu  Cu1  1  -0.00000010  0.77067417  0.41480655  1
  Cu  Cu2  1  0.00000130  0.77050064  0.08521070  1
  Cu  Cu3  1  -0.00000130  0.22952730  0.58522741  1
  Hg  Hg4  1  0.50000100  0.20454221  0.24999355  1
  Hg  Hg5  1  0.49998993  0.49999885  0.49999238  1
  Hg  Hg6  1  0.50000166  0.79545978  0.75000641  1
  Hg  Hg7  1  0.49999620  0.49998381  -0.00000092  1
  S  S8  1  0.50000049  0.76661541  0.99008182  1
  S  S9  1  0.50000072  0.76661695  0.50993094  1
  S  S10  1  0.50000363  0.23336448  0.00990625  1
  S  S11  1  0.50000051  0.23336738  0.49007482  1
  Cl  Cl12  1  0.00000082  0.04167599  0.74998586  1
  Cl  Cl13  1  0.00000104  0.95831470  0.24998674  1
  Cl  Cl14  1  0.00000045  0.55857943  0.25000512  1
  Cl  Cl15  1  0.00000022  0.44139717  0.74999709  1
