# generated using pymatgen
data_Sm2B4O9
_symmetry_space_group_name_H-M   'P 1'
_cell_length_a   4.48436624
_cell_length_b   13.04817620
_cell_length_c   25.16035977
_cell_angle_alpha   99.73733633
_cell_angle_beta   89.97772840
_cell_angle_gamma   99.89628593
_symmetry_Int_Tables_number   1
_chemical_formula_structural   Sm2B4O9
_chemical_formula_sum   'Sm20 B40 O90'
_cell_volume   1428.77996320
_cell_formula_units_Z   10
loop_
 _symmetry_equiv_pos_site_id
 _symmetry_equiv_pos_as_xyz
  1  'x, y, z'
loop_
 _atom_site_type_symbol
 _atom_site_label
 _atom_site_symmetry_multiplicity
 _atom_site_fract_x
 _atom_site_fract_y
 _atom_site_fract_z
 _atom_site_occupancy
  Sm  Sm0  1  0.13345412  0.87156312  0.92936532  1
  Sm  Sm1  1  0.46259866  0.28230198  0.29172137  1
  Sm  Sm2  1  0.61050290  0.68976683  0.54052703  1
  Sm  Sm3  1  0.00855335  0.43115571  0.13038027  1
  Sm  Sm4  1  0.31769971  0.97592510  0.32166031  1
  Sm  Sm5  1  0.68221838  0.02523752  0.67895322  1
  Sm  Sm6  1  0.81545622  0.28187103  0.79184094  1
  Sm  Sm7  1  0.99229533  0.56927671  0.87005079  1
  Sm  Sm8  1  0.18222920  0.71840637  0.20775345  1
  Sm  Sm9  1  0.07661487  0.69075151  0.03965162  1
  Sm  Sm10  1  0.86369052  0.12854641  0.07127256  1
  Sm  Sm11  1  0.25668656  0.12763462  0.57024135  1
  Sm  Sm12  1  0.65674700  0.97652886  0.82196109  1
  Sm  Sm13  1  0.34017511  0.02420253  0.17879728  1
  Sm  Sm14  1  0.38457697  0.30912597  0.45958511  1
  Sm  Sm15  1  0.42118356  0.43038817  0.62924668  1
  Sm  Sm16  1  0.92769852  0.30963452  0.96120826  1
  Sm  Sm17  1  0.57626061  0.56974284  0.37016971  1
  Sm  Sm18  1  0.53435724  0.71842068  0.70809375  1
  Sm  Sm19  1  0.73666075  0.87168391  0.42956918  1
  B  B20  1  0.62243643  0.85380051  0.03113713  1
  B  B21  1  0.86372702  0.29554740  0.55815934  1
  B  B22  1  0.42375259  0.50272568  0.78191280  1
  B  B23  1  0.12141470  0.89613656  0.72529293  1
  B  B24  1  0.57508469  0.49661356  0.21797526  1
  B  B25  1  0.27122694  0.19754616  0.69133282  1
  B  B26  1  0.02994746  0.39092631  0.36622156  1
  B  B27  1  0.78385235  0.93765043  0.56594986  1
  B  B28  1  0.48405724  0.51614712  0.96150869  1
  B  B29  1  0.72597945  0.80334669  0.30862748  1
  B  B30  1  0.83448583  0.29058621  0.66230542  1
  B  B31  1  0.22580137  0.10438353  0.77497608  1
  B  B32  1  0.92073417  0.49656608  0.71814073  1
  B  B33  1  0.13218306  0.70460132  0.44178390  1
  B  B34  1  0.22119653  0.18447782  0.87608100  1
  B  B35  1  0.92498779  0.19720498  0.19220849  1
  B  B36  1  0.63915577  0.60929668  0.13320858  1
  B  B37  1  0.07561924  0.80338204  0.80866488  1
  B  B38  1  0.51766563  0.48402246  0.03905339  1
  B  B39  1  0.96669860  0.60872589  0.63339936  1
  B  B40  1  0.07825811  0.50290477  0.28171083  1
  B  B41  1  0.22691717  0.85255566  0.53109585  1
  B  B42  1  0.77311253  0.81656050  0.12387716  1
  B  B43  1  0.77145773  0.14757486  0.46915657  1
  B  B44  1  0.14982379  0.93842680  0.06597314  1
  B  B45  1  0.21595917  0.06269895  0.43466906  1
  B  B46  1  0.37337176  0.14721480  0.96883412  1
  B  B47  1  0.03106213  0.51571977  0.46086408  1
  B  B48  1  0.54738080  0.70976935  0.83776299  1
  B  B49  1  0.84452865  0.06205641  0.93434773  1
  B  B50  1  0.57244094  0.70519592  0.94186752  1
  B  B51  1  0.42910339  0.29447195  0.05870892  1
  B  B52  1  0.95993710  0.18373162  0.37620253  1
  B  B53  1  0.96456612  0.48373425  0.53830696  1
  B  B54  1  0.87867540  0.10400817  0.27522504  1
  B  B55  1  0.03927948  0.81649712  0.62417020  1
  B  B56  1  0.77135198  0.89611644  0.22509374  1
  B  B57  1  0.16105815  0.70958447  0.33762365  1
  B  B58  1  0.45468236  0.28977441  0.16264784  1
  B  B59  1  0.35964122  0.39112287  0.86647536  1
  O  O60  1  0.68139884  0.12673251  0.97791176  1
  O  O61  1  0.74933873  0.30492079  0.05575120  1
  O  O62  1  0.86677565  0.71389861  0.63626545  1
  O  O63  1  0.31769699  0.39712197  0.05572911  1
  O  O64  1  0.91817822  0.12563227  0.88887205  1
  O  O65  1  0.30717732  0.25834892  0.10873496  1
  O  O66  1  0.86756248  0.09346774  0.15971573  1
  O  O67  1  0.25828121  0.21461704  0.01555378  1
  O  O68  1  0.21026149  0.55202450  0.51333005  1
  O  O69  1  0.44342755  0.12666486  0.47825131  1
  O  O70  1  0.30396880  0.53752209  0.24195552  1
  O  O71  1  0.04332576  0.74011707  0.39149406  1
  O  O72  1  0.27616010  0.60529421  0.63246627  1
  O  O73  1  0.32690392  0.60602582  0.13249797  1
  O  O74  1  0.50094857  0.72965123  0.33571036  1
  O  O75  1  0.67239778  0.39491196  0.86679639  1
  O  O76  1  0.15229968  0.28656277  0.86395761  1
  O  O77  1  0.20651170  0.12671521  0.38946075  1
  O  O78  1  0.22414067  0.09403964  0.65867083  1
  O  O79  1  0.80653277  0.21525802  0.42628894  1
  O  O80  1  0.75640761  0.57476579  0.18615490  1
  O  O81  1  0.06306255  0.59254638  0.32721061  1
  O  O82  1  0.79846873  0.54235042  0.58144450  1
  O  O83  1  0.80478634  0.89657495  0.72632566  1
  O  O84  1  0.95045456  0.25956553  0.60832834  1
  O  O85  1  0.53098833  0.59253013  0.82711759  1
  O  O86  1  0.62177693  0.86960613  0.16950568  1
  O  O87  1  0.71405408  0.04012532  0.58491498  1
  O  O88  1  0.19741676  0.45803121  0.41774173  1
  O  O89  1  0.31285362  0.00025498  0.75027901  1
  O  O90  1  0.55593461  0.87295779  0.52222577  1
  O  O91  1  0.33838428  0.55162564  0.01388209  1
  O  O92  1  0.95430458  0.21556756  0.51507415  1
  O  O93  1  0.69290359  0.46135267  0.75733872  1
  O  O94  1  0.67168540  0.95965007  0.91544745  1
  O  O95  1  0.25227442  0.69464715  0.94466093  1
  O  O96  1  0.59015779  0.78506215  0.07357031  1
  O  O97  1  0.78499474  0.44733831  0.48582602  1
  O  O98  1  0.90857047  0.10372656  0.77383225  1
  O  O99  1  0.68580338  0.60296461  0.94545208  1
  O  O100  1  0.84342869  0.71438479  0.13623510  1
  O  O101  1  0.32240040  0.04088928  0.08538513  1
  O  O102  1  0.18094948  0.42467745  0.31314041  1
  O  O103  1  0.81690016  0.57485579  0.68630671  1
  O  O104  1  0.44117389  0.69393362  0.44476399  1
  O  O105  1  0.26555858  0.23608747  0.19978369  1
  O  O106  1  0.28649352  0.96025762  0.41522471  1
  O  O107  1  0.93923795  0.40729427  0.67285542  1
  O  O108  1  0.26076402  0.45820374  0.91828088  1
  O  O109  1  0.69736433  0.73955272  0.89152972  1
  O  O110  1  0.72009546  0.39422067  0.36678630  1
  O  O111  1  0.77649320  0.27207766  0.16562056  1
  O  O112  1  0.73621343  0.76343981  0.80062249  1
  O  O113  1  0.19015195  0.80924401  0.75418650  1
  O  O114  1  0.76677847  0.46215113  0.25738566  1
  O  O115  1  0.91635971  0.60252788  0.44461636  1
  O  O116  1  0.22742424  0.72942379  0.83565346  1
  O  O117  1  0.46855016  0.40665862  0.17290866  1
  O  O118  1  0.40419888  0.21611226  0.92667423  1
  O  O119  1  0.24232043  0.42452652  0.81347255  1
  O  O120  1  0.08799327  0.89582906  0.22602457  1
  O  O121  1  0.14391065  0.05314380  0.95682005  1
  O  O122  1  0.66195511  0.44791487  0.98672739  1
  O  O123  1  0.81130774  0.19165953  0.24680505  1
  O  O124  1  0.24335162  0.86972841  0.66960227  1
  O  O125  1  0.23020327  0.53831942  0.74296815  1
  O  O126  1  0.74173389  0.54249252  0.08201613  1
  O  O127  1  0.75744231  0.12929544  0.33083327  1
  O  O128  1  0.19066018  0.78435708  0.57376719  1
  O  O129  1  0.73977091  0.78637096  0.98482876  1
  O  O130  1  0.04359777  0.78499604  0.48472198  1
  O  O131  1  0.77779118  0.90702088  0.34112080  1
  O  O132  1  0.68646220  0.00034039  0.25002033  1
  O  O133  1  0.96959358  0.23646822  0.69943157  1
  O  O134  1  0.79496589  0.87470403  0.61134725  1
  O  O135  1  0.31441906  0.87459715  0.02225129  1
  O  O136  1  0.49497477  0.27315981  0.66531488  1
  O  O137  1  0.12962841  0.90730123  0.84121156  1
  O  O138  1  0.19533233  0.10328489  0.27364948  1
  O  O139  1  0.37407748  0.13164543  0.83056418  1
  O  O140  1  0.61458676  0.80975108  0.25433324  1
  O  O141  1  0.55425924  0.30595036  0.55512069  1
  O  O142  1  0.09132422  0.94643582  0.54282656  1
  O  O143  1  0.85173896  0.94809153  0.04330717  1
  O  O144  1  0.90815962  0.05339148  0.45745266  1
  O  O145  1  0.38137490  0.19038248  0.74564667  1
  O  O146  1  0.02388730  0.76218520  0.30018750  1
  O  O147  1  0.13012480  0.28598128  0.36367224  1
  O  O148  1  0.07585107  0.87479484  0.11110483  1
  O  O149  1  0.07872020  0.39769517  0.55497259  1
