# generated using pymatgen
data_Zr23S32
_symmetry_space_group_name_H-M   'P 1'
_cell_length_a   7.32841299
_cell_length_b   7.30653867
_cell_length_c   29.37432152
_cell_angle_alpha   119.81393232
_cell_angle_beta   120.04608893
_cell_angle_gamma   90.16660921
_symmetry_Int_Tables_number   1
_chemical_formula_structural   Zr23S32
_chemical_formula_sum   'Zr23 S32'
_cell_volume   1112.90549419
_cell_formula_units_Z   1
loop_
 _symmetry_equiv_pos_site_id
 _symmetry_equiv_pos_as_xyz
  1  'x, y, z'
loop_
 _atom_site_type_symbol
 _atom_site_label
 _atom_site_symmetry_multiplicity
 _atom_site_fract_x
 _atom_site_fract_y
 _atom_site_fract_z
 _atom_site_occupancy
  Zr  Zr0  1  0.00090296  0.00033517  0.87507470  1
  Zr  Zr1  1  0.00433645  0.50474043  0.75035972  1
  Zr  Zr2  1  0.49783758  0.49752202  0.87451132  1
  Zr  Zr3  1  0.49652324  0.99789814  0.87363098  1
  Zr  Zr4  1  0.99755044  0.00189770  0.50013662  1
  Zr  Zr5  1  0.49533905  0.99817828  0.75023602  1
  Zr  Zr6  1  0.49646691  0.49774436  0.62430562  1
  Zr  Zr7  1  0.49515256  0.99448014  0.62253399  1
  Zr  Zr8  1  0.49931087  0.49614644  0.49831792  1
  Zr  Zr9  1  0.99913048  0.99151039  0.24902631  1
  Zr  Zr10  1  0.99968403  0.00088892  0.75038041  1
  Zr  Zr11  1  0.50129713  0.50057505  0.37574335  1
  Zr  Zr12  1  0.49861168  0.00402542  0.37543181  1
  Zr  Zr13  1  0.99930009  0.99961346  0.62377197  1
  Zr  Zr14  1  0.00666051  0.50764844  0.00152719  1
  Zr  Zr15  1  0.01042404  0.00111730  0.00119718  1
  Zr  Zr16  1  0.49695861  0.99766292  0.24936220  1
  Zr  Zr17  1  0.49958507  0.49899361  0.12499622  1
  Zr  Zr18  1  0.00461901  0.50049286  0.37663260  1
  Zr  Zr19  1  0.00160238  0.00288855  0.37502884  1
  Zr  Zr20  1  0.99936143  0.50342165  0.24915960  1
  Zr  Zr21  1  0.49650802  0.99848526  0.00172213  1
  Zr  Zr22  1  0.00374284  0.50663738  0.12766075  1
  S  S23  1  0.24882218  0.74812137  0.99935897  1
  S  S24  1  0.24077670  0.73975529  0.87562761  1
  S  S25  1  0.24733836  0.25662609  0.87599519  1
  S  S26  1  0.25089341  0.74229747  0.74827953  1
  S  S27  1  0.25795398  0.25886435  0.74923513  1
  S  S28  1  0.24147077  0.74167666  0.62310533  1
  S  S29  1  0.74887141  0.74457008  0.87362111  1
  S  S30  1  0.25036417  0.25946877  0.62738093  1
  S  S31  1  0.76153352  0.26169137  0.87549116  1
  S  S32  1  0.73947360  0.74031732  0.75002614  1
  S  S33  1  0.74567546  0.25260971  0.74956108  1
  S  S34  1  0.24951770  0.75178188  0.50038081  1
  S  S35  1  0.24909823  0.24911930  0.49979445  1
  S  S36  1  0.25972486  0.75923364  0.38013737  1
  S  S37  1  0.76058483  0.73956277  0.62512346  1
  S  S38  1  0.24816898  0.24924753  0.37399010  1
  S  S39  1  0.75046676  0.25125062  0.62326608  1
  S  S40  1  0.75160459  0.75170025  0.50055599  1
  S  S41  1  0.74752686  0.24644123  0.49852182  1
  S  S42  1  0.26181025  0.73834588  0.24983027  1
  S  S43  1  0.25118918  0.25202999  0.24880785  1
  S  S44  1  0.24984491  0.76125401  0.12469237  1
  S  S45  1  0.73858972  0.74008768  0.36956684  1
  S  S46  1  0.24505212  0.25274816  0.12389147  1
  S  S47  1  0.76070061  0.26204779  0.38026708  1
  S  S48  1  0.73644486  0.73744784  0.24935164  1
  S  S49  1  0.74600561  0.25202014  0.24934356  1
  S  S50  1  0.26280515  0.26201819  0.00059758  1
  S  S51  1  0.75468559  0.75206586  0.12715852  1
  S  S52  1  0.74913666  0.23709445  0.12482177  1
  S  S53  1  0.74921106  0.74834805  0.00111137  1
  S  S54  1  0.74375251  0.25725239  0.00035997  1
