# generated using pymatgen
data_Na3Sr7Ti7Nb3O30
_symmetry_space_group_name_H-M   'P 1'
_cell_length_a   6.87397168
_cell_length_b   6.86301263
_cell_length_c   34.37886200
_cell_angle_alpha   109.38971680
_cell_angle_beta   109.52117052
_cell_angle_gamma   109.46387550
_symmetry_Int_Tables_number   1
_chemical_formula_structural   Na3Sr7Ti7Nb3O30
_chemical_formula_sum   'Na6 Sr14 Ti14 Nb6 O60'
_cell_volume   1249.10810726
_cell_formula_units_Z   2
loop_
 _symmetry_equiv_pos_site_id
 _symmetry_equiv_pos_as_xyz
  1  'x, y, z'
loop_
 _atom_site_type_symbol
 _atom_site_label
 _atom_site_symmetry_multiplicity
 _atom_site_fract_x
 _atom_site_fract_y
 _atom_site_fract_z
 _atom_site_occupancy
  Na  Na0  1  0.49819054  0.49780698  0.79877233  1
  Na  Na1  1  0.99658494  0.99622205  0.79898292  1
  Na  Na2  1  0.50060734  0.50057911  0.60017753  1
  Na  Na3  1  0.50038636  0.50038437  0.40016030  1
  Na  Na4  1  0.50056145  0.50056973  0.20027771  1
  Na  Na5  1  0.00221953  0.00258560  0.00054935  1
  Sr  Sr6  1  0.49953289  0.99876065  0.89928046  1
  Sr  Sr7  1  0.50039485  0.99940035  0.70005808  1
  Sr  Sr8  1  0.99739356  0.49801477  0.89925537  1
  Sr  Sr9  1  0.50042995  0.00039122  0.50019468  1
  Sr  Sr10  1  0.99981481  0.50088991  0.70005753  1
  Sr  Sr11  1  0.00088834  0.00084105  0.60045715  1
  Sr  Sr12  1  0.50032268  0.00030164  0.30016576  1
  Sr  Sr13  1  0.00053007  0.50058375  0.50019319  1
  Sr  Sr14  1  0.00037849  0.00038079  0.40015278  1
  Sr  Sr15  1  0.00049796  0.50050733  0.30016779  1
  Sr  Sr16  1  0.00008728  0.00015702  0.19994053  1
  Sr  Sr17  1  0.49957149  0.00161863  0.10033921  1
  Sr  Sr18  1  0.50131357  0.50208312  0.00116810  1
  Sr  Sr19  1  0.00210363  0.49998556  0.10033252  1
  Ti  Ti20  1  0.50073819  0.50117987  0.69965585  1
  Ti  Ti21  1  0.00168407  0.00194203  0.70138985  1
  Ti  Ti22  1  0.99584617  0.99213275  0.89761714  1
  Ti  Ti23  1  0.98936877  0.49655497  0.79725823  1
  Ti  Ti24  1  0.50205839  0.50051467  0.50050318  1
  Ti  Ti25  1  0.00059959  0.00214283  0.50057337  1
  Ti  Ti26  1  0.00128411  0.50270473  0.60080995  1
  Ti  Ti27  1  0.50198766  0.50054398  0.30053411  1
  Ti  Ti28  1  0.00204987  0.50209348  0.40081952  1
  Ti  Ti29  1  0.00045768  0.00198285  0.30047418  1
  Ti  Ti30  1  0.50070552  0.49949809  0.10149830  1
  Ti  Ti31  1  0.00292187  0.00307626  0.09985403  1
  Ti  Ti32  1  0.00264791  0.50134877  0.20078865  1
  Ti  Ti33  1  0.00632255  0.49602411  0.00070320  1
  Nb  Nb34  1  0.49871108  0.49962037  0.89875244  1
  Nb  Nb35  1  0.49998562  0.99231503  0.79852405  1
  Nb  Nb36  1  0.50105420  -0.00011829  0.60020607  1
  Nb  Nb37  1  0.50030229  0.00032508  0.40011870  1
  Nb  Nb38  1  0.50005174  0.00115582  0.20023145  1
  Nb  Nb39  1  0.49783845  0.00504002  0.00076459  1
  O  O40  1  0.00068108  0.25432558  0.95004959  1
  O  O41  1  0.49624032  0.74863841  0.94987956  1
  O  O42  1  0.24811731  0.50630933  0.85103082  1
  O  O43  1  0.25099804  0.25174866  0.90142102  1
  O  O44  1  0.25107530  0.00041315  0.94927464  1
  O  O45  1  0.24998800  0.74882525  0.80035100  1
  O  O46  1  0.74860755  0.25414761  0.00014021  1
  O  O47  1  0.75179377  0.00644612  0.85164693  1
  O  O48  1  0.49658848  0.74718307  0.74851440  1
  O  O49  1  0.74802677  0.49450820  0.94963895  1
  O  O50  1  0.75304626  0.75262846  0.90022610  1
  O  O51  1  0.24768682  0.24815199  0.69904755  1
  O  O52  1  0.24638815  0.49973081  0.65049730  1
  O  O53  1  0.50468703  0.24730088  0.85069782  1
  O  O54  1  0.24849643  0.99413134  0.74861880  1
  O  O55  1  0.24568883  0.74983539  0.59970642  1
  O  O56  1  0.75429755  0.00581831  0.65088347  1
  O  O57  1  0.75211530  0.25330911  0.80058316  1
  O  O58  1  0.50108647  0.75202692  0.54929750  1
  O  O59  1  0.75041605  0.49474456  0.74893829  1
  O  O60  1  0.74970953  0.74902163  0.69987987  1
  O  O61  1  0.00602504  0.75335499  0.85164700  1
  O  O62  1  0.24682496  0.24742787  0.49881913  1
  O  O63  1  0.24588247  0.49945576  0.45035825  1
  O  O64  1  0.49870488  0.24807325  0.65068204  1
  O  O65  1  0.24601188  0.99402570  0.54912737  1
  O  O66  1  0.24576865  0.74993824  0.39969106  1
  O  O67  1  0.75350222  0.24933420  0.59994462  1
  O  O68  1  0.75413624  0.00524327  0.45075565  1
  O  O69  1  0.50098606  0.75193583  0.34926400  1
  O  O70  1  0.75242118  0.49977291  0.54916588  1
  O  O71  1  0.75228245  0.75168608  0.50082379  1
  O  O72  1  0.00576180  0.75263740  0.65020717  1
  O  O73  1  0.99413745  0.25003779  0.74916405  1
  O  O74  1  0.00020157  0.74824573  0.05056405  1
  O  O75  1  0.24585702  0.49945811  0.25036403  1
  O  O76  1  0.24682381  0.24741400  0.29881621  1
  O  O77  1  0.49808849  0.24797234  0.45053491  1
  O  O78  1  0.24580165  0.99380615  0.34904278  1
  O  O79  1  0.24578859  0.74992627  0.19968213  1
  O  O80  1  0.75329960  0.24911521  0.39993251  1
  O  O81  1  0.75406708  0.00518177  0.25071406  1
  O  O82  1  0.50108649  0.75217495  0.14932023  1
  O  O83  1  0.75216904  0.49965056  0.34909984  1
  O  O84  1  0.75232239  0.75172434  0.30083363  1
  O  O85  1  0.00538409  0.75271026  0.45014633  1
  O  O86  1  0.99409130  0.24563894  0.54938897  1
  O  O87  1  0.25280642  0.50598773  0.05067307  1
  O  O88  1  0.25039447  0.25111967  0.10007863  1
  O  O89  1  0.49808057  0.24795777  0.25054803  1
  O  O90  1  0.24609508  0.99396231  0.14915113  1
  O  O91  1  0.25128542  0.74621978  0.99989777  1
  O  O92  1  0.75315780  0.24904152  0.19992067  1
  O  O93  1  0.74842433  0.00068433  0.05080333  1
  O  O94  1  0.74933237  0.74887719  0.09986220  1
  O  O95  1  0.75211001  0.49975864  0.14912088  1
  O  O96  1  0.99387096  0.24540522  0.34930242  1
  O  O97  1  0.00531097  0.75271844  0.25012202  1
  O  O98  1  0.50364964  0.25495998  0.05092138  1
  O  O99  1  0.99389503  0.24597969  0.14942521  1
