# generated using pymatgen
data_Mg30NbSnO32
_symmetry_space_group_name_H-M   'P 1'
_cell_length_a   8.62603234
_cell_length_b   8.63218127
_cell_length_c   8.63218127
_cell_angle_alpha   90.00000000
_cell_angle_beta   90.00000000
_cell_angle_gamma   90.00000000
_symmetry_Int_Tables_number   1
_chemical_formula_structural   Mg30NbSnO32
_chemical_formula_sum   'Mg30 Nb1 Sn1 O32'
_cell_volume   642.76494810
_cell_formula_units_Z   1
loop_
 _symmetry_equiv_pos_site_id
 _symmetry_equiv_pos_as_xyz
  1  'x, y, z'
loop_
 _atom_site_type_symbol
 _atom_site_label
 _atom_site_symmetry_multiplicity
 _atom_site_fract_x
 _atom_site_fract_y
 _atom_site_fract_z
 _atom_site_occupancy
  Mg  Mg0  1  0.00000000  0.00000000  0.50000000  1
  Mg  Mg1  1  0.00000000  0.50000000  -0.00000000  1
  Mg  Mg2  1  0.50000000  0.00000000  -0.00000000  1
  Mg  Mg3  1  0.50000000  0.00000000  0.50000000  1
  Mg  Mg4  1  0.50000000  0.50000000  -0.00000000  1
  Mg  Mg5  1  0.50000000  0.50000000  0.50000000  1
  Mg  Mg6  1  0.00000000  0.25223225  0.25223225  1
  Mg  Mg7  1  0.00000000  0.25223225  0.74776775  1
  Mg  Mg8  1  0.00000000  0.74776775  0.25223225  1
  Mg  Mg9  1  0.00000000  0.74776775  0.74776775  1
  Mg  Mg10  1  0.50000000  0.25011098  0.25011098  1
  Mg  Mg11  1  0.50000000  0.25011098  0.74988902  1
  Mg  Mg12  1  0.50000000  0.74988902  0.25011098  1
  Mg  Mg13  1  0.50000000  0.74988902  0.74988902  1
  Mg  Mg14  1  0.25387899  0.00000000  0.25392827  1
  Mg  Mg15  1  0.25387899  0.00000000  0.74607173  1
  Mg  Mg16  1  0.25173475  0.50000000  0.24837881  1
  Mg  Mg17  1  0.25173475  0.50000000  0.75162119  1
  Mg  Mg18  1  0.74612101  0.00000000  0.25392827  1
  Mg  Mg19  1  0.74612101  0.00000000  0.74607173  1
  Mg  Mg20  1  0.74826525  0.50000000  0.24837881  1
  Mg  Mg21  1  0.74826525  0.50000000  0.75162119  1
  Mg  Mg22  1  0.25387899  0.25392827  -0.00000000  1
  Mg  Mg23  1  0.25173475  0.24837881  0.50000000  1
  Mg  Mg24  1  0.25387899  0.74607173  -0.00000000  1
  Mg  Mg25  1  0.25173475  0.75162119  0.50000000  1
  Mg  Mg26  1  0.74612101  0.25392827  -0.00000000  1
  Mg  Mg27  1  0.74826525  0.24837881  0.50000000  1
  Mg  Mg28  1  0.74612101  0.74607173  -0.00000000  1
  Mg  Mg29  1  0.74826525  0.75162119  0.50000000  1
  Nb  Nb30  1  0.00000000  0.50000000  0.50000000  1
  Sn  Sn31  1  0.00000000  0.00000000  -0.00000000  1
  O  O32  1  0.26994833  0.00000000  -0.00000000  1
  O  O33  1  0.25397824  0.00000000  0.50000000  1
  O  O34  1  0.25397824  0.50000000  -0.00000000  1
  O  O35  1  0.26211222  0.50000000  0.50000000  1
  O  O36  1  0.73005167  0.00000000  -0.00000000  1
  O  O37  1  0.74602176  0.00000000  0.50000000  1
  O  O38  1  0.74602176  0.50000000  -0.00000000  1
  O  O39  1  0.73788778  0.50000000  0.50000000  1
  O  O40  1  0.24919790  0.24984499  0.24984499  1
  O  O41  1  0.24919790  0.24984499  0.75015501  1
  O  O42  1  0.24919790  0.75015501  0.24984499  1
  O  O43  1  0.24919790  0.75015501  0.75015501  1
  O  O44  1  0.75080210  0.24984499  0.24984499  1
  O  O45  1  0.75080210  0.24984499  0.75015501  1
  O  O46  1  0.75080210  0.75015501  0.24984499  1
  O  O47  1  0.75080210  0.75015501  0.75015501  1
  O  O48  1  0.00000000  0.00000000  0.26883233  1
  O  O49  1  0.00000000  0.00000000  0.73116767  1
  O  O50  1  0.00000000  0.50000000  0.24003625  1
  O  O51  1  0.00000000  0.50000000  0.75996375  1
  O  O52  1  0.50000000  0.00000000  0.25253292  1
  O  O53  1  0.50000000  0.00000000  0.74746708  1
  O  O54  1  0.50000000  0.50000000  0.24923053  1
  O  O55  1  0.50000000  0.50000000  0.75076947  1
  O  O56  1  0.00000000  0.26883233  -0.00000000  1
  O  O57  1  0.00000000  0.24003625  0.50000000  1
  O  O58  1  0.00000000  0.73116767  -0.00000000  1
  O  O59  1  0.00000000  0.75996375  0.50000000  1
  O  O60  1  0.50000000  0.25253292  -0.00000000  1
  O  O61  1  0.50000000  0.24923053  0.50000000  1
  O  O62  1  0.50000000  0.74746708  -0.00000000  1
  O  O63  1  0.50000000  0.75076947  0.50000000  1
