# generated using pymatgen
data_Nd2Th8O19
_symmetry_space_group_name_H-M   'P 1'
_cell_length_a   3.97519359
_cell_length_b   39.78292172
_cell_length_c   37.95396937
_cell_angle_alpha   5.20667308
_cell_angle_beta   58.44278254
_cell_angle_gamma   60.04698643
_symmetry_Int_Tables_number   1
_chemical_formula_structural   Nd2Th8O19
_chemical_formula_sum   'Nd2 Th8 O19'
_cell_volume   445.13894671
_cell_formula_units_Z   1
loop_
 _symmetry_equiv_pos_site_id
 _symmetry_equiv_pos_as_xyz
  1  'x, y, z'
loop_
 _atom_site_type_symbol
 _atom_site_label
 _atom_site_symmetry_multiplicity
 _atom_site_fract_x
 _atom_site_fract_y
 _atom_site_fract_z
 _atom_site_occupancy
  Nd  Nd0  1  0.03490285  0.01988888  0.97402606  1
  Nd  Nd1  1  0.97254604  0.07249833  0.03370638  1
  Th  Th2  1  0.00069142  0.19552320  0.00480782  1
  Th  Th3  1  0.00179717  0.29709859  0.00289130  1
  Th  Th4  1  0.00294874  0.40006146  0.99966851  1
  Th  Th5  1  0.00186448  0.50067720  0.99901685  1
  Th  Th6  1  -0.00002050  0.59972207  0.99994264  1
  Th  Th7  1  0.00132398  0.69937343  0.00035782  1
  Th  Th8  1  0.00503543  0.80059303  0.99901640  1
  Th  Th9  1  0.00740394  0.89987361  -0.00037172  1
  O  O10  1  0.26010104  0.00190238  0.24655227  1
  O  O11  1  0.25152275  0.09837586  0.25169284  1
  O  O12  1  0.25304383  0.20035230  0.24940093  1
  O  O13  1  0.25190459  0.30192441  0.24752141  1
  O  O14  1  0.24828120  0.39778798  0.25219211  1
  O  O15  1  0.25589430  0.50255267  0.24648591  1
  O  O16  1  0.74923387  0.99661400  0.75385759  1
  O  O17  1  0.24664736  0.59258629  0.25902282  1
  O  O18  1  0.76731059  0.10921468  0.73832196  1
  O  O19  1  0.28098155  0.71679080  0.22802135  1
  O  O20  1  0.73209844  0.17781221  0.77673929  1
  O  O21  1  0.75090395  0.29839377  0.75156414  1
  O  O22  1  0.22844098  0.87818091  0.27665727  1
  O  O23  1  0.77357030  0.41392562  0.73186312  1
  O  O24  1  0.74325391  0.48836538  0.76343455  1
  O  O25  1  0.75450104  0.60045557  0.74897853  1
  O  O26  1  0.75324104  0.70076360  0.74885295  1
  O  O27  1  0.74978183  0.80047203  0.74933355  1
  O  O28  1  0.75120988  0.90057674  0.74877835  1
