# generated using pymatgen
data_Li27As10
_symmetry_space_group_name_H-M   'P 1'
_cell_length_a   8.66357197
_cell_length_b   21.53235163
_cell_length_c   7.44117033
_cell_angle_alpha   30.19780937
_cell_angle_beta   54.44716201
_cell_angle_gamma   59.80952783
_symmetry_Int_Tables_number   1
_chemical_formula_structural   Li27As10
_chemical_formula_sum   'Li27 As10'
_cell_volume   568.04966561
_cell_formula_units_Z   1
loop_
 _symmetry_equiv_pos_site_id
 _symmetry_equiv_pos_as_xyz
  1  'x, y, z'
loop_
 _atom_site_type_symbol
 _atom_site_label
 _atom_site_symmetry_multiplicity
 _atom_site_fract_x
 _atom_site_fract_y
 _atom_site_fract_z
 _atom_site_occupancy
  Li  Li0  1  0.09633358  0.00184242  0.26290217  1
  Li  Li1  1  0.24668413  -0.00203458  0.50819699  1
  Li  Li2  1  0.10253314  0.19987379  0.26485398  1
  Li  Li3  1  0.24547692  0.20242779  0.50064871  1
  Li  Li4  1  0.63652415  0.01249355  0.21710119  1
  Li  Li5  1  0.40125016  0.00348179  0.72390874  1
  Li  Li6  1  0.13248494  0.41831041  0.19041048  1
  Li  Li7  1  0.63425782  0.19129858  0.27418306  1
  Li  Li8  1  0.13327670  0.60043777  0.26201004  1
  Li  Li9  1  0.39761725  0.19952677  0.73758509  1
  Li  Li10  1  0.25366094  0.39653161  0.50639235  1
  Li  Li11  1  0.13474202  0.78303685  0.27728389  1
  Li  Li12  1  0.86046941  0.01377589  0.71531626  1
  Li  Li13  1  0.63295375  0.38728056  0.26316005  1
  Li  Li14  1  0.36401660  0.41571392  0.72788784  1
  Li  Li15  1  0.59919918  0.60140184  0.25836475  1
  Li  Li16  1  0.75168801  0.39989479  0.49903045  1
  Li  Li17  1  0.85924096  0.18855128  0.77990654  1
  Li  Li18  1  0.36776545  0.60069179  0.73228251  1
  Li  Li19  1  0.25213834  0.80653217  0.47961669  1
  Li  Li20  1  0.63148053  0.81379938  0.19981173  1
  Li  Li21  1  0.86627853  0.38568987  0.80370909  1
  Li  Li22  1  0.36457964  0.78601765  0.79911704  1
  Li  Li23  1  0.75105993  0.60227509  0.49029235  1
  Li  Li24  1  0.75157039  0.80260833  0.49029061  1
  Li  Li25  1  0.89640077  0.60077360  0.73454599  1
  Li  Li26  1  0.86775586  0.81569418  0.72717433  1
  As  As27  1  0.01671001  0.99196722  -0.00442051  1
  As  As28  1  0.01482764  0.21003495  0.95214255  1
  As  As29  1  0.99664460  0.39806715  0.01130680  1
  As  As30  1  0.48313865  0.21033141  0.99665146  1
  As  As31  1  0.98629828  0.60083264  0.02453732  1
  As  As32  1  0.49964398  0.39889467  0.99923186  1
  As  As33  1  0.99681329  0.80293643  0.99909409  1
  As  As34  1  0.51021154  0.60024691  0.97311450  1
  As  As35  1  0.50184280  0.80357466  0.98537168  1
  As  As36  1  0.48181810  0.99234089  0.04151930  1
