# generated using pymatgen
data_CuH12N2(Cl2O)2
_symmetry_space_group_name_H-M   'P 1'
_cell_length_a   7.70994122
_cell_length_b   7.72399353
_cell_length_c   7.98881651
_cell_angle_alpha   90.51932093
_cell_angle_beta   89.64539819
_cell_angle_gamma   91.32617814
_symmetry_Int_Tables_number   1
_chemical_formula_structural   CuH12N2(Cl2O)2
_chemical_formula_sum   'Cu2 H24 N4 Cl8 O4'
_cell_volume   475.59081709
_cell_formula_units_Z   2
loop_
 _symmetry_equiv_pos_site_id
 _symmetry_equiv_pos_as_xyz
  1  'x, y, z'
loop_
 _atom_site_type_symbol
 _atom_site_label
 _atom_site_symmetry_multiplicity
 _atom_site_fract_x
 _atom_site_fract_y
 _atom_site_fract_z
 _atom_site_occupancy
  Cu  Cu0  1  0.00806160  0.00321031  0.99905172  1
  Cu  Cu1  1  0.48703764  0.48729609  0.49981545  1
  H  H2  1  0.07835193  0.07840887  0.32317777  1
  H  H3  1  0.07569713  0.07769114  0.67769547  1
  H  H4  1  0.10157664  0.53777720  0.29835141  1
  H  H5  1  0.10196783  0.53691221  0.69991984  1
  H  H6  1  0.39754228  0.08329791  0.75836141  1
  H  H7  1  0.41044491  0.94818725  0.20551180  1
  H  H8  1  0.44997111  0.89522286  0.84846232  1
  H  H9  1  0.42539000  0.57196058  0.17930763  1
  H  H10  1  0.42459569  0.57095027  0.82421471  1
  H  H11  1  0.50001895  0.09595845  0.34187457  1
  H  H12  1  0.56997063  0.42460386  0.17722156  1
  H  H13  1  0.57007947  0.42470724  0.81902292  1
  H  H14  1  0.59558991  0.06478222  0.84164831  1
  H  H15  1  0.59594018  0.06280062  0.15608591  1
  H  H16  1  0.60015109  0.90647603  0.30402521  1
  H  H17  1  0.54394414  0.95407004  0.66304270  1
  H  H18  1  0.94723575  0.40511052  0.20512197  1
  H  H19  1  0.94696870  0.40499732  0.79259478  1
  H  H20  1  0.89075465  0.56277220  0.34445160  1
  H  H21  1  0.89122383  0.56042711  0.65601368  1
  H  H22  1  0.92889043  0.92960373  0.32022533  1
  H  H23  1  0.92542525  0.92893061  0.67818530  1
  H  H24  1  0.96046101  0.61570020  0.15586129  1
  H  H25  1  0.95937538  0.61658672  0.84444652  1
  N  N26  1  0.97706863  0.52735687  0.25092655  1
  N  N27  1  0.97733462  0.52723017  0.74857397  1
  N  N28  1  0.52504107  0.00245213  0.25138258  1
  N  N29  1  0.49757698  -0.00147032  0.77676909  1
  Cl  Cl30  1  0.21366190  0.21320056  0.99966285  1
  Cl  Cl31  1  0.21652855  0.21776327  0.50249070  1
  Cl  Cl32  1  0.28975308  0.72069999  0.00554542  1
  Cl  Cl33  1  0.28599147  0.69704361  0.50249385  1
  Cl  Cl34  1  0.69919786  0.29368379  0.49892326  1
  Cl  Cl35  1  0.72251350  0.27920486  0.99807873  1
  Cl  Cl36  1  0.77067617  0.78708300  0.50051157  1
  Cl  Cl37  1  0.79657268  0.79251219  0.00104764  1
  O  O38  1  0.00346753  0.00514801  0.24821509  1
  O  O39  1  0.00195232  0.00216903  0.75110002  1
  O  O40  1  0.50549802  0.50562963  0.25032755  1
  O  O41  1  0.50359951  0.50535164  0.74965993  1
