# generated using pymatgen
data_Sr20Ta8O39
_symmetry_space_group_name_H-M   'P 1'
_cell_length_a   5.94595740
_cell_length_b   5.99903967
_cell_length_c   41.58418736
_cell_angle_alpha   58.32746139
_cell_angle_beta   59.98311754
_cell_angle_gamma   60.41174553
_symmetry_Int_Tables_number   1
_chemical_formula_structural   Sr20Ta8O39
_chemical_formula_sum   'Sr20 Ta8 O39'
_cell_volume   1037.93505866
_cell_formula_units_Z   1
loop_
 _symmetry_equiv_pos_site_id
 _symmetry_equiv_pos_as_xyz
  1  'x, y, z'
loop_
 _atom_site_type_symbol
 _atom_site_label
 _atom_site_symmetry_multiplicity
 _atom_site_fract_x
 _atom_site_fract_y
 _atom_site_fract_z
 _atom_site_occupancy
  Sr  Sr0  1  0.23106072  0.27348103  0.03343359  1
  Sr  Sr1  1  0.29356673  0.20486337  0.16828586  1
  Sr  Sr2  1  0.49987880  0.43782531  0.21919518  1
  Sr  Sr3  1  0.15287635  0.28457834  0.32918416  1
  Sr  Sr4  1  0.73897985  0.71667878  0.10985156  1
  Sr  Sr5  1  0.47258607  0.56076247  0.34732123  1
  Sr  Sr6  1  0.22417154  0.26920848  0.45258769  1
  Sr  Sr7  1  0.76569303  0.72222957  0.23781625  1
  Sr  Sr8  1  0.46922784  0.44114641  0.50844069  1
  Sr  Sr9  1  0.15938321  0.26824433  0.61751710  1
  Sr  Sr10  1  0.66952175  0.73405194  0.40314287  1
  Sr  Sr11  1  0.47806558  0.54698841  0.63534013  1
  Sr  Sr12  1  0.23858344  0.25528916  0.74035823  1
  Sr  Sr13  1  0.74762630  0.72001439  0.52627284  1
  Sr  Sr14  1  0.15860040  0.27240423  0.90625174  1
  Sr  Sr15  1  0.47743418  0.43590012  0.79702944  1
  Sr  Sr16  1  0.67417112  0.71664389  0.69219207  1
  Sr  Sr17  1  0.47885557  0.55701826  0.92416932  1
  Sr  Sr18  1  0.75387607  0.71473076  0.81483837  1
  Sr  Sr19  1  0.67682790  0.78757871  0.97558387  1
  Ta  Ta20  1  0.96112473  0.00976569  0.00436923  1
  Ta  Ta21  1  0.48793387  0.49656543  0.07187031  1
  Ta  Ta22  1  -0.00001915  0.98281311  0.13938854  1
  Ta  Ta23  1  0.04311205  0.00145308  0.28335937  1
  Ta  Ta24  1  0.94911637  0.00357526  0.42784638  1
  Ta  Ta25  1  0.03308101  0.99434704  0.57206993  1
  Ta  Ta26  1  0.96038597  0.98916244  0.71616017  1
  Ta  Ta27  1  0.03780244  0.99440157  0.86023662  1
  O  O28  1  0.25339106  0.23264632  0.10457315  1
  O  O29  1  0.21364799  0.76182594  0.04007675  1
  O  O30  1  0.72745751  0.28030824  0.03388496  1
  O  O31  1  0.25289525  0.71294733  0.10987544  1
  O  O32  1  0.19804948  0.77509631  0.17893411  1
  O  O33  1  0.37133021  0.00192838  0.28412304  1
  O  O34  1  0.70926579  0.76402508  0.04171208  1
  O  O35  1  0.77114733  0.23116342  0.10096251  1
  O  O36  1  0.29403014  0.68134476  0.26582507  1
  O  O37  1  0.72997278  0.23490323  0.17026631  1
  O  O38  1  0.11192717  0.31888133  0.39483003  1
  O  O39  1  0.73856405  0.76848274  0.17186668  1
  O  O40  1  0.94638811  0.22450022  0.23574887  1
  O  O41  1  0.84481542  0.32661318  0.30022650  1
  O  O42  1  0.25229111  0.80761323  0.39106343  1
  O  O43  1  0.17646679  0.81751042  0.46459060  1
  O  O44  1  0.72001646  0.18205539  0.39264427  1
  O  O45  1  0.83533679  0.77552157  0.32984005  1
  O  O46  1  0.28410701  0.66843950  0.55558271  1
  O  O47  1  0.63977355  0.19976018  0.46503975  1
  O  O48  1  0.26070220  0.17011732  0.67802591  1
  O  O49  1  0.36663486  0.99225944  0.57225045  1
  O  O50  1  0.79222898  0.69291823  0.45892830  1
  O  O51  1  0.92246483  0.20915024  0.52585327  1
  O  O52  1  0.11605869  0.76061374  0.68305043  1
  O  O53  1  0.84876221  0.32351704  0.58764932  1
  O  O54  1  0.19820612  0.69645290  0.75138357  1
  O  O55  1  0.82080480  0.77776922  0.61909550  1
  O  O56  1  0.71990724  0.27943086  0.68291059  1
  O  O57  1  0.28564506  0.66512119  0.84466224  1
  O  O58  1  0.79956601  0.22100494  0.74874178  1
  O  O59  1  0.22719585  0.22131123  0.96579632  1
  O  O60  1  0.37027942  0.99670936  0.85970203  1
  O  O61  1  0.66038370  0.81693810  0.75326098  1
  O  O62  1  0.93446421  0.21423179  0.81326923  1
  O  O63  1  0.17164952  0.75569888  0.97373884  1
  O  O64  1  0.84658501  0.31748977  0.87709228  1
  O  O65  1  0.72301201  0.22178086  0.97045998  1
  O  O66  1  0.82605354  0.77519253  0.90763592  1
