# generated using pymatgen
data_BaYbSi4N7
_symmetry_space_group_name_H-M   'P 1'
_cell_length_a   6.13185052
_cell_length_b   6.13185052
_cell_length_c   9.93131172
_cell_angle_alpha   90.00000000
_cell_angle_beta   90.00000000
_cell_angle_gamma   120.00000001
_symmetry_Int_Tables_number   1
_chemical_formula_structural   BaYbSi4N7
_chemical_formula_sum   'Ba2 Yb2 Si8 N14'
_cell_volume   323.38536632
_cell_formula_units_Z   2
loop_
 _symmetry_equiv_pos_site_id
 _symmetry_equiv_pos_as_xyz
  1  'x, y, z'
loop_
 _atom_site_type_symbol
 _atom_site_label
 _atom_site_symmetry_multiplicity
 _atom_site_fract_x
 _atom_site_fract_y
 _atom_site_fract_z
 _atom_site_occupancy
  N  N0  1  0.15027743  0.30055486  0.87552430  1
  N  N1  1  0.84972257  0.15027743  0.37552430  1
  N  N2  1  0.30055486  0.15027743  0.37552430  1
  N  N3  1  0.69944514  0.84972257  0.87552430  1
  N  N4  1  0.15027743  0.84972257  0.87552430  1
  N  N5  1  0.84972257  0.69944514  0.37552430  1
  N  N6  1  0.97418886  0.48709443  0.59569519  1
  N  N7  1  0.48709443  0.97418886  0.09569519  1
  N  N8  1  0.48709443  0.51290557  0.09569519  1
  N  N9  1  0.51290557  0.48709443  0.59569519  1
  N  N10  1  0.51290557  0.02581114  0.59569519  1
  N  N11  1  0.02581114  0.51290557  0.09569519  1
  N  N12  1  0.00000000  0.00000000  0.12554442  1
  N  N13  1  0.00000000  0.00000000  0.62554442  1
  Si  Si14  1  0.82543024  0.65086047  0.54696165  1
  Si  Si15  1  0.17456976  0.82543024  0.04696165  1
  Si  Si16  1  0.65086047  0.82543024  0.04696165  1
  Si  Si17  1  0.34913953  0.17456976  0.54696165  1
  Si  Si18  1  0.82543024  0.17456976  0.54696165  1
  Si  Si19  1  0.17456976  0.34913953  0.04696165  1
  Si  Si20  1  0.00000000  0.00000000  0.81425829  1
  Si  Si21  1  0.00000000  0.00000000  0.31425829  1
  Ba  Ba22  1  0.33333333  0.66666667  0.36364584  1
  Ba  Ba23  1  0.66666667  0.33333333  0.86364584  1
  Yb  Yb24  1  0.66666667  0.33333333  0.23460803  1
  Yb  Yb25  1  0.33333333  0.66666667  0.73460803  1
