# generated using pymatgen
data_SrLaCuRuO6
_symmetry_space_group_name_H-M   'P 1'
_cell_length_a   5.57417176
_cell_length_b   5.56290709
_cell_length_c   38.99301150
_cell_angle_alpha   61.23295312
_cell_angle_beta   61.21411544
_cell_angle_gamma   61.27543807
_symmetry_Int_Tables_number   1
_chemical_formula_structural   SrLaCuRuO6
_chemical_formula_sum   'Sr7 La7 Cu7 Ru7 O42'
_cell_volume   878.83255312
_cell_formula_units_Z   7
loop_
 _symmetry_equiv_pos_site_id
 _symmetry_equiv_pos_as_xyz
  1  'x, y, z'
loop_
 _atom_site_type_symbol
 _atom_site_label
 _atom_site_symmetry_multiplicity
 _atom_site_fract_x
 _atom_site_fract_y
 _atom_site_fract_z
 _atom_site_occupancy
  Sr  Sr0  1  0.25916140  0.26079852  0.03158047  1
  Sr  Sr1  1  0.24764790  0.24628382  0.17957522  1
  Sr  Sr2  1  0.24854377  0.24980409  0.31987001  1
  Sr  Sr3  1  0.75186696  0.75313819  0.10625937  1
  Sr  Sr4  1  0.24640258  0.24554155  0.46378540  1
  Sr  Sr5  1  0.24627999  0.24456373  0.60654833  1
  Sr  Sr6  1  0.24858751  0.25075822  0.74826409  1
  La  La7  1  0.74520927  0.74876878  0.24808918  1
  La  La8  1  0.74031211  0.74113735  0.39221918  1
  La  La9  1  0.74348994  0.74387445  0.53424991  1
  La  La10  1  0.23854949  0.22973490  0.89847235  1
  La  La11  1  0.74064881  0.74306350  0.67698799  1
  La  La12  1  0.75074620  0.74422627  0.82064083  1
  La  La13  1  0.73836032  0.75230262  0.96658143  1
  Cu  Cu14  1  0.01400082  0.99195435  0.99925613  1
  Cu  Cu15  1  0.50274955  0.49151886  0.21294411  1
  Cu  Cu16  1  0.49530297  0.49259870  0.35600450  1
  Cu  Cu17  1  0.49183032  0.49486876  0.49897918  1
  Cu  Cu18  1  0.49301839  0.49199097  0.64173601  1
  Cu  Cu19  1  0.49394478  0.49771101  0.78512218  1
  Cu  Cu20  1  0.50399161  0.49490932  0.92902205  1
  Ru  Ru21  1  0.00102786  0.00207914  0.14223964  1
  Ru  Ru22  1  0.99575426  0.99676084  0.28579723  1
  Ru  Ru23  1  0.50027076  0.49869419  0.07148572  1
  Ru  Ru24  1  0.99740450  0.99619458  0.57107272  1
  Ru  Ru25  1  0.99768698  0.99755870  0.42777565  1
  Ru  Ru26  1  0.99419250  0.99771683  0.71429985  1
  Ru  Ru27  1  0.00152013  0.99661244  0.85665224  1
  O  O28  1  0.19848400  0.73545953  0.04542447  1
  O  O29  1  0.30817913  0.19327324  0.10698142  1
  O  O30  1  0.25618153  0.69166802  0.11533140  1
  O  O31  1  0.73720518  0.32244706  0.02709075  1
  O  O32  1  0.17091888  0.76438516  0.18731635  1
  O  O33  1  0.68350545  0.79922287  0.03549253  1
  O  O34  1  0.32257391  0.16464791  0.25263129  1
  O  O35  1  0.81013510  0.24705183  0.09791804  1
  O  O36  1  0.24397281  0.70579251  0.25828382  1
  O  O37  1  0.76671890  0.30607303  0.16763018  1
  O  O38  1  0.16095637  0.76605004  0.33232112  1
  O  O39  1  0.69858882  0.81886440  0.17788091  1
  O  O40  1  0.32580757  0.16396922  0.39540163  1
  O  O41  1  0.81190685  0.25223827  0.24285974  1
  O  O42  1  0.25339600  0.69486601  0.40229014  1
  O  O43  1  0.76652244  0.33036937  0.30851009  1
  O  O44  1  0.16469909  0.76818667  0.47465001  1
  O  O45  1  0.69200529  0.81862080  0.32213956  1
  O  O46  1  0.32436029  0.16231966  0.53840571  1
  O  O47  1  0.81933408  0.25281006  0.38473225  1
  O  O48  1  0.25171192  0.69595553  0.54528142  1
  O  O49  1  0.76814798  0.32279282  0.45204765  1
  O  O50  1  0.16276883  0.76761469  0.61787917  1
  O  O51  1  0.69813813  0.81581776  0.46462884  1
  O  O52  1  0.32257011  0.16491060  0.68168711  1
  O  O53  1  0.81616461  0.25012716  0.52819776  1
  O  O54  1  0.25013515  0.70252634  0.68770081  1
  O  O55  1  0.76982944  0.32534592  0.59452049  1
  O  O56  1  0.16745650  0.76827749  0.76090043  1
  O  O57  1  0.69584480  0.81669894  0.60803164  1
  O  O58  1  0.32428183  0.15555317  0.82516393  1
  O  O59  1  0.81417370  0.25032836  0.67131884  1
  O  O60  1  0.24014906  0.66597240  0.83565600  1
  O  O61  1  0.76739502  0.32922551  0.73747200  1
  O  O62  1  0.15697678  0.76305074  0.90429046  1
  O  O63  1  0.69615348  0.81756856  0.75267410  1
  O  O64  1  0.31432946  0.19225837  0.96206198  1
  O  O65  1  0.82712857  0.23803970  0.81298143  1
  O  O66  1  0.26243036  0.71234075  0.96905969  1
  O  O67  1  0.76433455  0.32167706  0.88107413  1
  O  O68  1  0.68056140  0.82993709  0.89157737  1
  O  O69  1  0.80536496  0.24050069  0.95699234  1
