# generated using pymatgen
data_Sr6La14Mg7Ti13O60
_symmetry_space_group_name_H-M   'P 1'
_cell_length_a   5.61888089
_cell_length_b   5.60319229
_cell_length_c   39.56028074
_cell_angle_alpha   89.94614448
_cell_angle_beta   89.95477195
_cell_angle_gamma   89.71038061
_symmetry_Int_Tables_number   1
_chemical_formula_structural   Sr6La14Mg7Ti13O60
_chemical_formula_sum   'Sr6 La14 Mg7 Ti13 O60'
_cell_volume   1245.48598100
_cell_formula_units_Z   1
loop_
 _symmetry_equiv_pos_site_id
 _symmetry_equiv_pos_as_xyz
  1  'x, y, z'
loop_
 _atom_site_type_symbol
 _atom_site_label
 _atom_site_symmetry_multiplicity
 _atom_site_fract_x
 _atom_site_fract_y
 _atom_site_fract_z
 _atom_site_occupancy
  Sr  Sr0  1  0.00298081  0.98763115  0.14759983  1
  Sr  Sr1  1  0.00411474  0.98592713  0.34747079  1
  Sr  Sr2  1  0.00314325  0.98417032  0.94980579  1
  Sr  Sr3  1  0.49455069  0.48283170  0.34723629  1
  Sr  Sr4  1  0.49350305  0.48328373  0.14656587  1
  Sr  Sr5  1  0.50650070  0.51582229  0.05219269  1
  La  La6  1  0.99734684  0.98324850  0.55111934  1
  La  La7  1  0.99589531  0.98298502  0.75119788  1
  La  La8  1  0.48727394  0.46704097  0.55103056  1
  La  La9  1  0.48599484  0.46678542  0.75085234  1
  La  La10  1  0.49067043  0.47358055  0.94914129  1
  La  La11  1  0.50957770  0.52364242  0.25106649  1
  La  La12  1  0.51363865  0.53314265  0.65104368  1
  La  La13  1  0.50817857  0.52463817  0.45093835  1
  La  La14  1  0.51189460  0.53181916  0.85095015  1
  La  La15  1  0.99727318  0.01487192  0.05381761  1
  La  La16  1  0.99866506  0.01661662  0.25114287  1
  La  La17  1  -0.00123951  0.01867598  0.45070661  1
  La  La18  1  0.00396167  0.01720419  0.65123080  1
  La  La19  1  0.00184872  0.01600941  0.85142874  1
  Mg  Mg20  1  0.49966626  0.99980328  0.09981532  1
  Mg  Mg21  1  0.49921180  0.00118048  0.29996402  1
  Mg  Mg22  1  0.50094229  0.99912820  0.50064544  1
  Mg  Mg23  1  0.50034598  -0.00031582  0.60035265  1
  Mg  Mg24  1  0.49876073  0.00087342  0.89969615  1
  Mg  Mg25  1  0.49918211  0.99900377  0.80002134  1
  Mg  Mg26  1  0.50013622  0.00053610  0.70018795  1
  Ti  Ti27  1  0.50992816  0.99479776  0.00013407  1
  Ti  Ti28  1  0.50073181  0.00640741  0.19864852  1
  Ti  Ti29  1  0.49856509  0.00607245  0.39872247  1
  Ti  Ti30  1  0.00749280  0.49568200  0.00091739  1
  Ti  Ti31  1  0.00722901  0.50483426  0.19805732  1
  Ti  Ti32  1  0.00427102  0.50108091  0.10015167  1
  Ti  Ti33  1  0.00047940  0.50020474  0.60128031  1
  Ti  Ti34  1  0.00531486  0.50496594  0.39824279  1
  Ti  Ti35  1  0.00873961  0.50000653  0.29931227  1
  Ti  Ti36  1  -0.00060283  0.50086092  0.50048278  1
  Ti  Ti37  1  -0.00066485  0.50007895  0.70132373  1
  Ti  Ti38  1  -0.00017740  0.49984124  0.80125583  1
  Ti  Ti39  1  0.00315754  0.49966831  0.90141966  1
  O  O40  1  0.06254889  0.49203916  0.04831146  1
  O  O41  1  0.07557036  0.48973937  0.24968445  1
  O  O42  1  0.08034824  0.48841421  0.44977706  1
  O  O43  1  0.08799490  0.48761702  0.64943290  1
  O  O44  1  0.08396133  0.48924255  0.84938226  1
  O  O45  1  0.23325891  0.23605571  0.19423884  1
  O  O46  1  0.23400573  0.23493196  0.39426166  1
  O  O47  1  0.22020748  0.23765940  0.59023043  1
  O  O48  1  0.22521491  0.24221093  0.10538697  1
  O  O49  1  0.22345435  0.24081891  0.30599700  1
  O  O50  1  0.23562126  0.24551031  0.99195833  1
  O  O51  1  0.21823308  0.23664005  0.70881636  1
  O  O52  1  0.21983915  0.23617366  0.50828973  1
  O  O53  1  0.21955719  0.23793564  0.79018975  1
  O  O54  1  0.22651051  0.24472400  0.90750952  1
  O  O55  1  0.26036757  0.72994068  0.19393179  1
  O  O56  1  0.25122309  0.73013964  0.10561214  1
  O  O57  1  0.25483805  0.72647035  0.30592106  1
  O  O58  1  0.25892453  0.71911364  0.70881837  1
  O  O59  1  0.25941071  0.71937626  0.59011324  1
  O  O60  1  0.26095490  0.73140658  0.39399972  1
  O  O61  1  0.26053177  0.71998247  0.50820405  1
  O  O62  1  0.26575098  0.72728198  0.99141522  1
  O  O63  1  0.25877531  0.71831289  0.78997318  1
  O  O64  1  0.26329066  0.71715493  0.90799441  1
  O  O65  1  0.41929308  0.99326551  0.04695267  1
  O  O66  1  0.41963092  0.98261206  0.24827764  1
  O  O67  1  0.40814076  0.97447410  0.65001983  1
  O  O68  1  0.41926866  0.98263272  0.44869928  1
  O  O69  1  0.40622821  0.97372715  0.84965041  1
  O  O70  1  0.56399723  0.00758464  0.35309115  1
  O  O71  1  0.56152544  0.00676897  0.15304898  1
  O  O72  1  0.59277118  0.02584657  0.55018595  1
  O  O73  1  0.59179175  0.02563208  0.74989067  1
  O  O74  1  0.56141314  0.01914195  0.95204495  1
  O  O75  1  0.74107079  0.26269218  0.00721773  1
  O  O76  1  0.73607091  0.26296546  0.20968164  1
  O  O77  1  0.75216342  0.26603423  0.09261090  1
  O  O78  1  0.73647887  0.26390344  0.40970580  1
  O  O79  1  0.74154876  0.27454332  0.29134943  1
  O  O80  1  0.74101746  0.28132163  0.60897307  1
  O  O81  1  0.74067516  0.27849077  0.49027270  1
  O  O82  1  0.74111659  0.28096609  0.69017423  1
  O  O83  1  0.74072638  0.28008882  0.80887078  1
  O  O84  1  0.74002571  0.27934674  0.89116318  1
  O  O85  1  0.77731731  0.76236454  0.09221354  1
  O  O86  1  0.77257244  0.75911226  0.29128160  1
  O  O87  1  0.77859212  0.76279145  0.49024248  1
  O  O88  1  0.78016580  0.76237758  0.69025463  1
  O  O89  1  0.76721180  0.76945757  0.00734699  1
  O  O90  1  0.76493131  0.76173642  0.20959215  1
  O  O91  1  0.76529915  0.76160747  0.40958194  1
  O  O92  1  0.78208611  0.76348321  0.60891098  1
  O  O93  1  0.77659487  0.76034790  0.89070019  1
  O  O94  1  0.78147887  0.76377298  0.80876906  1
  O  O95  1  0.93336521  0.50726633  0.15174870  1
  O  O96  1  0.93389830  0.50696534  0.35188086  1
  O  O97  1  0.91339778  0.51238421  0.54935786  1
  O  O98  1  0.91173092  0.51230728  0.74939188  1
  O  O99  1  0.91752682  0.50845658  0.95022658  1
