# generated using pymatgen
data_InSnBr3
_symmetry_space_group_name_H-M   'P 1'
_cell_length_a   12.05966162
_cell_length_b   24.32802408
_cell_length_c   16.41270523
_cell_angle_alpha   47.84861917
_cell_angle_beta   132.07885284
_cell_angle_gamma   116.89506857
_symmetry_Int_Tables_number   1
_chemical_formula_structural   InSnBr3
_chemical_formula_sum   'In16 Sn16 Br48'
_cell_volume   2649.65469967
_cell_formula_units_Z   16
loop_
 _symmetry_equiv_pos_site_id
 _symmetry_equiv_pos_as_xyz
  1  'x, y, z'
loop_
 _atom_site_type_symbol
 _atom_site_label
 _atom_site_symmetry_multiplicity
 _atom_site_fract_x
 _atom_site_fract_y
 _atom_site_fract_z
 _atom_site_occupancy
  In  In0  1  0.00019492  0.00142202  0.49995945  1
  In  In1  1  0.18101522  0.74998190  0.65108029  1
  In  In2  1  0.00217039  0.50009855  0.50497724  1
  In  In3  1  0.50262369  0.91315156  0.53027629  1
  In  In4  1  0.81996046  0.74814385  0.97246249  1
  In  In5  1  0.16901453  0.25529804  0.63824308  1
  In  In6  1  0.16266658  0.75289055  0.01751467  1
  In  In7  1  0.49813211  0.58129391  0.47644769  1
  In  In8  1  0.99089460  0.49915905  0.00024778  1
  In  In9  1  0.49588049  0.08370267  0.85671969  1
  In  In10  1  0.83248020  0.25211382  0.97594219  1
  In  In11  1  0.83454846  0.75369390  0.35620069  1
  In  In12  1  0.17808901  0.24948772  0.02845266  1
  In  In13  1  0.50174068  0.41403087  0.14262575  1
  In  In14  1  0.99936786  0.00104448  0.99959672  1
  In  In15  1  0.82422203  0.25138668  0.34917848  1
  Sn  Sn16  1  0.05132226  0.51142861  0.76832510  1
  Sn  Sn17  1  0.05139024  0.00206078  0.27536863  1
  Sn  Sn18  1  0.50315331  0.89004882  0.88355229  1
  Sn  Sn19  1  0.51715670  0.59485498  0.82765314  1
  Sn  Sn20  1  0.18602226  0.75714890  0.32830904  1
  Sn  Sn21  1  0.98514153  0.49931934  0.26356323  1
  Sn  Sn22  1  0.51095269  0.39139641  0.85928941  1
  Sn  Sn23  1  0.81224091  0.74916751  0.65311753  1
  Sn  Sn24  1  0.50785275  0.90497185  0.18835833  1
  Sn  Sn25  1  0.49030748  0.40654705  0.49915524  1
  Sn  Sn26  1  0.18589123  0.25349029  0.34008576  1
  Sn  Sn27  1  0.50326011  0.61087792  0.15891450  1
  Sn  Sn28  1  0.80790566  0.25169913  0.67025838  1
  Sn  Sn29  1  0.51311725  0.09423864  0.49777677  1
  Sn  Sn30  1  0.49745651  0.11186547  0.11685907  1
  Sn  Sn31  1  0.94651303  0.00780741  0.70997829  1
  Br  Br32  1  0.28217732  0.92595349  0.85111561  1
  Br  Br33  1  0.12025014  0.74927774  0.80942297  1
  Br  Br34  1  0.25523765  0.93302499  0.54443962  1
  Br  Br35  1  0.27145327  0.56548747  0.92082609  1
  Br  Br36  1  0.49963050  0.74897898  0.87905466  1
  Br  Br37  1  0.13213303  0.86767005  0.33102051  1
  Br  Br38  1  0.13813547  0.62601398  0.58657987  1
  Br  Br39  1  0.25508660  0.43297159  0.84504731  1
  Br  Br40  1  0.73872922  0.93326605  0.78610215  1
  Br  Br41  1  0.11670892  0.25403642  0.80474600  1
  Br  Br42  1  0.49167843  0.74256542  0.63398147  1
  Br  Br43  1  0.16102525  0.86822844  0.08358282  1
  Br  Br44  1  0.13922632  0.62958241  0.30256871  1
  Br  Br45  1  0.50297980  0.93588586  0.31625453  1
  Br  Br46  1  0.49178322  0.56234856  0.68564744  1
  Br  Br47  1  0.27186551  0.43144072  0.55885469  1
  Br  Br48  1  0.27542377  0.07096969  0.93758182  1
  Br  Br49  1  0.83806933  0.63120792  0.91983438  1
  Br  Br50  1  0.86572348  0.86898138  0.69742980  1
  Br  Br51  1  0.49773804  0.24879357  0.88678144  1
  Br  Br52  1  0.50030509  0.75489670  0.36293556  1
  Br  Br53  1  0.13769424  0.13151459  0.57388207  1
  Br  Br54  1  0.15792315  0.36870467  0.34084133  1
  Br  Br55  1  0.27790011  0.57153569  0.20007652  1
  Br  Br56  1  0.71727126  0.42538206  0.80394123  1
  Br  Br57  1  0.85829391  0.63479881  0.66035085  1
  Br  Br58  1  0.83912753  0.87082692  0.41157700  1
  Br  Br59  1  0.49663186  0.25581239  0.62465082  1
  Br  Br60  1  0.50032555  0.74849280  0.11655897  1
  Br  Br61  1  0.14638198  0.12703272  0.30526015  1
  Br  Br62  1  0.13829045  0.36387727  0.07523243  1
  Br  Br63  1  0.71714837  0.92863608  0.06472831  1
  Br  Br64  1  0.72102158  0.57081224  0.41971524  1
  Br  Br65  1  0.50108502  0.43555246  0.31348116  1
  Br  Br66  1  0.49707822  0.06273871  0.68304088  1
  Br  Br67  1  0.85154047  0.13760263  0.91778451  1
  Br  Br68  1  0.83760009  0.36924434  0.68243325  1
  Br  Br69  1  0.50298561  0.24210732  0.37715258  1
  Br  Br70  1  0.87896737  0.75045417  0.18732214  1
  Br  Br71  1  0.26233715  0.06582794  0.21335415  1
  Br  Br72  1  0.73813547  0.56661688  0.15185867  1
  Br  Br73  1  0.85001584  0.12659291  0.65572985  1
  Br  Br74  1  0.87030444  0.37514226  0.41502508  1
  Br  Br75  1  0.49953689  0.25156389  0.11733958  1
  Br  Br76  1  0.72764958  0.43133233  0.06591175  1
  Br  Br77  1  0.72675673  0.06640176  0.44668111  1
  Br  Br78  1  0.87805089  0.24746530  0.19312048  1
  Br  Br79  1  0.72084770  0.07216675  0.15376353  1
