# generated using pymatgen
data_MgIn2O4
_symmetry_space_group_name_H-M   'P 1'
_cell_length_a   6.36293121
_cell_length_b   6.43048274
_cell_length_c   31.87195152
_cell_angle_alpha   59.70848172
_cell_angle_beta   59.75670762
_cell_angle_gamma   59.64819273
_symmetry_Int_Tables_number   1
_chemical_formula_structural   MgIn2O4
_chemical_formula_sum   'Mg10 In20 O40'
_cell_volume   915.94299073
_cell_formula_units_Z   10
loop_
 _symmetry_equiv_pos_site_id
 _symmetry_equiv_pos_as_xyz
  1  'x, y, z'
loop_
 _atom_site_type_symbol
 _atom_site_label
 _atom_site_symmetry_multiplicity
 _atom_site_fract_x
 _atom_site_fract_y
 _atom_site_fract_z
 _atom_site_occupancy
  Mg  Mg0  1  0.99634985  0.00240696  0.99976725  1
  Mg  Mg1  1  0.11877819  0.62659301  0.12560716  1
  Mg  Mg2  1  0.12481052  0.62490822  0.32507461  1
  Mg  Mg3  1  0.62462386  0.62422084  0.22538689  1
  Mg  Mg4  1  0.12484816  0.62490034  0.52507023  1
  Mg  Mg5  1  0.62488563  0.62483331  0.42508955  1
  Mg  Mg6  1  0.12485981  0.62487151  0.72507943  1
  Mg  Mg7  1  0.62480979  0.62481753  0.62511103  1
  Mg  Mg8  1  0.12564361  0.62582741  0.92454031  1
  Mg  Mg9  1  0.62505231  0.62506052  0.82496533  1
  In  In10  1  0.25771292  0.24764156  0.04940079  1
  In  In11  1  0.62920269  0.62789087  0.02300312  1
  In  In12  1  0.62779745  0.11761371  0.12557434  1
  In  In13  1  0.25533261  0.24550306  0.25073225  1
  In  In14  1  0.62779745  0.62671712  0.12557434  1
  In  In15  1  0.62493007  0.12482660  0.32511665  1
  In  In16  1  0.99488146  0.00461664  0.59917705  1
  In  In17  1  0.25467791  0.24516433  0.45099869  1
  In  In18  1  0.62493007  0.62466006  0.32511665  1
  In  In19  1  0.25462412  0.24520814  0.65099192  1
  In  In20  1  0.99401313  0.00423457  0.19950355  1
  In  In21  1  0.62485257  0.12487575  0.52509506  1
  In  In22  1  0.62485257  0.62479635  0.52509506  1
  In  In23  1  0.99494486  0.00447207  0.39922220  1
  In  In24  1  0.62483615  0.12489470  0.72511407  1
  In  In25  1  0.25411413  0.24465795  0.85131399  1
  In  In26  1  0.62483615  0.62469881  0.72511407  1
  In  In27  1  0.62570604  0.12608175  0.92448213  1
  In  In28  1  0.62570604  0.62580158  0.92448213  1
  In  In29  1  0.99533432  0.00474518  0.79903506  1
  O  O30  1  0.37626200  0.38761528  0.07800600  1
  O  O31  1  0.37870751  0.38798579  0.16906418  1
  O  O32  1  0.37626200  0.84609274  0.07800600  1
  O  O33  1  0.85064384  0.38193805  0.07709601  1
  O  O34  1  0.39986722  0.86181007  0.17530253  1
  O  O35  1  0.38229971  0.39189790  0.27631671  1
  O  O36  1  0.87308036  0.86494378  0.07940642  1
  O  O37  1  0.86891784  0.40429040  0.17399177  1
  O  O38  1  0.37630727  0.38793838  0.36956319  1
  O  O39  1  0.38229971  0.84421885  0.27631671  1
  O  O40  1  0.84818967  0.38794437  0.27518432  1
  O  O41  1  0.86891784  0.85683293  0.17399177  1
  O  O42  1  0.40220544  0.86218130  0.37468639  1
  O  O43  1  0.38216232  0.39189649  0.47633396  1
  O  O44  1  0.87353845  0.86202341  0.28048295  1
  O  O45  1  0.86822748  0.40579131  0.37353195  1
  O  O46  1  0.37630020  0.38795147  0.56955937  1
  O  O47  1  0.38216232  0.84427140  0.47633396  1
  O  O48  1  0.84788409  0.38804540  0.47520502  1
  O  O49  1  0.86822748  0.85832147  0.37353195  1
  O  O50  1  0.40217551  0.86221587  0.57467855  1
  O  O51  1  0.38215591  0.39186947  0.67634746  1
  O  O52  1  0.87376268  0.86217330  0.48037814  1
  O  O53  1  0.86812429  0.40590521  0.57352798  1
  O  O54  1  0.37610195  0.38770676  0.76969691  1
  O  O55  1  0.38215591  0.84423732  0.67634746  1
  O  O56  1  0.84779359  0.38806475  0.67521538  1
  O  O57  1  0.86812429  0.85833061  0.57352798  1
  O  O58  1  0.40231829  0.86225270  0.77463526  1
  O  O59  1  0.38261703  0.39269671  0.87618283  1
  O  O60  1  0.87373597  0.86227888  0.68034126  1
  O  O61  1  0.86820462  0.40588005  0.77351644  1
  O  O62  1  0.37559697  0.38835605  0.96953819  1
  O  O63  1  0.38261703  0.84377209  0.87618283  1
  O  O64  1  0.84749658  0.38868050  0.87502848  1
  O  O65  1  0.86820462  0.85833313  0.77351644  1
  O  O66  1  0.38982172  0.87095489  0.97365370  1
  O  O67  1  0.87445074  0.86256796  0.88008267  1
  O  O68  1  0.87316755  0.39577993  0.97292799  1
  O  O69  1  0.87316755  0.86641257  0.97292799  1
