# generated using pymatgen
data_Al2NiO4
_symmetry_space_group_name_H-M   'P 1'
_cell_length_a   5.75096512
_cell_length_b   5.77007924
_cell_length_c   5.76295356
_cell_angle_alpha   60.51161146
_cell_angle_beta   60.50053742
_cell_angle_gamma   60.16818929
_symmetry_Int_Tables_number   1
_chemical_formula_structural   Al2NiO4
_chemical_formula_sum   'Al4 Ni2 O8'
_cell_volume   136.42374275
_cell_formula_units_Z   2
loop_
 _symmetry_equiv_pos_site_id
 _symmetry_equiv_pos_as_xyz
  1  'x, y, z'
loop_
 _atom_site_type_symbol
 _atom_site_label
 _atom_site_symmetry_multiplicity
 _atom_site_fract_x
 _atom_site_fract_y
 _atom_site_fract_z
 _atom_site_occupancy
  Al  Al0  1  0.49970490  0.00114513  0.49982053  1
  Al  Al1  1  0.99938906  0.49993869  0.50037082  1
  Al  Al2  1  0.50017941  0.49981984  0.50004603  1
  Al  Al3  1  0.50035299  0.49982520  0.99946071  1
  Ni  Ni4  1  0.87714154  0.87206086  0.87944111  1
  Ni  Ni5  1  0.12718975  0.12072588  0.12392032  1
  O  O6  1  0.29381480  0.73897277  0.73116202  1
  O  O7  1  0.70883309  0.26533170  0.26254193  1
  O  O8  1  0.73725431  0.29103595  0.73523101  1
  O  O9  1  0.26406661  0.70264178  0.26656485  1
  O  O10  1  0.73538984  0.73769890  0.73624251  1
  O  O11  1  0.73109249  0.73638925  0.29657879  1
  O  O12  1  0.26273789  0.26807209  0.70707916  1
  O  O13  1  0.26285333  0.26634195  0.26154021  1
