# generated using pymatgen
data_Nb24I35Br9
_symmetry_space_group_name_H-M   'P 1'
_cell_length_a   11.51418427
_cell_length_b   13.63899065
_cell_length_c   15.37704469
_cell_angle_alpha   89.47044354
_cell_angle_beta   89.91374746
_cell_angle_gamma   90.44708545
_symmetry_Int_Tables_number   1
_chemical_formula_structural   Nb24I35Br9
_chemical_formula_sum   'Nb24 I35 Br9'
_cell_volume   2414.65990855
_cell_formula_units_Z   1
loop_
 _symmetry_equiv_pos_site_id
 _symmetry_equiv_pos_as_xyz
  1  'x, y, z'
loop_
 _atom_site_type_symbol
 _atom_site_label
 _atom_site_symmetry_multiplicity
 _atom_site_fract_x
 _atom_site_fract_y
 _atom_site_fract_z
 _atom_site_occupancy
  Nb  Nb0  1  0.07672438  0.37931321  0.55142852  1
  Nb  Nb1  1  0.07823732  0.88125067  0.94712278  1
  Nb  Nb2  1  0.10753323  0.47499393  0.39633925  1
  Nb  Nb3  1  0.10208809  0.98089211  0.10583594  1
  Nb  Nb4  1  0.13070878  0.08577881  0.94674802  1
  Nb  Nb5  1  0.12757470  0.58482330  0.55057149  1
  Nb  Nb6  1  0.36991275  0.58472905  0.94760552  1
  Nb  Nb7  1  0.36755883  0.09274599  0.54872085  1
  Nb  Nb8  1  0.39950537  0.47807969  0.10595653  1
  Nb  Nb9  1  0.39622893  0.98274419  0.39782864  1
  Nb  Nb10  1  0.42133028  0.87688390  0.54920128  1
  Nb  Nb11  1  0.42192208  0.38069698  0.94649501  1
  Nb  Nb12  1  0.56964469  0.61989603  0.05130559  1
  Nb  Nb13  1  0.57532864  0.12716563  0.45299243  1
  Nb  Nb14  1  0.60422371  0.02409440  0.60476142  1
  Nb  Nb15  1  0.59472143  0.52092058  0.89127025  1
  Nb  Nb16  1  0.62650990  0.91761851  0.45303127  1
  Nb  Nb17  1  0.62410480  0.41688316  0.04945590  1
  Nb  Nb18  1  0.87319136  0.41513087  0.45075371  1
  Nb  Nb19  1  0.87691660  0.91683917  0.04944158  1
  Nb  Nb20  1  0.90585487  0.02013556  0.89055004  1
  Nb  Nb21  1  0.90194752  0.51730443  0.60826855  1
  Nb  Nb22  1  0.93162519  0.12048826  0.04980217  1
  Nb  Nb23  1  0.92627056  0.61884480  0.45092682  1
  I  I24  1  0.03433932  0.27286718  0.39001975  1
  I  I25  1  0.04002658  0.77425373  0.11001979  1
  I  I26  1  0.09676822  0.48140188  0.71811027  1
  I  I27  1  0.10060138  0.98361950  0.78099171  1
  I  I28  1  0.14777908  0.68348191  0.38306424  1
  I  I29  1  0.15338937  0.18715751  0.11278417  1
  I  I30  1  0.19349499  0.94888709  0.50361642  1
  I  I31  1  0.19360388  0.44546972  0.99907604  1
  I  I32  1  0.30683323  0.94833357  0.99997635  1
  I  I33  1  0.30727430  0.44966131  0.50609393  1
  I  I34  1  0.34795126  0.68388214  0.11445538  1
  I  I35  1  0.35453325  0.19022923  0.38420414  1
  I  I36  1  0.39993261  0.48417681  0.78124088  1
  I  I37  1  0.40493664  0.98517212  0.71075850  1
  I  I38  1  0.46135982  0.77752027  0.38877228  1
  I  I39  1  0.46143325  0.27199017  0.10825566  1
  I  I40  1  0.53544297  0.72783708  0.88841436  1
  I  I41  1  0.53608714  0.22977111  0.61276585  1
  I  I42  1  0.59608818  0.51598699  0.21625657  1
  I  I43  1  0.59424903  0.02384424  0.28848493  1
  I  I44  1  0.64482829  0.31482194  0.88450710  1
  I  I45  1  0.64358113  0.81527217  0.61638094  1
  I  I46  1  0.67895807  0.79973894  0.12372900  1
  I  I47  1  0.69755895  0.55215053  0.50122566  1
  I  I48  1  0.70234525  0.05621607  0.99671042  1
  I  I49  1  0.80420949  0.05746288  0.49819956  1
  I  I50  1  0.79871088  0.55835101  -0.00170047  1
  I  I51  1  0.82206015  0.29923498  0.12273328  1
  I  I52  1  0.82010905  0.79721395  0.37718660  1
  I  I53  1  0.85451661  0.81346390  0.88466878  1
  I  I54  1  0.85378350  0.31075702  0.61599181  1
  I  I55  1  0.90641721  0.01864984  0.21510318  1
  I  I56  1  0.91190133  0.51864253  0.28511628  1
  I  I57  1  0.96505218  0.22730560  0.88651549  1
  I  I58  1  0.96215318  0.72448015  0.61257198  1
  Br  Br59  1  0.18868686  0.70999816  0.88429756  1
  Br  Br60  1  0.18770725  0.20950073  0.61402651  1
  Br  Br61  1  0.25257589  0.94582769  0.25081460  1
  Br  Br62  1  0.25225313  0.43715386  0.25075822  1
  Br  Br63  1  0.31085627  0.20918541  0.88135580  1
  Br  Br64  1  0.31093762  0.70788940  0.61381742  1
  Br  Br65  1  0.68940976  0.29626912  0.38508633  1
  Br  Br66  1  0.75077526  0.05488262  0.74830311  1
  Br  Br67  1  0.74622421  0.55403472  0.74902608  1
