# generated using pymatgen
data_Sr5La3Mn4(WO6)4
_symmetry_space_group_name_H-M   'P 1'
_cell_length_a   11.59942003
_cell_length_b   8.20516733
_cell_length_c   9.98061700
_cell_angle_alpha   65.45643908
_cell_angle_beta   54.41180521
_cell_angle_gamma   44.80546664
_symmetry_Int_Tables_number   1
_chemical_formula_structural   Sr5La3Mn4(WO6)4
_chemical_formula_sum   'Sr5 La3 Mn4 W4 O24'
_cell_volume   544.36586698
_cell_formula_units_Z   1
loop_
 _symmetry_equiv_pos_site_id
 _symmetry_equiv_pos_as_xyz
  1  'x, y, z'
loop_
 _atom_site_type_symbol
 _atom_site_label
 _atom_site_symmetry_multiplicity
 _atom_site_fract_x
 _atom_site_fract_y
 _atom_site_fract_z
 _atom_site_occupancy
  Sr  Sr0  1  0.37905805  0.97792379  0.25221198  1
  Sr  Sr1  1  0.10932520  0.51696060  0.74997297  1
  Sr  Sr2  1  0.87529944  0.98810265  0.25011821  1
  Sr  Sr3  1  0.89136825  0.47884296  0.25379677  1
  Sr  Sr4  1  0.61049469  0.52168729  0.74623951  1
  La  La5  1  0.39989114  0.47763306  0.24997431  1
  La  La6  1  0.12028194  0.02996868  0.74568766  1
  La  La7  1  0.62679603  0.01750629  0.74493428  1
  Mn  Mn8  1  0.24939549  0.00162599  0.00012046  1
  Mn  Mn9  1  0.00009454  0.50239111  0.49683051  1
  Mn  Mn10  1  0.75147444  0.99613107  0.00027794  1
  Mn  Mn11  1  0.49964152  0.50335848  0.50061569  1
  W  W12  1  0.00113313  0.99854237  0.49964984  1
  W  W13  1  0.25045241  0.49984689  0.99879545  1
  W  W14  1  0.50041457  0.00176767  0.49823030  1
  W  W15  1  0.74770038  0.50145625  0.00018075  1
  O  O16  1  0.04193998  0.21985929  0.46207268  1
  O  O17  1  0.99479596  0.71936287  0.04632732  1
  O  O18  1  0.24368767  0.24987894  0.04873452  1
  O  O19  1  0.83104269  0.48468773  0.76670861  1
  O  O20  1  0.23279240  0.25266612  0.55681337  1
  O  O21  1  0.07139204  0.00540522  0.26783207  1
  O  O22  1  0.43333685  0.99803225  0.73807536  1
  O  O23  1  0.27117954  0.72813715  0.44428727  1
  O  O24  1  0.53469476  0.23425611  0.45030108  1
  O  O25  1  0.47868095  0.72183383  0.05170862  1
  O  O26  1  0.73123844  0.24671869  0.05450661  1
  O  O27  1  0.33068185  0.48575295  0.76746530  1
  O  O28  1  0.67300506  0.51077376  0.23080416  1
  O  O29  1  0.25475377  0.75523586  0.94650357  1
  O  O30  1  0.51067198  0.27530043  0.94808854  1
  O  O31  1  0.44514723  0.78606971  0.55647504  1
  O  O32  1  0.72946563  0.25260834  0.55804954  1
  O  O33  1  0.57029198  0.01186489  0.26178341  1
  O  O34  1  0.94062829  0.98511810  0.73503293  1
  O  O35  1  0.76247897  0.74626542  0.44915916  1
  O  O36  1  0.18447059  0.50710912  0.22954013  1
  O  O37  1  0.75134579  0.76957813  0.94182504  1
  O  O38  1  0.01959401  0.25986794  0.94635270  1
  O  O39  1  0.94986235  0.77987200  0.55391634  1
