# generated using pymatgen
data_Al2Zn2S5
_symmetry_space_group_name_H-M   'P 1'
_cell_length_a   3.71845924
_cell_length_b   3.71845914
_cell_length_c   15.21577301
_cell_angle_alpha   82.98143354
_cell_angle_beta   82.98143510
_cell_angle_gamma   59.99999303
_symmetry_Int_Tables_number   1
_chemical_formula_structural   Al2Zn2S5
_chemical_formula_sum   'Al2 Zn2 S5'
_cell_volume   180.37825993
_cell_formula_units_Z   1
loop_
 _symmetry_equiv_pos_site_id
 _symmetry_equiv_pos_as_xyz
  1  'x, y, z'
loop_
 _atom_site_type_symbol
 _atom_site_label
 _atom_site_symmetry_multiplicity
 _atom_site_fract_x
 _atom_site_fract_y
 _atom_site_fract_z
 _atom_site_occupancy
  Al  Al0  1  0.89573266  0.89573266  0.31280202  1
  Al  Al1  1  0.07702362  0.07702362  0.76892913  1
  Zn  Zn2  1  0.31105429  0.31105429  0.06683713  1
  Zn  Zn3  1  0.48286309  0.48286309  0.55141072  1
  S  S4  1  0.99452126  0.99452126  0.01643622  1
  S  S5  1  0.53264804  0.53264804  0.40205589  1
  S  S6  1  0.39194806  0.39194806  0.82415582  1
  S  S7  1  0.25466375  0.25466375  0.23600876  1
  S  S8  1  0.12754523  0.12754523  0.61736432  1
