# generated using pymatgen
data_Ba5Na2Ru3O14
_symmetry_space_group_name_H-M   'P 1'
_cell_length_a   5.98070965
_cell_length_b   5.95439787
_cell_length_c   24.51998012
_cell_angle_alpha   90.00000000
_cell_angle_beta   90.00000000
_cell_angle_gamma   120.14628347
_symmetry_Int_Tables_number   1
_chemical_formula_structural   Ba5Na2Ru3O14
_chemical_formula_sum   'Ba10 Na4 Ru6 O28'
_cell_volume   755.09093116
_cell_formula_units_Z   2
loop_
 _symmetry_equiv_pos_site_id
 _symmetry_equiv_pos_as_xyz
  1  'x, y, z'
loop_
 _atom_site_type_symbol
 _atom_site_label
 _atom_site_symmetry_multiplicity
 _atom_site_fract_x
 _atom_site_fract_y
 _atom_site_fract_z
 _atom_site_occupancy
  Ba  Ba0  1  -0.00557213  -0.01114427  0.15109511  1
  Ba  Ba1  1  0.32981132  0.65962263  0.93572015  1
  Ba  Ba2  1  0.67018868  0.34037737  0.43572015  1
  Ba  Ba3  1  0.00557213  0.01114427  0.65109511  1
  Ba  Ba4  1  0.00590185  0.01180370  0.32892554  1
  Ba  Ba5  1  0.33866034  0.67732067  0.54448486  1
  Ba  Ba6  1  0.33615114  0.67230229  0.24276951  1
  Ba  Ba7  1  0.66384886  0.32769771  0.74276951  1
  Ba  Ba8  1  0.66133966  0.32267933  0.04448486  1
  Ba  Ba9  1  0.99409815  0.98819630  0.82892554  1
  Na  Na10  1  0.66162363  0.32324726  0.89565368  1
  Na  Na11  1  0.34439490  0.68878980  0.09441064  1
  Na  Na12  1  0.33837637  0.67675274  0.39565368  1
  Na  Na13  1  0.65560510  0.31121020  0.59441064  1
  Ru  Ru14  1  0.99337250  0.98674500  0.99158749  1
  Ru  Ru15  1  0.66788548  0.33577096  0.18610290  1
  Ru  Ru16  1  0.67298335  0.34596671  0.29906280  1
  Ru  Ru17  1  0.33211452  0.66422904  0.68610290  1
  Ru  Ru18  1  0.32701665  0.65403329  0.79906280  1
  Ru  Ru19  1  0.00662750  0.01325500  0.49158749  1
  O  O20  1  0.67266308  0.78576028  0.46091293  1
  O  O21  1  0.82320341  0.19403397  0.24393287  1
  O  O22  1  0.98472059  0.50445038  0.33970638  1
  O  O23  1  0.50212630  0.47783723  0.14383206  1
  O  O24  1  0.16584180  0.88752974  0.04410161  1
  O  O25  1  0.50688157  0.01376314  0.15058431  1
  O  O26  1  0.17679659  0.80596603  0.74393287  1
  O  O27  1  0.82318704  0.64637407  0.24122278  1
  O  O28  1  0.49311843  0.98623686  0.65058431  1
  O  O29  1  0.85425079  0.70850158  0.94542905  1
  O  O30  1  0.88690280  0.21423972  0.96091293  1
  O  O31  1  0.27831206  0.11247026  0.54410161  1
  O  O32  1  0.97571093  0.47783723  0.14383206  1
  O  O33  1  0.72168794  0.88752974  0.04410161  1
  O  O34  1  0.48027021  0.49554962  0.83970638  1
  O  O35  1  0.11309720  0.78576028  0.46091293  1
  O  O36  1  0.49787370  0.52216277  0.64383206  1
  O  O37  1  0.83415820  0.11247026  0.54410161  1
  O  O38  1  0.51972979  0.50445038  0.33970638  1
  O  O39  1  0.02428907  0.52216277  0.64383206  1
  O  O40  1  0.48135516  0.96271032  0.84148949  1
  O  O41  1  0.32733692  0.21423972  0.96091293  1
  O  O42  1  0.14574921  0.29149842  0.44542905  1
  O  O43  1  0.37083056  0.19403397  0.24393287  1
  O  O44  1  0.62916944  0.80596603  0.74393287  1
  O  O45  1  0.51864484  0.03728968  0.34148949  1
  O  O46  1  0.17681296  0.35362593  0.74122278  1
  O  O47  1  0.01527941  0.49554962  0.83970638  1
