# generated using pymatgen
data_La7Mn8O24
_symmetry_space_group_name_H-M   'P 1'
_cell_length_a   10.99131523
_cell_length_b   14.60515608
_cell_length_c   9.62868507
_cell_angle_alpha   29.12487852
_cell_angle_beta   55.19976600
_cell_angle_gamma   41.24105695
_symmetry_Int_Tables_number   1
_chemical_formula_structural   La7Mn8O24
_chemical_formula_sum   'La7 Mn8 O24'
_cell_volume   477.73306654
_cell_formula_units_Z   1
loop_
 _symmetry_equiv_pos_site_id
 _symmetry_equiv_pos_as_xyz
  1  'x, y, z'
loop_
 _atom_site_type_symbol
 _atom_site_label
 _atom_site_symmetry_multiplicity
 _atom_site_fract_x
 _atom_site_fract_y
 _atom_site_fract_z
 _atom_site_occupancy
  La  La0  1  0.62600060  0.00050974  0.24824101  1
  La  La1  1  0.12573255  0.49893425  0.75082977  1
  La  La2  1  0.37576820  0.50074318  0.24875157  1
  La  La3  1  0.62614663  0.49922793  0.75060270  1
  La  La4  1  0.87543929  0.49987848  0.25000481  1
  La  La5  1  0.37371078  0.00132380  0.75136511  1
  La  La6  1  0.87770816  0.00081759  0.74432036  1
  Mn  Mn7  1  0.00217059  0.00031087  0.00244021  1
  Mn  Mn8  1  0.24942197  0.00004600  0.49593094  1
  Mn  Mn9  1  0.49580199  0.00087441  0.00169960  1
  Mn  Mn10  1  0.00195934  0.49499463  0.50749833  1
  Mn  Mn11  1  0.24933801  0.50619737  0.98992913  1
  Mn  Mn12  1  0.75507942  0.00050211  0.49557510  1
  Mn  Mn13  1  0.49542232  0.50710314  0.49570552  1
  Mn  Mn14  1  0.75474324  0.49497690  0.00102935  1
  O  O15  1  0.38944430  0.00196143  0.24726591  1
  O  O16  1  0.29317470  0.20497883  0.29967805  1
  O  O17  1  0.12230699  0.50056504  0.24890842  1
  O  O18  1  0.26011069  0.21989481  0.75999066  1
  O  O19  1  0.04539278  0.70561320  0.29465253  1
  O  O20  1  0.50000265  0.29492090  0.20547224  1
  O  O21  1  0.85972079  0.00339016  0.24607663  1
  O  O22  1  0.99941864  0.69895524  0.80265622  1
  O  O23  1  0.45531061  0.29636956  0.70236462  1
  O  O24  1  0.26046738  0.78253928  0.19677283  1
  O  O25  1  0.77056082  0.22025900  0.29953221  1
  O  O26  1  0.39045326  0.47084818  0.77862475  1
  O  O27  1  0.62807913  0.50183685  0.24754395  1
  O  O28  1  0.20984604  0.78106427  0.73816490  1
  O  O29  1  0.75344861  0.20536451  0.78812863  1
  O  O30  1  0.55347607  0.69844618  0.29944031  1
  O  O31  1  0.99876040  0.30120519  0.20139531  1
  O  O32  1  0.12227853  0.00655899  0.74286222  1
  O  O33  1  0.50040480  0.70589609  0.79340261  1
  O  O34  1  0.95053460  0.30218126  0.69432821  1
  O  O35  1  0.75319284  0.79663811  0.19722679  1
  O  O36  1  0.86089571  0.52890738  0.72023005  1
  O  O37  1  0.70326302  0.79565266  0.70774573  1
  O  O38  1  0.62883456  0.99316350  0.75615971  1
