# generated using pymatgen
data_KGd2Cu(MoO4)4
_symmetry_space_group_name_H-M   'P 1'
_cell_length_a   5.34662009
_cell_length_b   6.95626053
_cell_length_c   19.79059992
_cell_angle_alpha   88.71479858
_cell_angle_beta   86.65412585
_cell_angle_gamma   67.39953939
_symmetry_Int_Tables_number   1
_chemical_formula_structural   KGd2Cu(MoO4)4
_chemical_formula_sum   'K2 Gd4 Cu2 Mo8 O32'
_cell_volume   678.37892293
_cell_formula_units_Z   2
loop_
 _symmetry_equiv_pos_site_id
 _symmetry_equiv_pos_as_xyz
  1  'x, y, z'
loop_
 _atom_site_type_symbol
 _atom_site_label
 _atom_site_symmetry_multiplicity
 _atom_site_fract_x
 _atom_site_fract_y
 _atom_site_fract_z
 _atom_site_occupancy
  K  K0  1  0.97022486  0.05955028  0.25000000  1
  K  K1  1  0.02977514  0.94044972  0.75000000  1
  Gd  Gd2  1  0.85368915  0.29411232  0.03265225  1
  Gd  Gd3  1  0.14631085  0.70588768  0.96734775  1
  Gd  Gd4  1  0.85219853  0.29411232  0.46734775  1
  Gd  Gd5  1  0.14780147  0.70588768  0.53265225  1
  Cu  Cu6  1  0.69079026  0.61841947  0.25000000  1
  Cu  Cu7  1  0.30920974  0.38158053  0.75000000  1
  Mo  Mo8  1  0.42303533  0.12408344  0.59161158  1
  Mo  Mo9  1  0.24627923  0.48460258  0.14723659  1
  Mo  Mo10  1  0.57696467  0.87591656  0.40838842  1
  Mo  Mo11  1  0.26911819  0.48460258  0.35276341  1
  Mo  Mo12  1  0.73088181  0.51539742  0.64723659  1
  Mo  Mo13  1  0.75372077  0.51539742  0.85276341  1
  Mo  Mo14  1  0.45288123  0.12408344  0.90838842  1
  Mo  Mo15  1  0.54711877  0.87591656  0.09161158  1
  O  O16  1  0.01721780  0.72183631  0.32780678  1
  O  O17  1  0.49243946  0.81394371  0.32824564  1
  O  O18  1  0.25732398  0.95988509  0.46146597  1
  O  O19  1  0.50756054  0.18605629  0.67175436  1
  O  O20  1  0.41559348  0.52176497  0.43293935  1
  O  O21  1  0.67735026  0.09310592  0.39952480  1
  O  O22  1  0.59594274  0.30484364  0.13110909  1
  O  O23  1  0.30638317  0.18605628  0.82824564  1
  O  O24  1  0.58440652  0.47823503  0.56706065  1
  O  O25  1  0.17333228  0.33543229  0.54212882  1
  O  O26  1  0.98278220  0.27816369  0.67219322  1
  O  O27  1  0.74267602  0.04011491  0.53853403  1
  O  O28  1  0.21720907  0.04011491  0.96146597  1
  O  O29  1  0.69361683  0.81394372  0.17175436  1
  O  O30  1  0.46961410  0.59181856  0.71343553  1
  O  O31  1  0.77045618  0.90689408  0.89952480  1
  O  O32  1  0.90078638  0.69515636  0.63110909  1
  O  O33  1  0.32264974  0.90689408  0.60047520  1
  O  O34  1  0.09921362  0.30484364  0.36889091  1
  O  O35  1  0.26094589  0.72183631  0.17219322  1
  O  O36  1  0.49123543  0.33543229  0.95787118  1
  O  O37  1  0.06143266  0.40818144  0.21343553  1
  O  O38  1  0.50876457  0.66456771  0.04212882  1
  O  O39  1  0.73905411  0.27816369  0.82780678  1
  O  O40  1  0.22954382  0.09310592  0.10047520  1
  O  O41  1  0.93856734  0.59181856  0.78656447  1
  O  O42  1  0.82666772  0.66456771  0.45787118  1
  O  O43  1  0.40405726  0.69515636  0.86889091  1
  O  O44  1  0.06264155  0.52176497  0.06706065  1
  O  O45  1  0.78279093  0.95988509  0.03853403  1
  O  O46  1  0.93735845  0.47823503  0.93293935  1
  O  O47  1  0.53038590  0.40818144  0.28656447  1
