# generated using pymatgen
data_Li3V2(PO4)3
_symmetry_space_group_name_H-M   'P 1'
_cell_length_a   8.84932851
_cell_length_b   8.73975709
_cell_length_c   8.84932790
_cell_angle_alpha   59.70100858
_cell_angle_beta   121.01128623
_cell_angle_gamma   120.29899245
_symmetry_Int_Tables_number   1
_chemical_formula_structural   Li3V2(PO4)3
_chemical_formula_sum   'Li6 V4 P6 O24'
_cell_volume   477.99975070
_cell_formula_units_Z   2
loop_
 _symmetry_equiv_pos_site_id
 _symmetry_equiv_pos_as_xyz
  1  'x, y, z'
loop_
 _atom_site_type_symbol
 _atom_site_label
 _atom_site_symmetry_multiplicity
 _atom_site_fract_x
 _atom_site_fract_y
 _atom_site_fract_z
 _atom_site_occupancy
  Li  Li0  1  0.34904719  0.56207982  0.96375396  1
  Li  Li1  1  0.88874756  0.83316086  0.25953728  1
  Li  Li2  1  0.03624604  0.06207982  0.65095281  1
  Li  Li3  1  0.36282443  0.23063107  0.37983064  1
  Li  Li4  1  0.62016936  0.73063107  0.63717557  1
  Li  Li5  1  0.74046272  0.33316086  0.11125244  1
  V  V6  1  0.35621266  0.06843380  0.14663056  1
  V  V7  1  0.85336944  0.56843380  0.64378734  1
  V  V8  1  0.64342592  0.93719269  0.84672044  1
  V  V9  1  0.15327956  0.43719269  0.35657408  1
  P  P10  1  0.47323076  0.26337320  0.75010237  1
  P  P11  1  0.75261338  0.23794920  0.47108191  1
  P  P12  1  0.24989763  0.76337320  0.52676924  1
  P  P13  1  0.52891809  0.73794920  0.24738662  1
  P  P14  1  0.95174158  0.75112371  0.95527949  1
  P  P15  1  0.04472051  0.25112371  0.04825842  1
  O  O16  1  0.47700434  0.21567866  0.94461458  1
  O  O17  1  0.48109627  0.88406937  0.24492282  1
  O  O18  1  0.89052696  0.06598317  0.01838978  1
  O  O19  1  0.29176078  0.96330709  0.38081009  1
  O  O20  1  0.05538542  0.71567866  0.52299566  1
  O  O21  1  0.98161022  0.56598317  0.10947304  1
  O  O22  1  0.24054606  0.26848843  0.07189470  1
  O  O23  1  0.71890958  0.04052631  0.62185187  1
  O  O24  1  0.93332157  0.27731229  0.45008490  1
  O  O25  1  0.11514291  0.93046272  0.99090425  1
  O  O26  1  0.59624751  0.23993731  0.27568271  1
  O  O27  1  0.76676373  0.74470136  0.94144180  1
  O  O28  1  0.61918991  0.46330709  0.70823922  1
  O  O29  1  0.92810530  0.76848843  0.75945394  1
  O  O30  1  0.72431729  0.73993731  0.40375249  1
  O  O31  1  0.00909575  0.43046272  0.88485709  1
  O  O32  1  0.39812319  0.75649920  0.72623175  1
  O  O33  1  0.27376825  0.25649920  0.60187681  1
  O  O34  1  0.26310280  0.62454675  0.47962429  1
  O  O35  1  0.54991510  0.77731229  0.06667843  1
  O  O36  1  0.75507718  0.38406937  0.51890373  1
  O  O37  1  0.37814813  0.54052631  0.28109042  1
  O  O38  1  0.05855820  0.24470136  0.23323627  1
  O  O39  1  0.52037571  0.12454675  0.73689720  1
