# generated using pymatgen
data_KMnO4
_symmetry_space_group_name_H-M   'P 1'
_cell_length_a   6.16818313
_cell_length_b   7.48005199
_cell_length_c   9.03208440
_cell_angle_alpha   90.00000000
_cell_angle_beta   90.00000000
_cell_angle_gamma   90.00000000
_symmetry_Int_Tables_number   1
_chemical_formula_structural   KMnO4
_chemical_formula_sum   'K4 Mn4 O16'
_cell_volume   416.72529512
_cell_formula_units_Z   4
loop_
 _symmetry_equiv_pos_site_id
 _symmetry_equiv_pos_as_xyz
  1  'x, y, z'
loop_
 _atom_site_type_symbol
 _atom_site_label
 _atom_site_symmetry_multiplicity
 _atom_site_fract_x
 _atom_site_fract_y
 _atom_site_fract_z
 _atom_site_occupancy
  K  K0  1  0.75000000  0.83260935  0.68434524  1
  K  K1  1  0.25000000  0.16739065  0.31565476  1
  K  K2  1  0.25000000  0.33260935  0.81565476  1
  K  K3  1  0.75000000  0.66739065  0.18434524  1
  Mn  Mn4  1  0.25000000  0.82133461  0.91440513  1
  Mn  Mn5  1  0.25000000  0.67866539  0.41440513  1
  Mn  Mn6  1  0.75000000  0.32133461  0.58559487  1
  Mn  Mn7  1  0.75000000  0.17866539  0.08559487  1
  O  O8  1  0.75000000  0.01301448  0.97056163  1
  O  O9  1  0.46394218  0.80188651  0.43698171  1
  O  O10  1  0.53605782  0.30188651  0.06301829  1
  O  O11  1  0.96394218  0.30188651  0.06301829  1
  O  O12  1  0.46394218  0.69811349  0.93698171  1
  O  O13  1  0.25000000  0.51301448  0.52943837  1
  O  O14  1  0.53605782  0.19811349  0.56301829  1
  O  O15  1  0.25000000  0.98698552  0.02943837  1
  O  O16  1  0.96394218  0.19811349  0.56301829  1
  O  O17  1  0.75000000  0.48698552  0.47056163  1
  O  O18  1  0.03605782  0.69811349  0.93698171  1
  O  O19  1  0.25000000  0.60076696  0.24753376  1
  O  O20  1  0.03605782  0.80188651  0.43698171  1
  O  O21  1  0.75000000  0.10076696  0.25246624  1
  O  O22  1  0.75000000  0.39923304  0.75246624  1
  O  O23  1  0.25000000  0.89923304  0.74753376  1
