# generated using pymatgen
data_BeP2(HO)4
_symmetry_space_group_name_H-M   'P 1'
_cell_length_a   5.11962287
_cell_length_b   5.11962287
_cell_length_c   20.23938955
_cell_angle_alpha   90.00000000
_cell_angle_beta   90.00000000
_cell_angle_gamma   90.00000000
_symmetry_Int_Tables_number   1
_chemical_formula_structural   BeP2(HO)4
_chemical_formula_sum   'Be4 P8 H16 O16'
_cell_volume   530.48529560
_cell_formula_units_Z   4
loop_
 _symmetry_equiv_pos_site_id
 _symmetry_equiv_pos_as_xyz
  1  'x, y, z'
loop_
 _atom_site_type_symbol
 _atom_site_label
 _atom_site_symmetry_multiplicity
 _atom_site_fract_x
 _atom_site_fract_y
 _atom_site_fract_z
 _atom_site_occupancy
  Be  Be0  1  0.50439999  0.49560001  0.75000000  1
  Be  Be1  1  0.49560001  0.50439999  0.25000000  1
  Be  Be2  1  0.99560001  0.99560001  0.50000000  1
  Be  Be3  1  0.00439999  0.00439999  0.00000000  1
  P  P4  1  0.99365616  0.56487295  0.67866699  1
  P  P5  1  0.00634384  0.43512705  0.17866699  1
  P  P6  1  0.06487295  0.50634384  0.42866699  1
  P  P7  1  0.93512705  0.49365616  0.92866699  1
  P  P8  1  0.43512705  0.00634384  0.82133301  1
  P  P9  1  0.56487295  0.99365616  0.32133301  1
  P  P10  1  0.50634384  0.06487295  0.57133301  1
  P  P11  1  0.49365616  0.93512705  0.07133301  1
  H  H12  1  0.04973742  0.52533306  0.61114876  1
  H  H13  1  0.95026258  0.47466694  0.11114876  1
  H  H14  1  0.02533306  0.45026258  0.36114876  1
  H  H15  1  0.97466694  0.54973742  0.86114876  1
  H  H16  1  0.47466694  0.95026258  0.88885124  1
  H  H17  1  0.52533306  0.04973742  0.38885124  1
  H  H18  1  0.45026258  0.02533306  0.63885124  1
  H  H19  1  0.54973742  0.97466694  0.13885124  1
  H  H20  1  0.99230144  0.83864545  0.68784299  1
  H  H21  1  0.00769856  0.16135455  0.18784299  1
  H  H22  1  0.33864545  0.50769856  0.43784299  1
  H  H23  1  0.66135455  0.49230144  0.93784299  1
  H  H24  1  0.16135455  0.00769856  0.81215701  1
  H  H25  1  0.83864545  0.99230144  0.31215701  1
  H  H26  1  0.50769856  0.33864545  0.56215701  1
  H  H27  1  0.49230144  0.66135455  0.06215701  1
  O  O28  1  0.72120002  0.45475730  0.69103318  1
  O  O29  1  0.27879998  0.54524270  0.19103318  1
  O  O30  1  0.95475730  0.77879998  0.44103318  1
  O  O31  1  0.04524270  0.22120002  0.94103318  1
  O  O32  1  0.54524270  0.27879998  0.80896682  1
  O  O33  1  0.45475730  0.72120002  0.30896682  1
  O  O34  1  0.77879998  0.95475730  0.55896682  1
  O  O35  1  0.22120002  0.04524270  0.05896682  1
  O  O36  1  0.21359745  0.44783032  0.71978871  1
  O  O37  1  0.78640255  0.55216968  0.21978871  1
  O  O38  1  0.94783032  0.28640255  0.46978871  1
  O  O39  1  0.05216968  0.71359745  0.96978871  1
  O  O40  1  0.55216968  0.78640255  0.78021129  1
  O  O41  1  0.44783032  0.21359745  0.28021129  1
  O  O42  1  0.28640255  0.94783032  0.53021129  1
  O  O43  1  0.71359745  0.05216968  0.03021129  1
