# generated using pymatgen
data_Al2ZnS4
_symmetry_space_group_name_H-M   'P 1'
_cell_length_a   3.69613076
_cell_length_b   3.69613076
_cell_length_c   23.80581780
_cell_angle_alpha   90.00000000
_cell_angle_beta   90.00000000
_cell_angle_gamma   120.00045136
_symmetry_Int_Tables_number   1
_chemical_formula_structural   Al2ZnS4
_chemical_formula_sum   'Al4 Zn2 S8'
_cell_volume   281.64783363
_cell_formula_units_Z   2
loop_
 _symmetry_equiv_pos_site_id
 _symmetry_equiv_pos_as_xyz
  1  'x, y, z'
loop_
 _atom_site_type_symbol
 _atom_site_label
 _atom_site_symmetry_multiplicity
 _atom_site_fract_x
 _atom_site_fract_y
 _atom_site_fract_z
 _atom_site_occupancy
  Al  Al0  1  0.66667763  0.33332237  0.24810861  1
  Al  Al1  1  0.33332237  0.66667763  0.74810861  1
  Al  Al2  1  0.33331573  0.66668427  0.40195632  1
  Al  Al3  1  0.66668427  0.33331573  0.90195632  1
  Zn  Zn4  1  0.00001586  0.99998414  0.09208259  1
  Zn  Zn5  1  0.99998414  0.00001586  0.59208259  1
  S  S6  1  0.99998413  0.00001587  0.43879061  1
  S  S7  1  0.00001587  0.99998413  0.93879061  1
  S  S8  1  0.33332113  0.66667887  0.30690611  1
  S  S9  1  0.66667887  0.33332113  0.80690611  1
  S  S10  1  0.00000814  0.99999186  0.20024186  1
  S  S11  1  0.99999186  0.00000814  0.70024186  1
  S  S12  1  0.66668852  0.33331148  0.06141390  1
  S  S13  1  0.33331148  0.66668852  0.56141390  1
