# generated using pymatgen
data_Ba3La7Ti3Cr7O30
_symmetry_space_group_name_H-M   'P 1'
_cell_length_a   5.60867126
_cell_length_b   27.99658106
_cell_length_c   9.69451715
_cell_angle_alpha   30.02467845
_cell_angle_beta   55.11642111
_cell_angle_gamma   60.33806751
_symmetry_Int_Tables_number   1
_chemical_formula_structural   Ba3La7Ti3Cr7O30
_chemical_formula_sum   'Ba3 La7 Ti3 Cr7 O30'
_cell_volume   624.83592287
_cell_formula_units_Z   1
loop_
 _symmetry_equiv_pos_site_id
 _symmetry_equiv_pos_as_xyz
  1  'x, y, z'
loop_
 _atom_site_type_symbol
 _atom_site_label
 _atom_site_symmetry_multiplicity
 _atom_site_fract_x
 _atom_site_fract_y
 _atom_site_fract_z
 _atom_site_occupancy
  Ba  Ba0  1  0.24936464  0.99856509  0.25241900  1
  Ba  Ba1  1  0.74668613  0.99827126  0.75663400  1
  Ba  Ba2  1  0.74940138  0.20346143  0.74043668  1
  La  La3  1  0.24633126  0.20024525  0.25441062  1
  La  La4  1  0.24590420  0.40328990  0.24063147  1
  La  La5  1  0.25119062  0.60323001  0.24014515  1
  La  La6  1  0.24973231  0.79451974  0.26591694  1
  La  La7  1  0.74982883  0.40086623  0.75147230  1
  La  La8  1  0.74758785  0.59576739  0.76091381  1
  La  La9  1  0.74333821  0.79831618  0.75207891  1
  Ti  Ti10  1  0.00277636  0.99965369  0.99976826  1
  Ti  Ti11  1  0.49288187  0.99610093  0.51279675  1
  Ti  Ti12  1  0.98995424  0.20267514  0.99908688  1
  Cr  Cr13  1  0.50555192  0.20282580  0.49107332  1
  Cr  Cr14  1  0.49930027  0.40318663  0.49359370  1
  Cr  Cr15  1  0.99795707  0.40347687  0.99078035  1
  Cr  Cr16  1  0.49983358  0.59953448  0.50107440  1
  Cr  Cr17  1  0.99859078  0.59884917  0.00349631  1
  Cr  Cr18  1  0.49448295  0.79667678  0.50892192  1
  Cr  Cr19  1  0.00311483  0.79623727  0.00869647  1
  O  O20  1  0.26249450  0.10832465  0.22961508  1
  O  O21  1  0.25270150  0.00930892  0.72496520  1
  O  O22  1  0.23082738  0.10667782  0.73308772  1
  O  O23  1  0.31005245  0.31619308  0.18303671  1
  O  O24  1  0.76182285  0.09704202  0.25130245  1
  O  O25  1  0.24349798  0.22204281  0.70084491  1
  O  O26  1  0.75056171  0.19449238  0.26207160  1
  O  O27  1  0.19532691  0.31233201  0.74558205  1
  O  O28  1  0.74260381  0.09431368  0.76842162  1
  O  O29  1  0.31268486  0.51560194  0.18354588  1
  O  O30  1  0.82019272  0.29235008  0.22704331  1
  O  O31  1  0.24724211  0.42877011  0.67797837  1
  O  O32  1  0.75066691  0.39216915  0.26975575  1
  O  O33  1  0.18215430  0.51745193  0.73513266  1
  O  O34  1  0.69251453  0.29352819  0.80285982  1
  O  O35  1  0.31649240  0.71495260  0.19080526  1
  O  O36  1  0.82097276  0.48587581  0.25350041  1
  O  O37  1  0.25541305  0.62340730  0.69187463  1
  O  O38  1  0.74377360  0.57623828  0.30966267  1
  O  O39  1  0.17674258  0.71243316  0.75098113  1
  O  O40  1  0.67564088  0.48437306  0.81797102  1
  O  O41  1  0.26307169  0.90240354  0.23164444  1
  O  O42  1  0.81761735  0.68262224  0.26575848  1
  O  O43  1  0.26601211  0.80510075  0.73731283  1
  O  O44  1  0.73788413  0.77445528  0.31377269  1
  O  O45  1  0.22865039  0.90390028  0.75640668  1
  O  O46  1  0.69160163  0.68331996  0.81234196  1
  O  O47  1  0.79809376  0.88563648  0.26794414  1
  O  O48  1  0.74626573  0.98578771  0.28626025  1
  O  O49  1  0.70538809  0.88653152  0.79687902  1
