# generated using pymatgen
data_KCu3Ag(MoO4)4
_symmetry_space_group_name_H-M   'P 1'
_cell_length_a   5.11432744
_cell_length_b   14.75294993
_cell_length_c   20.06213968
_cell_angle_alpha   90.00000000
_cell_angle_beta   93.56311216
_cell_angle_gamma   90.00000000
_symmetry_Int_Tables_number   1
_chemical_formula_structural   KCu3Ag(MoO4)4
_chemical_formula_sum   'K4 Cu12 Ag4 Mo16 O64'
_cell_volume   1510.79076396
_cell_formula_units_Z   4
loop_
 _symmetry_equiv_pos_site_id
 _symmetry_equiv_pos_as_xyz
  1  'x, y, z'
loop_
 _atom_site_type_symbol
 _atom_site_label
 _atom_site_symmetry_multiplicity
 _atom_site_fract_x
 _atom_site_fract_y
 _atom_site_fract_z
 _atom_site_occupancy
  K  K0  1  0.19218459  0.97205105  0.09923506  1
  K  K1  1  0.80781541  0.47205105  0.40076494  1
  K  K2  1  0.19218459  0.52794895  0.59923506  1
  K  K3  1  0.80781541  0.02794895  0.90076494  1
  Cu  Cu4  1  0.77360372  0.70571836  0.32749848  1
  Cu  Cu5  1  0.70861180  0.94000360  0.61259619  1
  Cu  Cu6  1  0.22639628  0.20571836  0.17250152  1
  Cu  Cu7  1  0.19316962  0.67540214  0.07194114  1
  Cu  Cu8  1  0.29138820  0.05999640  0.38740381  1
  Cu  Cu9  1  0.77360372  0.79428164  0.82749848  1
  Cu  Cu10  1  0.80683038  0.17540214  0.42805886  1
  Cu  Cu11  1  0.19316962  0.82459786  0.57194114  1
  Cu  Cu12  1  0.70861180  0.55999640  0.11259619  1
  Cu  Cu13  1  0.22639628  0.29428164  0.67250152  1
  Cu  Cu14  1  0.80683038  0.32459786  0.92805886  1
  Cu  Cu15  1  0.29138820  0.44000360  0.88740381  1
  Ag  Ag16  1  0.27495137  0.86185740  0.29106707  1
  Ag  Ag17  1  0.27495137  0.63814260  0.79106707  1
  Ag  Ag18  1  0.72504863  0.36185740  0.20893293  1
  Ag  Ag19  1  0.72504863  0.13814260  0.70893293  1
  Mo  Mo20  1  0.72129895  0.77003453  0.17048656  1
  Mo  Mo21  1  0.75047612  0.09990151  0.27120144  1
  Mo  Mo22  1  0.19329158  0.41561238  0.07035621  1
  Mo  Mo23  1  0.32346474  0.67793653  0.43965599  1
  Mo  Mo24  1  0.24952388  0.59990151  0.22879856  1
  Mo  Mo25  1  0.75047612  0.40009849  0.77120144  1
  Mo  Mo26  1  0.27870105  0.27003453  0.32951344  1
  Mo  Mo27  1  0.67653526  0.17793653  0.06034401  1
  Mo  Mo28  1  0.67653526  0.32206347  0.56034401  1
  Mo  Mo29  1  0.19329158  0.08438762  0.57035621  1
  Mo  Mo30  1  0.80670842  0.91561238  0.42964379  1
  Mo  Mo31  1  0.24952388  0.90009849  0.72879856  1
  Mo  Mo32  1  0.80670842  0.58438762  0.92964379  1
  Mo  Mo33  1  0.32346474  0.82206347  0.93965599  1
  Mo  Mo34  1  0.27870105  0.22996547  0.82951344  1
  Mo  Mo35  1  0.72129895  0.72996547  0.67048656  1
  O  O36  1  0.07504582  0.18901399  0.88974491  1
  O  O37  1  0.49308826  0.64295017  0.68173534  1
  O  O38  1  0.92495418  0.81098601  0.11025509  1
  O  O39  1  0.38159453  0.16456139  0.61834794  1
  O  O40  1  0.98351836  0.37170746  0.84849708  1
  O  O41  1  0.98351836  0.12829254  0.34849708  1
  O  O42  1  0.39239991  0.98437118  0.56213886  1
  O  O43  1  0.62440685  0.24689048  0.48956202  1
  O  O44  1  0.60760009  0.01562882  0.43786114  1
  O  O45  1  0.01648164  0.87170746  0.65150292  1
  O  O46  1  0.93132823  0.76174328  0.24946755  1
  O  O47  1  0.44647004  0.99352568  0.71036180  1
  O  O48  1  0.53530643  0.18783322  0.23292953  1
  O  O49  1  0.06867177  0.23825672  0.75053245  1
  O  O50  1  0.61840547  0.83543861  0.38165206  1
  O  O51  1  0.80828425  0.42412849  0.53209207  1
  O  O52  1  0.80828425  0.07587151  0.03209207  1
  O  O53  1  0.90188101  0.44678248  0.11370944  1
  O  O54  1  0.09524972  0.73152579  0.37954327  1
  O  O55  1  0.90475028  0.23152579  0.12045673  1
  O  O56  1  0.06867177  0.26174328  0.25053245  1
  O  O57  1  0.92495418  0.68901399  0.61025509  1
  O  O58  1  0.48809222  0.32889436  0.86655622  1
  O  O59  1  0.44647004  0.50647432  0.21036180  1
  O  O60  1  0.37490352  0.35571698  0.59833819  1
  O  O61  1  0.48809222  0.17110564  0.36655622  1
  O  O62  1  0.09811899  0.55321752  0.88629056  1
  O  O63  1  0.01648164  0.62829254  0.15150292  1
  O  O64  1  0.50691174  0.14295017  0.81826466  1
  O  O65  1  0.51190778  0.82889436  0.63344378  1
  O  O66  1  0.19171575  0.92412849  0.96790793  1
  O  O67  1  0.19171575  0.57587151  0.46790793  1
  O  O68  1  0.46469357  0.81216678  0.76707047  1
  O  O69  1  0.37490352  0.14428302  0.09833819  1
  O  O70  1  0.09811899  0.94678248  0.38629056  1
  O  O71  1  0.51190778  0.67110564  0.13344378  1
  O  O72  1  0.37559315  0.74689048  0.01043798  1
  O  O73  1  0.90188101  0.05321752  0.61370944  1
  O  O74  1  0.62509648  0.64428302  0.40166181  1
  O  O75  1  0.90475028  0.26847421  0.62045673  1
  O  O76  1  0.04301405  0.93849964  0.78939171  1
  O  O77  1  0.37559315  0.75310952  0.51043798  1
  O  O78  1  0.62440685  0.25310952  0.98956202  1
  O  O79  1  0.95698595  0.06150036  0.21060829  1
  O  O80  1  0.46469357  0.68783322  0.26707047  1
  O  O81  1  0.62509648  0.85571698  0.90166181  1
  O  O82  1  0.61840547  0.66456139  0.88165206  1
  O  O83  1  0.49308826  0.85704983  0.18173534  1
  O  O84  1  0.38159453  0.33543861  0.11834794  1
  O  O85  1  0.55352996  0.00647432  0.28963820  1
  O  O86  1  0.07504582  0.31098601  0.38974491  1
  O  O87  1  0.53530643  0.31216678  0.73292953  1
  O  O88  1  0.95698595  0.43849964  0.71060829  1
  O  O89  1  0.09524972  0.76847421  0.87954327  1
  O  O90  1  0.60760009  0.48437118  0.93786114  1
  O  O91  1  0.90382471  0.87337564  0.51271249  1
  O  O92  1  0.50691174  0.35704983  0.31826466  1
  O  O93  1  0.04301405  0.56150036  0.28939171  1
  O  O94  1  0.55352996  0.49352568  0.78963820  1
  O  O95  1  0.09617529  0.12662436  0.48728751  1
  O  O96  1  0.93132823  0.73825672  0.74946755  1
  O  O97  1  0.39239991  0.51562882  0.06213886  1
  O  O98  1  0.09617529  0.37337564  0.98728751  1
  O  O99  1  0.90382471  0.62662436  0.01271249  1
