# generated using pymatgen
data_CsTiH24(SO10)2
_symmetry_space_group_name_H-M   'P 1'
_cell_length_a   12.45899453
_cell_length_b   12.45899453
_cell_length_c   12.45899453
_cell_angle_alpha   90.00000000
_cell_angle_beta   90.00000000
_cell_angle_gamma   90.00000000
_symmetry_Int_Tables_number   1
_chemical_formula_structural   CsTiH24(SO10)2
_chemical_formula_sum   'Cs4 Ti4 H96 S8 O80'
_cell_volume   1933.96667131
_cell_formula_units_Z   4
loop_
 _symmetry_equiv_pos_site_id
 _symmetry_equiv_pos_as_xyz
  1  'x, y, z'
loop_
 _atom_site_type_symbol
 _atom_site_label
 _atom_site_symmetry_multiplicity
 _atom_site_fract_x
 _atom_site_fract_y
 _atom_site_fract_z
 _atom_site_occupancy
  Cs  Cs0  1  0.00000000  0.00000000  0.50000000  1
  Cs  Cs1  1  0.00000000  0.50000000  0.00000000  1
  Cs  Cs2  1  0.50000000  0.00000000  0.00000000  1
  Cs  Cs3  1  0.50000000  0.50000000  0.50000000  1
  Ti  Ti4  1  0.50000000  0.50000000  0.00000000  1
  Ti  Ti5  1  0.50000000  0.00000000  0.50000000  1
  Ti  Ti6  1  0.00000000  0.50000000  0.50000000  1
  Ti  Ti7  1  0.00000000  0.00000000  0.00000000  1
  H  H8  1  0.22043979  0.50972929  0.22902423  1
  H  H9  1  0.77956021  0.00972929  0.27097577  1
  H  H10  1  0.27956021  0.49027071  0.72902423  1
  H  H11  1  0.72043979  0.99027071  0.77097577  1
  H  H12  1  0.22902423  0.22043979  0.50972929  1
  H  H13  1  0.27097577  0.77956021  0.00972929  1
  H  H14  1  0.72902423  0.27956021  0.49027071  1
  H  H15  1  0.77097577  0.72043979  0.99027071  1
  H  H16  1  0.50972929  0.22902423  0.22043979  1
  H  H17  1  0.00972929  0.27097577  0.77956021  1
  H  H18  1  0.49027071  0.72902423  0.27956021  1
  H  H19  1  0.99027071  0.77097577  0.72043979  1
  H  H20  1  0.77956021  0.49027071  0.77097577  1
  H  H21  1  0.22043979  0.99027071  0.72902423  1
  H  H22  1  0.72043979  0.50972929  0.27097577  1
  H  H23  1  0.27956021  0.00972929  0.22902423  1
  H  H24  1  0.77097577  0.77956021  0.49027071  1
  H  H25  1  0.72902423  0.22043979  0.99027071  1
  H  H26  1  0.27097577  0.72043979  0.50972929  1
  H  H27  1  0.22902423  0.27956021  0.00972929  1
  H  H28  1  0.49027071  0.77097577  0.77956021  1
  H  H29  1  0.99027071  0.72902423  0.22043979  1
  H  H30  1  0.50972929  0.27097577  0.72043979  1
  H  H31  1  0.00972929  0.22902423  0.27956021  1
  H  H32  1  0.18226027  0.62808321  0.21964463  1
  H  H33  1  0.81773973  0.12808321  0.28035537  1
  H  H34  1  0.31773973  0.37191679  0.71964463  1
  H  H35  1  0.68226027  0.87191679  0.78035537  1
  H  H36  1  0.21964463  0.18226027  0.62808321  1
  H  H37  1  0.28035537  0.81773973  0.12808321  1
  H  H38  1  0.71964463  0.31773973  0.37191679  1
  H  H39  1  0.78035537  0.68226027  0.87191679  1
  H  H40  1  0.62808321  0.21964463  0.18226027  1
  H  H41  1  0.12808321  0.28035537  0.81773973  1
  H  H42  1  0.37191679  0.71964463  0.31773973  1
  H  H43  1  0.87191679  0.78035537  0.68226027  1
  H  H44  1  0.81773973  0.37191679  0.78035537  1
  H  H45  1  0.18226027  0.87191679  0.71964463  1
  H  H46  1  0.68226027  0.62808321  0.28035537  1
  H  H47  1  0.31773973  0.12808321  0.21964463  1
  H  H48  1  0.78035537  0.81773973  0.37191679  1
  H  H49  1  0.71964463  0.18226027  0.87191679  1
  H  H50  1  0.28035537  0.68226027  0.62808321  1
  H  H51  1  0.21964463  0.31773973  0.12808321  1
  H  H52  1  0.37191679  0.78035537  0.81773973  1
  H  H53  1  0.87191679  0.71964463  0.18226027  1
  H  H54  1  0.62808321  0.28035537  0.68226027  1
  H  H55  1  0.12808321  0.21964463  0.31773973  1
  H  H56  1  0.47680211  0.71252261  0.93755488  1
  H  H57  1  0.52319789  0.21252261  0.56244512  1
  H  H58  1  0.02319789  0.28747739  0.43755488  1
  H  H59  1  0.97680211  0.78747739  0.06244512  1
  H  H60  1  0.93755488  0.47680211  0.71252261  1
  H  H61  1  0.56244512  0.52319789  0.21252261  1
  H  H62  1  0.43755488  0.02319789  0.28747739  1
  H  H63  1  0.06244512  0.97680211  0.78747739  1
  H  H64  1  0.71252261  0.93755488  0.47680211  1
  H  H65  1  0.21252261  0.56244512  0.52319789  1
  H  H66  1  0.28747739  0.43755488  0.02319789  1
  H  H67  1  0.78747739  0.06244512  0.97680211  1
  H  H68  1  0.52319789  0.28747739  0.06244512  1
  H  H69  1  0.47680211  0.78747739  0.43755488  1
  H  H70  1  0.97680211  0.71252261  0.56244512  1
  H  H71  1  0.02319789  0.21252261  0.93755488  1
  H  H72  1  0.06244512  0.52319789  0.28747739  1
  H  H73  1  0.43755488  0.47680211  0.78747739  1
  H  H74  1  0.56244512  0.97680211  0.71252261  1
  H  H75  1  0.93755488  0.02319789  0.21252261  1
  H  H76  1  0.28747739  0.06244512  0.52319789  1
  H  H77  1  0.78747739  0.43755488  0.47680211  1
  H  H78  1  0.71252261  0.56244512  0.97680211  1
  H  H79  1  0.21252261  0.93755488  0.02319789  1
  H  H80  1  0.52371809  0.70884005  0.06128052  1
  H  H81  1  0.47628191  0.20884005  0.43871948  1
  H  H82  1  0.97628191  0.29115995  0.56128052  1
  H  H83  1  0.02371809  0.79115995  0.93871948  1
  H  H84  1  0.06128052  0.52371809  0.70884005  1
  H  H85  1  0.43871948  0.47628191  0.20884005  1
  H  H86  1  0.56128052  0.97628191  0.29115995  1
  H  H87  1  0.93871948  0.02371809  0.79115995  1
  H  H88  1  0.70884005  0.06128052  0.52371809  1
  H  H89  1  0.20884005  0.43871948  0.47628191  1
  H  H90  1  0.29115995  0.56128052  0.97628191  1
  H  H91  1  0.79115995  0.93871948  0.02371809  1
  H  H92  1  0.47628191  0.29115995  0.93871948  1
  H  H93  1  0.52371809  0.79115995  0.56128052  1
  H  H94  1  0.02371809  0.70884005  0.43871948  1
  H  H95  1  0.97628191  0.20884005  0.06128052  1
  H  H96  1  0.93871948  0.47628191  0.29115995  1
  H  H97  1  0.56128052  0.52371809  0.79115995  1
  H  H98  1  0.43871948  0.02371809  0.70884005  1
  H  H99  1  0.06128052  0.97628191  0.20884005  1
  H  H100  1  0.29115995  0.93871948  0.47628191  1
  H  H101  1  0.79115995  0.56128052  0.52371809  1
  H  H102  1  0.70884005  0.43871948  0.02371809  1
  H  H103  1  0.20884005  0.06128052  0.97628191  1
  S  S104  1  0.17249968  0.82750032  0.32750032  1
  S  S105  1  0.82750032  0.32750032  0.17249968  1
  S  S106  1  0.32750032  0.17249968  0.82750032  1
  S  S107  1  0.67249968  0.67249968  0.67249968  1
  S  S108  1  0.82750032  0.17249968  0.67249968  1
  S  S109  1  0.17249968  0.67249968  0.82750032  1
  S  S110  1  0.67249968  0.82750032  0.17249968  1
  S  S111  1  0.32750032  0.32750032  0.32750032  1
  O  O112  1  0.24215167  0.75784833  0.25784833  1
  O  O113  1  0.75784833  0.25784833  0.24215167  1
  O  O114  1  0.25784833  0.24215167  0.75784833  1
  O  O115  1  0.74215167  0.74215167  0.74215167  1
  O  O116  1  0.75784833  0.24215167  0.74215167  1
  O  O117  1  0.24215167  0.74215167  0.75784833  1
  O  O118  1  0.74215167  0.75784833  0.24215167  1
  O  O119  1  0.25784833  0.25784833  0.25784833  1
  O  O120  1  0.06208892  0.78093495  0.33399464  1
  O  O121  1  0.93791108  0.28093495  0.16600536  1
  O  O122  1  0.43791108  0.21906505  0.83399464  1
  O  O123  1  0.56208892  0.71906505  0.66600536  1
  O  O124  1  0.33399464  0.06208892  0.78093495  1
  O  O125  1  0.16600536  0.93791108  0.28093495  1
  O  O126  1  0.83399464  0.43791108  0.21906505  1
  O  O127  1  0.66600536  0.56208892  0.71906505  1
  O  O128  1  0.78093495  0.33399464  0.06208892  1
  O  O129  1  0.28093495  0.16600536  0.93791108  1
  O  O130  1  0.21906505  0.83399464  0.43791108  1
  O  O131  1  0.71906505  0.66600536  0.56208892  1
  O  O132  1  0.93791108  0.21906505  0.66600536  1
  O  O133  1  0.06208892  0.71906505  0.83399464  1
  O  O134  1  0.56208892  0.78093495  0.16600536  1
  O  O135  1  0.43791108  0.28093495  0.33399464  1
  O  O136  1  0.66600536  0.93791108  0.21906505  1
  O  O137  1  0.83399464  0.06208892  0.71906505  1
  O  O138  1  0.16600536  0.56208892  0.78093495  1
  O  O139  1  0.33399464  0.43791108  0.28093495  1
  O  O140  1  0.21906505  0.66600536  0.93791108  1
  O  O141  1  0.71906505  0.83399464  0.06208892  1
  O  O142  1  0.78093495  0.16600536  0.56208892  1
  O  O143  1  0.28093495  0.33399464  0.43791108  1
  O  O144  1  0.15813729  0.55368445  0.20706832  1
  O  O145  1  0.84186271  0.05368445  0.29293168  1
  O  O146  1  0.34186271  0.44631555  0.70706832  1
  O  O147  1  0.65813729  0.94631555  0.79293168  1
  O  O148  1  0.20706832  0.15813729  0.55368445  1
  O  O149  1  0.29293168  0.84186271  0.05368445  1
  O  O150  1  0.70706832  0.34186271  0.44631555  1
  O  O151  1  0.79293168  0.65813729  0.94631555  1
  O  O152  1  0.55368445  0.20706832  0.15813729  1
  O  O153  1  0.05368445  0.29293168  0.84186271  1
  O  O154  1  0.44631555  0.70706832  0.34186271  1
  O  O155  1  0.94631555  0.79293168  0.65813729  1
  O  O156  1  0.84186271  0.44631555  0.79293168  1
  O  O157  1  0.15813729  0.94631555  0.70706832  1
  O  O158  1  0.65813729  0.55368445  0.29293168  1
  O  O159  1  0.34186271  0.05368445  0.20706832  1
  O  O160  1  0.79293168  0.84186271  0.44631555  1
  O  O161  1  0.70706832  0.15813729  0.94631555  1
  O  O162  1  0.29293168  0.65813729  0.55368445  1
  O  O163  1  0.20706832  0.34186271  0.05368445  1
  O  O164  1  0.44631555  0.79293168  0.84186271  1
  O  O165  1  0.94631555  0.70706832  0.15813729  1
  O  O166  1  0.55368445  0.29293168  0.65813729  1
  O  O167  1  0.05368445  0.20706832  0.34186271  1
  O  O168  1  0.50020660  0.66408775  0.99915890  1
  O  O169  1  0.49979340  0.16408775  0.50084110  1
  O  O170  1  0.99979340  0.33591225  0.49915890  1
  O  O171  1  0.00020660  0.83591225  0.00084110  1
  O  O172  1  0.99915890  0.50020660  0.66408775  1
  O  O173  1  0.50084110  0.49979340  0.16408775  1
  O  O174  1  0.49915890  0.99979340  0.33591225  1
  O  O175  1  0.00084110  0.00020660  0.83591225  1
  O  O176  1  0.66408775  0.99915890  0.50020660  1
  O  O177  1  0.16408775  0.50084110  0.49979340  1
  O  O178  1  0.33591225  0.49915890  0.99979340  1
  O  O179  1  0.83591225  0.00084110  0.00020660  1
  O  O180  1  0.49979340  0.33591225  0.00084110  1
  O  O181  1  0.50020660  0.83591225  0.49915890  1
  O  O182  1  0.00020660  0.66408775  0.50084110  1
  O  O183  1  0.99979340  0.16408775  0.99915890  1
  O  O184  1  0.00084110  0.49979340  0.33591225  1
  O  O185  1  0.49915890  0.50020660  0.83591225  1
  O  O186  1  0.50084110  0.00020660  0.66408775  1
  O  O187  1  0.99915890  0.99979340  0.16408775  1
  O  O188  1  0.33591225  0.00084110  0.49979340  1
  O  O189  1  0.83591225  0.49915890  0.50020660  1
  O  O190  1  0.66408775  0.50084110  0.00020660  1
  O  O191  1  0.16408775  0.99915890  0.99979340  1
