# generated using pymatgen
data_CaV2P2(H4O7)2
_symmetry_space_group_name_H-M   'P 1'
_cell_length_a   6.39674534
_cell_length_b   6.42925315
_cell_length_c   6.66791201
_cell_angle_alpha   104.48703012
_cell_angle_beta   93.60593758
_cell_angle_gamma   89.77188928
_symmetry_Int_Tables_number   1
_chemical_formula_structural   CaV2P2(H4O7)2
_chemical_formula_sum   'Ca1 V2 P2 H8 O14'
_cell_volume   264.96204522
_cell_formula_units_Z   1
loop_
 _symmetry_equiv_pos_site_id
 _symmetry_equiv_pos_as_xyz
  1  'x, y, z'
loop_
 _atom_site_type_symbol
 _atom_site_label
 _atom_site_symmetry_multiplicity
 _atom_site_fract_x
 _atom_site_fract_y
 _atom_site_fract_z
 _atom_site_occupancy
  Ca  Ca0  1  0.52471345  0.46588936  0.15607327  1
  V  V1  1  0.82871489  0.49487764  0.69432984  1
  V  V2  1  0.32091137  0.94051509  0.52556028  1
  P  P3  1  0.33003603  0.46405223  0.61996394  1
  P  P4  1  0.83262732  0.96413597  0.60219195  1
  H  H5  1  0.97141861  0.47729006  0.09564503  1
  H  H6  1  0.89927152  0.71645809  0.17661865  1
  H  H7  1  0.41877012  0.88487717  0.05695621  1
  H  H8  1  0.22247533  0.73264674  0.01396519  1
  H  H9  1  0.18687232  0.24627124  0.23652077  1
  H  H10  1  0.16435604  0.17920242  0.98479478  1
  H  H11  1  0.66008087  0.06612591  0.27000211  1
  H  H12  1  0.78710091  0.08579509  0.07829680  1
  O  O13  1  0.78360261  0.44774864  0.44194133  1
  O  O14  1  0.32245560  0.00878088  0.77753971  1
  O  O15  1  0.35098907  0.61567311  0.47320753  1
  O  O16  1  0.14039298  0.52270530  0.75300283  1
  O  O17  1  0.30780129  0.23632736  0.46843334  1
  O  O18  1  0.52386714  0.48068940  0.77549013  1
  O  O19  1  0.85607211  0.19604971  0.73788065  1
  O  O20  1  0.01013940  0.90671943  0.44669100  1
  O  O21  1  0.82840694  0.81704068  0.75171682  1
  O  O22  1  0.62713710  0.93616391  0.45613256  1
  O  O23  1  0.86105988  0.58196830  0.07091855  1
  O  O24  1  0.33107423  0.79685533  0.12306987  1
  O  O25  1  0.16509412  0.30098624  0.10942483  1
  O  O26  1  0.64895876  0.10595469  0.13393202  1
