# generated using pymatgen
data_Na2CuH20C12(N2O3)6
_symmetry_space_group_name_H-M   'P 1'
_cell_length_a   10.54435234
_cell_length_b   10.49860757
_cell_length_c   6.86170255
_cell_angle_alpha   71.17456718
_cell_angle_beta   83.99385196
_cell_angle_gamma   62.85222451
_symmetry_Int_Tables_number   1
_chemical_formula_structural   Na2CuH20C12(N2O3)6
_chemical_formula_sum   'Na2 Cu1 H20 C12 N12 O18'
_cell_volume   638.93835001
_cell_formula_units_Z   1
loop_
 _symmetry_equiv_pos_site_id
 _symmetry_equiv_pos_as_xyz
  1  'x, y, z'
loop_
 _atom_site_type_symbol
 _atom_site_label
 _atom_site_symmetry_multiplicity
 _atom_site_fract_x
 _atom_site_fract_y
 _atom_site_fract_z
 _atom_site_occupancy
  Na  Na0  1  0.39708553  0.53613413  0.75734528  1
  Na  Na1  1  0.60291447  0.46386587  0.24265472  1
  Cu  Cu2  1  0.00000000  0.00000000  0.00000000  1
  H  H3  1  0.36732315  0.13684491  0.12225434  1
  H  H4  1  0.63267685  0.86315509  0.87774566  1
  H  H5  1  0.01285601  0.49198949  0.77324885  1
  H  H6  1  0.98714399  0.50801051  0.22675115  1
  H  H7  1  0.56030246  0.11812663  0.69771758  1
  H  H8  1  0.43969754  0.88187337  0.30228242  1
  H  H9  1  0.21227708  0.46701277  0.33684565  1
  H  H10  1  0.78772292  0.53298723  0.66315435  1
  H  H11  1  0.12740684  0.88564271  0.69825110  1
  H  H12  1  0.87259316  0.11435729  0.30174890  1
  H  H13  1  0.16549414  0.02545386  0.68352896  1
  H  H14  1  0.83450586  0.97454614  0.31647104  1
  H  H15  1  0.32293974  0.70509217  0.08268573  1
  H  H16  1  0.67706026  0.29490783  0.91731427  1
  H  H17  1  0.41997084  0.75923295  0.92859950  1
  H  H18  1  0.58002916  0.24076705  0.07140050  1
  H  H19  1  0.18046140  0.81732223  0.42818071  1
  H  H20  1  0.81953860  0.18267777  0.57181929  1
  H  H21  1  0.09657205  0.73098745  0.56067384  1
  H  H22  1  0.90342795  0.26901255  0.43932616  1
  C  C23  1  0.19963322  0.08543945  0.09909761  1
  C  C24  1  0.80036678  0.91456055  0.90090239  1
  C  C25  1  0.19858594  0.32948814  0.94581402  1
  C  C26  1  0.80141406  0.67051186  0.05418598  1
  C  C27  1  0.99575045  0.28978140  0.89512564  1
  C  C28  1  0.00424955  0.71021860  0.10487436  1
  C  C29  1  0.39242773  0.06514165  0.67547785  1
  C  C30  1  0.60757227  0.93485835  0.32452215  1
  C  C31  1  0.39550730  0.30618644  0.51341351  1
  C  C32  1  0.60449270  0.69381356  0.48658649  1
  C  C33  1  0.19190978  0.26565299  0.47110007  1
  C  C34  1  0.80809022  0.73434701  0.52889993  1
  N  N35  1  0.06844608  0.14211588  0.00819900  1
  N  N36  1  0.93155392  0.85788412  0.99180100  1
  N  N37  1  0.26290604  0.18036361  0.06310545  1
  N  N38  1  0.73709396  0.81963639  0.93689455  1
  N  N39  1  0.06252221  0.38067803  0.87033407  1
  N  N40  1  0.93747779  0.61932197  0.12966593  1
  N  N41  1  0.25875032  0.12095839  0.59473748  1
  N  N42  1  0.74124968  0.87904161  0.40526252  1
  N  N43  1  0.45727543  0.15959324  0.63684419  1
  N  N44  1  0.54272457  0.84040676  0.36315581  1
  N  N45  1  0.26322864  0.35451063  0.42877357  1
  N  N46  1  0.73677136  0.64548937  0.57122643  1
  O  O47  1  0.26371590  0.95046025  0.20921517  1
  O  O48  1  0.73628410  0.04953975  0.79078483  1
  O  O49  1  0.25871450  0.41160608  0.91015718  1
  O  O50  1  0.74128550  0.58839392  0.08984282  1
  O  O51  1  0.87416645  0.34218217  0.81378789  1
  O  O52  1  0.12583355  0.65781783  0.18621211  1
  O  O53  1  0.46036422  0.93048896  0.78689316  1
  O  O54  1  0.53963578  0.06951104  0.21310684  1
  O  O55  1  0.45443376  0.38963510  0.48250564  1
  O  O56  1  0.54556624  0.61036490  0.51749436  1
  O  O57  1  0.06754494  0.32331396  0.39273007  1
  O  O58  1  0.93245506  0.67668604  0.60726993  1
  O  O59  1  0.10145911  0.97474251  0.74535168  1
  O  O60  1  0.89854089  0.02525749  0.25464832  1
  O  O61  1  0.40748327  0.66873630  0.00381873  1
  O  O62  1  0.59251673  0.33126370  0.99618127  1
  O  O63  1  0.17574060  0.75504481  0.56812048  1
  O  O64  1  0.82425940  0.24495519  0.43187952  1
