# generated using pymatgen
data_KBa7Al15Si17O64
_symmetry_space_group_name_H-M   'P 1'
_cell_length_a   8.75933113
_cell_length_b   9.41176448
_cell_length_c   18.81421902
_cell_angle_alpha   89.25185510
_cell_angle_beta   81.93753792
_cell_angle_gamma   83.06992271
_symmetry_Int_Tables_number   1
_chemical_formula_structural   KBa7Al15Si17O64
_chemical_formula_sum   'K1 Ba7 Al15 Si17 O64'
_cell_volume   1524.49590674
_cell_formula_units_Z   1
loop_
 _symmetry_equiv_pos_site_id
 _symmetry_equiv_pos_as_xyz
  1  'x, y, z'
loop_
 _atom_site_type_symbol
 _atom_site_label
 _atom_site_symmetry_multiplicity
 _atom_site_fract_x
 _atom_site_fract_y
 _atom_site_fract_z
 _atom_site_occupancy
  K  K0  1  0.21264764  0.06976334  0.03620923  1
  Ba  Ba1  1  0.20921716  0.05528775  0.53377206  1
  Ba  Ba2  1  0.29010318  0.42276018  0.21739017  1
  Ba  Ba3  1  0.29435034  0.42077551  0.71694904  1
  Ba  Ba4  1  0.72543757  0.56810093  0.28595732  1
  Ba  Ba5  1  0.71595696  0.56653671  0.78273371  1
  Ba  Ba6  1  0.77376387  0.92457562  0.47418523  1
  Ba  Ba7  1  0.76842734  0.94604691  0.97758258  1
  Al  Al8  1  0.03466666  0.55051628  0.39577402  1
  Al  Al9  1  0.53246920  0.04905747  0.14580045  1
  Al  Al10  1  0.46564337  0.95009262  0.35320410  1
  Al  Al11  1  0.39596331  0.43120023  0.89916964  1
  Al  Al12  1  0.47336977  0.70834734  0.47286475  1
  Al  Al13  1  0.60336588  0.56818867  0.10166583  1
  Al  Al14  1  0.53023777  0.05103276  0.64560827  1
  Al  Al15  1  0.46344874  0.95042363  0.85343375  1
  Al  Al16  1  0.60788102  0.57006766  0.60094074  1
  Al  Al17  1  0.96779935  0.21103378  0.22227702  1
  Al  Al18  1  0.89035331  0.29671818  0.46383062  1
  Al  Al19  1  0.90330474  0.92899803  0.14520547  1
  Al  Al20  1  0.96909652  0.20981650  0.72265866  1
  Al  Al21  1  0.89308384  0.29825647  0.96546710  1
  Al  Al22  1  0.89796549  0.92847974  0.64839092  1
  Si  Si23  1  0.10037571  0.07361847  0.35319300  1
  Si  Si24  1  0.10804187  0.70224496  0.03209732  1
  Si  Si25  1  0.03756374  0.79300260  0.27549284  1
  Si  Si26  1  0.10055209  0.07468298  0.85395199  1
  Si  Si27  1  0.03663025  0.55376387  0.89463224  1
  Si  Si28  1  0.10371578  0.70450087  0.53344644  1
  Si  Si29  1  0.03794393  0.79427062  0.77779543  1
  Si  Si30  1  0.40001608  0.43007521  0.39741260  1
  Si  Si31  1  0.39827380  0.79166646  0.21480854  1
  Si  Si32  1  0.52530020  0.28691401  0.02880727  1
  Si  Si33  1  0.39764839  0.79181457  0.71444739  1
  Si  Si34  1  0.60440809  0.20715911  0.28458195  1
  Si  Si35  1  0.52776766  0.28884844  0.52831826  1
  Si  Si36  1  0.47079496  0.70987002  0.97080722  1
  Si  Si37  1  0.60201401  0.20942528  0.78497150  1
  Si  Si38  1  0.96728518  0.44850919  0.10516047  1
  Si  Si39  1  0.96790635  0.44595257  0.60558543  1
  O  O40  1  0.02088005  0.37265371  0.17858067  1
  O  O41  1  0.99417152  0.12998171  0.42960750  1
  O  O42  1  0.09689126  0.56519197  0.08662099  1
  O  O43  1  0.09571173  0.18923589  0.28834164  1
  O  O44  1  0.01938123  0.67812591  0.46396337  1
  O  O45  1  0.02197471  0.92855023  0.33209421  1
  O  O46  1  0.02546330  0.36843072  0.67804463  1
  O  O47  1  0.98817825  0.13436221  0.92704098  1
  O  O48  1  0.09255076  0.56585057  0.58853315  1
  O  O49  1  0.09751794  0.18784767  0.78774580  1
  O  O50  1  0.02807392  0.66980697  0.96003912  1
  O  O51  1  0.02133911  0.92839935  0.83358751  1
  O  O52  1  0.22640335  0.46353708  0.37666281  1
  O  O53  1  0.27261005  0.02941717  0.37482978  1
  O  O54  1  0.21816353  0.75132160  0.23756835  1
  O  O55  1  0.28943571  0.72972767  0.01124963  1
  O  O56  1  0.21068226  0.47433439  0.87223748  1
  O  O57  1  0.27254329  0.02705334  0.87320572  1
  O  O58  1  0.21739230  0.74989171  0.73935320  1
  O  O59  1  0.47619035  0.14288577  0.07033116  1
  O  O60  1  0.28077959  0.74007314  0.51628267  1
  O  O61  1  0.39649186  0.92437342  0.16021521  1
  O  O62  1  0.40620037  0.32283322  0.46754711  1
  O  O63  1  0.51104459  0.41671994  0.08816996  1
  O  O64  1  0.51348391  0.17703352  0.21686719  1
  O  O65  1  0.49010837  0.63682974  0.18255013  1
  O  O66  1  0.49949660  0.35560737  0.32236336  1
  O  O67  1  0.46383113  0.14981668  0.57139590  1
  O  O68  1  0.48325169  0.82169442  0.28410810  1
  O  O69  1  0.48697927  0.56953492  0.40815609  1
  O  O70  1  0.39258910  0.92566710  0.65946541  1
  O  O71  1  0.59403301  0.68356494  0.02817187  1
  O  O72  1  0.39977830  0.32085551  0.97277777  1
  O  O73  1  0.60246608  0.07478000  0.33983738  1
  O  O74  1  0.50965055  0.42014048  0.58610583  1
  O  O75  1  0.51254420  0.17566741  0.71680114  1
  O  O76  1  0.51918790  0.86571169  0.42995978  1
  O  O77  1  0.49059164  0.63751625  0.68255315  1
  O  O78  1  0.50126154  0.36116050  0.81722448  1
  O  O79  1  0.48396088  0.82294400  0.78326229  1
  O  O80  1  0.48974155  0.58408783  0.90977050  1
  O  O81  1  0.61505987  0.68499747  0.52954030  1
  O  O82  1  0.59912106  0.07564082  0.84083686  1
  O  O83  1  0.70398812  0.24494762  0.48960381  1
  O  O84  1  0.51616040  0.85712215  0.93018650  1
  O  O85  1  0.77368694  0.26168146  0.26234889  1
  O  O86  1  0.71929949  0.96465546  0.11942476  1
  O  O87  1  0.79159902  0.53120320  0.12514924  1
  O  O88  1  0.70366147  0.25313251  0.98746041  1
  O  O89  1  0.77543885  0.25640347  0.76276685  1
  O  O90  1  0.71640905  0.96753108  0.62132695  1
  O  O91  1  0.79073567  0.52197328  0.62971509  1
  O  O92  1  0.99737400  0.07336976  0.16145730  1
  O  O93  1  0.98474787  0.33628300  0.03908069  1
  O  O94  1  0.91152378  0.81210284  0.21945297  1
  O  O95  1  0.89010279  0.43862342  0.40445207  1
  O  O96  1  0.00739913  0.84850821  0.06385265  1
  O  O97  1  0.99193892  0.64996708  0.31936733  1
  O  O98  1  0.00136819  0.07120665  0.66092632  1
  O  O99  1  0.98579035  0.33160712  0.53932861  1
  O  O100  1  0.91073880  0.80978261  0.72250099  1
  O  O101  1  0.90228422  0.44878108  0.90751837  1
  O  O102  1  0.00650060  0.85199712  0.56854941  1
  O  O103  1  0.98725358  0.65286931  0.82535000  1
