# generated using pymatgen
data_Ba(HO)2
_symmetry_space_group_name_H-M   'P 1'
_cell_length_a   11.38269610
_cell_length_b   16.71623909
_cell_length_c   7.30199502
_cell_angle_alpha   90.00000000
_cell_angle_beta   90.00000000
_cell_angle_gamma   90.00000000
_symmetry_Int_Tables_number   1
_chemical_formula_structural   Ba(HO)2
_chemical_formula_sum   'Ba20 H40 O40'
_cell_volume   1389.39345149
_cell_formula_units_Z   20
loop_
 _symmetry_equiv_pos_site_id
 _symmetry_equiv_pos_as_xyz
  1  'x, y, z'
loop_
 _atom_site_type_symbol
 _atom_site_label
 _atom_site_symmetry_multiplicity
 _atom_site_fract_x
 _atom_site_fract_y
 _atom_site_fract_z
 _atom_site_occupancy
  Ba  Ba0  1  0.81327831  0.25000000  0.04159064  1
  Ba  Ba1  1  0.31327831  0.25000000  0.45840936  1
  Ba  Ba2  1  0.18672169  0.75000000  0.95840936  1
  Ba  Ba3  1  0.68672169  0.75000000  0.54159064  1
  Ba  Ba4  1  0.97787288  0.37545775  0.58199439  1
  Ba  Ba5  1  0.47787288  0.12454225  0.91800561  1
  Ba  Ba6  1  0.02212712  0.87545775  0.41800561  1
  Ba  Ba7  1  0.52212712  0.62454225  0.08199439  1
  Ba  Ba8  1  0.02212712  0.62454225  0.41800561  1
  Ba  Ba9  1  0.52212712  0.87545775  0.08199439  1
  Ba  Ba10  1  0.97787288  0.12454225  0.58199439  1
  Ba  Ba11  1  0.47787288  0.37545775  0.91800561  1
  Ba  Ba12  1  0.83443605  0.48772708  0.07397955  1
  Ba  Ba13  1  0.33443605  0.01227292  0.42602045  1
  Ba  Ba14  1  0.16556395  0.98772708  0.92602045  1
  Ba  Ba15  1  0.66556395  0.51227292  0.57397955  1
  Ba  Ba16  1  0.16556395  0.51227292  0.92602045  1
  Ba  Ba17  1  0.66556395  0.98772708  0.57397955  1
  Ba  Ba18  1  0.83443605  0.01227292  0.07397955  1
  Ba  Ba19  1  0.33443605  0.48772708  0.42602045  1
  H  H20  1  0.56105698  0.25000000  0.24951810  1
  H  H21  1  0.06105698  0.25000000  0.25048190  1
  H  H22  1  0.43894302  0.75000000  0.75048190  1
  H  H23  1  0.93894302  0.75000000  0.74951810  1
  H  H24  1  0.75112227  0.25000000  0.59459846  1
  H  H25  1  0.25112227  0.25000000  0.90540154  1
  H  H26  1  0.24887773  0.75000000  0.40540154  1
  H  H27  1  0.74887773  0.75000000  0.09459846  1
  H  H28  1  0.04822600  0.33883209  0.03949725  1
  H  H29  1  0.54822600  0.16116791  0.46050275  1
  H  H30  1  0.95177400  0.83883209  0.96050275  1
  H  H31  1  0.45177400  0.66116791  0.53949725  1
  H  H32  1  0.95177400  0.66116791  0.96050275  1
  H  H33  1  0.45177400  0.83883209  0.53949725  1
  H  H34  1  0.04822600  0.16116791  0.03949725  1
  H  H35  1  0.54822600  0.33883209  0.46050275  1
  H  H36  1  0.72307151  0.34936314  0.37258132  1
  H  H37  1  0.22307151  0.15063686  0.12741868  1
  H  H38  1  0.27692849  0.84936314  0.62741868  1
  H  H39  1  0.77692849  0.65063686  0.87258132  1
  H  H40  1  0.27692849  0.65063686  0.62741868  1
  H  H41  1  0.77692849  0.84936314  0.87258132  1
  H  H42  1  0.72307151  0.15063686  0.37258132  1
  H  H43  1  0.22307151  0.34936314  0.12741868  1
  H  H44  1  0.74094889  0.35421341  0.75964643  1
  H  H45  1  0.24094889  0.14578659  0.74035357  1
  H  H46  1  0.25905111  0.85421341  0.24035357  1
  H  H47  1  0.75905111  0.64578659  0.25964643  1
  H  H48  1  0.25905111  0.64578659  0.24035357  1
  H  H49  1  0.75905111  0.85421341  0.25964643  1
  H  H50  1  0.74094889  0.14578659  0.75964643  1
  H  H51  1  0.24094889  0.35421341  0.74035357  1
  H  H52  1  0.58511454  0.42843182  0.25005377  1
  H  H53  1  0.08511454  0.07156818  0.24994623  1
  H  H54  1  0.41488546  0.92843182  0.74994623  1
  H  H55  1  0.91488546  0.57156818  0.75005377  1
  H  H56  1  0.41488546  0.57156818  0.74994623  1
  H  H57  1  0.91488546  0.92843182  0.75005377  1
  H  H58  1  0.58511454  0.07156818  0.25005377  1
  H  H59  1  0.08511454  0.42843182  0.24994623  1
  O  O60  1  0.57886960  0.25000000  0.11959952  1
  O  O61  1  0.07886960  0.25000000  0.38040048  1
  O  O62  1  0.42113040  0.75000000  0.88040048  1
  O  O63  1  0.92113040  0.75000000  0.61959952  1
  O  O64  1  0.81610575  0.25000000  0.68106076  1
  O  O65  1  0.31610575  0.25000000  0.81893924  1
  O  O66  1  0.18389425  0.75000000  0.31893924  1
  O  O67  1  0.68389425  0.75000000  0.18106076  1
  O  O68  1  0.98789744  0.36448797  0.96698561  1
  O  O69  1  0.48789744  0.13551203  0.53301439  1
  O  O70  1  0.01210256  0.86448797  0.03301439  1
  O  O71  1  0.51210256  0.63551203  0.46698561  1
  O  O72  1  0.01210256  0.63551203  0.03301439  1
  O  O73  1  0.51210256  0.86448797  0.46698561  1
  O  O74  1  0.98789744  0.13551203  0.96698561  1
  O  O75  1  0.48789744  0.36448797  0.53301439  1
  O  O76  1  0.78925985  0.38297503  0.33909393  1
  O  O77  1  0.28925985  0.11702497  0.16090607  1
  O  O78  1  0.21074015  0.88297503  0.66090607  1
  O  O79  1  0.71074015  0.61702497  0.83909393  1
  O  O80  1  0.21074015  0.61702497  0.66090607  1
  O  O81  1  0.71074015  0.88297503  0.83909393  1
  O  O82  1  0.78925985  0.11702497  0.33909393  1
  O  O83  1  0.28925985  0.38297503  0.16090607  1
  O  O84  1  0.71394824  0.39724267  0.84150286  1
  O  O85  1  0.21394824  0.10275733  0.65849714  1
  O  O86  1  0.28605176  0.89724267  0.15849714  1
  O  O87  1  0.78605176  0.60275733  0.34150286  1
  O  O88  1  0.28605176  0.60275733  0.15849714  1
  O  O89  1  0.78605176  0.89724267  0.34150286  1
  O  O90  1  0.71394824  0.10275733  0.84150286  1
  O  O91  1  0.21394824  0.39724267  0.65849714  1
  O  O92  1  0.55625623  0.47917321  0.20247292  1
  O  O93  1  0.05625623  0.02082679  0.29752708  1
  O  O94  1  0.44374377  0.97917321  0.79752708  1
  O  O95  1  0.94374377  0.52082679  0.70247292  1
  O  O96  1  0.44374377  0.52082679  0.79752708  1
  O  O97  1  0.94374377  0.97917321  0.70247292  1
  O  O98  1  0.55625623  0.02082679  0.20247292  1
  O  O99  1  0.05625623  0.47917321  0.29752708  1
