# generated using pymatgen
data_P3H22C3N9O11
_symmetry_space_group_name_H-M   'P 1'
_cell_length_a   12.28103158
_cell_length_b   15.25978347
_cell_length_c   10.83694019
_cell_angle_alpha   90.00000000
_cell_angle_beta   97.46604830
_cell_angle_gamma   90.00000000
_symmetry_Int_Tables_number   1
_chemical_formula_structural   P3H22C3N9O11
_chemical_formula_sum   'P12 H88 C12 N36 O44'
_cell_volume   2013.68838637
_cell_formula_units_Z   4
loop_
 _symmetry_equiv_pos_site_id
 _symmetry_equiv_pos_as_xyz
  1  'x, y, z'
loop_
 _atom_site_type_symbol
 _atom_site_label
 _atom_site_symmetry_multiplicity
 _atom_site_fract_x
 _atom_site_fract_y
 _atom_site_fract_z
 _atom_site_occupancy
  P  P0  1  0.13930888  0.54400100  0.26117382  1
  P  P1  1  0.63930888  0.95599900  0.76117382  1
  P  P2  1  0.86069112  0.45599900  0.73882618  1
  P  P3  1  0.36069112  0.04400100  0.23882618  1
  P  P4  1  0.30144176  0.61402587  0.11363858  1
  P  P5  1  0.80144176  0.88597413  0.61363858  1
  P  P6  1  0.69855824  0.38597413  0.88636142  1
  P  P7  1  0.19855824  0.11402587  0.38636142  1
  P  P8  1  0.33849105  0.63077918  0.38087019  1
  P  P9  1  0.83849105  0.86922082  0.88087019  1
  P  P10  1  0.66150895  0.36922082  0.61912981  1
  P  P11  1  0.16150895  0.13077918  0.11912981  1
  H  H12  1  0.82542879  0.70780227  0.52751125  1
  H  H13  1  0.32542879  0.79219773  0.02751125  1
  H  H14  1  0.17457121  0.29219773  0.47248875  1
  H  H15  1  0.67457121  0.20780227  0.97248875  1
  H  H16  1  0.84375279  0.62118349  0.60914378  1
  H  H17  1  0.34375279  0.87881651  0.10914378  1
  H  H18  1  0.15624721  0.37881651  0.39085622  1
  H  H19  1  0.65624721  0.12118349  0.89085622  1
  H  H20  1  0.82401286  0.68633234  0.97272731  1
  H  H21  1  0.32401286  0.81366766  0.47272731  1
  H  H22  1  0.17598714  0.31366766  0.02727269  1
  H  H23  1  0.67598714  0.18633234  0.52727269  1
  H  H24  1  0.85254021  0.59799717  0.90891372  1
  H  H25  1  0.35254021  0.90200283  0.40891372  1
  H  H26  1  0.14745979  0.40200283  0.09108628  1
  H  H27  1  0.64745979  0.09799717  0.59108628  1
  H  H28  1  0.51993868  0.88438644  0.30205256  1
  H  H29  1  0.01993868  0.61561356  0.80205256  1
  H  H30  1  0.48006132  0.11561356  0.69794744  1
  H  H31  1  0.98006132  0.38438644  0.19794744  1
  H  H32  1  0.63497996  0.84254190  0.39867022  1
  H  H33  1  0.13497996  0.65745810  0.89867022  1
  H  H34  1  0.36502004  0.15745810  0.60132978  1
  H  H35  1  0.86502004  0.34254190  0.10132978  1
  H  H36  1  0.14188826  0.64462503  0.52603266  1
  H  H37  1  0.64188826  0.85537497  0.02603266  1
  H  H38  1  0.85811174  0.35537497  0.47396734  1
  H  H39  1  0.35811174  0.14462503  0.97396734  1
  H  H40  1  0.01429791  0.63280464  0.57829197  1
  H  H41  1  0.51429791  0.86719536  0.07829197  1
  H  H42  1  0.98570209  0.36719536  0.42170803  1
  H  H43  1  0.48570209  0.13280464  0.92170803  1
  H  H44  1  0.29402029  0.68173415  0.81766868  1
  H  H45  1  0.79402029  0.81826585  0.31766868  1
  H  H46  1  0.70597971  0.31826585  0.18233132  1
  H  H47  1  0.20597971  0.18173415  0.68233132  1
  H  H48  1  0.29210493  0.68887773  0.65334966  1
  H  H49  1  0.79210493  0.81112227  0.15334966  1
  H  H50  1  0.70789507  0.31112227  0.34665034  1
  H  H51  1  0.20789507  0.18887773  0.84665034  1
  H  H52  1  0.58411101  0.58184902  0.36307149  1
  H  H53  1  0.08411101  0.91815098  0.86307149  1
  H  H54  1  0.41588899  0.41815098  0.63692851  1
  H  H55  1  0.91588899  0.08184902  0.13692851  1
  H  H56  1  0.22282094  0.90122200  0.92423528  1
  H  H57  1  0.72282094  0.59877800  0.42423528  1
  H  H58  1  0.77717906  0.09877800  0.07576472  1
  H  H59  1  0.27717906  0.40122200  0.57576472  1
  H  H60  1  0.54264358  0.55289601  0.14408716  1
  H  H61  1  0.04264358  0.94710399  0.64408716  1
  H  H62  1  0.45735642  0.44710399  0.85591284  1
  H  H63  1  0.95735642  0.05289601  0.35591284  1
  H  H64  1  0.64968907  0.53260175  0.05922945  1
  H  H65  1  0.14968907  0.96739825  0.55922945  1
  H  H66  1  0.35031093  0.46739825  0.94077055  1
  H  H67  1  0.85031093  0.03260175  0.44077055  1
  H  H68  1  0.86318049  0.57844387  0.30387498  1
  H  H69  1  0.36318049  0.92155613  0.80387498  1
  H  H70  1  0.13681951  0.42155613  0.69612502  1
  H  H71  1  0.63681951  0.07844387  0.19612502  1
  H  H72  1  0.33038653  0.92215013  0.64302688  1
  H  H73  1  0.83038653  0.57784987  0.14302688  1
  H  H74  1  0.66961347  0.07784987  0.35697312  1
  H  H75  1  0.16961347  0.42215013  0.85697312  1
  H  H76  1  0.57990235  0.53822065  0.74145546  1
  H  H77  1  0.07990235  0.96177935  0.24145546  1
  H  H78  1  0.42009765  0.46177935  0.25854454  1
  H  H79  1  0.92009765  0.03822065  0.75854454  1
  H  H80  1  0.52064878  0.57460181  0.59344578  1
  H  H81  1  0.02064878  0.92539819  0.09344578  1
  H  H82  1  0.47935122  0.42539819  0.40655422  1
  H  H83  1  0.97935122  0.07460181  0.90655422  1
  H  H84  1  0.60146906  0.75269909  0.87005010  1
  H  H85  1  0.10146906  0.74730091  0.37005010  1
  H  H86  1  0.39853094  0.24730091  0.12994990  1
  H  H87  1  0.89853094  0.25269909  0.62994990  1
  H  H88  1  0.63268748  0.64290649  0.89734841  1
  H  H89  1  0.13268748  0.85709351  0.39734841  1
  H  H90  1  0.36731252  0.35709351  0.10265159  1
  H  H91  1  0.86731252  0.14290649  0.60265159  1
  H  H92  1  0.01708852  0.70030790  0.18295181  1
  H  H93  1  0.51708852  0.79969210  0.68295181  1
  H  H94  1  0.98291148  0.29969210  0.81704819  1
  H  H95  1  0.48291148  0.20030790  0.31704819  1
  H  H96  1  0.97604231  0.77552652  0.06216552  1
  H  H97  1  0.47604231  0.72447348  0.56216552  1
  H  H98  1  0.02395769  0.22447348  0.93783448  1
  H  H99  1  0.52395769  0.27552652  0.43783448  1
  C  C100  1  0.64725257  0.84379885  0.21361111  1
  C  C101  1  0.14725257  0.65620115  0.71361111  1
  C  C102  1  0.35274743  0.15620115  0.78638889  1
  C  C103  1  0.85274743  0.34379885  0.28638889  1
  C  C104  1  0.69865473  0.56829204  0.24030119  1
  C  C105  1  0.19865473  0.93170796  0.74030119  1
  C  C106  1  0.30134527  0.43170796  0.75969881  1
  C  C107  1  0.80134527  0.06829204  0.25969881  1
  C  C108  1  0.55077494  0.67079106  0.72538513  1
  C  C109  1  0.05077494  0.82920894  0.22538513  1
  C  C110  1  0.44922506  0.32920894  0.27461487  1
  C  C111  1  0.94922506  0.17079106  0.77461487  1
  N  N112  1  0.59246827  0.85062653  0.31217462  1
  N  N113  1  0.09246827  0.64937347  0.81217462  1
  N  N114  1  0.40753173  0.14937347  0.68782538  1
  N  N115  1  0.90753173  0.35062653  0.18782538  1
  N  N116  1  0.59739002  0.85977863  0.09864107  1
  N  N117  1  0.09739002  0.64022137  0.59864107  1
  N  N118  1  0.40260998  0.14022137  0.90135893  1
  N  N119  1  0.90260998  0.35977863  0.40135893  1
  N  N120  1  0.25300989  0.68068810  0.72973893  1
  N  N121  1  0.75300989  0.81931190  0.22973893  1
  N  N122  1  0.74699011  0.31931190  0.27026107  1
  N  N123  1  0.24699011  0.18068810  0.77026107  1
  N  N124  1  0.66565016  0.57936391  0.35151507  1
  N  N125  1  0.16565016  0.92063609  0.85151507  1
  N  N126  1  0.33434984  0.42063609  0.64848493  1
  N  N127  1  0.83434984  0.07936391  0.14848493  1
  N  N128  1  0.12488583  0.94228803  0.63804748  1
  N  N129  1  0.62488583  0.55771197  0.13804748  1
  N  N130  1  0.87511417  0.05771197  0.36195252  1
  N  N131  1  0.37511417  0.44228803  0.86195252  1
  N  N132  1  0.30642459  0.93378595  0.72912107  1
  N  N133  1  0.80642459  0.56621405  0.22912107  1
  N  N134  1  0.69357541  0.06621405  0.27087893  1
  N  N135  1  0.19357541  0.43378595  0.77087893  1
  N  N136  1  0.04903426  0.91176785  0.18433242  1
  N  N137  1  0.54903426  0.58823215  0.68433242  1
  N  N138  1  0.95096574  0.08823215  0.81566758  1
  N  N139  1  0.45096574  0.41176785  0.31566758  1
  N  N140  1  0.58813781  0.68879378  0.84499090  1
  N  N141  1  0.08813781  0.81120622  0.34499090  1
  N  N142  1  0.41186219  0.31120622  0.15500910  1
  N  N143  1  0.91186219  0.18879378  0.65500910  1
  N  N144  1  0.01197207  0.76346237  0.15028305  1
  N  N145  1  0.51197207  0.73653763  0.65028305  1
  N  N146  1  0.98802793  0.23653763  0.84971695  1
  N  N147  1  0.48802793  0.26346237  0.34971695  1
  O  O148  1  0.11328157  0.44782887  0.24568060  1
  O  O149  1  0.61328157  0.05217113  0.74568060  1
  O  O150  1  0.88671843  0.55217113  0.75431940  1
  O  O151  1  0.38671843  0.94782887  0.25431940  1
  O  O152  1  0.05634675  0.60712683  0.29881688  1
  O  O153  1  0.55634675  0.89287317  0.79881688  1
  O  O154  1  0.94365325  0.39287317  0.70118312  1
  O  O155  1  0.44365325  0.10712683  0.20118312  1
  O  O156  1  0.17904932  0.57931405  0.13198217  1
  O  O157  1  0.67904932  0.92068595  0.63198217  1
  O  O158  1  0.82095068  0.42068595  0.86801783  1
  O  O159  1  0.32095068  0.07931405  0.36801783  1
  O  O160  1  0.33293994  0.67116956  0.24096129  1
  O  O161  1  0.83293994  0.82883044  0.74096129  1
  O  O162  1  0.66706006  0.32883044  0.75903871  1
  O  O163  1  0.16706006  0.17116956  0.25903871  1
  O  O164  1  0.37788027  0.53699576  0.11296835  1
  O  O165  1  0.87788027  0.96300424  0.61296835  1
  O  O166  1  0.62211973  0.46300424  0.88703165  1
  O  O167  1  0.12211973  0.03699576  0.38703165  1
  O  O168  1  0.28736984  0.67742712  0.00714156  1
  O  O169  1  0.78736984  0.82257288  0.50714156  1
  O  O170  1  0.71263016  0.32257288  0.99285844  1
  O  O171  1  0.21263016  0.17742712  0.49285844  1
  O  O172  1  0.25310261  0.54902484  0.35788672  1
  O  O173  1  0.75310261  0.95097516  0.85788672  1
  O  O174  1  0.74689739  0.45097516  0.64211328  1
  O  O175  1  0.24689739  0.04902484  0.14211328  1
  O  O176  1  0.79288938  0.80182794  0.96183345  1
  O  O177  1  0.29288938  0.69817206  0.46183345  1
  O  O178  1  0.20711062  0.19817206  0.03816655  1
  O  O179  1  0.70711062  0.30182794  0.53816655  1
  O  O180  1  0.95034790  0.90586823  0.92224054  1
  O  O181  1  0.45034790  0.59413177  0.42224054  1
  O  O182  1  0.04965210  0.09413177  0.07775946  1
  O  O183  1  0.54965210  0.40586823  0.57775946  1
  O  O184  1  0.84357662  0.64457341  0.52445290  1
  O  O185  1  0.34357662  0.85542659  0.02445290  1
  O  O186  1  0.15642338  0.35542659  0.47554710  1
  O  O187  1  0.65642338  0.14457341  0.97554710  1
  O  O188  1  0.83695071  0.62316701  0.98834789  1
  O  O189  1  0.33695071  0.87683299  0.48834789  1
  O  O190  1  0.16304929  0.37683299  0.01165211  1
  O  O191  1  0.66304929  0.12316701  0.51165211  1
