# generated using pymatgen
data_K3P3H4O11
_symmetry_space_group_name_H-M   'P 1'
_cell_length_a   7.64027834
_cell_length_b   11.33640134
_cell_length_c   26.94894873
_cell_angle_alpha   90.00000000
_cell_angle_beta   90.00000000
_cell_angle_gamma   90.00000000
_symmetry_Int_Tables_number   1
_chemical_formula_structural   K3P3H4O11
_chemical_formula_sum   'K24 P24 H32 O88'
_cell_volume   2334.13634651
_cell_formula_units_Z   8
loop_
 _symmetry_equiv_pos_site_id
 _symmetry_equiv_pos_as_xyz
  1  'x, y, z'
loop_
 _atom_site_type_symbol
 _atom_site_label
 _atom_site_symmetry_multiplicity
 _atom_site_fract_x
 _atom_site_fract_y
 _atom_site_fract_z
 _atom_site_occupancy
  K  K0  1  0.76678512  0.49056303  0.03548046  1
  K  K1  1  0.26678512  0.00943697  0.96451954  1
  K  K2  1  0.23321488  0.99056303  0.46451954  1
  K  K3  1  0.73321488  0.50943697  0.53548046  1
  K  K4  1  0.23321488  0.50943697  0.96451954  1
  K  K5  1  0.73321488  0.99056303  0.03548046  1
  K  K6  1  0.76678512  0.00943697  0.53548046  1
  K  K7  1  0.26678512  0.49056303  0.46451954  1
  K  K8  1  0.73000100  0.48245059  0.20665468  1
  K  K9  1  0.23000100  0.01754941  0.79334532  1
  K  K10  1  0.26999900  0.98245059  0.29334532  1
  K  K11  1  0.76999900  0.51754941  0.70665468  1
  K  K12  1  0.26999900  0.51754941  0.79334532  1
  K  K13  1  0.76999900  0.98245059  0.20665468  1
  K  K14  1  0.73000100  0.01754941  0.70665468  1
  K  K15  1  0.23000100  0.48245059  0.29334532  1
  K  K16  1  0.86594412  0.02755601  0.37551150  1
  K  K17  1  0.36594412  0.47244399  0.62448850  1
  K  K18  1  0.13405588  0.52755601  0.12448850  1
  K  K19  1  0.63405588  0.97244399  0.87551150  1
  K  K20  1  0.13405588  0.97244399  0.62448850  1
  K  K21  1  0.63405588  0.52755601  0.37551150  1
  K  K22  1  0.86594412  0.47244399  0.87551150  1
  K  K23  1  0.36594412  0.02755601  0.12448850  1
  P  P24  1  0.60991729  0.24395404  0.45993935  1
  P  P25  1  0.10991729  0.25604596  0.54006065  1
  P  P26  1  0.39008271  0.74395404  0.04006065  1
  P  P27  1  0.89008271  0.75604596  0.95993935  1
  P  P28  1  0.39008271  0.75604596  0.54006065  1
  P  P29  1  0.89008271  0.74395404  0.45993935  1
  P  P30  1  0.60991729  0.25604596  0.95993935  1
  P  P31  1  0.10991729  0.24395404  0.04006065  1
  P  P32  1  0.59544456  0.24883923  0.29155141  1
  P  P33  1  0.09544456  0.25116077  0.70844859  1
  P  P34  1  0.40455544  0.74883923  0.20844859  1
  P  P35  1  0.90455544  0.75116077  0.79155141  1
  P  P36  1  0.40455544  0.75116077  0.70844859  1
  P  P37  1  0.90455544  0.74883923  0.29155141  1
  P  P38  1  0.59544456  0.25116077  0.79155141  1
  P  P39  1  0.09544456  0.24883923  0.20844859  1
  P  P40  1  0.83909307  0.22210123  0.12279635  1
  P  P41  1  0.33909307  0.27789877  0.87720365  1
  P  P42  1  0.16090693  0.72210123  0.37720365  1
  P  P43  1  0.66090693  0.77789877  0.62279635  1
  P  P44  1  0.16090693  0.77789877  0.87720365  1
  P  P45  1  0.66090693  0.72210123  0.12279635  1
  P  P46  1  0.83909307  0.27789877  0.62279635  1
  P  P47  1  0.33909307  0.22210123  0.37720365  1
  H  H48  1  0.94997529  0.19764574  0.27700813  1
  H  H49  1  0.44997529  0.30235426  0.72299187  1
  H  H50  1  0.05002471  0.69764574  0.22299187  1
  H  H51  1  0.55002471  0.80235426  0.77700813  1
  H  H52  1  0.05002471  0.80235426  0.72299187  1
  H  H53  1  0.55002471  0.69764574  0.27700813  1
  H  H54  1  0.94997529  0.30235426  0.77700813  1
  H  H55  1  0.44997529  0.19764574  0.22299187  1
  H  H56  1  0.93248187  0.24481159  0.97326568  1
  H  H57  1  0.43248187  0.25518841  0.02673432  1
  H  H58  1  0.06751813  0.74481159  0.52673432  1
  H  H59  1  0.56751813  0.75518841  0.47326568  1
  H  H60  1  0.06751813  0.75518841  0.02673432  1
  H  H61  1  0.56751813  0.74481159  0.97326568  1
  H  H62  1  0.93248187  0.25518841  0.47326568  1
  H  H63  1  0.43248187  0.24481159  0.52673432  1
  H  H64  1  0.88482038  0.32772535  0.34540281  1
  H  H65  1  0.38482038  0.17227465  0.65459719  1
  H  H66  1  0.11517962  0.82772535  0.15459719  1
  H  H67  1  0.61517962  0.67227465  0.84540281  1
  H  H68  1  0.11517962  0.67227465  0.65459719  1
  H  H69  1  0.61517962  0.82772535  0.34540281  1
  H  H70  1  0.88482038  0.17227465  0.84540281  1
  H  H71  1  0.38482038  0.32772535  0.15459719  1
  H  H72  1  0.53707383  0.38183039  0.12398764  1
  H  H73  1  0.03707383  0.11816961  0.87601236  1
  H  H74  1  0.46292617  0.88183039  0.37601236  1
  H  H75  1  0.96292617  0.61816961  0.62398764  1
  H  H76  1  0.46292617  0.61816961  0.87601236  1
  H  H77  1  0.96292617  0.88183039  0.12398764  1
  H  H78  1  0.53707383  0.11816961  0.62398764  1
  H  H79  1  0.03707383  0.38183039  0.37601236  1
  O  O80  1  0.60300603  0.37603768  0.45603598  1
  O  O81  1  0.10300603  0.12396232  0.54396402  1
  O  O82  1  0.39699397  0.87603768  0.04396402  1
  O  O83  1  0.89699397  0.62396232  0.95603598  1
  O  O84  1  0.39699397  0.62396232  0.54396402  1
  O  O85  1  0.89699397  0.87603768  0.45603598  1
  O  O86  1  0.60300603  0.12396232  0.95603598  1
  O  O87  1  0.10300603  0.37603768  0.04396402  1
  O  O88  1  0.56213425  0.37881031  0.28639440  1
  O  O89  1  0.06213425  0.12118969  0.71360560  1
  O  O90  1  0.43786575  0.87881031  0.21360560  1
  O  O91  1  0.93786575  0.62118969  0.78639440  1
  O  O92  1  0.43786575  0.62118969  0.71360560  1
  O  O93  1  0.93786575  0.87881031  0.28639440  1
  O  O94  1  0.56213425  0.12118969  0.78639440  1
  O  O95  1  0.06213425  0.37881031  0.21360560  1
  O  O96  1  0.77397030  0.20930707  0.31032016  1
  O  O97  1  0.27397030  0.29069293  0.68967984  1
  O  O98  1  0.22602970  0.70930707  0.18967984  1
  O  O99  1  0.72602970  0.79069293  0.81032016  1
  O  O100  1  0.22602970  0.79069293  0.68967984  1
  O  O101  1  0.72602970  0.70930707  0.31032016  1
  O  O102  1  0.77397030  0.29069293  0.81032016  1
  O  O103  1  0.27397030  0.20930707  0.18967984  1
  O  O104  1  0.69293642  0.13414740  0.12024559  1
  O  O105  1  0.19293642  0.36585260  0.87975441  1
  O  O106  1  0.30706358  0.63414740  0.37975441  1
  O  O107  1  0.80706358  0.86585260  0.62024559  1
  O  O108  1  0.30706358  0.86585260  0.87975441  1
  O  O109  1  0.80706358  0.63414740  0.12024559  1
  O  O110  1  0.69293642  0.36585260  0.62024559  1
  O  O111  1  0.19293642  0.13414740  0.37975441  1
  O  O112  1  0.78552245  0.18288196  0.45283659  1
  O  O113  1  0.28552245  0.31711804  0.54716341  1
  O  O114  1  0.21447755  0.68288196  0.04716341  1
  O  O115  1  0.71447755  0.81711804  0.95283659  1
  O  O116  1  0.21447755  0.81711804  0.54716341  1
  O  O117  1  0.71447755  0.68288196  0.45283659  1
  O  O118  1  0.78552245  0.31711804  0.95283659  1
  O  O119  1  0.28552245  0.18288196  0.04716341  1
  O  O120  1  0.80380839  0.35196809  0.12051364  1
  O  O121  1  0.30380839  0.14803191  0.87948636  1
  O  O122  1  0.19619161  0.85196809  0.37948636  1
  O  O123  1  0.69619161  0.64803191  0.62051364  1
  O  O124  1  0.19619161  0.64803191  0.87948636  1
  O  O125  1  0.69619161  0.85196809  0.12051364  1
  O  O126  1  0.80380839  0.14803191  0.62051364  1
  O  O127  1  0.30380839  0.35196809  0.37948636  1
  O  O128  1  0.56304325  0.17802554  0.24118423  1
  O  O129  1  0.06304325  0.32197446  0.75881577  1
  O  O130  1  0.43695675  0.67802554  0.25881577  1
  O  O131  1  0.93695675  0.82197446  0.74118423  1
  O  O132  1  0.43695675  0.82197446  0.75881577  1
  O  O133  1  0.93695675  0.67802554  0.24118423  1
  O  O134  1  0.56304325  0.32197446  0.74118423  1
  O  O135  1  0.06304325  0.17802554  0.25881577  1
  O  O136  1  0.94591672  0.18874135  0.17335783  1
  O  O137  1  0.44591672  0.31125865  0.82664217  1
  O  O138  1  0.05408328  0.68874135  0.32664217  1
  O  O139  1  0.55408328  0.81125865  0.67335783  1
  O  O140  1  0.05408328  0.81125865  0.82664217  1
  O  O141  1  0.55408328  0.68874135  0.17335783  1
  O  O142  1  0.94591672  0.31125865  0.67335783  1
  O  O143  1  0.44591672  0.18874135  0.32664217  1
  O  O144  1  0.97836159  0.18142734  0.08030649  1
  O  O145  1  0.47836159  0.31857266  0.91969351  1
  O  O146  1  0.02163841  0.68142734  0.41969351  1
  O  O147  1  0.52163841  0.81857266  0.58030649  1
  O  O148  1  0.02163841  0.81857266  0.91969351  1
  O  O149  1  0.52163841  0.68142734  0.08030649  1
  O  O150  1  0.97836159  0.31857266  0.58030649  1
  O  O151  1  0.47836159  0.18142734  0.41969351  1
  O  O152  1  0.03450258  0.30441642  0.48881550  1
  O  O153  1  0.53450258  0.19558358  0.51118450  1
  O  O154  1  0.96549742  0.80441642  0.01118450  1
  O  O155  1  0.46549742  0.69558358  0.98881550  1
  O  O156  1  0.96549742  0.69558358  0.51118450  1
  O  O157  1  0.46549742  0.80441642  0.48881550  1
  O  O158  1  0.03450258  0.19558358  0.98881550  1
  O  O159  1  0.53450258  0.30441642  0.01118450  1
  O  O160  1  0.93287830  0.40374538  0.35698825  1
  O  O161  1  0.43287830  0.09625462  0.64301175  1
  O  O162  1  0.06712170  0.90374538  0.14301175  1
  O  O163  1  0.56712170  0.59625462  0.85698825  1
  O  O164  1  0.06712170  0.59625462  0.64301175  1
  O  O165  1  0.56712170  0.90374538  0.35698825  1
  O  O166  1  0.93287830  0.09625462  0.85698825  1
  O  O167  1  0.43287830  0.40374538  0.14301175  1
