# generated using pymatgen
data_Ag2H12S(NO)4
_symmetry_space_group_name_H-M   'P 1'
_cell_length_a   8.58282316
_cell_length_b   8.58282093
_cell_length_c   6.45047034
_cell_angle_alpha   89.99997435
_cell_angle_beta   89.99998222
_cell_angle_gamma   90.00001375
_symmetry_Int_Tables_number   1
_chemical_formula_structural   Ag2H12S(NO)4
_chemical_formula_sum   'Ag4 H24 S2 N8 O8'
_cell_volume   475.17282847
_cell_formula_units_Z   2
loop_
 _symmetry_equiv_pos_site_id
 _symmetry_equiv_pos_as_xyz
  1  'x, y, z'
loop_
 _atom_site_type_symbol
 _atom_site_label
 _atom_site_symmetry_multiplicity
 _atom_site_fract_x
 _atom_site_fract_y
 _atom_site_fract_z
 _atom_site_occupancy
  Ag  Ag0  1  0.00000008  0.50000019  0.98514302  1
  Ag  Ag1  1  0.50000088  0.00000082  0.51485348  1
  Ag  Ag2  1  0.50000003  0.00000007  0.01485735  1
  Ag  Ag3  1  0.00000015  0.50000017  0.48514256  1
  H  H4  1  0.70208180  0.58475308  0.88022735  1
  H  H5  1  0.20208229  0.91524666  0.61977313  1
  H  H6  1  0.29791823  0.41524695  0.88022739  1
  H  H7  1  0.79791782  0.08475304  0.61977299  1
  H  H8  1  0.58475304  0.29791792  0.11977267  1
  H  H9  1  0.91524721  0.79791816  0.38022752  1
  H  H10  1  0.41524700  0.70208197  0.11977290  1
  H  H11  1  0.08475285  0.20208182  0.38022735  1
  H  H12  1  0.78755471  0.71857090  0.02917440  1
  H  H13  1  0.28755504  0.78142911  0.47082597  1
  H  H14  1  0.21244528  0.28142930  0.02917416  1
  H  H15  1  0.71244501  0.21857071  0.47082617  1
  H  H16  1  0.71857084  0.21244509  0.97082596  1
  H  H17  1  0.78142957  0.71244510  0.52917401  1
  H  H18  1  0.28142906  0.78755472  0.97082598  1
  H  H19  1  0.21857043  0.28755487  0.52917414  1
  H  H20  1  0.71659735  0.55565799  0.13653225  1
  H  H21  1  0.21659768  0.94434192  0.36346837  1
  H  H22  1  0.28340264  0.44434196  0.13653228  1
  H  H23  1  0.78340237  0.05565794  0.36346785  1
  H  H24  1  0.55565816  0.28340241  0.86346778  1
  H  H25  1  0.94434188  0.78340278  0.63653258  1
  H  H26  1  0.44434190  0.71659746  0.86346782  1
  H  H27  1  0.05565801  0.21659730  0.63653238  1
  S  S28  1  0.50000020  0.49999997  0.50000009  1
  S  S29  1  0.99999988  0.00000001  -0.00000007  1
  N  N30  1  0.77234382  0.60048882  0.00796663  1
  N  N31  1  0.27234432  0.89951097  0.49203426  1
  N  N32  1  0.22765598  0.39951110  0.00796649  1
  N  N33  1  0.72765568  0.10048874  0.49203388  1
  N  N34  1  0.60048876  0.22765587  0.99203374  1
  N  N35  1  0.89951139  0.72765596  0.50796648  1
  N  N36  1  0.39951132  0.77234399  0.99203357  1
  N  N37  1  0.10048869  0.27234422  0.50796633  1
  O  O38  1  0.56506286  0.62724101  0.63344332  1
  O  O39  1  0.06506269  0.87275883  0.86655602  1
  O  O40  1  0.43493709  0.37275849  0.63344413  1
  O  O41  1  0.93493729  0.12724118  0.86655597  1
  O  O42  1  0.62724093  0.43493683  0.36655712  1
  O  O43  1  0.87275846  0.93493763  0.13344307  1
  O  O44  1  0.37275841  0.56506306  0.36655601  1
  O  O45  1  0.12724093  0.06506293  0.13344313  1
