# generated using pymatgen
data_Ca2MgB2H16(CO9)2
_symmetry_space_group_name_H-M   'P 1'
_cell_length_a   11.16318061
_cell_length_b   6.80007098
_cell_length_c   10.69058118
_cell_angle_alpha   90.00000000
_cell_angle_beta   116.55727604
_cell_angle_gamma   90.00000000
_symmetry_Int_Tables_number   1
_chemical_formula_structural   Ca2MgB2H16(CO9)2
_chemical_formula_sum   'Ca4 Mg2 B4 H32 C4 O36'
_cell_volume   725.90062231
_cell_formula_units_Z   2
loop_
 _symmetry_equiv_pos_site_id
 _symmetry_equiv_pos_as_xyz
  1  'x, y, z'
loop_
 _atom_site_type_symbol
 _atom_site_label
 _atom_site_symmetry_multiplicity
 _atom_site_fract_x
 _atom_site_fract_y
 _atom_site_fract_z
 _atom_site_occupancy
  Ca  Ca0  1  0.20471935  0.50079526  0.26296372  1
  Ca  Ca1  1  0.70471935  0.99920474  0.76296372  1
  Ca  Ca2  1  0.79528065  0.49920474  0.73703628  1
  Ca  Ca3  1  0.29528065  0.00079526  0.23703628  1
  Mg  Mg4  1  0.00000000  0.50000000  0.50000000  1
  Mg  Mg5  1  0.50000000  0.00000000  0.00000000  1
  B  B6  1  0.99544065  0.20350635  0.25177631  1
  B  B7  1  0.49544065  0.29649365  0.75177631  1
  B  B8  1  0.00455935  0.79649365  0.74822369  1
  B  B9  1  0.50455935  0.70350635  0.24822369  1
  H  H10  1  0.37683623  0.67053403  0.85398821  1
  H  H11  1  0.87683623  0.82946597  0.35398821  1
  H  H12  1  0.62316377  0.32946597  0.14601179  1
  H  H13  1  0.12316377  0.17053403  0.64601179  1
  H  H14  1  0.32843378  0.61346845  0.08952757  1
  H  H15  1  0.82843378  0.88653155  0.58952757  1
  H  H16  1  0.67156622  0.38653155  0.91047243  1
  H  H17  1  0.17156622  0.11346845  0.41047243  1
  H  H18  1  0.16695725  0.96368970  0.87295049  1
  H  H19  1  0.66695725  0.53631030  0.37295049  1
  H  H20  1  0.83304275  0.03631030  0.12704951  1
  H  H21  1  0.33304275  0.46368970  0.62704951  1
  H  H22  1  0.10248596  0.81742814  0.62262027  1
  H  H23  1  0.60248596  0.68257186  0.12262027  1
  H  H24  1  0.89751404  0.18257186  0.37737973  1
  H  H25  1  0.39751404  0.31742814  0.87737973  1
  H  H26  1  0.10850602  0.56467904  0.87976886  1
  H  H27  1  0.60850602  0.93532096  0.37976886  1
  H  H28  1  0.89149398  0.43532096  0.12023114  1
  H  H29  1  0.39149398  0.06467904  0.62023114  1
  H  H30  1  0.04640498  0.75322955  0.01808609  1
  H  H31  1  0.54640498  0.74677045  0.51808609  1
  H  H32  1  0.95359502  0.24677045  0.98191391  1
  H  H33  1  0.45359502  0.25322955  0.48191391  1
  H  H34  1  0.31924120  0.84443230  0.75094518  1
  H  H35  1  0.81924120  0.65556770  0.25094518  1
  H  H36  1  0.68075880  0.15556770  0.24905482  1
  H  H37  1  0.18075880  0.34443230  0.74905482  1
  H  H38  1  0.01624486  0.86961284  0.13464800  1
  H  H39  1  0.51624486  0.63038716  0.63464800  1
  H  H40  1  0.98375514  0.13038716  0.86535200  1
  H  H41  1  0.48375514  0.36961284  0.36535200  1
  C  C42  1  0.22297259  0.76940104  0.47638267  1
  C  C43  1  0.72297259  0.73059896  0.97638267  1
  C  C44  1  0.77702741  0.23059896  0.52361733  1
  C  C45  1  0.27702741  0.26940104  0.02361733  1
  O  O46  1  0.29310353  0.78919505  0.40827663  1
  O  O47  1  0.79310353  0.71080495  0.90827663  1
  O  O48  1  0.70689647  0.21080495  0.59172337  1
  O  O49  1  0.20689647  0.28919505  0.09172337  1
  O  O50  1  0.15599295  0.60564578  0.45816577  1
  O  O51  1  0.65599295  0.89435422  0.95816577  1
  O  O52  1  0.84400705  0.39435422  0.54183423  1
  O  O53  1  0.34400705  0.10564578  0.04183423  1
  O  O54  1  0.08621838  0.79670914  0.11758659  1
  O  O55  1  0.58621838  0.70329086  0.61758659  1
  O  O56  1  0.91378162  0.20329086  0.88241341  1
  O  O57  1  0.41378162  0.29670914  0.38241341  1
  O  O58  1  0.22098094  0.90754300  0.55952581  1
  O  O59  1  0.72098094  0.59245700  0.05952581  1
  O  O60  1  0.77901906  0.09245700  0.44047419  1
  O  O61  1  0.27901906  0.40754300  0.94047419  1
  O  O62  1  0.95570773  0.27510629  0.35806004  1
  O  O63  1  0.45570773  0.22489371  0.85806004  1
  O  O64  1  0.04429227  0.72489371  0.64193996  1
  O  O65  1  0.54429227  0.77510629  0.14193996  1
  O  O66  1  0.92818978  0.01600501  0.19002238  1
  O  O67  1  0.42818978  0.48399499  0.69002238  1
  O  O68  1  0.07181022  0.98399499  0.80997762  1
  O  O69  1  0.57181022  0.51600501  0.30997762  1
  O  O70  1  0.97404531  0.35864792  0.14592191  1
  O  O71  1  0.47404531  0.14135208  0.64592191  1
  O  O72  1  0.02595469  0.64135208  0.85407809  1
  O  O73  1  0.52595469  0.85864792  0.35407809  1
  O  O74  1  0.85718895  0.68889543  0.35107406  1
  O  O75  1  0.35718895  0.81110457  0.85107406  1
  O  O76  1  0.14281105  0.31110457  0.64892594  1
  O  O77  1  0.64281105  0.18889543  0.14892594  1
  O  O78  1  0.14324869  0.17023353  0.31690327  1
  O  O79  1  0.64324869  0.32976647  0.81690327  1
  O  O80  1  0.85675131  0.82976647  0.68309673  1
  O  O81  1  0.35675131  0.67023353  0.18309673  1
