# generated using pymatgen
data_CaAl2Si2(H2O5)2
_symmetry_space_group_name_H-M   'P 1'
_cell_length_a   5.35167313
_cell_length_b   5.35167313
_cell_length_c   13.21534721
_cell_angle_alpha   90.00000000
_cell_angle_beta   90.00000000
_cell_angle_gamma   66.86678405
_symmetry_Int_Tables_number   1
_chemical_formula_structural   CaAl2Si2(H2O5)2
_chemical_formula_sum   'Ca2 Al4 Si4 H8 O20'
_cell_volume   348.05975963
_cell_formula_units_Z   2
loop_
 _symmetry_equiv_pos_site_id
 _symmetry_equiv_pos_as_xyz
  1  'x, y, z'
loop_
 _atom_site_type_symbol
 _atom_site_label
 _atom_site_symmetry_multiplicity
 _atom_site_fract_x
 _atom_site_fract_y
 _atom_site_fract_z
 _atom_site_occupancy
  Ca  Ca0  1  0.33544930  0.33544930  0.25000000  1
  Ca  Ca1  1  0.66455070  0.66455070  0.75000000  1
  Al  Al2  1  0.00000000  0.50000000  0.50000000  1
  Al  Al3  1  0.50000000  0.00000000  0.50000000  1
  Al  Al4  1  0.00000000  0.50000000  0.00000000  1
  Al  Al5  1  0.50000000  0.00000000  0.00000000  1
  Si  Si6  1  0.98114868  0.98114868  0.36766305  1
  Si  Si7  1  0.01885132  0.01885132  0.63233695  1
  Si  Si8  1  0.98114868  0.98114868  0.13233695  1
  Si  Si9  1  0.01885132  0.01885132  0.86766305  1
  H  H10  1  0.66279259  0.66279259  0.31273235  1
  H  H11  1  0.33720741  0.33720741  0.68726765  1
  H  H12  1  0.66279259  0.66279259  0.18726765  1
  H  H13  1  0.33720741  0.33720741  0.81273235  1
  H  H14  1  0.53442556  0.53442556  0.43821434  1
  H  H15  1  0.46557444  0.46557444  0.56178566  1
  H  H16  1  0.53442556  0.53442556  0.06178566  1
  H  H17  1  0.46557444  0.46557444  0.93821434  1
  O  O18  1  0.04833490  0.04833490  0.25000000  1
  O  O19  1  0.95166510  0.95166510  0.75000000  1
  O  O20  1  0.10943514  0.65149033  0.38460556  1
  O  O21  1  0.34850967  0.89056486  0.61539444  1
  O  O22  1  0.10943514  0.65149033  0.11539444  1
  O  O23  1  0.34850967  0.89056486  0.88460556  1
  O  O24  1  0.89056486  0.34850967  0.61539444  1
  O  O25  1  0.65149033  0.10943514  0.38460556  1
  O  O26  1  0.89056486  0.34850967  0.88460556  1
  O  O27  1  0.65149033  0.10943514  0.11539444  1
  O  O28  1  0.13860946  0.13860946  0.43499636  1
  O  O29  1  0.86139054  0.86139054  0.56500364  1
  O  O30  1  0.13860946  0.13860946  0.06500364  1
  O  O31  1  0.86139054  0.86139054  0.93499636  1
  O  O32  1  0.64304595  0.64304595  0.44863994  1
  O  O33  1  0.35695405  0.35695405  0.55136006  1
  O  O34  1  0.64304595  0.64304595  0.05136006  1
  O  O35  1  0.35695405  0.35695405  0.94863994  1
  O  O36  1  0.60320017  0.60320017  0.25000000  1
  O  O37  1  0.39679983  0.39679983  0.75000000  1
