# generated using pymatgen
data_U3Cu2H10(CO10)2
_symmetry_space_group_name_H-M   'P 1'
_cell_length_a   7.89229872
_cell_length_b   6.99179733
_cell_length_c   7.82026029
_cell_angle_alpha   91.39534428
_cell_angle_beta   90.53345574
_cell_angle_gamma   95.36939812
_symmetry_Int_Tables_number   1
_chemical_formula_structural   U3Cu2H10(CO10)2
_chemical_formula_sum   'U3 Cu2 H10 C2 O20'
_cell_volume   429.48250040
_cell_formula_units_Z   1
loop_
 _symmetry_equiv_pos_site_id
 _symmetry_equiv_pos_as_xyz
  1  'x, y, z'
loop_
 _atom_site_type_symbol
 _atom_site_label
 _atom_site_symmetry_multiplicity
 _atom_site_fract_x
 _atom_site_fract_y
 _atom_site_fract_z
 _atom_site_occupancy
  U  U0  1  0.00000000  0.00000000  0.00000000  1
  U  U1  1  0.86324443  0.47819617  0.80485232  1
  U  U2  1  0.13675557  0.52180383  0.19514768  1
  Cu  Cu3  1  0.49758589  0.73426680  0.50345238  1
  Cu  Cu4  1  0.50241411  0.26573320  0.49654762  1
  H  H5  1  0.75937245  0.48112824  0.45964199  1
  H  H6  1  0.24062755  0.51887176  0.54035801  1
  H  H7  1  0.67273984  0.81429835  0.22670053  1
  H  H8  1  0.32726016  0.18570165  0.77329947  1
  H  H9  1  0.50553921  0.66792770  0.18148053  1
  H  H10  1  0.49446079  0.33207230  0.81851947  1
  H  H11  1  0.60961594  0.35764522  0.18836385  1
  H  H12  1  0.39038406  0.64235478  0.81163615  1
  H  H13  1  0.68198355  0.15922820  0.22945451  1
  H  H14  1  0.31801645  0.84077180  0.77054549  1
  C  C15  1  0.76881288  0.96641553  0.68625918  1
  C  C16  1  0.23118712  0.03358447  0.31374082  1
  O  O17  1  0.80802750  0.99023798  0.13937081  1
  O  O18  1  0.19197250  0.00976202  0.86062919  1
  O  O19  1  0.66583938  0.44297538  0.93145329  1
  O  O20  1  0.33416062  0.55702462  0.06854671  1
  O  O21  1  0.05362265  0.50558650  0.67356346  1
  O  O22  1  0.94637735  0.49441350  0.32643654  1
  O  O23  1  0.83076285  0.13169522  0.75184875  1
  O  O24  1  0.16923715  0.86830478  0.24815125  1
  O  O25  1  0.99561602  0.68476111  0.00172237  1
  O  O26  1  0.00438398  0.31523889  0.99827763  1
  O  O27  1  0.82032110  0.81958421  0.76402302  1
  O  O28  1  0.17967890  0.18041579  0.23597698  1
  O  O29  1  0.66780404  0.95536913  0.55788883  1
  O  O30  1  0.33219596  0.04463087  0.44211117  1
  O  O31  1  0.68554070  0.46309352  0.56113908  1
  O  O32  1  0.31445930  0.53690648  0.43886092  1
  O  O33  1  0.59307911  0.70816736  0.27098962  1
  O  O34  1  0.40692089  0.29183264  0.72901038  1
  O  O35  1  0.59147212  0.24414854  0.25930206  1
  O  O36  1  0.40852788  0.75585146  0.74069794  1
