# generated using pymatgen
data_Ca2HfO4
_symmetry_space_group_name_H-M   'P 1'
_cell_length_a   5.69338695
_cell_length_b   5.76344585
_cell_length_c   12.02541700
_cell_angle_alpha   90.00000000
_cell_angle_beta   90.00000000
_cell_angle_gamma   90.00000000
_symmetry_Int_Tables_number   1
_chemical_formula_structural   Ca2HfO4
_chemical_formula_sum   'Ca8 Hf4 O16'
_cell_volume   394.59635010
_cell_formula_units_Z   4
loop_
 _symmetry_equiv_pos_site_id
 _symmetry_equiv_pos_as_xyz
  1  'x, y, z'
loop_
 _atom_site_type_symbol
 _atom_site_label
 _atom_site_symmetry_multiplicity
 _atom_site_fract_x
 _atom_site_fract_y
 _atom_site_fract_z
 _atom_site_occupancy
  Ca  Ca0  1  0.01801036  0.04834491  0.34586979  1
  Ca  Ca1  1  0.01801036  0.45165509  0.84586979  1
  Ca  Ca2  1  0.48198964  0.54834491  0.34586979  1
  Ca  Ca3  1  0.48198964  0.95165509  0.84586979  1
  Ca  Ca4  1  0.51801036  0.04834491  0.15413021  1
  Ca  Ca5  1  0.51801036  0.45165509  0.65413021  1
  Ca  Ca6  1  0.98198964  0.54834491  0.15413021  1
  Ca  Ca7  1  0.98198964  0.95165509  0.65413021  1
  Hf  Hf8  1  0.00000000  0.00000000  0.00000000  1
  Hf  Hf9  1  0.00000000  0.50000000  0.50000000  1
  Hf  Hf10  1  0.50000000  0.50000000  0.00000000  1
  Hf  Hf11  1  0.50000000  0.00000000  0.50000000  1
  O  O12  1  0.08455561  0.46142166  0.33217897  1
  O  O13  1  0.08455561  0.03857834  0.83217897  1
  O  O14  1  0.19250135  0.30645631  0.02876144  1
  O  O15  1  0.19250135  0.19354369  0.52876144  1
  O  O16  1  0.30749865  0.80645631  0.02876144  1
  O  O17  1  0.30749865  0.69354369  0.52876144  1
  O  O18  1  0.41544439  0.53857834  0.83217897  1
  O  O19  1  0.41544439  0.96142166  0.33217897  1
  O  O20  1  0.58455561  0.03857834  0.66782103  1
  O  O21  1  0.58455561  0.46142166  0.16782103  1
  O  O22  1  0.69250135  0.30645631  0.47123856  1
  O  O23  1  0.69250135  0.19354369  0.97123856  1
  O  O24  1  0.80749865  0.80645631  0.47123856  1
  O  O25  1  0.80749865  0.69354369  0.97123856  1
  O  O26  1  0.91544439  0.96142166  0.16782103  1
  O  O27  1  0.91544439  0.53857834  0.66782103  1
