# generated using pymatgen
data_Sb4O5F2
_symmetry_space_group_name_H-M   'P 1'
_cell_length_a   6.06672832
_cell_length_b   5.29492099
_cell_length_c   13.61613022
_cell_angle_alpha   90.00000000
_cell_angle_beta   96.03197076
_cell_angle_gamma   90.00000000
_symmetry_Int_Tables_number   1
_chemical_formula_structural   Sb4O5F2
_chemical_formula_sum   'Sb8 O10 F4'
_cell_volume   434.96722839
_cell_formula_units_Z   2
loop_
 _symmetry_equiv_pos_site_id
 _symmetry_equiv_pos_as_xyz
  1  'x, y, z'
loop_
 _atom_site_type_symbol
 _atom_site_label
 _atom_site_symmetry_multiplicity
 _atom_site_fract_x
 _atom_site_fract_y
 _atom_site_fract_z
 _atom_site_occupancy
  Sb  Sb0  1  0.23758835  0.93207238  0.79850226  1
  Sb  Sb1  1  0.18253735  0.27485531  0.55901196  1
  Sb  Sb2  1  0.23758835  0.56792762  0.29850226  1
  Sb  Sb3  1  0.18253735  0.22514469  0.05901196  1
  Sb  Sb4  1  0.81746265  0.77485531  0.94098804  1
  Sb  Sb5  1  0.76241165  0.43207238  0.70149774  1
  Sb  Sb6  1  0.81746265  0.72514469  0.44098804  1
  Sb  Sb7  1  0.76241165  0.06792762  0.20149774  1
  O  O8  1  0.07278654  0.01605831  0.91739780  1
  O  O9  1  0.00000000  0.00000000  0.50000000  1
  O  O10  1  0.09521553  0.19322891  0.70755981  1
  O  O11  1  0.07278654  0.48394169  0.41739780  1
  O  O12  1  0.00000000  0.50000000  0.00000000  1
  O  O13  1  0.09521553  0.30677109  0.20755981  1
  O  O14  1  0.90478447  0.69322891  0.79244019  1
  O  O15  1  0.92721346  0.51605831  0.58260220  1
  O  O16  1  0.90478447  0.80677109  0.29244019  1
  O  O17  1  0.92721346  0.98394169  0.08260220  1
  F  F18  1  0.45836467  0.19957394  0.86060035  1
  F  F19  1  0.54163533  0.69957394  0.63939965  1
  F  F20  1  0.45836467  0.30042606  0.36060035  1
  F  F21  1  0.54163533  0.80042606  0.13939965  1
