# generated using pymatgen
data_Ti(PO3)4
_symmetry_space_group_name_H-M   'P 1'
_cell_length_a   7.20900458
_cell_length_b   7.20886534
_cell_length_c   9.81859461
_cell_angle_alpha   80.16565563
_cell_angle_beta   71.82458645
_cell_angle_gamma   110.02908224
_symmetry_Int_Tables_number   1
_chemical_formula_structural   Ti(PO3)4
_chemical_formula_sum   'Ti2 P8 O24'
_cell_volume   432.88876122
_cell_formula_units_Z   2
loop_
 _symmetry_equiv_pos_site_id
 _symmetry_equiv_pos_as_xyz
  1  'x, y, z'
loop_
 _atom_site_type_symbol
 _atom_site_label
 _atom_site_symmetry_multiplicity
 _atom_site_fract_x
 _atom_site_fract_y
 _atom_site_fract_z
 _atom_site_occupancy
  Ti  Ti0  1  0.18976777  0.93976435  0.74997240  1
  Ti  Ti1  1  0.81023223  0.06023565  0.25002760  1
  P  P2  1  0.01950958  0.31127167  0.69800187  1
  P  P3  1  0.27377515  0.73174794  0.47868701  1
  P  P4  1  0.71040048  0.75243253  0.02132557  1
  P  P5  1  0.49057455  0.28244911  0.19801629  1
  P  P6  1  0.50942545  0.71755089  0.80198371  1
  P  P7  1  0.28959952  0.24756747  0.97867443  1
  P  P8  1  0.72622485  0.26825206  0.52131299  1
  P  P9  1  0.98049042  0.68872833  0.30199813  1
  O  O10  1  0.03158011  0.64354858  0.15824321  1
  O  O11  1  0.09505415  0.24928868  0.09640102  1
  O  O12  1  0.17668085  0.71328947  0.35532715  1
  O  O13  1  0.15428611  0.80844216  0.59644024  1
  O  O14  1  0.22715611  0.49835537  0.55671710  1
  O  O15  1  0.06984717  0.12343987  0.68853030  1
  O  O16  1  0.30115940  0.18982603  0.34192557  1
  O  O17  1  0.44460634  0.21584670  0.05693916  1
  O  O18  1  0.51410926  0.85087083  0.39927978  1
  O  O19  1  0.31240957  0.75858212  0.81118132  1
  O  O20  1  0.56833253  0.53186830  0.14458512  1
  O  O21  1  0.74989091  0.91306485  0.10098911  1
  O  O22  1  0.25010909  0.08693515  0.89901089  1
  O  O23  1  0.43166747  0.46813170  0.85541488  1
  O  O24  1  0.68759043  0.24141788  0.18881868  1
  O  O25  1  0.48589074  0.14912917  0.60072022  1
  O  O26  1  0.55539366  0.78415330  0.94306084  1
  O  O27  1  0.69884060  0.81017397  0.65807443  1
  O  O28  1  0.93015283  0.87656013  0.31146970  1
  O  O29  1  0.77284389  0.50164463  0.44328290  1
  O  O30  1  0.84571389  0.19155784  0.40355976  1
  O  O31  1  0.82331915  0.28671053  0.64467285  1
  O  O32  1  0.90494585  0.75071132  0.90359898  1
  O  O33  1  0.96841989  0.35645142  0.84175679  1
