# generated using pymatgen
data_KGePCO7
_symmetry_space_group_name_H-M   'P 1'
_cell_length_a   10.43620426
_cell_length_b   6.24118585
_cell_length_c   5.12952988
_cell_angle_alpha   90.00000000
_cell_angle_beta   87.79643329
_cell_angle_gamma   90.00000000
_symmetry_Int_Tables_number   1
_chemical_formula_structural   KGePCO7
_chemical_formula_sum   'K2 Ge2 P2 C2 O14'
_cell_volume   333.86122384
_cell_formula_units_Z   2
loop_
 _symmetry_equiv_pos_site_id
 _symmetry_equiv_pos_as_xyz
  1  'x, y, z'
loop_
 _atom_site_type_symbol
 _atom_site_label
 _atom_site_symmetry_multiplicity
 _atom_site_fract_x
 _atom_site_fract_y
 _atom_site_fract_z
 _atom_site_occupancy
  K  K0  1  0.20035320  0.36110447  0.23476823  1
  K  K1  1  0.79964680  0.86110447  0.76523177  1
  Ge  Ge2  1  0.35939018  0.77893463  0.78000801  1
  Ge  Ge3  1  0.64060982  0.27893463  0.21999199  1
  P  P4  1  0.44608796  0.27515271  0.72703615  1
  P  P5  1  0.55391204  0.77515271  0.27296385  1
  C  C6  1  0.13854321  0.74456644  0.70531593  1
  C  C7  1  0.86145679  0.24456644  0.29468407  1
  O  O8  1  0.97539722  0.20867928  0.33212277  1
  O  O9  1  0.19031479  0.76665187  0.94008512  1
  O  O10  1  0.23234417  0.75960401  0.51742909  1
  O  O11  1  0.35524098  0.08313251  0.78309728  1
  O  O12  1  0.35769028  0.46795473  0.78865898  1
  O  O13  1  0.43389787  0.77338726  0.10901428  1
  O  O14  1  0.48733479  0.27868210  0.43109278  1
  O  O15  1  0.51266521  0.77868210  0.56890722  1
  O  O16  1  0.56610213  0.27338726  0.89098572  1
  O  O17  1  0.64230972  0.96795473  0.21134102  1
  O  O18  1  0.64475902  0.58313251  0.21690272  1
  O  O19  1  0.76765583  0.25960401  0.48257091  1
  O  O20  1  0.80968521  0.26665187  0.05991488  1
  O  O21  1  0.02460278  0.70867928  0.66787723  1
