# generated using pymatgen
data_CeZr7O16
_symmetry_space_group_name_H-M   'P 1'
_cell_length_a   7.48272502
_cell_length_b   7.50368226
_cell_length_c   6.94138326
_cell_angle_alpha   63.61112500
_cell_angle_beta   63.56457533
_cell_angle_gamma   90.15032582
_symmetry_Int_Tables_number   1
_chemical_formula_structural   CeZr7O16
_chemical_formula_sum   'Ce1 Zr7 O16'
_cell_volume   302.70293018
_cell_formula_units_Z   1
loop_
 _symmetry_equiv_pos_site_id
 _symmetry_equiv_pos_as_xyz
  1  'x, y, z'
loop_
 _atom_site_type_symbol
 _atom_site_label
 _atom_site_symmetry_multiplicity
 _atom_site_fract_x
 _atom_site_fract_y
 _atom_site_fract_z
 _atom_site_occupancy
  Ce  Ce0  1  0.45123776  0.98528628  0.29390926  1
  Zr  Zr1  1  0.01811512  0.05657204  0.20681097  1
  Zr  Zr2  1  0.04972572  0.50491583  0.71370479  1
  Zr  Zr3  1  0.56057876  0.01399888  0.71009269  1
  Zr  Zr4  1  0.51044688  0.55297532  0.20624465  1
  Zr  Zr5  1  0.48984004  0.44859842  0.78602282  1
  Zr  Zr6  1  0.94650220  0.48984968  0.28891301  1
  Zr  Zr7  1  0.98781486  0.94238498  0.79272352  1
  O  O8  1  0.13325627  0.38897649  0.02343394  1
  O  O9  1  0.48761547  0.31816263  0.13523895  1
  O  O10  1  0.00303604  0.18971013  0.86312364  1
  O  O11  1  0.19259895  0.51632384  0.35535479  1
  O  O12  1  0.70178036  0.01331683  0.36589715  1
  O  O13  1  0.36515996  0.11655902  0.96568301  1
  O  O14  1  0.61400513  0.36810032  0.47135783  1
  O  O15  1  0.09659234  0.86066396  0.48728814  1
  O  O16  1  0.89608332  0.14075912  0.52258269  1
  O  O17  1  0.38573579  0.62220935  0.52698551  1
  O  O18  1  0.64015711  0.88370320  0.01025915  1
  O  O19  1  0.80509420  0.48362693  0.64575198  1
  O  O20  1  0.30524172  0.99295914  0.65133177  1
  O  O21  1  0.98335092  0.80725027  0.14670493  1
  O  O22  1  0.50782044  0.69544221  0.85230552  1
  O  O23  1  0.86821162  0.60765815  0.97828129  1
