# generated using pymatgen
data_CoH12(BrO6)2
_symmetry_space_group_name_H-M   'P 1'
_cell_length_a   10.81313566
_cell_length_b   10.81313566
_cell_length_c   10.81313566
_cell_angle_alpha   90.00000000
_cell_angle_beta   90.00000000
_cell_angle_gamma   90.00000000
_symmetry_Int_Tables_number   1
_chemical_formula_structural   CoH12(BrO6)2
_chemical_formula_sum   'Co4 H48 Br8 O48'
_cell_volume   1264.31402289
_cell_formula_units_Z   4
loop_
 _symmetry_equiv_pos_site_id
 _symmetry_equiv_pos_as_xyz
  1  'x, y, z'
loop_
 _atom_site_type_symbol
 _atom_site_label
 _atom_site_symmetry_multiplicity
 _atom_site_fract_x
 _atom_site_fract_y
 _atom_site_fract_z
 _atom_site_occupancy
  Co  Co0  1  0.50000000  0.50000000  0.00000000  1
  Co  Co1  1  0.50000000  0.00000000  0.50000000  1
  Co  Co2  1  0.00000000  0.50000000  0.50000000  1
  Co  Co3  1  0.00000000  0.00000000  0.00000000  1
  H  H4  1  0.03207283  0.58086311  0.26390992  1
  H  H5  1  0.96792717  0.08086311  0.23609008  1
  H  H6  1  0.46792717  0.41913689  0.76390992  1
  H  H7  1  0.53207283  0.91913689  0.73609008  1
  H  H8  1  0.26390992  0.03207283  0.58086311  1
  H  H9  1  0.23609008  0.96792717  0.08086311  1
  H  H10  1  0.76390992  0.46792717  0.41913689  1
  H  H11  1  0.73609008  0.53207283  0.91913689  1
  H  H12  1  0.58086311  0.26390992  0.03207283  1
  H  H13  1  0.08086311  0.23609008  0.96792717  1
  H  H14  1  0.41913689  0.76390992  0.46792717  1
  H  H15  1  0.91913689  0.73609008  0.53207283  1
  H  H16  1  0.96792717  0.41913689  0.73609008  1
  H  H17  1  0.03207283  0.91913689  0.76390992  1
  H  H18  1  0.53207283  0.58086311  0.23609008  1
  H  H19  1  0.46792717  0.08086311  0.26390992  1
  H  H20  1  0.73609008  0.96792717  0.41913689  1
  H  H21  1  0.76390992  0.03207283  0.91913689  1
  H  H22  1  0.23609008  0.53207283  0.58086311  1
  H  H23  1  0.26390992  0.46792717  0.08086311  1
  H  H24  1  0.41913689  0.73609008  0.96792717  1
  H  H25  1  0.91913689  0.76390992  0.03207283  1
  H  H26  1  0.58086311  0.23609008  0.53207283  1
  H  H27  1  0.08086311  0.26390992  0.46792717  1
  H  H28  1  0.26548891  0.43319889  0.94163808  1
  H  H29  1  0.73451109  0.93319889  0.55836192  1
  H  H30  1  0.23451109  0.56680111  0.44163808  1
  H  H31  1  0.76548891  0.06680111  0.05836192  1
  H  H32  1  0.94163808  0.26548891  0.43319889  1
  H  H33  1  0.55836192  0.73451109  0.93319889  1
  H  H34  1  0.44163808  0.23451109  0.56680111  1
  H  H35  1  0.05836192  0.76548891  0.06680111  1
  H  H36  1  0.43319889  0.94163808  0.26548891  1
  H  H37  1  0.93319889  0.55836192  0.73451109  1
  H  H38  1  0.56680111  0.44163808  0.23451109  1
  H  H39  1  0.06680111  0.05836192  0.76548891  1
  H  H40  1  0.73451109  0.56680111  0.05836192  1
  H  H41  1  0.26548891  0.06680111  0.44163808  1
  H  H42  1  0.76548891  0.43319889  0.55836192  1
  H  H43  1  0.23451109  0.93319889  0.94163808  1
  H  H44  1  0.05836192  0.73451109  0.56680111  1
  H  H45  1  0.44163808  0.26548891  0.06680111  1
  H  H46  1  0.55836192  0.76548891  0.43319889  1
  H  H47  1  0.94163808  0.23451109  0.93319889  1
  H  H48  1  0.56680111  0.05836192  0.73451109  1
  H  H49  1  0.06680111  0.44163808  0.26548891  1
  H  H50  1  0.43319889  0.55836192  0.76548891  1
  H  H51  1  0.93319889  0.94163808  0.23451109  1
  Br  Br52  1  0.22637058  0.77362942  0.27362942  1
  Br  Br53  1  0.77362942  0.27362942  0.22637058  1
  Br  Br54  1  0.27362942  0.22637058  0.77362942  1
  Br  Br55  1  0.72637058  0.72637058  0.72637058  1
  Br  Br56  1  0.77362942  0.22637058  0.72637058  1
  Br  Br57  1  0.22637058  0.72637058  0.77362942  1
  Br  Br58  1  0.72637058  0.77362942  0.22637058  1
  Br  Br59  1  0.27362942  0.27362942  0.27362942  1
  O  O60  1  0.32709658  0.64645863  0.68489087  1
  O  O61  1  0.67290342  0.14645863  0.81510913  1
  O  O62  1  0.17290342  0.35354137  0.18489087  1
  O  O63  1  0.82709658  0.85354137  0.31510913  1
  O  O64  1  0.68489087  0.32709658  0.64645863  1
  O  O65  1  0.81510913  0.67290342  0.14645863  1
  O  O66  1  0.18489087  0.17290342  0.35354137  1
  O  O67  1  0.31510913  0.82709658  0.85354137  1
  O  O68  1  0.64645863  0.68489087  0.32709658  1
  O  O69  1  0.14645863  0.81510913  0.67290342  1
  O  O70  1  0.35354137  0.18489087  0.17290342  1
  O  O71  1  0.85354137  0.31510913  0.82709658  1
  O  O72  1  0.67290342  0.35354137  0.31510913  1
  O  O73  1  0.32709658  0.85354137  0.18489087  1
  O  O74  1  0.82709658  0.64645863  0.81510913  1
  O  O75  1  0.17290342  0.14645863  0.68489087  1
  O  O76  1  0.31510913  0.67290342  0.35354137  1
  O  O77  1  0.18489087  0.32709658  0.85354137  1
  O  O78  1  0.81510913  0.82709658  0.64645863  1
  O  O79  1  0.68489087  0.17290342  0.14645863  1
  O  O80  1  0.35354137  0.31510913  0.67290342  1
  O  O81  1  0.85354137  0.18489087  0.32709658  1
  O  O82  1  0.64645863  0.81510913  0.82709658  1
  O  O83  1  0.14645863  0.68489087  0.17290342  1
  O  O84  1  0.49159315  0.49810224  0.80353488  1
  O  O85  1  0.50840685  0.99810224  0.69646512  1
  O  O86  1  0.00840685  0.50189776  0.30353488  1
  O  O87  1  0.99159315  0.00189776  0.19646512  1
  O  O88  1  0.80353488  0.49159315  0.49810224  1
  O  O89  1  0.69646512  0.50840685  0.99810224  1
  O  O90  1  0.30353488  0.00840685  0.50189776  1
  O  O91  1  0.19646512  0.99159315  0.00189776  1
  O  O92  1  0.49810224  0.80353488  0.49159315  1
  O  O93  1  0.99810224  0.69646512  0.50840685  1
  O  O94  1  0.50189776  0.30353488  0.00840685  1
  O  O95  1  0.00189776  0.19646512  0.99159315  1
  O  O96  1  0.50840685  0.50189776  0.19646512  1
  O  O97  1  0.49159315  0.00189776  0.30353488  1
  O  O98  1  0.99159315  0.49810224  0.69646512  1
  O  O99  1  0.00840685  0.99810224  0.80353488  1
  O  O100  1  0.19646512  0.50840685  0.50189776  1
  O  O101  1  0.30353488  0.49159315  0.00189776  1
  O  O102  1  0.69646512  0.99159315  0.49810224  1
  O  O103  1  0.80353488  0.00840685  0.99810224  1
  O  O104  1  0.50189776  0.19646512  0.50840685  1
  O  O105  1  0.00189776  0.30353488  0.49159315  1
  O  O106  1  0.49810224  0.69646512  0.99159315  1
  O  O107  1  0.99810224  0.80353488  0.00840685  1
