# generated using pymatgen
data_CrP2H13(NO5)2
_symmetry_space_group_name_H-M   'P 1'
_cell_length_a   7.16639898
_cell_length_b   8.50486911
_cell_length_c   9.70641517
_cell_angle_alpha   72.97011834
_cell_angle_beta   99.04810492
_cell_angle_gamma   77.45333148
_symmetry_Int_Tables_number   1
_chemical_formula_structural   CrP2H13(NO5)2
_chemical_formula_sum   'Cr2 P4 H26 N4 O20'
_cell_volume   536.46436521
_cell_formula_units_Z   2
loop_
 _symmetry_equiv_pos_site_id
 _symmetry_equiv_pos_as_xyz
  1  'x, y, z'
loop_
 _atom_site_type_symbol
 _atom_site_label
 _atom_site_symmetry_multiplicity
 _atom_site_fract_x
 _atom_site_fract_y
 _atom_site_fract_z
 _atom_site_occupancy
  Cr  Cr0  1  0.76210424  0.80302997  0.28914799  1
  Cr  Cr1  1  0.23789576  0.19697003  0.71085201  1
  P  P2  1  0.78188585  0.45234524  0.22629346  1
  P  P3  1  0.21811415  0.54765476  0.77370654  1
  P  P4  1  0.39431579  0.67381137  0.20229023  1
  P  P5  1  0.60568421  0.32618863  0.79770977  1
  H  H6  1  0.77634750  0.41411671  0.00578857  1
  H  H7  1  0.22365250  0.58588329  0.99421143  1
  H  H8  1  0.49807507  0.09391818  0.26716254  1
  H  H9  1  0.50192493  0.90608182  0.73283746  1
  H  H10  1  0.71912385  0.12568586  0.29661198  1
  H  H11  1  0.28087615  0.87431414  0.70338802  1
  H  H12  1  0.04734203  0.79063507  0.50384111  1
  H  H13  1  0.95265797  0.20936493  0.49615889  1
  H  H14  1  0.14203450  0.75182458  0.37100502  1
  H  H15  1  0.85796550  0.24817542  0.62899498  1
  H  H16  1  0.70345585  0.77416566  0.56128783  1
  H  H17  1  0.29654415  0.22583434  0.43871217  1
  H  H18  1  0.55319422  0.69008888  0.47321181  1
  H  H19  1  0.44680578  0.30991112  0.52678819  1
  H  H20  1  0.78340983  0.58182123  0.55211521  1
  H  H21  1  0.21659017  0.41817877  0.44788479  1
  H  H22  1  0.76074727  0.88209466  0.00387590  1
  H  H23  1  0.23925273  0.11790534  0.99612410  1
  H  H24  1  0.98753311  0.83797752  0.09733465  1
  H  H25  1  0.01246689  0.16202248  0.90266535  1
  H  H26  1  0.82759040  0.02921202  0.06244893  1
  H  H27  1  0.17240960  0.97078798  0.93755107  1
  H  H28  1  0.11197186  0.19633033  0.23453806  1
  H  H29  1  0.88802814  0.80366967  0.76546194  1
  H  H30  1  0.22003946  0.29521572  0.12425681  1
  H  H31  1  0.77996054  0.70478428  0.87574319  1
  N  N32  1  0.69368575  0.70229326  0.49317091  1
  N  N33  1  0.30631425  0.29770674  0.50682909  1
  N  N34  1  0.84449552  0.89972619  0.09089833  1
  N  N35  1  0.15550448  0.10027381  0.90910167  1
  O  O36  1  0.87484876  0.56263381  0.29942494  1
  O  O37  1  0.12515124  0.43736619  0.70057506  1
  O  O38  1  0.87396472  0.26105036  0.30602672  1
  O  O39  1  0.12603528  0.73894964  0.69397328  1
  O  O40  1  0.79186528  0.50671209  0.05910868  1
  O  O41  1  0.20813472  0.49328791  0.94089132  1
  O  O42  1  0.55212660  0.48730878  0.22985541  1
  O  O43  1  0.44787340  0.51269122  0.77014459  1
  O  O44  1  0.51040092  0.80772021  0.16983835  1
  O  O45  1  0.48959908  0.19227979  0.83016165  1
  O  O46  1  0.32580346  0.65323263  0.34491954  1
  O  O47  1  0.67419654  0.34676737  0.65508046  1
  O  O48  1  0.23336235  0.70626805  0.06545846  1
  O  O49  1  0.76663765  0.29373195  0.93454154  1
  O  O50  1  0.64215697  0.04188952  0.29220928  1
  O  O51  1  0.35784303  0.95811048  0.70779072  1
  O  O52  1  0.01930278  0.81793914  0.39418523  1
  O  O53  1  0.98069722  0.18206086  0.60581477  1
  O  O54  1  0.23964537  0.18886981  0.20628714  1
  O  O55  1  0.76035463  0.81113019  0.79371286  1
