# generated using pymatgen
data_NaLaO2
_symmetry_space_group_name_H-M   'P 1'
_cell_length_a   6.46811386
_cell_length_b   7.85862268
_cell_length_c   6.44321798
_cell_angle_alpha   76.26872682
_cell_angle_beta   114.79391830
_cell_angle_gamma   76.13608468
_symmetry_Int_Tables_number   1
_chemical_formula_structural   NaLaO2
_chemical_formula_sum   'Na4 La4 O8'
_cell_volume   266.61090778
_cell_formula_units_Z   4
loop_
 _symmetry_equiv_pos_site_id
 _symmetry_equiv_pos_as_xyz
  1  'x, y, z'
loop_
 _atom_site_type_symbol
 _atom_site_label
 _atom_site_symmetry_multiplicity
 _atom_site_fract_x
 _atom_site_fract_y
 _atom_site_fract_z
 _atom_site_occupancy
  Na  Na0  1  0.80516095  0.38967710  0.05516095  1
  Na  Na1  1  0.43065374  0.13869252  0.18065374  1
  Na  Na2  1  0.56934626  0.86130748  0.81934626  1
  Na  Na3  1  0.19483905  0.61032290  0.94483905  1
  La  La4  1  0.94274497  0.11450905  0.69274497  1
  La  La5  1  0.68200619  0.63598761  0.43200619  1
  La  La6  1  0.31799381  0.36401239  0.56799381  1
  La  La7  1  0.05725503  0.88549095  0.30725503  1
  O  O8  1  0.93006213  0.62655238  0.22693564  1
  O  O9  1  0.83455094  0.87638556  0.53756453  1
  O  O10  1  0.28906450  0.87638556  0.08605091  1
  O  O11  1  0.55661452  0.37344762  0.35348802  1
  O  O12  1  0.44338548  0.62655238  0.64651198  1
  O  O13  1  0.71093550  0.12361444  0.91394909  1
  O  O14  1  0.16544906  0.12361444  0.46243547  1
  O  O15  1  0.06993787  0.37344762  0.77306436  1
