# generated using pymatgen
data_H3CI
_symmetry_space_group_name_H-M   'P 1'
_cell_length_a   15.47904086
_cell_length_b   15.47885514
_cell_length_c   15.47901609
_cell_angle_alpha   89.79522692
_cell_angle_beta   90.20410378
_cell_angle_gamma   89.79476887
_symmetry_Int_Tables_number   1
_chemical_formula_structural   H3CI
_chemical_formula_sum   'H3 C1 I1'
_cell_volume   3708.66750217
_cell_formula_units_Z   1
loop_
 _symmetry_equiv_pos_site_id
 _symmetry_equiv_pos_as_xyz
  1  'x, y, z'
loop_
 _atom_site_type_symbol
 _atom_site_label
 _atom_site_symmetry_multiplicity
 _atom_site_fract_x
 _atom_site_fract_y
 _atom_site_fract_z
 _atom_site_occupancy
  H  H0  1  0.48355131  0.43408012  0.56591896  1
  H  H1  1  0.56591978  0.43407832  0.48355170  1
  H  H2  1  0.56590896  0.51644061  0.56590899  1
  C  C3  1  0.52626923  0.47374002  0.52626923  1
  I  I4  1  0.44573072  0.55427093  0.44572612  1
