# generated using pymatgen
data_Sr2Ti6N2O11
_symmetry_space_group_name_H-M   'P 1'
_cell_length_a   3.87929292
_cell_length_b   7.73727450
_cell_length_c   9.27398333
_cell_angle_alpha   81.57321018
_cell_angle_beta   90.00000000
_cell_angle_gamma   75.48173286
_symmetry_Int_Tables_number   1
_chemical_formula_structural   Sr2Ti6N2O11
_chemical_formula_sum   'Sr2 Ti6 N2 O11'
_cell_volume   266.36591954
_cell_formula_units_Z   1
loop_
 _symmetry_equiv_pos_site_id
 _symmetry_equiv_pos_as_xyz
  1  'x, y, z'
loop_
 _atom_site_type_symbol
 _atom_site_label
 _atom_site_symmetry_multiplicity
 _atom_site_fract_x
 _atom_site_fract_y
 _atom_site_fract_z
 _atom_site_occupancy
  Sr  Sr0  1  0.54508087  0.90983826  0.77416341  1
  Sr  Sr1  1  0.44874741  0.10250518  0.23579139  1
  Ti  Ti2  1  0.11722296  0.76555508  0.09771110  1
  Ti  Ti3  1  0.16996888  0.66006225  0.43823911  1
  Ti  Ti4  1  0.23353425  0.53293151  0.76587937  1
  Ti  Ti5  1  0.75207917  0.49584166  0.23076911  1
  Ti  Ti6  1  0.83462419  0.33075161  0.55204012  1
  Ti  Ti7  1  0.87774359  0.24451282  0.91022604  1
  N  N8  1  0.63839979  0.72320043  0.10857018  1
  N  N9  1  0.70597870  0.58804259  0.42523971  1
  O  O10  1  0.06851896  0.86296208  0.29143193  1
  O  O11  1  0.12610167  0.74779766  0.61624542  1
  O  O12  1  0.16003200  0.67993600  0.90170778  1
  O  O13  1  0.75656148  0.48687704  0.76277714  1
  O  O14  1  0.24604554  0.50790792  0.23922804  1
  O  O15  1  0.30177423  0.39645254  0.57436642  1
  O  O16  1  0.35928301  0.28143497  0.88544131  1
  O  O17  1  0.84303068  0.31393764  0.09526615  1
  O  O18  1  0.88496694  0.23006711  0.38854209  1
  O  O19  1  0.93108857  0.13782285  0.71130443  1
  O  O20  1  0.99921811  0.00156378  0.99505876  1
