# generated using pymatgen
data_TbCO3
_symmetry_space_group_name_H-M   'P 1'
_cell_length_a   5.31901108
_cell_length_b   4.89193687
_cell_length_c   8.06875524
_cell_angle_alpha   90.00452665
_cell_angle_beta   89.87514517
_cell_angle_gamma   90.02242346
_symmetry_Int_Tables_number   1
_chemical_formula_structural   TbCO3
_chemical_formula_sum   'Tb4 C4 O12'
_cell_volume   209.95064583
_cell_formula_units_Z   4
loop_
 _symmetry_equiv_pos_site_id
 _symmetry_equiv_pos_as_xyz
  1  'x, y, z'
loop_
 _atom_site_type_symbol
 _atom_site_label
 _atom_site_symmetry_multiplicity
 _atom_site_fract_x
 _atom_site_fract_y
 _atom_site_fract_z
 _atom_site_occupancy
  Tb  Tb0  1  0.24334115  0.25045893  0.90002021  1
  Tb  Tb1  1  0.25025924  0.74986953  0.43260986  1
  Tb  Tb2  1  0.74974076  0.25013047  0.56739014  1
  Tb  Tb3  1  0.75665885  0.74954107  0.09997979  1
  C  C4  1  0.19311061  0.24958791  0.25199431  1
  C  C5  1  0.50849251  0.75025286  0.75489237  1
  C  C6  1  0.49150749  0.24974714  0.24510763  1
  C  C7  1  0.80688939  0.75041209  0.74800569  1
  O  O8  1  0.11241806  0.48587965  0.17303223  1
  O  O9  1  0.11232870  0.01201973  0.17429494  1
  O  O10  1  0.12401184  0.25062816  0.42186626  1
  O  O11  1  0.42249261  0.75042492  0.91687708  1
  O  O12  1  0.41800365  0.51588653  0.67202269  1
  O  O13  1  0.41789367  0.98404228  0.67169526  1
  O  O14  1  0.58210633  0.01595772  0.32830474  1
  O  O15  1  0.58199635  0.48411347  0.32797731  1
  O  O16  1  0.57750739  0.24957508  0.08312292  1
  O  O17  1  0.87598816  0.74937184  0.57813374  1
  O  O18  1  0.88767130  0.98798027  0.82570506  1
  O  O19  1  0.88758194  0.51412035  0.82696777  1
