# generated using pymatgen
data_Cu3OF5
_symmetry_space_group_name_H-M   'P 1'
_cell_length_a   7.62943719
_cell_length_b   4.61220655
_cell_length_c   5.88329365
_cell_angle_alpha   90.00000000
_cell_angle_beta   88.85585679
_cell_angle_gamma   90.00000000
_symmetry_Int_Tables_number   1
_chemical_formula_structural   Cu3OF5
_chemical_formula_sum   'Cu6 O2 F10'
_cell_volume   206.98323947
_cell_formula_units_Z   2
loop_
 _symmetry_equiv_pos_site_id
 _symmetry_equiv_pos_as_xyz
  1  'x, y, z'
loop_
 _atom_site_type_symbol
 _atom_site_label
 _atom_site_symmetry_multiplicity
 _atom_site_fract_x
 _atom_site_fract_y
 _atom_site_fract_z
 _atom_site_occupancy
  Cu  Cu0  1  0.99175760  0.02703746  0.97414240  1
  Cu  Cu1  1  0.00048196  0.47635325  0.51146202  1
  Cu  Cu2  1  0.33285204  0.97635325  0.32187098  1
  Cu  Cu3  1  0.65611421  0.51267756  0.17165966  1
  Cu  Cu4  1  0.34157540  0.52703746  0.85919160  1
  Cu  Cu5  1  0.67721879  0.01267756  0.66167434  1
  O  O6  1  0.44085719  0.68813512  0.13953476  1
  O  O7  1  0.89247581  0.18813512  0.69379824  1
  F  F8  1  0.22359653  0.20226803  0.02384594  1
  F  F9  1  0.10212616  0.78426190  0.30769441  1
  F  F10  1  0.23120684  0.28426190  0.52563859  1
  F  F11  1  0.10973647  0.70226803  0.80948706  1
  F  F12  1  0.55469953  0.20334667  0.34483136  1
  F  F13  1  0.45184605  0.80767082  0.64508950  1
  F  F14  1  0.88148795  0.30767082  0.18824350  1
  F  F15  1  0.77863347  0.70334667  0.48850264  1
  F  F16  1  0.56244890  0.29824818  0.84240698  1
  F  F17  1  0.77088510  0.79824818  0.99092702  1
