# generated using pymatgen
data_Cs2Ba2O3
_symmetry_space_group_name_H-M   'P 1'
_cell_length_a   7.71110549
_cell_length_b   7.87042423
_cell_length_c   7.67768405
_cell_angle_alpha   90.00000000
_cell_angle_beta   117.51717983
_cell_angle_gamma   90.00000000
_symmetry_Int_Tables_number   1
_chemical_formula_structural   Cs2Ba2O3
_chemical_formula_sum   'Cs4 Ba4 O6'
_cell_volume   413.24359718
_cell_formula_units_Z   2
loop_
 _symmetry_equiv_pos_site_id
 _symmetry_equiv_pos_as_xyz
  1  'x, y, z'
loop_
 _atom_site_type_symbol
 _atom_site_label
 _atom_site_symmetry_multiplicity
 _atom_site_fract_x
 _atom_site_fract_y
 _atom_site_fract_z
 _atom_site_occupancy
  Cs  Cs0  1  0.17631314  0.64944908  0.92341245  1
  Cs  Cs1  1  0.17631314  0.85055092  0.42341245  1
  Cs  Cs2  1  0.82368686  0.14944908  0.57658755  1
  Cs  Cs3  1  0.82368686  0.35055092  0.07658755  1
  Ba  Ba4  1  0.32796544  0.37417035  0.56192734  1
  Ba  Ba5  1  0.67203456  0.87417035  0.93807266  1
  Ba  Ba6  1  0.32796544  0.12582965  0.06192734  1
  Ba  Ba7  1  0.67203456  0.62582965  0.43807266  1
  O  O8  1  0.00000000  0.50000000  0.50000000  1
  O  O9  1  0.00000000  0.00000000  0.00000000  1
  O  O10  1  0.39093615  0.08910489  0.75224130  1
  O  O11  1  0.60906385  0.58910489  0.74775870  1
  O  O12  1  0.39093615  0.41089511  0.25224130  1
  O  O13  1  0.60906385  0.91089511  0.24775870  1
