# generated using pymatgen
data_Lu3TaO7
_symmetry_space_group_name_H-M   'P 1'
_cell_length_a   6.35127110
_cell_length_b   6.35127110
_cell_length_c   7.35539714
_cell_angle_alpha   90.00000000
_cell_angle_beta   90.00000000
_cell_angle_gamma   109.00690327
_symmetry_Int_Tables_number   1
_chemical_formula_structural   Lu3TaO7
_chemical_formula_sum   'Lu6 Ta2 O14'
_cell_volume   280.53010389
_cell_formula_units_Z   2
loop_
 _symmetry_equiv_pos_site_id
 _symmetry_equiv_pos_as_xyz
  1  'x, y, z'
loop_
 _atom_site_type_symbol
 _atom_site_label
 _atom_site_symmetry_multiplicity
 _atom_site_fract_x
 _atom_site_fract_y
 _atom_site_fract_z
 _atom_site_occupancy
  Lu  Lu0  1  0.99816635  0.46583477  0.49714616  1
  Lu  Lu1  1  0.53416523  0.00183365  0.50285384  1
  Lu  Lu2  1  0.47351563  0.47351563  0.75000000  1
  Lu  Lu3  1  0.52648437  0.52648437  0.25000000  1
  Lu  Lu4  1  0.00183365  0.53416523  0.99714616  1
  Lu  Lu5  1  0.46583477  0.99816635  0.00285384  1
  Ta  Ta6  1  0.00309102  0.00309102  0.25000000  1
  Ta  Ta7  1  0.99690898  0.99690898  0.75000000  1
  O  O8  1  0.07375034  0.92624966  0.00000000  1
  O  O9  1  0.36029682  0.63970318  0.00000000  1
  O  O10  1  0.06134510  0.31919931  0.21044711  1
  O  O11  1  0.68080069  0.93865490  0.78955289  1
  O  O12  1  0.37068892  0.62931108  0.50000000  1
  O  O13  1  0.66972789  0.91802814  0.21930761  1
  O  O14  1  0.08197186  0.33027211  0.78069239  1
  O  O15  1  0.33027211  0.08197186  0.71930761  1
  O  O16  1  0.91802814  0.66972789  0.28069239  1
  O  O17  1  0.62931108  0.37068892  0.00000000  1
  O  O18  1  0.93865490  0.68080069  0.71044711  1
  O  O19  1  0.31919931  0.06134510  0.28955289  1
  O  O20  1  0.63970318  0.36029682  0.50000000  1
  O  O21  1  0.92624966  0.07375034  0.50000000  1
