# generated using pymatgen
data_ErNbO4
_symmetry_space_group_name_H-M   'P 1'
_cell_length_a   5.30768327
_cell_length_b   5.80573351
_cell_length_c   5.08655910
_cell_angle_alpha   90.00000000
_cell_angle_beta   86.46271623
_cell_angle_gamma   90.00000000
_symmetry_Int_Tables_number   1
_chemical_formula_structural   ErNbO4
_chemical_formula_sum   'Er2 Nb2 O8'
_cell_volume   156.44367542
_cell_formula_units_Z   2
loop_
 _symmetry_equiv_pos_site_id
 _symmetry_equiv_pos_as_xyz
  1  'x, y, z'
loop_
 _atom_site_type_symbol
 _atom_site_label
 _atom_site_symmetry_multiplicity
 _atom_site_fract_x
 _atom_site_fract_y
 _atom_site_fract_z
 _atom_site_occupancy
  Er  Er0  1  0.25000000  0.79631713  0.00000000  1
  Er  Er1  1  0.75000000  0.20368287  0.00000000  1
  Nb  Nb2  1  0.25000000  0.31746934  0.50000000  1
  Nb  Nb3  1  0.75000000  0.68253066  0.50000000  1
  O  O4  1  0.10514353  0.11093804  0.75880836  1
  O  O5  1  0.04049950  0.59364458  0.71577045  1
  O  O6  1  0.45950050  0.59364458  0.28422955  1
  O  O7  1  0.39485647  0.11093804  0.24119164  1
  O  O8  1  0.60514353  0.88906196  0.75880836  1
  O  O9  1  0.54049950  0.40635542  0.71577045  1
  O  O10  1  0.95950050  0.40635542  0.28422955  1
  O  O11  1  0.89485647  0.88906196  0.24119164  1
