# generated using pymatgen
data_Sn(PO3)4
_symmetry_space_group_name_H-M   'P 1'
_cell_length_a   7.29144248
_cell_length_b   7.29015029
_cell_length_c   9.87335662
_cell_angle_alpha   79.94958880
_cell_angle_beta   71.70518923
_cell_angle_gamma   109.79694927
_symmetry_Int_Tables_number   1
_chemical_formula_structural   Sn(PO3)4
_chemical_formula_sum   'Sn2 P8 O24'
_cell_volume   445.07860483
_cell_formula_units_Z   2
loop_
 _symmetry_equiv_pos_site_id
 _symmetry_equiv_pos_as_xyz
  1  'x, y, z'
loop_
 _atom_site_type_symbol
 _atom_site_label
 _atom_site_symmetry_multiplicity
 _atom_site_fract_x
 _atom_site_fract_y
 _atom_site_fract_z
 _atom_site_occupancy
  Sn  Sn0  1  0.19293820  0.94284191  0.75009197  1
  Sn  Sn1  1  0.80706180  0.05715809  0.24990803  1
  P  P2  1  0.01428824  0.30840217  0.69862559  1
  P  P3  1  0.26851293  0.72573957  0.47949760  1
  P  P4  1  0.70531450  0.74809986  0.02042524  1
  P  P5  1  0.49282514  0.28718737  0.19871188  1
  P  P6  1  0.50717486  0.71281263  0.80128812  1
  P  P7  1  0.29468550  0.25190014  0.97957476  1
  P  P8  1  0.73148707  0.27426043  0.52050240  1
  P  P9  1  0.98571176  0.69159783  0.30137441  1
  O  O10  1  0.03302859  0.64852143  0.15771990  1
  O  O11  1  0.10464982  0.26232384  0.09203570  1
  O  O12  1  0.18188738  0.71080979  0.35192786  1
  O  O13  1  0.14582995  0.80323262  0.59211461  1
  O  O14  1  0.21998623  0.49426049  0.55755884  1
  O  O15  1  0.05614416  0.12062357  0.68280488  1
  O  O16  1  0.44792367  0.22235025  0.05775883  1
  O  O17  1  0.30595123  0.19077979  0.34242492  1
  O  O18  1  0.50747830  0.83972381  0.40635271  1
  O  O19  1  0.56263327  0.53399289  0.14816579  1
  O  O20  1  0.30369114  0.73887751  0.81707877  1
  O  O21  1  0.74631693  0.91413450  0.09337396  1
  O  O22  1  0.25368307  0.08586550  0.90662604  1
  O  O23  1  0.69630886  0.26112249  0.18292123  1
  O  O24  1  0.43736673  0.46600711  0.85183421  1
  O  O25  1  0.49252170  0.16027619  0.59364729  1
  O  O26  1  0.69404877  0.80922021  0.65757508  1
  O  O27  1  0.55207633  0.77764975  0.94224117  1
  O  O28  1  0.94385584  0.87937643  0.31719512  1
  O  O29  1  0.78001377  0.50573951  0.44244116  1
  O  O30  1  0.85417005  0.19676738  0.40788539  1
  O  O31  1  0.81811262  0.28919021  0.64807214  1
  O  O32  1  0.89535018  0.73767616  0.90796430  1
  O  O33  1  0.96697141  0.35147857  0.84228010  1
