# generated using pymatgen
data_LiSb(PO3)4
_symmetry_space_group_name_H-M   'P 1'
_cell_length_a   7.64386452
_cell_length_b   7.64386452
_cell_length_c   10.30310551
_cell_angle_alpha   79.93826689
_cell_angle_beta   72.37126793
_cell_angle_gamma   110.87342351
_symmetry_Int_Tables_number   1
_chemical_formula_structural   LiSb(PO3)4
_chemical_formula_sum   'Li2 Sb2 P8 O24'
_cell_volume   508.35851238
_cell_formula_units_Z   2
loop_
 _symmetry_equiv_pos_site_id
 _symmetry_equiv_pos_as_xyz
  1  'x, y, z'
loop_
 _atom_site_type_symbol
 _atom_site_label
 _atom_site_symmetry_multiplicity
 _atom_site_fract_x
 _atom_site_fract_y
 _atom_site_fract_z
 _atom_site_occupancy
  Li  Li0  1  0.25534902  0.00534902  0.75000000  1
  Li  Li1  1  0.74465098  0.99465098  0.25000000  1
  Sb  Sb2  1  0.00000000  0.50000000  0.00000000  1
  Sb  Sb3  1  0.00000000  0.00000000  0.50000000  1
  P  P4  1  0.99520875  0.68060240  0.31069218  1
  P  P5  1  0.26760354  0.72553797  0.47806142  1
  P  P6  1  0.70359939  0.74566496  0.02193858  1
  P  P7  1  0.50870642  0.69409907  0.81069218  1
  P  P8  1  0.49129358  0.30590093  0.18930782  1
  P  P9  1  0.29640061  0.25433504  0.97806142  1
  P  P10  1  0.73239646  0.27446203  0.52193858  1
  P  P11  1  0.00479125  0.31939760  0.68930782  1
  O  O12  1  0.04090594  0.64828464  0.16736109  1
  O  O13  1  0.13988697  0.80397802  0.57418876  1
  O  O14  1  0.18012666  0.68445417  0.35449065  1
  O  O15  1  0.49131673  0.83257787  0.40996332  1
  O  O16  1  0.31615737  0.71822853  0.82128829  1
  O  O17  1  0.20657383  0.50163710  0.56787883  1
  O  O18  1  0.12183323  0.28592428  0.07418876  1
  O  O19  1  0.74254119  0.90128005  0.09003668  1
  O  O20  1  0.56951593  0.77445266  0.93212117  1
  O  O21  1  0.68435327  0.79173297  0.66736109  1
  O  O22  1  0.53894482  0.53461732  0.14550935  1
  O  O23  1  0.03951683  0.13744666  0.67871171  1
  O  O24  1  0.96048317  0.86255334  0.32128829  1
  O  O25  1  0.46105518  0.46538268  0.85449065  1
  O  O26  1  0.31564673  0.20826703  0.33263891  1
  O  O27  1  0.43048407  0.22554734  0.06787883  1
  O  O28  1  0.25745881  0.09871995  0.90996332  1
  O  O29  1  0.87816677  0.71407572  0.92581124  1
  O  O30  1  0.79342617  0.49836290  0.43212117  1
  O  O31  1  0.68384263  0.28177147  0.17871171  1
  O  O32  1  0.50868327  0.16742213  0.59003668  1
  O  O33  1  0.81987334  0.31554583  0.64550935  1
  O  O34  1  0.86011303  0.19602198  0.42581124  1
  O  O35  1  0.95909406  0.35171536  0.83263891  1
