# generated using pymatgen
data_Cr3N2
_symmetry_space_group_name_H-M   'P 1'
_cell_length_a   7.92139512
_cell_length_b   7.92139512
_cell_length_c   7.92139512
_cell_angle_alpha   109.47122108
_cell_angle_beta   109.47122041
_cell_angle_gamma   109.47122041
_symmetry_Int_Tables_number   1
_chemical_formula_structural   Cr3N2
_chemical_formula_sum   'Cr24 N16'
_cell_volume   382.63363080
_cell_formula_units_Z   8
loop_
 _symmetry_equiv_pos_site_id
 _symmetry_equiv_pos_as_xyz
  1  'x, y, z'
loop_
 _atom_site_type_symbol
 _atom_site_label
 _atom_site_symmetry_multiplicity
 _atom_site_fract_x
 _atom_site_fract_y
 _atom_site_fract_z
 _atom_site_occupancy
  Cr  Cr0  1  0.04330608  0.55153475  0.27832462  1
  Cr  Cr1  1  0.05153475  0.77832462  0.04330608  1
  Cr  Cr2  1  0.27832462  0.54330608  0.05153475  1
  Cr  Cr3  1  0.27321014  0.26498047  0.22167538  1
  Cr  Cr4  1  0.73501953  0.50822967  0.45669392  1
  Cr  Cr5  1  0.49177033  0.72678986  0.44846525  1
  Cr  Cr6  1  0.22678986  0.94846525  0.49177033  1
  Cr  Cr7  1  0.76498047  0.72167538  0.27321014  1
  Cr  Cr8  1  0.00822967  0.95669392  0.73501953  1
  Cr  Cr9  1  0.45669392  0.23501953  0.00822967  1
  Cr  Cr10  1  0.44846525  0.99177033  0.22678986  1
  Cr  Cr11  1  0.22167538  0.77321014  0.76498047  1
  Cr  Cr12  1  0.94467802  0.22567780  0.95391418  1
  Cr  Cr13  1  0.72567780  0.45391418  0.94467802  1
  Cr  Cr14  1  0.95391418  0.44467802  0.72567780  1
  Cr  Cr15  1  0.27176363  0.49076384  0.54608582  1
  Cr  Cr16  1  0.50923616  0.28099979  0.55532198  1
  Cr  Cr17  1  0.71900021  0.72823637  0.77432220  1
  Cr  Cr18  1  0.22823637  0.27432220  0.71900021  1
  Cr  Cr19  1  0.99076384  0.04608582  0.27176363  1
  Cr  Cr20  1  0.78099979  0.05532198  0.50923616  1
  Cr  Cr21  1  0.55532198  0.00923616  0.78099979  1
  Cr  Cr22  1  0.77432220  0.21900021  0.22823637  1
  Cr  Cr23  1  0.54608582  0.77176363  0.99076384  1
  N  N24  1  0.00376471  0.50376471  0.00376471  1
  N  N25  1  0.50000000  0.50000000  0.49623529  1
  N  N26  1  0.00000000  0.99623529  0.50000000  1
  N  N27  1  0.49623529  1.00000000  1.00000000  1
  N  N28  1  0.29443546  0.75000000  0.54443546  1
  N  N29  1  0.25000000  0.04443546  0.29443546  1
  N  N30  1  0.54443546  0.79443546  0.25000000  1
  N  N31  1  0.20556454  0.25000000  0.95556454  1
  N  N32  1  0.75000000  0.45556454  0.20556454  1
  N  N33  1  0.95556454  0.70556454  0.75000000  1
  N  N34  1  0.79489593  0.75000000  0.04489593  1
  N  N35  1  0.25000000  0.54489593  0.79489593  1
  N  N36  1  0.04489593  0.29489593  0.25000000  1
  N  N37  1  0.70510407  0.25000000  0.45510407  1
  N  N38  1  0.75000000  0.95510407  0.70510407  1
  N  N39  1  0.45510407  0.20510407  0.75000000  1
