# generated using pymatgen
data_FeBi25O39
_symmetry_space_group_name_H-M   'P 1'
_cell_length_a   8.97143982
_cell_length_b   8.97004696
_cell_length_c   14.61159575
_cell_angle_alpha   89.91896005
_cell_angle_beta   89.81725826
_cell_angle_gamma   109.56517921
_symmetry_Int_Tables_number   1
_chemical_formula_structural   FeBi25O39
_chemical_formula_sum   'Fe1 Bi25 O39'
_cell_volume   1107.95489370
_cell_formula_units_Z   1
loop_
 _symmetry_equiv_pos_site_id
 _symmetry_equiv_pos_as_xyz
  1  'x, y, z'
loop_
 _atom_site_type_symbol
 _atom_site_label
 _atom_site_symmetry_multiplicity
 _atom_site_fract_x
 _atom_site_fract_y
 _atom_site_fract_z
 _atom_site_occupancy
  Fe  Fe0  1  0.50159250  0.50033711  0.49998291  1
  Bi  Bi1  1  0.76776245  0.56558316  0.08252541  1
  Bi  Bi2  1  0.38856580  0.23418568  0.09209912  1
  Bi  Bi3  1  0.49167033  0.17231970  0.35280242  1
  Bi  Bi4  1  0.82984126  0.52953055  0.34048646  1
  Bi  Bi5  1  0.02474668  0.33253677  0.16969746  1
  Bi  Bi6  1  0.64023516  0.99195189  0.15848612  1
  Bi  Bi7  1  0.73599548  0.24194645  0.56954990  1
  Bi  Bi8  1  0.94264601  0.08271192  0.75086474  1
  Bi  Bi9  1  0.44507075  0.57915131  0.25555484  1
  Bi  Bi10  1  0.23460393  0.73379857  0.07083904  1
  Bi  Bi11  1  0.27625158  0.08969026  0.58367694  1
  Bi  Bi12  1  0.73009649  0.90083102  0.40557096  1
  Bi  Bi13  1  0.08807582  0.27893784  0.42000571  1
  Bi  Bi14  1  0.90120722  0.73337879  0.59370238  1
  Bi  Bi15  1  0.09015505  0.93705448  0.26040683  1
  Bi  Bi16  1  0.57945756  0.44405411  0.74319007  1
  Bi  Bi17  1  0.25257557  0.73288559  0.43447776  1
  Bi  Bi18  1  0.73531401  0.23092254  0.92389460  1
  Bi  Bi19  1  0.32687219  0.02293940  0.83277195  1
  Bi  Bi20  1  0.98668285  0.65307621  0.84422841  1
  Bi  Bi21  1  0.52514399  0.83054690  0.66257863  1
  Bi  Bi22  1  0.16114907  0.48588067  0.65259387  1
  Bi  Bi23  1  0.97960900  0.98226654  0.01504833  1
  Bi  Bi24  1  0.23286071  0.39342130  0.90347132  1
  Bi  Bi25  1  0.58076289  0.77290916  0.91422045  1
  O  O26  1  0.62960192  0.99797689  0.00059669  1
  O  O27  1  0.92886258  0.04389174  0.30850578  1
  O  O28  1  0.70258725  0.31639494  0.05699034  1
  O  O29  1  0.22274557  0.00583142  0.99877060  1
  O  O30  1  0.43467636  0.06040825  0.17661656  1
  O  O31  1  0.92628002  0.56931559  0.18940440  1
  O  O32  1  0.00293090  0.22301501  0.99492199  1
  O  O33  1  0.54792996  0.42681703  0.18876686  1
  O  O34  1  0.82138079  0.20411628  0.43916458  1
  O  O35  1  0.18431469  0.18370607  0.18694347  1
  O  O36  1  0.23831047  0.49712244  0.11962684  1
  O  O37  1  0.51397123  0.75161101  0.13356930  1
  O  O38  1  0.25341875  0.01972436  0.37064442  1
  O  O39  1  0.00559582  0.74401515  0.37938325  1
  O  O40  1  0.99881507  0.62922235  0.00049843  1
  O  O41  1  0.69250774  0.69218539  0.30896312  1
  O  O42  1  0.50041852  0.11770064  0.49950180  1
  O  O43  1  0.71656867  0.50205358  0.49676460  1
  O  O44  1  0.39661092  0.38955674  0.39213160  1
  O  O45  1  0.07681374  0.42973554  0.31041368  1
  O  O46  1  0.94172107  0.56019380  0.67868353  1
  O  O47  1  0.55979206  0.94539219  0.31928049  1
  O  O48  1  0.42982572  0.07426027  0.68949904  1
  O  O49  1  0.49614061  0.71410169  0.49669367  1
  O  O50  1  0.39396344  0.39522484  0.60769182  1
  O  O51  1  0.69138482  0.69236859  0.68930738  1
  O  O52  1  0.11886084  0.50180714  0.49952934  1
  O  O53  1  0.73767320  0.00120375  0.61677604  1
  O  O54  1  0.01304201  0.25115593  0.62742214  1
  O  O55  1  0.49616242  0.23418457  0.88134432  1
  O  O56  1  0.75068159  0.50637892  0.86845680  1
  O  O57  1  0.19144797  0.19134814  0.80576587  1
  O  O58  1  0.20516670  0.82247542  0.56024605  1
  O  O59  1  0.42922195  0.54939362  0.80851942  1
  O  O60  1  0.89477592  0.89371938  0.88411610  1
  O  O61  1  0.56702830  0.92823862  0.80849663  1
  O  O62  1  0.06031536  0.43767988  0.81998713  1
  O  O63  1  0.04859571  0.93156777  0.68745353  1
  O  O64  1  0.31982700  0.70096715  0.94051373  1
