# generated using pymatgen
data_Sr2CaI6
_symmetry_space_group_name_H-M   'P 1'
_cell_length_a   7.41956812
_cell_length_b   27.45457329
_cell_length_c   8.22315046
_cell_angle_alpha   90.00000000
_cell_angle_beta   90.00000000
_cell_angle_gamma   90.00000000
_symmetry_Int_Tables_number   1
_chemical_formula_structural   Sr2CaI6
_chemical_formula_sum   'Sr8 Ca4 I24'
_cell_volume   1675.06460282
_cell_formula_units_Z   4
loop_
 _symmetry_equiv_pos_site_id
 _symmetry_equiv_pos_as_xyz
  1  'x, y, z'
loop_
 _atom_site_type_symbol
 _atom_site_label
 _atom_site_symmetry_multiplicity
 _atom_site_fract_x
 _atom_site_fract_y
 _atom_site_fract_z
 _atom_site_occupancy
  Sr  Sr0  1  0.00000000  0.04688625  0.25000000  1
  Sr  Sr1  1  0.00000000  0.28585336  0.75000000  1
  Sr  Sr2  1  0.00000000  0.71414664  0.25000000  1
  Sr  Sr3  1  0.00000000  0.95311375  0.75000000  1
  Sr  Sr4  1  0.50000000  0.21414664  0.25000000  1
  Sr  Sr5  1  0.50000000  0.54688625  0.25000000  1
  Sr  Sr6  1  0.50000000  0.78585336  0.75000000  1
  Sr  Sr7  1  0.50000000  0.45311375  0.75000000  1
  Ca  Ca8  1  0.00000000  0.38045627  0.25000000  1
  Ca  Ca9  1  0.00000000  0.61954373  0.75000000  1
  Ca  Ca10  1  0.50000000  0.88045627  0.25000000  1
  Ca  Ca11  1  0.50000000  0.11954373  0.75000000  1
  I  I12  1  0.24879285  0.04001198  0.58235384  1
  I  I13  1  0.24879285  0.95998802  0.08235384  1
  I  I14  1  0.26144996  0.20175757  0.58380615  1
  I  I15  1  0.26144996  0.79824243  0.08380615  1
  I  I16  1  0.23669300  0.37230078  0.56717611  1
  I  I17  1  0.23669300  0.62769922  0.06717611  1
  I  I18  1  0.26330700  0.87230078  0.56717611  1
  I  I19  1  0.26330700  0.12769922  0.06717611  1
  I  I20  1  0.23855004  0.29824243  0.08380615  1
  I  I21  1  0.23855004  0.70175757  0.58380615  1
  I  I22  1  0.25120715  0.45998802  0.08235384  1
  I  I23  1  0.25120715  0.54001198  0.58235384  1
  I  I24  1  0.74879285  0.45998802  0.41764616  1
  I  I25  1  0.74879285  0.54001198  0.91764616  1
  I  I26  1  0.76144996  0.29824243  0.41619385  1
  I  I27  1  0.76144996  0.70175757  0.91619385  1
  I  I28  1  0.73669300  0.12769922  0.43282389  1
  I  I29  1  0.73669300  0.87230078  0.93282389  1
  I  I30  1  0.76330700  0.37230078  0.93282389  1
  I  I31  1  0.76330700  0.62769922  0.43282389  1
  I  I32  1  0.73855004  0.79824243  0.41619385  1
  I  I33  1  0.73855004  0.20175757  0.91619385  1
  I  I34  1  0.75120715  0.04001198  0.91764616  1
  I  I35  1  0.75120715  0.95998802  0.41764616  1
