# generated using pymatgen
data_BaTi14O28
_symmetry_space_group_name_H-M   'P 1'
_cell_length_a   13.60860277
_cell_length_b   8.51798198
_cell_length_c   10.39656213
_cell_angle_alpha   112.09617112
_cell_angle_beta   84.31790536
_cell_angle_gamma   83.74700154
_symmetry_Int_Tables_number   1
_chemical_formula_structural   BaTi14O28
_chemical_formula_sum   'Ba2 Ti28 O56'
_cell_volume   1097.09605639
_cell_formula_units_Z   2
loop_
 _symmetry_equiv_pos_site_id
 _symmetry_equiv_pos_as_xyz
  1  'x, y, z'
loop_
 _atom_site_type_symbol
 _atom_site_label
 _atom_site_symmetry_multiplicity
 _atom_site_fract_x
 _atom_site_fract_y
 _atom_site_fract_z
 _atom_site_occupancy
  Ba  Ba0  1  0.85516632  0.14386292  0.85436005  1
  Ba  Ba1  1  0.42639407  0.57437306  0.42678757  1
  Ti  Ti2  1  0.97577912  0.54559270  0.15628933  1
  Ti  Ti3  1  0.83381014  0.69322361  0.01472317  1
  Ti  Ti4  1  0.99213394  0.82193662  0.50253277  1
  Ti  Ti5  1  0.84672927  0.97447842  0.36881135  1
  Ti  Ti6  1  0.86888540  0.31217472  0.34476742  1
  Ti  Ti7  1  0.58241426  0.59770710  0.05946559  1
  Ti  Ti8  1  0.72282661  0.46460471  0.21005938  1
  Ti  Ti9  1  0.88103529  0.59383877  0.69826602  1
  Ti  Ti10  1  0.73894398  0.73962470  0.55762833  1
  Ti  Ti11  1  0.59974950  0.89181713  0.41585509  1
  Ti  Ti12  1  0.68606242  0.82243041  0.86986097  1
  Ti  Ti13  1  0.54656756  0.97433020  0.72800774  1
  Ti  Ti14  1  0.70324845  0.11702173  0.22627053  1
  Ti  Ti15  1  0.56281198  0.24961611  0.07566715  1
  Ti  Ti16  1  0.43896253  0.73963284  0.91673826  1
  Ti  Ti17  1  0.29366648  0.89212236  0.78300190  1
  Ti  Ti18  1  0.45204672  0.02150582  0.27104587  1
  Ti  Ti19  1  0.30978963  0.16845923  0.12928906  1
  Ti  Ti20  1  0.40471551  0.12077950  0.58744163  1
  Ti  Ti21  1  0.25811622  0.25420031  0.44324878  1
  Ti  Ti22  1  0.11855087  0.40198006  0.29885864  1
  Ti  Ti23  1  0.41678560  0.40191676  0.94073752  1
  Ti  Ti24  1  0.27470949  0.54525751  0.79611934  1
  Ti  Ti25  1  0.13154509  0.68754761  0.65370638  1
  Ti  Ti26  1  0.15385013  0.02695706  0.63224677  1
  Ti  Ti27  1  0.01103298  0.16919618  0.48937692  1
  Ti  Ti28  1  0.16707010  0.31218903  0.98675245  1
  Ti  Ti29  1  0.02769240  0.45997393  0.84258802  1
  O  O30  1  0.97578697  0.66098103  0.02489432  1
  O  O31  1  0.94432848  0.76041220  0.32045026  1
  O  O32  1  0.80133181  0.90237600  0.17995246  1
  O  O33  1  0.97523016  0.40152882  0.27063838  1
  O  O34  1  0.83192490  0.54023313  0.12442350  1
  O  O35  1  0.88160270  0.74656170  0.59031316  1
  O  O36  1  0.73952610  0.88541143  0.44529376  1
  O  O37  1  0.66986745  0.37738579  0.02606353  1
  O  O38  1  0.80914855  0.23883340  0.16728033  1
  O  O39  1  0.95197497  0.09699984  0.31694079  1
  O  O40  1  0.91210199  0.38380382  0.53465596  1
  O  O41  1  0.76940149  0.52526032  0.39379292  1
  O  O42  1  0.62218028  0.66824179  0.25307028  1
  O  O43  1  0.48424634  0.81200246  0.10581360  1
  O  O44  1  0.83412182  0.80764769  0.88222305  1
  O  O45  1  0.69275299  0.94954437  0.74019573  1
  O  O46  1  0.88026147  0.47730623  0.83140589  1
  O  O47  1  0.73732904  0.62457056  0.69019351  1
  O  O48  1  0.45144434  0.90648985  0.40341316  1
  O  O49  1  0.59298122  0.76509041  0.54561283  1
  O  O50  1  0.66341682  0.04607415  0.03261471  1
  O  O51  1  0.90368488  0.04801608  0.54784987  1
  O  O52  1  0.61575385  0.33696930  0.25926336  1
  O  O53  1  0.76171728  0.18971513  0.39755701  1
  O  O54  1  0.47626802  0.47574078  0.11860553  1
  O  O55  1  0.54622950  0.82892535  0.84049155  1
  O  O56  1  0.69044966  0.68537141  0.98531694  1
  O  O57  1  0.40405619  0.96780118  0.69538697  1
  O  O58  1  0.59517541  0.02893406  0.30035384  1
  O  O59  1  0.45368378  0.17412867  0.16114185  1
  O  O60  1  0.31040593  0.31284686  0.01512526  1
  O  O61  1  0.52400034  0.52454912  0.88818697  1
  O  O62  1  0.38188375  0.66648817  0.73795974  1
  O  O63  1  0.23992891  0.80761944  0.59750140  1
  O  O64  1  0.09483021  0.95330104  0.45820840  1
  O  O65  1  0.34140179  0.95386556  0.96517798  1
  O  O66  1  0.54829423  0.08969368  0.59552394  1
  O  O67  1  0.40532591  0.23681314  0.45424289  1
  O  O68  1  0.26443798  0.37899092  0.31340406  1
  O  O69  1  0.11774238  0.51698412  0.16718790  1
  O  O70  1  0.30985410  0.05354257  0.26082636  1
  O  O71  1  0.16789258  0.19719734  0.11855049  1
  O  O72  1  0.51635597  0.18910729  0.89181191  1
  O  O73  1  0.37365534  0.33060887  0.75105787  1
  O  O74  1  0.23335185  0.47487537  0.60485395  1
  O  O75  1  0.08963030  0.61624095  0.46407351  1
  O  O76  1  0.33378579  0.61722746  0.96870233  1
  O  O77  1  0.19082095  0.76105476  0.82750434  1
  O  O78  1  0.04583620  0.90670705  0.68797644  1
  O  O79  1  0.26117227  0.11474938  0.55621667  1
  O  O80  1  0.11785018  0.25825410  0.41291893  1
  O  O81  1  0.16791746  0.45591247  0.87268468  1
  O  O82  1  0.02452020  0.59965976  0.72963232  1
  O  O83  1  0.19615571  0.09801301  0.82162804  1
  O  O84  1  0.05229201  0.23961106  0.68077828  1
  O  O85  1  0.02130117  0.33566242  0.97226325  1
