# generated using pymatgen
data_Li6V3P8O29
_symmetry_space_group_name_H-M   'P 1'
_cell_length_a   9.83724229
_cell_length_b   9.81250622
_cell_length_c   13.92268594
_cell_angle_alpha   90.06568291
_cell_angle_beta   89.91564196
_cell_angle_gamma   59.89017329
_symmetry_Int_Tables_number   1
_chemical_formula_structural   Li6V3P8O29
_chemical_formula_sum   'Li12 V6 P16 O58'
_cell_volume   1162.58248973
_cell_formula_units_Z   2
loop_
 _symmetry_equiv_pos_site_id
 _symmetry_equiv_pos_as_xyz
  1  'x, y, z'
loop_
 _atom_site_type_symbol
 _atom_site_label
 _atom_site_symmetry_multiplicity
 _atom_site_fract_x
 _atom_site_fract_y
 _atom_site_fract_z
 _atom_site_occupancy
  Li  Li0  1  0.90705359  0.76586860  0.05997145  1
  Li  Li1  1  0.90751377  0.31764674  0.55886753  1
  Li  Li2  1  0.66196994  0.67412765  0.88482787  1
  Li  Li3  1  0.76467660  0.32431746  0.06111235  1
  Li  Li4  1  0.32413434  0.90604755  0.06087884  1
  Li  Li5  1  0.69076488  0.22178885  0.44271052  1
  Li  Li6  1  0.31846175  0.77102228  0.56161063  1
  Li  Li7  1  0.33984281  0.32931933  0.61488681  1
  Li  Li8  1  0.08078980  0.69704958  0.44015150  1
  Li  Li9  1  0.22470434  0.08595381  0.43925959  1
  Li  Li10  1  0.09686564  0.23509607  0.94051264  1
  Li  Li11  1  0.98889284  0.97392534  0.99203972  1
  V  V12  1  0.56555201  0.43352176  0.24879256  1
  V  V13  1  0.43219185  0.56427348  0.75604474  1
  V  V14  1  0.56814370  0.00192045  0.74880452  1
  V  V15  1  0.43912752  0.99848989  0.24940874  1
  V  V16  1  0.99990604  0.56905057  0.24986429  1
  V  V17  1  0.00054839  0.43738813  0.74906668  1
  P  P18  1  0.90939462  0.77745915  0.84216960  1
  P  P19  1  0.76958319  0.91453934  0.34415394  1
  P  P20  1  0.91080232  0.32197154  0.34089977  1
  P  P21  1  0.66764038  0.66688727  0.12597825  1
  P  P22  1  0.66338314  0.66569958  0.62890388  1
  P  P23  1  0.77594703  0.31609095  0.84468529  1
  P  P24  1  0.68086743  0.22995115  0.65889008  1
  P  P25  1  0.31670729  0.91186176  0.84300586  1
  P  P26  1  0.69227283  0.08223024  0.15673863  1
  P  P27  1  0.31976090  0.76756468  0.34291098  1
  P  P28  1  0.22512160  0.68983824  0.15763572  1
  P  P29  1  0.33313381  0.33322314  0.37180358  1
  P  P30  1  0.33202353  0.33072101  0.87275085  1
  P  P31  1  0.09217105  0.68042087  0.65702282  1
  P  P32  1  0.23128306  0.09056817  0.65592741  1
  P  P33  1  0.08757362  0.22901756  0.15729257  1
  O  O34  1  0.00456163  0.75235562  0.56759448  1
  O  O35  1  0.91793289  0.74808733  0.34124022  1
  O  O36  1  0.79452536  0.99573681  0.07253365  1
  O  O37  1  0.74399705  0.91959341  0.83564438  1
  O  O38  1  0.89613374  0.62553927  0.83118961  1
  O  O39  1  0.81206301  0.67821950  0.16339127  1
  O  O40  1  0.89933043  0.48250024  0.32156433  1
  O  O41  1  0.99942989  0.22844935  0.06846441  1
  O  O42  1  0.92284459  0.33510897  0.84072745  1
  O  O43  1  0.65379105  0.81587748  0.67520491  1
  O  O44  1  0.62205190  0.89891911  0.32275146  1
  O  O45  1  0.81864505  0.51866772  0.67109619  1
  O  O46  1  0.66533857  0.66884188  0.01759660  1
  O  O47  1  0.66231961  0.66070376  0.52270545  1
  O  O48  1  0.67839186  0.51132604  0.16403580  1
  O  O49  1  0.48003312  0.89736182  0.83403020  1
  O  O50  1  0.51288604  0.81116156  0.16585851  1
  O  O51  1  0.74672500  0.33785309  0.34216777  1
  O  O52  1  0.78760349  0.21547804  0.75066049  1
  O  O53  1  0.75871849  0.24779343  0.57042682  1
  O  O54  1  0.77962321  0.22944023  0.93399404  1
  O  O55  1  0.62756195  0.48225069  0.83301165  1
  O  O56  1  0.51997276  0.65693919  0.67323948  1
  O  O57  1  0.66096808  0.25502885  0.16164320  1
  O  O58  1  0.47989533  0.61841009  0.32088353  1
  O  O59  1  0.33759415  0.91517006  0.34162933  1
  O  O60  1  0.79300445  0.00086593  0.25201375  1
  O  O61  1  0.75710366  0.00684295  0.43132301  1
  O  O62  1  0.24697247  0.99411959  0.56794836  1
  O  O63  1  0.66449695  0.08349173  0.65949911  1
  O  O64  1  0.51421924  0.37546135  0.67355329  1
  O  O65  1  0.33576956  0.74791884  0.84093310  1
  O  O66  1  0.48616754  0.32835640  0.33392668  1
  O  O67  1  0.37915508  0.53366865  0.16775153  1
  O  O68  1  0.20955858  0.79522375  0.07551974  1
  O  O69  1  0.24816635  0.75182571  0.43467775  1
  O  O70  1  0.20375365  0.78778267  0.25670217  1
  O  O71  1  0.25620314  0.66619390  0.65980738  1
  O  O72  1  0.47431038  0.18335205  0.82530283  1
  O  O73  1  0.53625334  0.08375854  0.16632243  1
  O  O74  1  0.33732564  0.47654421  0.82930729  1
  O  O75  1  0.32643139  0.32741292  0.97875770  1
  O  O76  1  0.33070472  0.33163137  0.47993251  1
  O  O77  1  0.18596180  0.48649674  0.33309838  1
  O  O78  1  0.37231918  0.11649081  0.66961441  1
  O  O79  1  0.32968621  0.18500892  0.33138074  1
  O  O80  1  0.08256288  0.66159261  0.16015521  1
  O  O81  1  0.00384472  0.78523417  0.75009922  1
  O  O82  1  0.99091490  0.78087715  0.93228270  1
  O  O83  1  0.11800686  0.51106825  0.67505755  1
  O  O84  1  0.17948199  0.33492059  0.82989676  1
  O  O85  1  0.09347780  0.38000713  0.17165916  1
  O  O86  1  0.25479966  0.08170939  0.15947910  1
  O  O87  1  0.22477184  0.00468140  0.93065784  1
  O  O88  1  0.21552567  0.00246146  0.74896499  1
  O  O89  1  0.07900304  0.25272620  0.65446845  1
  O  O90  1  0.00228037  0.24524409  0.43069373  1
  O  O91  1  0.99960508  0.20918276  0.25024069  1
