# generated using pymatgen
data_LiZnBO3
_symmetry_space_group_name_H-M   'P 1'
_cell_length_a   5.08204857
_cell_length_b   8.85928038
_cell_length_c   11.22199842
_cell_angle_alpha   89.98722443
_cell_angle_beta   90.41461129
_cell_angle_gamma   89.90380485
_symmetry_Int_Tables_number   1
_chemical_formula_structural   LiZnBO3
_chemical_formula_sum   'Li8 Zn8 B8 O24'
_cell_volume   505.23736961
_cell_formula_units_Z   8
loop_
 _symmetry_equiv_pos_site_id
 _symmetry_equiv_pos_as_xyz
  1  'x, y, z'
loop_
 _atom_site_type_symbol
 _atom_site_label
 _atom_site_symmetry_multiplicity
 _atom_site_fract_x
 _atom_site_fract_y
 _atom_site_fract_z
 _atom_site_occupancy
  Li  Li0  1  0.32461368  0.01450628  0.83362250  1
  Li  Li1  1  0.65168762  0.99788089  0.10240303  1
  Li  Li2  1  0.66392596  0.00256037  0.64746247  1
  Li  Li3  1  0.17566367  0.50951867  0.66688462  1
  Li  Li4  1  0.89623280  0.49151479  0.27439730  1
  Li  Li5  1  0.83482156  0.50914189  0.84714490  1
  Li  Li6  1  0.84783578  0.50634327  0.46571354  1
  Li  Li7  1  0.33912614  0.99350204  0.32763407  1
  Zn  Zn8  1  0.14505179  0.16911751  0.10942953  1
  Zn  Zn9  1  0.83955913  0.16241971  0.37898003  1
  Zn  Zn10  1  0.33817390  0.34500974  0.89809296  1
  Zn  Zn11  1  0.65576838  0.32571577  0.64733405  1
  Zn  Zn12  1  0.34856840  0.66641388  0.34973467  1
  Zn  Zn13  1  0.16027013  0.83770506  0.60530708  1
  Zn  Zn14  1  0.63351260  0.65472858  0.09162565  1
  Zn  Zn15  1  0.84963206  0.83930672  0.88794135  1
  B  B16  1  0.15636189  0.16885239  0.62865908  1
  B  B17  1  0.83265940  0.17079626  0.87010776  1
  B  B18  1  0.34198245  0.33559224  0.37459318  1
  B  B19  1  0.65457131  0.32661050  0.11490502  1
  B  B20  1  0.33618661  0.67264649  0.86625869  1
  B  B21  1  0.15540271  0.83114479  0.12582210  1
  B  B22  1  0.65999335  0.67042896  0.63280694  1
  B  B23  1  0.84790785  0.82634188  0.37699923  1
  O  O24  1  0.29501944  0.03658575  0.65114299  1
  O  O25  1  0.09672750  0.16923067  0.90120875  1
  O  O26  1  0.68950572  0.03815088  0.86907187  1
  O  O27  1  0.21925489  0.19819473  0.35086357  1
  O  O28  1  0.27698542  0.30703973  0.64303634  1
  O  O29  1  0.77687652  0.19113353  0.14587392  1
  O  O30  1  0.88933744  0.16176391  0.59586494  1
  O  O31  1  0.39479112  0.32582122  0.07482319  1
  O  O32  1  0.18934008  0.46701461  0.37922480  1
  O  O33  1  0.70656529  0.30646665  0.83777883  1
  O  O34  1  0.61614472  0.34486547  0.39049973  1
  O  O35  1  0.20116954  0.53935044  0.84624285  1
  O  O36  1  0.78919901  0.46046343  0.12156619  1
  O  O37  1  0.28643635  0.70003969  0.16185368  1
  O  O38  1  0.39477279  0.66538603  0.61107053  1
  O  O39  1  0.80305261  0.53327397  0.63598229  1
  O  O40  1  0.60284630  0.66451744  0.90297491  1
  O  O41  1  0.21811686  0.81074346  0.85271564  1
  O  O42  1  0.11821215  0.83531008  0.40720468  1
  O  O43  1  0.73608442  0.68275492  0.36239672  1
  O  O44  1  0.79278264  0.80473663  0.65197642  1
  O  O45  1  0.28764421  0.96754815  0.13686211  1
  O  O46  1  0.89438294  0.82809454  0.08320710  1
  O  O47  1  0.70277988  0.95662639  0.36296322  1
