# generated using pymatgen
data_Li7Mn14O32
_symmetry_space_group_name_H-M   'P 1'
_cell_length_a   5.83284549
_cell_length_b   5.83281781
_cell_length_c   19.31771144
_cell_angle_alpha   98.68311685
_cell_angle_beta   89.99997951
_cell_angle_gamma   120.00023877
_symmetry_Int_Tables_number   1
_chemical_formula_structural   Li7Mn14O32
_chemical_formula_sum   'Li7 Mn14 O32'
_cell_volume   560.45775164
_cell_formula_units_Z   1
loop_
 _symmetry_equiv_pos_site_id
 _symmetry_equiv_pos_as_xyz
  1  'x, y, z'
loop_
 _atom_site_type_symbol
 _atom_site_label
 _atom_site_symmetry_multiplicity
 _atom_site_fract_x
 _atom_site_fract_y
 _atom_site_fract_z
 _atom_site_occupancy
  Li  Li0  1  0.90397296  0.80794740  0.21191553  1
  Li  Li1  1  0.59435164  0.18870282  0.28305863  1
  Li  Li2  1  0.34531772  0.69063628  0.53595038  1
  Li  Li3  1  0.40589607  0.81179185  0.71767795  1
  Li  Li4  1  0.65473347  0.30946772  0.46420348  1
  Li  Li5  1  0.09547693  0.19095418  0.78643118  1
  Li  Li6  1  0.15524594  0.31049228  0.96574124  1
  Mn  Mn7  1  0.37323887  0.74648077  0.12674492  1
  Mn  Mn8  1  0.37323852  0.25350803  0.12674322  1
  Mn  Mn9  1  0.12759335  0.74526539  0.37285777  1
  Mn  Mn10  1  0.50055750  0.00111877  0.00167450  1
  Mn  Mn11  1  0.61767617  0.74526570  0.37285984  1
  Mn  Mn12  1  0.88027080  0.25351127  0.12674475  1
  Mn  Mn13  1  0.12758705  0.25517112  0.37285831  1
  Mn  Mn14  1  0.99997965  0.99995708  0.49993825  1
  Mn  Mn15  1  0.38237600  0.25470578  0.62703481  1
  Mn  Mn16  1  0.87233290  0.74467130  0.62703419  1
  Mn  Mn17  1  0.11794816  0.74571039  0.87348351  1
  Mn  Mn18  1  0.62776442  0.74571144  0.87348425  1
  Mn  Mn19  1  0.87233429  0.25470683  0.62703247  1
  Mn  Mn20  1  0.62776579  0.25553254  0.87348363  1
  O  O21  1  0.23161970  0.89907307  0.06651717  1
  O  O22  1  0.66745232  0.89907383  0.06651734  1
  O  O23  1  0.06735175  0.60781723  0.17514906  1
  O  O24  1  0.19068467  0.38137090  0.07204101  1
  O  O25  1  0.54046348  0.60781808  0.17514893  1
  O  O26  1  0.06734200  0.13468675  0.17514800  1
  O  O27  1  0.43272619  0.86544973  0.32518753  1
  O  O28  1  0.66745144  0.33490375  0.06651645  1
  O  O29  1  0.16889703  0.89586431  0.56475214  1
  O  O30  1  0.43271598  0.39245243  0.32518706  1
  O  O31  1  0.30952549  0.61905033  0.42859140  1
  O  O32  1  0.55983726  0.11967382  0.17952232  1
  O  O33  1  0.94050562  0.88101021  0.32150202  1
  O  O34  1  0.83103057  0.66206014  0.43508904  1
  O  O35  1  0.27302367  0.10405140  0.43508896  1
  O  O36  1  0.04041451  0.60756679  0.67469750  1
  O  O37  1  0.72696746  0.89586489  0.56475227  1
  O  O38  1  0.95973468  0.39245108  0.32518667  1
  O  O39  1  0.16889455  0.33778892  0.56475257  1
  O  O40  1  0.05944491  0.11889184  0.67835018  1
  O  O41  1  0.44045784  0.88091433  0.82135931  1
  O  O42  1  0.69044737  0.38089380  0.57132401  1
  O  O43  1  0.83102804  0.10405203  0.43508965  1
  O  O44  1  0.56714996  0.60756439  0.67469719  1
  O  O45  1  0.56714351  0.13428554  0.67469651  1
  O  O46  1  0.33092480  0.66185056  0.93449535  1
  O  O47  1  0.93314179  0.86628348  0.82491603  1
  O  O48  1  0.45862734  0.39176175  0.82491550  1
  O  O49  1  0.93313425  0.39176186  0.82491512  1
  O  O50  1  0.80889265  0.61778444  0.92669723  1
  O  O51  1  0.33092028  0.10355964  0.93449535  1
  O  O52  1  0.77263866  0.10355975  0.93449532  1
