# generated using pymatgen
data_LiV(PO3)3
_symmetry_space_group_name_H-M   'P 1'
_cell_length_a   8.57066452
_cell_length_b   8.61308820
_cell_length_c   9.02323006
_cell_angle_alpha   90.00000000
_cell_angle_beta   90.00000000
_cell_angle_gamma   90.00000000
_symmetry_Int_Tables_number   1
_chemical_formula_structural   LiV(PO3)3
_chemical_formula_sum   'Li4 V4 P12 O36'
_cell_volume   666.09384545
_cell_formula_units_Z   4
loop_
 _symmetry_equiv_pos_site_id
 _symmetry_equiv_pos_as_xyz
  1  'x, y, z'
loop_
 _atom_site_type_symbol
 _atom_site_label
 _atom_site_symmetry_multiplicity
 _atom_site_fract_x
 _atom_site_fract_y
 _atom_site_fract_z
 _atom_site_occupancy
  Li  Li0  1  0.10566945  0.87983132  0.41154744  1
  Li  Li1  1  0.39433055  0.12016868  0.91154744  1
  Li  Li2  1  0.60566945  0.62016868  0.58845256  1
  Li  Li3  1  0.89433055  0.37983132  0.08845256  1
  V  V4  1  0.11900954  0.09694886  0.13985483  1
  V  V5  1  0.38099046  0.90305114  0.63985483  1
  V  V6  1  0.61900954  0.40305114  0.86014517  1
  V  V7  1  0.88099046  0.59694886  0.36014517  1
  P  P8  1  0.06094016  0.94936783  0.81792837  1
  P  P9  1  0.06748627  0.72064786  0.06778656  1
  P  P10  1  0.22641881  0.55901175  0.55770971  1
  P  P11  1  0.27358119  0.44098825  0.05770971  1
  P  P12  1  0.43251373  0.27935214  0.56778656  1
  P  P13  1  0.43905984  0.05063217  0.31792837  1
  P  P14  1  0.56094016  0.55063217  0.18207163  1
  P  P15  1  0.56748627  0.77935214  0.93221344  1
  P  P16  1  0.72641881  0.94098825  0.44229029  1
  P  P17  1  0.77358119  0.05901175  0.94229029  1
  P  P18  1  0.93251373  0.22064786  0.43221344  1
  P  P19  1  0.93905984  0.44936783  0.68207163  1
  O  O20  1  0.02090260  0.79051547  0.90822168  1
  O  O21  1  0.06245878  0.11976121  0.37484989  1
  O  O22  1  0.12221107  0.90852382  0.66734968  1
  O  O23  1  0.11324794  0.52037265  0.69855559  1
  O  O24  1  0.12176869  0.84848927  0.16869568  1
  O  O25  1  0.13875007  0.34418316  0.10957718  1
  O  O26  1  0.12846008  0.61993891  0.43174365  1
  O  O27  1  0.16032526  0.05673405  0.91015628  1
  O  O28  1  0.21061099  0.61124399  0.01564502  1
  O  O29  1  0.28938901  0.38875601  0.51564502  1
  O  O30  1  0.33967474  0.94326595  0.41015628  1
  O  O31  1  0.37153992  0.38006109  0.93174365  1
  O  O32  1  0.36124993  0.65581684  0.60957718  1
  O  O33  1  0.37823131  0.15151073  0.66869568  1
  O  O34  1  0.38675206  0.47962735  0.19855559  1
  O  O35  1  0.37778893  0.09147618  0.16734968  1
  O  O36  1  0.43754122  0.88023879  0.87484989  1
  O  O37  1  0.47909740  0.20948453  0.40822168  1
  O  O38  1  0.52090260  0.70948453  0.09177832  1
  O  O39  1  0.56245878  0.38023879  0.62515011  1
  O  O40  1  0.62221107  0.59147618  0.33265032  1
  O  O41  1  0.61324794  0.97962735  0.30144441  1
  O  O42  1  0.62176869  0.65151073  0.83130432  1
  O  O43  1  0.63875007  0.15581684  0.89042282  1
  O  O44  1  0.62846008  0.88006109  0.56825635  1
  O  O45  1  0.66032526  0.44326595  0.08984372  1
  O  O46  1  0.71061099  0.88875601  0.98435498  1
  O  O47  1  0.78938901  0.11124399  0.48435498  1
  O  O48  1  0.83967474  0.55673405  0.58984372  1
  O  O49  1  0.87153992  0.11993891  0.06825635  1
  O  O50  1  0.86124993  0.84418316  0.39042282  1
  O  O51  1  0.87823131  0.34848927  0.33130432  1
  O  O52  1  0.88675206  0.02037265  0.80144441  1
  O  O53  1  0.87778893  0.40852382  0.83265032  1
  O  O54  1  0.93754122  0.61976121  0.12515011  1
  O  O55  1  0.97909740  0.29051547  0.59177832  1
