# generated using pymatgen
data_Li6V3P8O29
_symmetry_space_group_name_H-M   'P 1'
_cell_length_a   9.78936011
_cell_length_b   9.78306428
_cell_length_c   13.97568993
_cell_angle_alpha   89.79447509
_cell_angle_beta   89.90622974
_cell_angle_gamma   60.27736428
_symmetry_Int_Tables_number   1
_chemical_formula_structural   Li6V3P8O29
_chemical_formula_sum   'Li12 V6 P16 O58'
_cell_volume   1162.35112452
_cell_formula_units_Z   2
loop_
 _symmetry_equiv_pos_site_id
 _symmetry_equiv_pos_as_xyz
  1  'x, y, z'
loop_
 _atom_site_type_symbol
 _atom_site_label
 _atom_site_symmetry_multiplicity
 _atom_site_fract_x
 _atom_site_fract_y
 _atom_site_fract_z
 _atom_site_occupancy
  Li  Li0  1  0.76605243  0.90184715  0.55920609  1
  Li  Li1  1  0.90572944  0.33460474  0.56083160  1
  Li  Li2  1  0.76603371  0.33055094  0.05743377  1
  Li  Li3  1  0.33716754  0.89557072  0.05907965  1
  Li  Li4  1  0.66717348  0.23803624  0.44099614  1
  Li  Li5  1  0.33716635  0.76589900  0.56284733  1
  Li  Li6  1  0.67892488  0.08401448  0.93694861  1
  Li  Li7  1  0.32923506  0.34590456  0.11147307  1
  Li  Li8  1  0.09788137  0.66673023  0.43851521  1
  Li  Li9  1  0.09460809  0.22738413  0.93860329  1
  Li  Li10  1  0.02282279  0.91995524  0.00703400  1
  Li  Li11  1  0.03828433  0.01428606  0.49442476  1
  V  V12  1  0.56127328  0.43999248  0.24957501  1
  V  V13  1  0.43228463  0.56477146  0.75442403  1
  V  V14  1  0.56393470  0.99763562  0.74779524  1
  V  V15  1  0.43232587  0.00355688  0.25233242  1
  V  V16  1  0.99418133  0.56773163  0.24856587  1
  V  V17  1  0.00083921  0.43684852  0.75106619  1
  P  P18  1  0.91381432  0.77704423  0.83992084  1
  P  P19  1  0.77281203  0.91710201  0.34083984  1
  P  P20  1  0.91462278  0.30900167  0.34505956  1
  P  P21  1  0.66392638  0.66808204  0.12969624  1
  P  P22  1  0.66627870  0.66442105  0.63065753  1
  P  P23  1  0.77298000  0.31404283  0.84150606  1
  P  P24  1  0.68556956  0.22835511  0.65760184  1
  P  P25  1  0.31224642  0.91307866  0.84543234  1
  P  P26  1  0.68565576  0.09062407  0.15433046  1
  P  P27  1  0.31309385  0.77367721  0.34429207  1
  P  P28  1  0.21726642  0.69202395  0.15993378  1
  P  P29  1  0.33139319  0.33727337  0.36832645  1
  P  P30  1  0.33710559  0.32822955  0.87100122  1
  P  P31  1  0.08545014  0.68929717  0.65513933  1
  P  P32  1  0.22049753  0.08648728  0.66080584  1
  P  P33  1  0.08919302  0.22560069  0.15947954  1
  O  O34  1  0.00007788  0.77238913  0.56422225  1
  O  O35  1  0.91542096  0.74936594  0.34156987  1
  O  O36  1  0.77076660  0.00718882  0.06519414  1
  O  O37  1  0.74045294  0.91470969  0.83604017  1
  O  O38  1  0.91985292  0.61673988  0.83076907  1
  O  O39  1  0.80989163  0.66629194  0.17768933  1
  O  O40  1  0.92084184  0.46222533  0.33425305  1
  O  O41  1  0.99592476  0.23659012  0.07091829  1
  O  O42  1  0.92023276  0.33450894  0.84070599  1
  O  O43  1  0.67768450  0.80961215  0.66935881  1
  O  O44  1  0.61723226  0.91607110  0.32981953  1
  O  O45  1  0.81153346  0.51122909  0.67197142  1
  O  O46  1  0.66774623  0.65608159  0.02366735  1
  O  O47  1  0.66469663  0.66360542  0.52367596  1
  O  O48  1  0.66569403  0.51737109  0.17403793  1
  O  O49  1  0.46763490  0.91392417  0.83004574  1
  O  O50  1  0.51265431  0.81715736  0.16761468  1
  O  O51  1  0.74528460  0.33690876  0.33922242  1
  O  O52  1  0.79496256  0.20369505  0.75024875  1
  O  O53  1  0.77706962  0.22519067  0.56942724  1
  O  O54  1  0.77030475  0.22848579  0.93080990  1
  O  O55  1  0.62278483  0.47345026  0.82767850  1
  O  O56  1  0.51211481  0.67399652  0.67267083  1
  O  O57  1  0.66092729  0.25966243  0.15614378  1
  O  O58  1  0.46876522  0.61817632  0.33353056  1
  O  O59  1  0.33914915  0.91425818  0.33471609  1
  O  O60  1  0.79298564  0.00264290  0.24701085  1
  O  O61  1  0.77478206  0.00563059  0.42922490  1
  O  O62  1  0.20683969  0.99401967  0.57956249  1
  O  O63  1  0.66032128  0.08363272  0.65729906  1
  O  O64  1  0.53078430  0.38291630  0.66967563  1
  O  O65  1  0.33904133  0.74588774  0.83922458  1
  O  O66  1  0.48357624  0.33091788  0.32232293  1
  O  O67  1  0.37228774  0.53021843  0.16561394  1
  O  O68  1  0.21200241  0.79594457  0.07929182  1
  O  O69  1  0.22575345  0.78128924  0.43584504  1
  O  O70  1  0.19894705  0.78660860  0.25795671  1
  O  O71  1  0.25212155  0.66721505  0.65849120  1
  O  O72  1  0.49005412  0.18429453  0.83111819  1
  O  O73  1  0.52246747  0.10250978  0.16875062  1
  O  O74  1  0.33210971  0.47862002  0.82629145  1
  O  O75  1  0.34138661  0.32644503  0.97844807  1
  O  O76  1  0.34587102  0.33528509  0.47449951  1
  O  O77  1  0.18513025  0.49244030  0.33043638  1
  O  O78  1  0.37994426  0.08148859  0.66842238  1
  O  O79  1  0.32475854  0.19506608  0.32151732  1
  O  O80  1  0.07921018  0.66025096  0.15860238  1
  O  O81  1  0.99054782  0.80149700  0.74314510  1
  O  O82  1  0.99697500  0.79292926  0.92351152  1
  O  O83  1  0.08939478  0.53139837  0.67095498  1
  O  O84  1  0.19032587  0.32097632  0.83352871  1
  O  O85  1  0.10717588  0.37415340  0.17251693  1
  O  O86  1  0.25512957  0.08042728  0.15610812  1
  O  O87  1  0.22950286  0.99543998  0.93647225  1
  O  O88  1  0.19606413  0.01394946  0.75885849  1
  O  O89  1  0.08299636  0.25901586  0.65908878  1
  O  O90  1  0.99160372  0.21846557  0.43496780  1
  O  O91  1  0.00527346  0.20252475  0.25212000  1
