# generated using pymatgen
data_Li6V3P8O29
_symmetry_space_group_name_H-M   'P 1'
_cell_length_a   9.81379821
_cell_length_b   9.81225273
_cell_length_c   13.90177265
_cell_angle_alpha   90.27059863
_cell_angle_beta   90.17104637
_cell_angle_gamma   60.16646009
_symmetry_Int_Tables_number   1
_chemical_formula_structural   Li6V3P8O29
_chemical_formula_sum   'Li12 V6 P16 O58'
_cell_volume   1161.25535856
_cell_formula_units_Z   2
loop_
 _symmetry_equiv_pos_site_id
 _symmetry_equiv_pos_as_xyz
  1  'x, y, z'
loop_
 _atom_site_type_symbol
 _atom_site_label
 _atom_site_symmetry_multiplicity
 _atom_site_fract_x
 _atom_site_fract_y
 _atom_site_fract_z
 _atom_site_occupancy
  Li  Li0  1  0.91517923  0.77432700  0.06134416  1
  Li  Li1  1  0.90549693  0.33057212  0.55782226  1
  Li  Li2  1  0.66392970  0.66987686  0.88536411  1
  Li  Li3  1  0.77262505  0.31793277  0.06345803  1
  Li  Li4  1  0.31817391  0.90804946  0.06229890  1
  Li  Li5  1  0.66930280  0.23202258  0.43603103  1
  Li  Li6  1  0.33384925  0.76597719  0.55879424  1
  Li  Li7  1  0.68169099  0.09022143  0.94080874  1
  Li  Li8  1  0.33478083  0.32767331  0.61391829  1
  Li  Li9  1  0.09428041  0.67163806  0.43720078  1
  Li  Li10  1  0.09366204  0.22402053  0.94312897  1
  Li  Li11  1  0.99965577  0.00011632  0.49507249  1
  V  V12  1  0.56427596  0.43385732  0.24791399  1
  V  V13  1  0.43083516  0.56733450  0.75493248  1
  V  V14  1  0.56804240  0.99613473  0.74467252  1
  V  V15  1  0.43061632  0.00293550  0.25559005  1
  V  V16  1  0.99944686  0.56814509  0.24986353  1
  V  V17  1  0.00017298  0.43667738  0.74986103  1
  P  P18  1  0.91053171  0.77211856  0.84311107  1
  P  P19  1  0.77512763  0.91513387  0.34243505  1
  P  P20  1  0.90967457  0.31643184  0.34288204  1
  P  P21  1  0.66599550  0.66760782  0.12737745  1
  P  P22  1  0.66565174  0.66377174  0.62726810  1
  P  P23  1  0.77041610  0.32041906  0.84328811  1
  P  P24  1  0.68264116  0.22849376  0.65711397  1
  P  P25  1  0.31980547  0.91184392  0.84443512  1
  P  P26  1  0.67965631  0.08517756  0.15727033  1
  P  P27  1  0.31644454  0.77111284  0.34245162  1
  P  P28  1  0.22988806  0.68445580  0.15747251  1
  P  P29  1  0.33282415  0.33521039  0.37361519  1
  P  P30  1  0.33493592  0.32968745  0.87213025  1
  P  P31  1  0.09006557  0.68555254  0.65625123  1
  P  P32  1  0.22316929  0.08715840  0.65693193  1
  P  P33  1  0.08766708  0.23081796  0.16025906  1
  O  O34  1  0.00903548  0.76665032  0.56520430  1
  O  O35  1  0.91958861  0.74526905  0.33918947  1
  O  O36  1  0.75463865  0.99784370  0.06554940  1
  O  O37  1  0.74614764  0.92118711  0.84009335  1
  O  O38  1  0.88729874  0.62684149  0.82503668  1
  O  O39  1  0.81552682  0.67251983  0.16500941  1
  O  O40  1  0.90546821  0.47240358  0.32829011  1
  O  O41  1  0.99673145  0.24652539  0.06925340  1
  O  O42  1  0.92088874  0.33276851  0.84504892  1
  O  O43  1  0.66287112  0.81299685  0.67251561  1
  O  O44  1  0.62342735  0.90979041  0.33177414  1
  O  O45  1  0.81807803  0.51530340  0.66914814  1
  O  O46  1  0.66836147  0.66482671  0.01857988  1
  O  O47  1  0.66644283  0.66009132  0.52047535  1
  O  O48  1  0.67361928  0.51212602  0.16446618  1
  O  O49  1  0.48542960  0.89209580  0.82808343  1
  O  O50  1  0.51491976  0.81410932  0.16586352  1
  O  O51  1  0.74086020  0.33902902  0.33537253  1
  O  O52  1  0.78820801  0.21408721  0.75064879  1
  O  O53  1  0.77098307  0.23144028  0.56872204  1
  O  O54  1  0.75162157  0.24458674  0.93230245  1
  O  O55  1  0.62816955  0.48761980  0.82692100  1
  O  O56  1  0.51730007  0.66353564  0.66978886  1
  O  O57  1  0.66155668  0.25102392  0.15724594  1
  O  O58  1  0.47225410  0.61923645  0.32982129  1
  O  O59  1  0.34137753  0.91416619  0.33562758  1
  O  O60  1  0.79609041  0.99418056  0.24479130  1
  O  O61  1  0.78971913  0.00531447  0.42569943  1
  O  O62  1  0.22064162  0.99001735  0.57442056  1
  O  O63  1  0.66022139  0.08581089  0.65918407  1
  O  O64  1  0.52049342  0.37885762  0.66863921  1
  O  O65  1  0.33791162  0.74780207  0.84118164  1
  O  O66  1  0.48784730  0.32567536  0.33486696  1
  O  O67  1  0.38067469  0.52370957  0.17667170  1
  O  O68  1  0.24236180  0.76710513  0.07191053  1
  O  O69  1  0.22795808  0.77733560  0.43328407  1
  O  O70  1  0.20358962  0.78918301  0.25380015  1
  O  O71  1  0.25631425  0.66604877  0.66017156  1
  O  O72  1  0.47977284  0.18006844  0.82743984  1
  O  O73  1  0.52200116  0.09352365  0.17781035  1
  O  O74  1  0.34040532  0.47389293  0.82639607  1
  O  O75  1  0.33531225  0.32620928  0.97876861  1
  O  O76  1  0.33671188  0.33716227  0.48219652  1
  O  O77  1  0.18680770  0.49109172  0.33728565  1
  O  O78  1  0.37238350  0.10403848  0.66677597  1
  O  O79  1  0.32377250  0.19393311  0.33034873  1
  O  O80  1  0.08444260  0.66258788  0.15788045  1
  O  O81  1  0.00000576  0.78754516  0.74984202  1
  O  O82  1  0.99688648  0.75715511  0.93402772  1
  O  O83  1  0.10668868  0.51946087  0.66967823  1
  O  O84  1  0.18076277  0.33670199  0.82925109  1
  O  O85  1  0.09678192  0.38178917  0.17912260  1
  O  O86  1  0.25200301  0.08472374  0.15915373  1
  O  O87  1  0.24452497  0.00340346  0.93462553  1
  O  O88  1  0.20846241  0.00868354  0.75561690  1
  O  O89  1  0.07843158  0.25439516  0.65633559  1
  O  O90  1  0.98433048  0.22911948  0.43386510  1
  O  O91  1  0.99947587  0.20670844  0.25044769  1
