# generated using pymatgen
data_LiMnCO4
_symmetry_space_group_name_H-M   'P 1'
_cell_length_a   3.30942635
_cell_length_b   9.19137228
_cell_length_c   9.44776148
_cell_angle_alpha   90.00000000
_cell_angle_beta   95.53610029
_cell_angle_gamma   90.00000000
_symmetry_Int_Tables_number   1
_chemical_formula_structural   LiMnCO4
_chemical_formula_sum   'Li4 Mn4 C4 O16'
_cell_volume   286.04314224
_cell_formula_units_Z   4
loop_
 _symmetry_equiv_pos_site_id
 _symmetry_equiv_pos_as_xyz
  1  'x, y, z'
loop_
 _atom_site_type_symbol
 _atom_site_label
 _atom_site_symmetry_multiplicity
 _atom_site_fract_x
 _atom_site_fract_y
 _atom_site_fract_z
 _atom_site_occupancy
  Li  Li0  1  0.23374196  0.31511890  0.90308177  1
  Li  Li1  1  0.23374196  0.18488110  0.40308177  1
  Li  Li2  1  0.76625804  0.81511890  0.59691823  1
  Li  Li3  1  0.76625804  0.68488110  0.09691823  1
  Mn  Mn4  1  0.24054663  0.93621830  0.88528262  1
  Mn  Mn5  1  0.24054663  0.56378170  0.38528262  1
  Mn  Mn6  1  0.75945337  0.43621830  0.61471738  1
  Mn  Mn7  1  0.75945337  0.06378170  0.11471738  1
  C  C8  1  0.22697644  0.63089711  0.84080015  1
  C  C9  1  0.22697644  0.86910289  0.34080015  1
  C  C10  1  0.77302356  0.13089711  0.65919985  1
  C  C11  1  0.77302356  0.36910289  0.15919985  1
  O  O12  1  0.20401333  0.50831184  0.76772990  1
  O  O13  1  0.27049984  0.11140028  0.99485061  1
  O  O14  1  0.23626031  0.75327096  0.76818088  1
  O  O15  1  0.20401333  0.99168816  0.26772990  1
  O  O16  1  0.27049984  0.38859972  0.49485061  1
  O  O17  1  0.23626031  0.74672904  0.26818088  1
  O  O18  1  0.24530607  0.63015704  0.97441675  1
  O  O19  1  0.24530607  0.86984296  0.47441675  1
  O  O20  1  0.75469393  0.13015704  0.52558325  1
  O  O21  1  0.75469393  0.36984296  0.02558325  1
  O  O22  1  0.76373969  0.25327096  0.73181912  1
  O  O23  1  0.72950016  0.61140028  0.50514939  1
  O  O24  1  0.79598667  0.00831184  0.73227010  1
  O  O25  1  0.76373969  0.24672904  0.23181912  1
  O  O26  1  0.72950016  0.88859972  0.00514939  1
  O  O27  1  0.79598667  0.49168816  0.23227010  1
