# generated using pymatgen
data_Li6V3P8O29
_symmetry_space_group_name_H-M   'P 1'
_cell_length_a   9.80799815
_cell_length_b   9.86373405
_cell_length_c   13.88212167
_cell_angle_alpha   90.02828374
_cell_angle_beta   90.39427705
_cell_angle_gamma   59.93785368
_symmetry_Int_Tables_number   1
_chemical_formula_structural   Li6V3P8O29
_chemical_formula_sum   'Li12 V6 P16 O58'
_cell_volume   1162.31297983
_cell_formula_units_Z   2
loop_
 _symmetry_equiv_pos_site_id
 _symmetry_equiv_pos_as_xyz
  1  'x, y, z'
loop_
 _atom_site_type_symbol
 _atom_site_label
 _atom_site_symmetry_multiplicity
 _atom_site_fract_x
 _atom_site_fract_y
 _atom_site_fract_z
 _atom_site_occupancy
  Li  Li0  1  0.77577834  0.90899281  0.55646744  1
  Li  Li1  1  0.91022131  0.31754348  0.55946174  1
  Li  Li2  1  0.67133704  0.66743528  0.38018462  1
  Li  Li3  1  0.67133262  0.66632734  0.88521054  1
  Li  Li4  1  0.77231011  0.31705615  0.06318693  1
  Li  Li5  1  0.31873196  0.90701089  0.06411051  1
  Li  Li6  1  0.67448631  0.22655856  0.43686273  1
  Li  Li7  1  0.31109321  0.77377587  0.55961177  1
  Li  Li8  1  0.68254338  0.09057065  0.94117621  1
  Li  Li9  1  0.22404641  0.67782793  0.94393280  1
  Li  Li10  1  0.22864477  0.09549238  0.43694278  1
  Li  Li11  1  0.09421509  0.22644686  0.94257581  1
  V  V12  1  0.56550336  0.43232044  0.24809238  1
  V  V13  1  0.42809456  0.56859411  0.74826396  1
  V  V14  1  0.57052073  0.00034816  0.74807415  1
  V  V15  1  0.43101691  0.00226680  0.24793495  1
  V  V16  1  0.00376555  0.56934310  0.25090838  1
  V  V17  1  0.00367387  0.43497294  0.75066304  1
  P  P18  1  0.91476876  0.76958550  0.84284227  1
  P  P19  1  0.77183901  0.90940291  0.34187007  1
  P  P20  1  0.91020500  0.32130927  0.34188976  1
  P  P21  1  0.66810101  0.66474426  0.12713189  1
  P  P22  1  0.66643450  0.66665837  0.62588698  1
  P  P23  1  0.76962971  0.32090610  0.84342946  1
  P  P24  1  0.68030437  0.23369247  0.65796220  1
  P  P25  1  0.32212192  0.90922142  0.84244422  1
  P  P26  1  0.68179417  0.08635130  0.15713567  1
  P  P27  1  0.32211830  0.76971146  0.34322074  1
  P  P28  1  0.22808027  0.68471857  0.15890768  1
  P  P29  1  0.33371686  0.33029079  0.37418372  1
  P  P30  1  0.33608446  0.33333265  0.87408815  1
  P  P31  1  0.08254555  0.68428718  0.65514795  1
  P  P32  1  0.23103508  0.08724545  0.65757061  1
  P  P33  1  0.08563321  0.23570439  0.15742711  1
  O  O34  1  0.99139701  0.76898156  0.56801838  1
  O  O35  1  0.91720833  0.74686218  0.34079032  1
  O  O36  1  0.75358126  0.00500549  0.06562241  1
  O  O37  1  0.74548062  0.91814433  0.83954203  1
  O  O38  1  0.89006556  0.62635965  0.82667573  1
  O  O39  1  0.81425596  0.66308497  0.17319578  1
  O  O40  1  0.88806347  0.48620198  0.32878088  1
  O  O41  1  0.99575056  0.24247774  0.06742679  1
  O  O42  1  0.91971816  0.33391609  0.84400406  1
  O  O43  1  0.67322335  0.81394114  0.66377158  1
  O  O44  1  0.62531856  0.88998665  0.32563077  1
  O  O45  1  0.81526794  0.51420409  0.66688619  1
  O  O46  1  0.66716121  0.66315982  0.01885143  1
  O  O47  1  0.66660701  0.66444244  0.51748138  1
  O  O48  1  0.67118244  0.51104580  0.16392112  1
  O  O49  1  0.48790690  0.88673295  0.82634842  1
  O  O50  1  0.51388856  0.81347690  0.16363494  1
  O  O51  1  0.74488603  0.33530639  0.34122117  1
  O  O52  1  0.78967102  0.21224808  0.75051314  1
  O  O53  1  0.75602312  0.24637498  0.56740513  1
  O  O54  1  0.75510578  0.24255245  0.93238707  1
  O  O55  1  0.62586019  0.48602510  0.82539379  1
  O  O56  1  0.51287133  0.67320583  0.66491433  1
  O  O57  1  0.66207276  0.25271030  0.16061809  1
  O  O58  1  0.48821843  0.62617407  0.32547181  1
  O  O59  1  0.33983990  0.91893724  0.33887627  1
  O  O60  1  0.78918313  0.00106484  0.25018304  1
  O  O61  1  0.75472234  0.00375453  0.43079821  1
  O  O62  1  0.24558654  0.99801816  0.56693996  1
  O  O63  1  0.66474567  0.08525206  0.65786163  1
  O  O64  1  0.52037060  0.38302518  0.67709667  1
  O  O65  1  0.33681173  0.74456663  0.84163279  1
  O  O66  1  0.48404415  0.32870754  0.33380875  1
  O  O67  1  0.38160272  0.52481703  0.17823645  1
  O  O68  1  0.24669541  0.75729480  0.06851868  1
  O  O69  1  0.24561500  0.76379836  0.43350182  1
  O  O70  1  0.21287776  0.79215018  0.25043920  1
  O  O71  1  0.24961081  0.66622696  0.65915703  1
  O  O72  1  0.48598491  0.18703417  0.83266380  1
  O  O73  1  0.52168284  0.09512683  0.17761517  1
  O  O74  1  0.32691344  0.48641052  0.83285684  1
  O  O75  1  0.33208328  0.33284754  0.98139793  1
  O  O76  1  0.33282434  0.32877598  0.48139258  1
  O  O77  1  0.18429660  0.47646755  0.32709257  1
  O  O78  1  0.38307256  0.09390537  0.67880606  1
  O  O79  1  0.32771912  0.18370933  0.33322344  1
  O  O80  1  0.08577846  0.66329376  0.16055341  1
  O  O81  1  0.99848929  0.79015219  0.74965057  1
  O  O82  1  0.00546655  0.76161885  0.93064471  1
  O  O83  1  0.09559994  0.52358039  0.67309413  1
  O  O84  1  0.18373248  0.33121966  0.83148081  1
  O  O85  1  0.09812116  0.38160633  0.17268708  1
  O  O86  1  0.24869018  0.08371415  0.15842406  1
  O  O87  1  0.24319188  0.99942890  0.93191381  1
  O  O88  1  0.21210681  0.99778231  0.74997620  1
  O  O89  1  0.08464800  0.25072809  0.65797001  1
  O  O90  1  0.00107201  0.23988549  0.43179923  1
  O  O91  1  0.99731612  0.21429821  0.25008014  1
