# generated using pymatgen
data_Li3Mn4O8
_symmetry_space_group_name_H-M   'P 1'
_cell_length_a   5.72432821
_cell_length_b   9.37672303
_cell_length_c   12.28182164
_cell_angle_alpha   88.59412243
_cell_angle_beta   89.96666886
_cell_angle_gamma   89.81990991
_symmetry_Int_Tables_number   1
_chemical_formula_structural   Li3Mn4O8
_chemical_formula_sum   'Li12 Mn16 O32'
_cell_volume   659.03039990
_cell_formula_units_Z   4
loop_
 _symmetry_equiv_pos_site_id
 _symmetry_equiv_pos_as_xyz
  1  'x, y, z'
loop_
 _atom_site_type_symbol
 _atom_site_label
 _atom_site_symmetry_multiplicity
 _atom_site_fract_x
 _atom_site_fract_y
 _atom_site_fract_z
 _atom_site_occupancy
  Li  Li0  1  0.73942097  0.63867160  0.55062409  1
  Li  Li1  1  0.50806618  0.54216382  0.31226631  1
  Li  Li2  1  0.97641483  0.53966780  0.31379014  1
  Li  Li3  1  0.72887850  0.11329309  0.06443820  1
  Li  Li4  1  0.23991997  0.06550169  0.79487202  1
  Li  Li5  1  0.74777904  0.03292998  0.82409188  1
  Li  Li6  1  0.24071044  0.36142133  0.44956395  1
  Li  Li7  1  0.00635760  0.45867289  0.68764970  1
  Li  Li8  1  0.47499370  0.45961693  0.68640613  1
  Li  Li9  1  0.24082227  0.96720091  0.17566112  1
  Li  Li10  1  0.73165448  0.93402061  0.20514275  1
  Li  Li11  1  0.25283025  0.88674461  0.93570556  1
  Mn  Mn12  1  0.48910383  0.80483500  0.39510250  1
  Mn  Mn13  1  0.99372728  0.80407942  0.39517049  1
  Mn  Mn14  1  0.49256442  0.65203170  0.83595626  1
  Mn  Mn15  1  0.99370555  0.65114927  0.83826868  1
  Mn  Mn16  1  0.99127258  0.34732419  0.16402498  1
  Mn  Mn17  1  0.49242056  0.34970303  0.16181089  1
  Mn  Mn18  1  0.98918889  0.19532085  0.60525961  1
  Mn  Mn19  1  0.49370586  0.19573092  0.60467822  1
  Mn  Mn20  1  0.24266063  0.30502678  0.89896063  1
  Mn  Mn21  1  0.74484066  0.30565340  0.88669256  1
  Mn  Mn22  1  0.24237349  0.14794059  0.32903544  1
  Mn  Mn23  1  0.74059210  0.15930408  0.33567377  1
  Mn  Mn24  1  0.24070432  0.84077070  0.66414936  1
  Mn  Mn25  1  0.74270750  0.85223624  0.67098271  1
  Mn  Mn26  1  0.24022079  0.69428930  0.11321185  1
  Mn  Mn27  1  0.73914226  0.69504113  0.10114778  1
  O  O28  1  0.24359283  0.06741143  0.63915764  1
  O  O29  1  0.74009762  0.06155959  0.65057430  1
  O  O30  1  0.24002640  0.31867195  0.06554912  1
  O  O31  1  0.75022845  0.31489843  0.06056574  1
  O  O32  1  0.25060456  0.68474315  0.93946621  1
  O  O33  1  0.74036736  0.68103431  0.93453235  1
  O  O34  1  0.23918969  0.93847285  0.34918509  1
  O  O35  1  0.74257057  0.93245536  0.36080331  1
  O  O36  1  0.99046418  0.56053315  0.14940528  1
  O  O37  1  0.49207591  0.57002466  0.14964364  1
  O  O38  1  0.97818976  0.80681543  0.56700764  1
  O  O39  1  0.50189375  0.80703608  0.56803860  1
  O  O40  1  0.47765172  0.19284588  0.43288059  1
  O  O41  1  0.00136291  0.19316747  0.43197294  1
  O  O42  1  0.49308595  0.43900617  0.85061143  1
  O  O43  1  0.99472255  0.43065221  0.85048993  1
  O  O44  1  0.49543204  0.16088594  0.88845055  1
  O  O45  1  0.99466502  0.16049767  0.88483187  1
  O  O46  1  0.98694738  0.13624040  0.21668569  1
  O  O47  1  0.50007708  0.12168800  0.22303454  1
  O  O48  1  0.98912761  0.83819046  0.11433752  1
  O  O49  1  0.48818380  0.84040276  0.11185945  1
  O  O50  1  0.48611547  0.86481771  0.78372323  1
  O  O51  1  0.99942372  0.87760213  0.77641021  1
  O  O52  1  0.24263021  0.66181572  0.38062743  1
  O  O53  1  0.74174499  0.65949784  0.39272459  1
  O  O54  1  0.24227253  0.62442941  0.73055722  1
  O  O55  1  0.73972386  0.64093210  0.71954122  1
  O  O56  1  0.24043768  0.34042676  0.60744944  1
  O  O57  1  0.74112099  0.33811380  0.61948662  1
  O  O58  1  0.23851710  0.35916557  0.28054915  1
  O  O59  1  0.74067935  0.37568475  0.26954989  1
