# generated using pymatgen
data_Na2Li2CoO4
_symmetry_space_group_name_H-M   'P 1'
_cell_length_a   8.39200690
_cell_length_b   7.99130172
_cell_length_c   6.49693393
_cell_angle_alpha   89.56794289
_cell_angle_beta   90.00000000
_cell_angle_gamma   90.00000000
_symmetry_Int_Tables_number   1
_chemical_formula_structural   Na2Li2CoO4
_chemical_formula_sum   'Na8 Li8 Co4 O16'
_cell_volume   435.69187673
_cell_formula_units_Z   4
loop_
 _symmetry_equiv_pos_site_id
 _symmetry_equiv_pos_as_xyz
  1  'x, y, z'
loop_
 _atom_site_type_symbol
 _atom_site_label
 _atom_site_symmetry_multiplicity
 _atom_site_fract_x
 _atom_site_fract_y
 _atom_site_fract_z
 _atom_site_occupancy
  Na  Na0  1  0.02195544  0.50153803  0.25561973  1
  Na  Na1  1  0.97804456  0.49846197  0.74438027  1
  Na  Na2  1  0.26118754  0.24862032  0.48741945  1
  Na  Na3  1  0.23881246  0.74862032  0.98741945  1
  Na  Na4  1  0.47804456  0.00153803  0.75561973  1
  Na  Na5  1  0.52195544  0.99846197  0.24438027  1
  Na  Na6  1  0.76118754  0.25137968  0.01258055  1
  Na  Na7  1  0.73881246  0.75137968  0.51258055  1
  Li  Li8  1  0.08994848  0.78905927  0.52087246  1
  Li  Li9  1  0.13679198  0.99280238  0.24589181  1
  Li  Li10  1  0.36320802  0.49280238  0.74589181  1
  Li  Li11  1  0.41005152  0.28905927  0.02087246  1
  Li  Li12  1  0.58994848  0.71094073  0.97912754  1
  Li  Li13  1  0.63679198  0.50719762  0.25410819  1
  Li  Li14  1  0.86320802  0.00719762  0.75410819  1
  Li  Li15  1  0.91005152  0.21094073  0.47912754  1
  Co  Co16  1  0.12745440  0.22301623  0.98270352  1
  Co  Co17  1  0.37254560  0.72301623  0.48270352  1
  Co  Co18  1  0.62745440  0.27698377  0.51729648  1
  Co  Co19  1  0.87254560  0.77698377  0.01729648  1
  O  O20  1  0.02887595  0.20983309  0.23193007  1
  O  O21  1  0.99364882  0.20583928  0.76781860  1
  O  O22  1  0.21648437  0.42977934  0.97003251  1
  O  O23  1  0.21782930  0.56649923  0.51075393  1
  O  O24  1  0.28217070  0.06649923  0.01075393  1
  O  O25  1  0.28351563  0.92977934  0.47003251  1
  O  O26  1  0.50635118  0.70583928  0.26781860  1
  O  O27  1  0.47112405  0.70983309  0.73193007  1
  O  O28  1  0.52887595  0.29016691  0.26806993  1
  O  O29  1  0.49364882  0.29416072  0.73218140  1
  O  O30  1  0.71648437  0.07022066  0.52996749  1
  O  O31  1  0.71782930  0.93350077  0.98924607  1
  O  O32  1  0.78217070  0.43350077  0.48924607  1
  O  O33  1  0.78351563  0.57022066  0.02996749  1
  O  O34  1  0.00635118  0.79416072  0.23218140  1
  O  O35  1  0.97112405  0.79016691  0.76806993  1
