# generated using pymatgen
data_Li4Mn3Cu3(TeO8)2
_symmetry_space_group_name_H-M   'P 1'
_cell_length_a   5.97367131
_cell_length_b   5.94139151
_cell_length_c   9.89960761
_cell_angle_alpha   89.99007091
_cell_angle_beta   87.61941283
_cell_angle_gamma   119.78535354
_symmetry_Int_Tables_number   1
_chemical_formula_structural   Li4Mn3Cu3(TeO8)2
_chemical_formula_sum   'Li4 Mn3 Cu3 Te2 O16'
_cell_volume   304.58839996
_cell_formula_units_Z   1
loop_
 _symmetry_equiv_pos_site_id
 _symmetry_equiv_pos_as_xyz
  1  'x, y, z'
loop_
 _atom_site_type_symbol
 _atom_site_label
 _atom_site_symmetry_multiplicity
 _atom_site_fract_x
 _atom_site_fract_y
 _atom_site_fract_z
 _atom_site_occupancy
  Li  Li0  1  0.33578118  0.66790732  0.91782527  1
  Li  Li1  1  0.99570144  0.99780953  0.98412423  1
  Li  Li2  1  0.99905306  0.99956277  0.47789304  1
  Li  Li3  1  0.68261688  0.34125936  0.41140245  1
  Mn  Mn4  1  0.65631269  0.82824532  0.21229336  1
  Mn  Mn5  1  0.83178434  0.66203981  0.71156427  1
  Mn  Mn6  1  0.83179198  0.16974299  0.71158821  1
  Cu  Cu7  1  0.16713530  0.83040056  0.20986201  1
  Cu  Cu8  1  0.16705534  0.33673730  0.20986790  1
  Cu  Cu9  1  0.33942992  0.16970807  0.71063666  1
  Te  Te10  1  0.33857177  0.66942574  0.48038761  1
  Te  Te11  1  0.65977111  0.33009700  0.98322133  1
  O  O12  1  0.16176818  0.82659402  0.58469039  1
  O  O13  1  0.05175063  0.52581511  0.35309030  1
  O  O14  1  0.34068818  0.67027303  0.12162394  1
  O  O15  1  0.98774817  0.99395642  0.28984748  1
  O  O16  1  0.99114152  0.99564260  0.79364143  1
  O  O17  1  0.16170815  0.33516787  0.58471152  1
  O  O18  1  0.50630071  0.97424288  0.35878278  1
  O  O19  1  0.50617149  0.53183514  0.35870737  1
  O  O20  1  0.32105035  0.16061937  0.08340191  1
  O  O21  1  0.64562112  0.82281573  0.59281952  1
  O  O22  1  0.52795877  0.49089853  0.85422023  1
  O  O23  1  0.52798527  0.03696498  0.85422536  1
  O  O24  1  0.68083692  0.34035734  0.61959459  1
  O  O25  1  0.80667380  0.64768586  0.08915080  1
  O  O26  1  0.97069568  0.48537497  0.85940960  1
  O  O27  1  0.80689706  0.15911739  0.08925842  1
