# generated using pymatgen
data_LiP4WO12
_symmetry_space_group_name_H-M   'P 1'
_cell_length_a   7.46215645
_cell_length_b   8.73801054
_cell_length_c   9.34996421
_cell_angle_alpha   114.69100792
_cell_angle_beta   113.51863582
_cell_angle_gamma   64.72305632
_symmetry_Int_Tables_number   1
_chemical_formula_structural   LiP4WO12
_chemical_formula_sum   'Li2 P8 W2 O24'
_cell_volume   482.47723952
_cell_formula_units_Z   2
loop_
 _symmetry_equiv_pos_site_id
 _symmetry_equiv_pos_as_xyz
  1  'x, y, z'
loop_
 _atom_site_type_symbol
 _atom_site_label
 _atom_site_symmetry_multiplicity
 _atom_site_fract_x
 _atom_site_fract_y
 _atom_site_fract_z
 _atom_site_occupancy
  Li  Li0  1  0.31147625  0.75000000  0.75000000  1
  Li  Li1  1  0.68852375  0.25000000  0.25000000  1
  P  P2  1  0.97119831  0.88702805  0.17324986  1
  P  P3  1  0.55746424  0.87033581  0.13299104  1
  P  P4  1  0.29481001  0.62966419  0.36700896  1
  P  P5  1  0.68497650  0.61297195  0.32675014  1
  P  P6  1  0.31502350  0.38702805  0.67324986  1
  P  P7  1  0.70518999  0.37033581  0.63299104  1
  P  P8  1  0.44253576  0.12966419  0.86700896  1
  P  P9  1  0.02880169  0.11297195  0.82675014  1
  W  W10  1  0.86370680  0.75000000  0.75000000  1
  W  W11  1  0.13629320  0.25000000  0.25000000  1
  O  O12  1  0.40202267  0.01389080  0.22107914  1
  O  O13  1  0.76519868  0.92719940  0.21694140  1
  O  O14  1  0.98323997  0.76063598  0.00642555  1
  O  O15  1  0.14297172  0.80587068  0.31204892  1
  O  O16  1  0.02161619  0.92933409  0.78840792  1
  O  O17  1  0.63679347  0.69412932  0.18795108  1
  O  O18  1  0.73745040  0.73936402  0.49357445  1
  O  O19  1  0.36496889  0.68986966  0.54757082  1
  O  O20  1  0.50726773  0.81013034  0.95242918  1
  O  O21  1  0.47545669  0.57280060  0.28305860  1
  O  O22  1  0.19483533  0.48610920  0.27892086  1
  O  O23  1  0.16254236  0.57066591  0.71159208  1
  O  O24  1  0.83745764  0.42933409  0.28840792  1
  O  O25  1  0.80516467  0.51389080  0.72107914  1
  O  O26  1  0.52454331  0.42719940  0.71694140  1
  O  O27  1  0.49273227  0.18986966  0.04757082  1
  O  O28  1  0.63503111  0.31013034  0.45242918  1
  O  O29  1  0.26254960  0.26063598  0.50642555  1
  O  O30  1  0.36320653  0.30587068  0.81204892  1
  O  O31  1  0.97838381  0.07066591  0.21159208  1
  O  O32  1  0.85702828  0.19412932  0.68795108  1
  O  O33  1  0.01676003  0.23936402  0.99357445  1
  O  O34  1  0.23480132  0.07280060  0.78305860  1
  O  O35  1  0.59797733  0.98610920  0.77892086  1
