# generated using pymatgen
data_Li3Fe4(BO3)4
_symmetry_space_group_name_H-M   'P 1'
_cell_length_a   5.23972122
_cell_length_b   9.02723787
_cell_length_c   10.25711498
_cell_angle_alpha   89.70996200
_cell_angle_beta   91.50471332
_cell_angle_gamma   89.98723787
_symmetry_Int_Tables_number   1
_chemical_formula_structural   Li3Fe4(BO3)4
_chemical_formula_sum   'Li6 Fe8 B8 O24'
_cell_volume   484.99014676
_cell_formula_units_Z   2
loop_
 _symmetry_equiv_pos_site_id
 _symmetry_equiv_pos_as_xyz
  1  'x, y, z'
loop_
 _atom_site_type_symbol
 _atom_site_label
 _atom_site_symmetry_multiplicity
 _atom_site_fract_x
 _atom_site_fract_y
 _atom_site_fract_z
 _atom_site_occupancy
  Li  Li0  1  0.33566274  0.00891658  0.83262783  1
  Li  Li1  1  0.65903929  0.00564990  0.08879290  1
  Li  Li2  1  0.16312927  0.50092198  0.10169338  1
  Li  Li3  1  0.83673394  0.51126651  0.84345912  1
  Li  Li4  1  0.33984517  0.99108678  0.33748674  1
  Li  Li5  1  0.65883864  0.99545758  0.58457287  1
  Fe  Fe6  1  0.15988457  0.16387829  0.11460894  1
  Fe  Fe7  1  0.84864160  0.17643223  0.36375527  1
  Fe  Fe8  1  0.33664704  0.34396956  0.86818854  1
  Fe  Fe9  1  0.66112996  0.33507909  0.62057212  1
  Fe  Fe10  1  0.33190555  0.66021009  0.36758060  1
  Fe  Fe11  1  0.14785762  0.82240272  0.62184691  1
  Fe  Fe12  1  0.66719613  0.65771355  0.12293230  1
  Fe  Fe13  1  0.84081060  0.84016381  0.87299156  1
  B  B14  1  0.17078326  0.16547331  0.62685288  1
  B  B15  1  0.34129466  0.32931677  0.37166165  1
  B  B16  1  0.83438011  0.16827757  0.87014280  1
  B  B17  1  0.66371543  0.33100754  0.11626149  1
  B  B18  1  0.33551768  0.67073209  0.87640297  1
  B  B19  1  0.65205415  0.66921554  0.62068549  1
  B  B20  1  0.16271400  0.83231586  0.12735668  1
  B  B21  1  0.82286029  0.83591446  0.37072699  1
  O  O22  1  0.29841884  0.03209004  0.63158571  1
  O  O23  1  0.09481917  0.16217045  0.90117705  1
  O  O24  1  0.68442066  0.04354547  0.88558777  1
  O  O25  1  0.22108320  0.19857139  0.33322132  1
  O  O26  1  0.30216639  0.29492688  0.65933583  1
  O  O27  1  0.77444744  0.19559214  0.15479002  1
  O  O28  1  0.91062033  0.17221721  0.59351641  1
  O  O29  1  0.40489991  0.33464600  0.07962116  1
  O  O30  1  0.22565656  0.46324283  0.34899113  1
  O  O31  1  0.58245752  0.32074583  0.43100258  1
  O  O32  1  0.72305587  0.30096824  0.82660523  1
  O  O33  1  0.18771096  0.54507192  0.88969463  1
  O  O34  1  0.80973722  0.45587111  0.11188158  1
  O  O35  1  0.27542087  0.69657342  0.16169591  1
  O  O36  1  0.41431111  0.67780378  0.55901679  1
  O  O37  1  0.76371816  0.53484949  0.65000544  1
  O  O38  1  0.59533567  0.66661287  0.90811943  1
  O  O39  1  0.08652091  0.82674236  0.39600873  1
  O  O40  1  0.22199588  0.80287585  0.83370161  1
  O  O41  1  0.68843053  0.71137542  0.33035781  1
  O  O42  1  0.77621973  0.80041612  0.65615361  1
  O  O43  1  0.30839417  0.95980570  0.13729064  1
  O  O44  1  0.90786250  0.83812180  0.08648789  1
  O  O45  1  0.69748571  0.96854289  0.38990766  1
