# generated using pymatgen
data_Mn6OF11
_symmetry_space_group_name_H-M   'P 1'
_cell_length_a   4.93253256
_cell_length_b   5.90670025
_cell_length_c   16.23680195
_cell_angle_alpha   89.60793526
_cell_angle_beta   90.00000000
_cell_angle_gamma   90.00000000
_symmetry_Int_Tables_number   1
_chemical_formula_structural   Mn6OF11
_chemical_formula_sum   'Mn12 O2 F22'
_cell_volume   473.04800817
_cell_formula_units_Z   2
loop_
 _symmetry_equiv_pos_site_id
 _symmetry_equiv_pos_as_xyz
  1  'x, y, z'
loop_
 _atom_site_type_symbol
 _atom_site_label
 _atom_site_symmetry_multiplicity
 _atom_site_fract_x
 _atom_site_fract_y
 _atom_site_fract_z
 _atom_site_occupancy
  Mn  Mn0  1  0.00113032  0.16802303  0.41590123  1
  Mn  Mn1  1  0.00888533  0.83657449  0.24438347  1
  Mn  Mn2  1  0.99585092  0.17585665  0.07158575  1
  Mn  Mn3  1  0.00418926  0.17101551  0.75286241  1
  Mn  Mn4  1  0.00070012  0.82967558  0.58535598  1
  Mn  Mn5  1  0.00737565  0.85331038  0.91982362  1
  Mn  Mn6  1  0.50113032  0.33197697  0.58409877  1
  Mn  Mn7  1  0.49585092  0.32414335  0.92841425  1
  Mn  Mn8  1  0.50418926  0.32898449  0.24713759  1
  Mn  Mn9  1  0.50737565  0.64668962  0.08017638  1
  Mn  Mn10  1  0.50070012  0.67032442  0.41464402  1
  Mn  Mn11  1  0.50888533  0.66342551  0.75561653  1
  O  O12  1  0.20953069  0.12753844  0.97227747  1
  O  O13  1  0.70953069  0.37246156  0.02772253  1
  F  F14  1  0.23540540  0.10328875  0.30547836  1
  F  F15  1  0.22852728  0.10691036  0.64226021  1
  F  F16  1  0.23276193  0.89917483  0.13190159  1
  F  F17  1  0.23096727  0.89443006  0.47429731  1
  F  F18  1  0.22243110  0.88576908  0.80696629  1
  F  F19  1  0.25551979  0.39565675  0.14074877  1
  F  F20  1  0.26811094  0.60492990  0.30511812  1
  F  F21  1  0.26934662  0.39590274  0.47388683  1
  F  F22  1  0.27217684  0.60287204  0.64478077  1
  F  F23  1  0.29020328  0.37971268  0.81697182  1
  F  F24  1  0.26688927  0.61960065  0.97368380  1
  F  F25  1  0.72243110  0.61423092  0.19303371  1
  F  F26  1  0.72852728  0.39308964  0.35773979  1
  F  F27  1  0.73096727  0.60556994  0.52570269  1
  F  F28  1  0.73276193  0.60082517  0.86809841  1
  F  F29  1  0.73540540  0.39671125  0.69452164  1
  F  F30  1  0.79020328  0.12028732  0.18302818  1
  F  F31  1  0.76934662  0.10409726  0.52611317  1
  F  F32  1  0.77217684  0.89712796  0.35521923  1
  F  F33  1  0.76688927  0.88039935  0.02631620  1
  F  F34  1  0.75551979  0.10434325  0.85925123  1
  F  F35  1  0.76811094  0.89507010  0.69488188  1
