# generated using pymatgen
data_Li2CrP2O7
_symmetry_space_group_name_H-M   'P 1'
_cell_length_a   9.91448746
_cell_length_b   9.86951398
_cell_length_c   11.41667362
_cell_angle_alpha   89.96292939
_cell_angle_beta   102.24969622
_cell_angle_gamma   89.88705225
_symmetry_Int_Tables_number   1
_chemical_formula_structural   Li2CrP2O7
_chemical_formula_sum   'Li16 Cr8 P16 O56'
_cell_volume   1091.69746283
_cell_formula_units_Z   8
loop_
 _symmetry_equiv_pos_site_id
 _symmetry_equiv_pos_as_xyz
  1  'x, y, z'
loop_
 _atom_site_type_symbol
 _atom_site_label
 _atom_site_symmetry_multiplicity
 _atom_site_fract_x
 _atom_site_fract_y
 _atom_site_fract_z
 _atom_site_occupancy
  Li  Li0  1  0.11001633  0.72000722  0.44566527  1
  Li  Li1  1  0.17038626  0.42390705  0.54656845  1
  Li  Li2  1  0.08499171  0.10766482  0.02615173  1
  Li  Li3  1  0.34121911  0.91195942  0.95842280  1
  Li  Li4  1  0.15764844  0.41072169  0.04176717  1
  Li  Li5  1  0.41573370  0.60857989  0.97297457  1
  Li  Li6  1  0.32949381  0.92311290  0.45353828  1
  Li  Li7  1  0.38985388  0.22100439  0.55365707  1
  Li  Li8  1  0.61014612  0.77899561  0.44634293  1
  Li  Li9  1  0.67050619  0.07688710  0.54646172  1
  Li  Li10  1  0.58426630  0.39142011  0.02702543  1
  Li  Li11  1  0.84235156  0.58927831  0.95823283  1
  Li  Li12  1  0.65878089  0.08804058  0.04157720  1
  Li  Li13  1  0.91500829  0.89233518  0.97384827  1
  Li  Li14  1  0.82961374  0.57609295  0.45343155  1
  Li  Li15  1  0.88998367  0.27999278  0.55433473  1
  Cr  Cr16  1  0.20064030  0.92541022  0.67223590  1
  Cr  Cr17  1  0.26852035  0.21561536  0.82728865  1
  Cr  Cr18  1  0.23110545  0.71510885  0.17253251  1
  Cr  Cr19  1  0.29938588  0.42520399  0.32743009  1
  Cr  Cr20  1  0.70061412  0.57479601  0.67256991  1
  Cr  Cr21  1  0.76889455  0.28489115  0.82746749  1
  Cr  Cr22  1  0.73147965  0.78438464  0.17271135  1
  Cr  Cr23  1  0.79935970  0.07458978  0.32776410  1
  P  P24  1  0.02886032  0.45059487  0.76182314  1
  P  P25  1  0.11893745  0.70184976  0.89518133  1
  P  P26  1  0.05923111  0.93795395  0.24489326  1
  P  P27  1  0.12514793  0.15527765  0.42376012  1
  P  P28  1  0.37523695  0.65548134  0.57787892  1
  P  P29  1  0.44092588  0.43754008  0.75558508  1
  P  P30  1  0.52976045  0.05034358  0.76208272  1
  P  P31  1  0.38141323  0.20103324  0.10399951  1
  P  P32  1  0.61858677  0.79896676  0.89600049  1
  P  P33  1  0.47023955  0.94965642  0.23791728  1
  P  P34  1  0.55907412  0.56245992  0.24441492  1
  P  P35  1  0.62476305  0.34451866  0.42212108  1
  P  P36  1  0.87485207  0.84472235  0.57623988  1
  P  P37  1  0.94076889  0.06204605  0.75510674  1
  P  P38  1  0.88106255  0.29815024  0.10481867  1
  P  P39  1  0.97113968  0.54940513  0.23817686  1
  O  O40  1  0.02448391  0.41566433  0.63158266  1
  O  O41  1  0.02115830  0.83714256  0.55397239  1
  O  O42  1  0.08323590  0.07910399  0.72393611  1
  O  O43  1  0.12122258  0.35874501  0.85444486  1
  O  O44  1  0.09444524  0.60033049  0.77927243  1
  O  O45  1  0.18250017  0.82770615  0.85264434  1
  O  O46  1  0.22257035  0.62793248  0.99841722  1
  O  O47  1  0.01968307  0.27994669  0.07135372  1
  O  O48  1  0.11766817  0.08583420  0.29377338  1
  O  O49  1  0.05959542  0.93965444  0.11281443  1
  O  O50  1  0.11952380  0.54118815  0.21091995  1
  O  O51  1  0.18667721  0.29709422  0.41511743  1
  O  O52  1  0.16345612  0.83047030  0.31153491  1
  O  O53  1  0.22899037  0.07090924  0.51341226  1
  O  O54  1  0.27083919  0.57235234  0.48815770  1
  O  O55  1  0.33624359  0.33117225  0.68858549  1
  O  O56  1  0.31528540  0.79807864  0.58647637  1
  O  O57  1  0.38186748  0.04324564  0.78980596  1
  O  O58  1  0.38239889  0.58608891  0.70777286  1
  O  O59  1  0.44077510  0.43866353  0.88766464  1
  O  O60  1  0.47977194  0.78182991  0.92900656  1
  O  O61  1  0.27787827  0.12711600  0.00090372  1
  O  O62  1  0.31783967  0.32777979  0.14533764  1
  O  O63  1  0.40500051  0.09997858  0.22032353  1
  O  O64  1  0.41695659  0.57963501  0.27637033  1
  O  O65  1  0.37695302  0.85863840  0.14560880  1
  O  O66  1  0.52511565  0.08520627  0.63165499  1
  O  O67  1  0.47825137  0.33862707  0.44434490  1
  O  O68  1  0.52174863  0.66137293  0.55565510  1
  O  O69  1  0.47488435  0.91479373  0.36834501  1
  O  O70  1  0.62304698  0.14136160  0.85439120  1
  O  O71  1  0.58304341  0.42036499  0.72362967  1
  O  O72  1  0.59499949  0.90002142  0.77967647  1
  O  O73  1  0.68216033  0.67222021  0.85466236  1
  O  O74  1  0.72212173  0.87288400  0.99909628  1
  O  O75  1  0.52022806  0.21817009  0.07099344  1
  O  O76  1  0.55922490  0.56133647  0.11233536  1
  O  O77  1  0.61760111  0.41391109  0.29222714  1
  O  O78  1  0.61813252  0.95675436  0.21019404  1
  O  O79  1  0.68471460  0.20192136  0.41352363  1
  O  O80  1  0.66375641  0.66882775  0.31141451  1
  O  O81  1  0.72916081  0.42764766  0.51184230  1
  O  O82  1  0.77100963  0.92909076  0.48658774  1
  O  O83  1  0.83654388  0.16952970  0.68846509  1
  O  O84  1  0.81332279  0.70290578  0.58488257  1
  O  O85  1  0.88047620  0.45881185  0.78908005  1
  O  O86  1  0.94040458  0.06034556  0.88718557  1
  O  O87  1  0.88233183  0.91416580  0.70622662  1
  O  O88  1  0.98031693  0.72005331  0.92864628  1
  O  O89  1  0.77742965  0.37206752  0.00158278  1
  O  O90  1  0.81749983  0.17229385  0.14735566  1
  O  O91  1  0.90555476  0.39966951  0.22072757  1
  O  O92  1  0.87877742  0.64125499  0.14555514  1
  O  O93  1  0.91676410  0.92089601  0.27606389  1
  O  O94  1  0.97884170  0.16285744  0.44602761  1
  O  O95  1  0.97551609  0.58433567  0.36841734  1
