# generated using pymatgen
data_Li6V3P8O29
_symmetry_space_group_name_H-M   'P 1'
_cell_length_a   9.79430963
_cell_length_b   9.82501525
_cell_length_c   13.98091281
_cell_angle_alpha   90.01665429
_cell_angle_beta   89.78916593
_cell_angle_gamma   59.72141334
_symmetry_Int_Tables_number   1
_chemical_formula_structural   Li6V3P8O29
_chemical_formula_sum   'Li12 V6 P16 O58'
_cell_volume   1161.83089407
_cell_formula_units_Z   2
loop_
 _symmetry_equiv_pos_site_id
 _symmetry_equiv_pos_as_xyz
  1  'x, y, z'
loop_
 _atom_site_type_symbol
 _atom_site_label
 _atom_site_symmetry_multiplicity
 _atom_site_fract_x
 _atom_site_fract_y
 _atom_site_fract_z
 _atom_site_occupancy
  Li  Li0  1  0.89828673  0.76191855  0.05968280  1
  Li  Li1  1  0.76021673  0.90514774  0.56305691  1
  Li  Li2  1  0.90160733  0.33672609  0.55922991  1
  Li  Li3  1  0.75882517  0.33644395  0.06280897  1
  Li  Li4  1  0.33248228  0.90139991  0.05873369  1
  Li  Li5  1  0.33208449  0.76548473  0.55956665  1
  Li  Li6  1  0.23417721  0.66771569  0.93876642  1
  Li  Li7  1  0.09852413  0.66643760  0.43931137  1
  Li  Li8  1  0.23607245  0.09851538  0.43898044  1
  Li  Li9  1  0.09565149  0.23482708  0.93957053  1
  Li  Li10  1  0.94673673  0.01350929  0.99326581  1
  Li  Li11  1  0.94926048  0.03742859  0.49344418  1
  V  V12  1  0.56280603  0.43266981  0.25403554  1
  V  V13  1  0.43982084  0.56146609  0.74940071  1
  V  V14  1  0.56138932  0.00531505  0.75326108  1
  V  V15  1  0.44206421  0.99639155  0.24857431  1
  V  V16  1  0.00209156  0.56216028  0.24902319  1
  V  V17  1  0.99871181  0.43890536  0.74883556  1
  P  P18  1  0.91160893  0.77691090  0.84127630  1
  P  P19  1  0.77631870  0.91254295  0.34627731  1
  P  P20  1  0.91228069  0.31297319  0.34173773  1
  P  P21  1  0.66645066  0.66235710  0.13043099  1
  P  P22  1  0.66733956  0.67067508  0.63039730  1
  P  P23  1  0.77639213  0.31075299  0.84722692  1
  P  P24  1  0.69777073  0.21947542  0.66077985  1
  P  P25  1  0.31316778  0.91193498  0.84044423  1
  P  P26  1  0.69736962  0.08296238  0.16075980  1
  P  P27  1  0.31219063  0.77522229  0.34098590  1
  P  P28  1  0.22678126  0.68671678  0.15645129  1
  P  P29  1  0.33142696  0.33452761  0.36913964  1
  P  P30  1  0.32890552  0.33476594  0.86938582  1
  P  P31  1  0.09032537  0.68569235  0.65789426  1
  P  P32  1  0.22595395  0.08609865  0.65623048  1
  P  P33  1  0.08942998  0.22490122  0.15757058  1
  O  O34  1  0.00186838  0.77440965  0.56922044  1
  O  O35  1  0.91905796  0.74271970  0.33896352  1
  O  O36  1  0.80115230  0.98709773  0.07903823  1
  O  O37  1  0.74533553  0.91767646  0.83841035  1
  O  O38  1  0.91182755  0.62061821  0.83034957  1
  O  O39  1  0.81181399  0.67299620  0.16947289  1
  O  O40  1  0.91216888  0.46867933  0.32928704  1
  O  O41  1  0.99961567  0.22734455  0.06907904  1
  O  O42  1  0.91926973  0.33586143  0.84049379  1
  O  O43  1  0.67524981  0.81508650  0.67165017  1
  O  O44  1  0.61929030  0.91358746  0.33342855  1
  O  O45  1  0.81418507  0.51484536  0.67213144  1
  O  O46  1  0.66281268  0.66395530  0.02377187  1
  O  O47  1  0.67347712  0.66698817  0.52378383  1
  O  O48  1  0.67500155  0.51058561  0.17229738  1
  O  O49  1  0.47213931  0.90476751  0.82874477  1
  O  O50  1  0.51087023  0.81064910  0.17232774  1
  O  O51  1  0.74566664  0.33948508  0.33989986  1
  O  O52  1  0.79331601  0.19790155  0.75905105  1
  O  O53  1  0.80166414  0.21105466  0.57920310  1
  O  O54  1  0.78410757  0.22709235  0.93896355  1
  O  O55  1  0.62029223  0.46730120  0.83188280  1
  O  O56  1  0.51385141  0.67793974  0.67061410  1
  O  O57  1  0.66724687  0.25201448  0.15895904  1
  O  O58  1  0.47181125  0.62268792  0.32879130  1
  O  O59  1  0.33324218  0.92050054  0.34006480  1
  O  O60  1  0.79410769  0.00832367  0.25899494  1
  O  O61  1  0.78677866  0.98563198  0.43845436  1
  O  O62  1  0.22672547  0.99811497  0.56709044  1
  O  O63  1  0.66595273  0.08193255  0.65846360  1
  O  O64  1  0.54097407  0.37965278  0.67011719  1
  O  O65  1  0.33625348  0.74326454  0.83999711  1
  O  O66  1  0.48131299  0.32888799  0.32360934  1
  O  O67  1  0.38236797  0.53101855  0.16868028  1
  O  O68  1  0.22560897  0.77506362  0.06738320  1
  O  O69  1  0.22469697  0.77445391  0.43038560  1
  O  O70  1  0.20296793  0.79657212  0.24907957  1
  O  O71  1  0.25995256  0.66072866  0.65758468  1
  O  O72  1  0.47891875  0.18965198  0.82352161  1
  O  O73  1  0.54011156  0.08209167  0.16984366  1
  O  O74  1  0.32381058  0.48672043  0.83006806  1
  O  O75  1  0.31952968  0.33243690  0.97530858  1
  O  O76  1  0.32496096  0.34011789  0.47532273  1
  O  O77  1  0.18611802  0.49048867  0.32724511  1
  O  O78  1  0.38079061  0.08721388  0.66869358  1
  O  O79  1  0.32557894  0.18843988  0.32754300  1
  O  O80  1  0.08190439  0.66438745  0.15691332  1
  O  O81  1  0.00621998  0.79393723  0.75041167  1
  O  O82  1  0.99822845  0.77890610  0.93082398  1
  O  O83  1  0.09491355  0.52832478  0.66940321  1
  O  O84  1  0.18365611  0.32728969  0.82485884  1
  O  O85  1  0.09171660  0.37983113  0.16952024  1
  O  O86  1  0.25825206  0.08158721  0.15606779  1
  O  O87  1  0.22487315  0.99938673  0.92983736  1
  O  O88  1  0.20369761  0.99807060  0.74867231  1
  O  O89  1  0.08125326  0.25345005  0.65648691  1
  O  O90  1  0.99980237  0.22296496  0.43093706  1
  O  O91  1  0.00451010  0.20242904  0.25005201  1
