# generated using pymatgen
data_CeMg14Co
_symmetry_space_group_name_H-M   'P 1'
_cell_length_a   6.58221276
_cell_length_b   6.10086093
_cell_length_c   10.56427944
_cell_angle_alpha   90.00000000
_cell_angle_beta   90.00000000
_cell_angle_gamma   117.60901717
_symmetry_Int_Tables_number   1
_chemical_formula_structural   CeMg14Co
_chemical_formula_sum   'Ce1 Mg14 Co1'
_cell_volume   375.92454474
_cell_formula_units_Z   1
loop_
 _symmetry_equiv_pos_site_id
 _symmetry_equiv_pos_as_xyz
  1  'x, y, z'
loop_
 _atom_site_type_symbol
 _atom_site_label
 _atom_site_symmetry_multiplicity
 _atom_site_fract_x
 _atom_site_fract_y
 _atom_site_fract_z
 _atom_site_occupancy
  Ce  Ce0  1  0.13792471  0.81896186  0.12500000  1
  Mg  Mg1  1  0.15670944  0.32835422  0.62500000  1
  Mg  Mg2  1  0.16301814  0.83150857  0.62500000  1
  Mg  Mg3  1  0.63729689  0.32775013  0.12500000  1
  Mg  Mg4  1  0.65963531  0.32714764  0.62500000  1
  Mg  Mg5  1  0.63729689  0.80954577  0.12500000  1
  Mg  Mg6  1  0.65963531  0.83248666  0.62500000  1
  Mg  Mg7  1  0.34361345  0.17328301  0.37397062  1
  Mg  Mg8  1  0.34361345  0.17328301  0.87602938  1
  Mg  Mg9  1  0.34361345  0.67033144  0.37397062  1
  Mg  Mg10  1  0.34361345  0.67033144  0.87602938  1
  Mg  Mg11  1  0.86368145  0.18184122  0.34783509  1
  Mg  Mg12  1  0.86368145  0.18184122  0.90216491  1
  Mg  Mg13  1  0.83673306  0.66836703  0.38646168  1
  Mg  Mg14  1  0.83673306  0.66836703  0.86353832  1
  Co  Co15  1  0.17320049  0.33659974  0.12500000  1
