# generated using pymatgen
data_Li4Fe3CuO8
_symmetry_space_group_name_H-M   'P 1'
_cell_length_a   5.93153715
_cell_length_b   5.93370775
_cell_length_c   5.97136400
_cell_angle_alpha   119.79699775
_cell_angle_beta   89.95825012
_cell_angle_gamma   120.00804518
_symmetry_Int_Tables_number   1
_chemical_formula_structural   Li4Fe3CuO8
_chemical_formula_sum   'Li4 Fe3 Cu1 O8'
_cell_volume   149.10126613
_cell_formula_units_Z   1
loop_
 _symmetry_equiv_pos_site_id
 _symmetry_equiv_pos_as_xyz
  1  'x, y, z'
loop_
 _atom_site_type_symbol
 _atom_site_label
 _atom_site_symmetry_multiplicity
 _atom_site_fract_x
 _atom_site_fract_y
 _atom_site_fract_z
 _atom_site_occupancy
  Li  Li0  1  0.50159856  0.50303961  0.50073663  1
  Li  Li1  1  0.00125776  0.99999686  0.50000296  1
  Li  Li2  1  0.49918979  0.99999346  0.49999533  1
  Li  Li3  1  0.99856060  0.49695559  0.49925509  1
  Fe  Fe4  1  0.49963817  0.00000639  0.00001183  1
  Fe  Fe5  1  0.99983839  0.49983911  0.00000876  1
  Fe  Fe6  1  0.50000792  0.50016676  -0.00000525  1
  Cu  Cu7  1  0.00007801  0.00001211  0.00000807  1
  O  O8  1  0.25617633  0.51244763  0.76976550  1
  O  O9  1  0.24328778  0.98564729  0.23053272  1
  O  O10  1  0.25790930  0.01444407  0.76959063  1
  O  O11  1  0.75660080  0.51304437  0.77046030  1
  O  O12  1  0.24331753  0.48695018  0.22953049  1
  O  O13  1  0.74184011  0.98564044  0.23035254  1
  O  O14  1  0.75637190  0.01426344  0.76951630  1
  O  O15  1  0.74359805  0.48755270  0.23023009  1
