# generated using pymatgen
data_Li2VP2O7
_symmetry_space_group_name_H-M   'P 1'
_cell_length_a   9.95568267
_cell_length_b   9.90817453
_cell_length_c   11.29536981
_cell_angle_alpha   90.05205007
_cell_angle_beta   103.05772506
_cell_angle_gamma   89.90214347
_symmetry_Int_Tables_number   1
_chemical_formula_structural   Li2VP2O7
_chemical_formula_sum   'Li16 V8 P16 O56'
_cell_volume   1085.39329991
_cell_formula_units_Z   8
loop_
 _symmetry_equiv_pos_site_id
 _symmetry_equiv_pos_as_xyz
  1  'x, y, z'
loop_
 _atom_site_type_symbol
 _atom_site_label
 _atom_site_symmetry_multiplicity
 _atom_site_fract_x
 _atom_site_fract_y
 _atom_site_fract_z
 _atom_site_occupancy
  Li  Li0  1  0.11203026  0.72101682  0.44888925  1
  Li  Li1  1  0.16912689  0.42146267  0.54541272  1
  Li  Li2  1  0.08541631  0.10708765  0.02900174  1
  Li  Li3  1  0.34511428  0.91061220  0.95686586  1
  Li  Li4  1  0.15402002  0.41017623  0.04363967  1
  Li  Li5  1  0.41521620  0.60797026  0.97055974  1
  Li  Li6  1  0.33056264  0.92104646  0.45456811  1
  Li  Li7  1  0.38807348  0.22160525  0.55046057  1
  Li  Li8  1  0.61192652  0.77839475  0.44953943  1
  Li  Li9  1  0.66943736  0.07895354  0.54543189  1
  Li  Li10  1  0.58478380  0.39202974  0.02944026  1
  Li  Li11  1  0.84597998  0.58982377  0.95636033  1
  Li  Li12  1  0.65488572  0.08938780  0.04313414  1
  Li  Li13  1  0.91458369  0.89291235  0.97099826  1
  Li  Li14  1  0.83087311  0.57853733  0.45458728  1
  Li  Li15  1  0.88796974  0.27898318  0.55111075  1
  V  V16  1  0.20265885  0.92831925  0.67299790  1
  V  V17  1  0.26369645  0.21828215  0.82676432  1
  V  V18  1  0.23632327  0.71851819  0.17276375  1
  V  V19  1  0.29715843  0.42849824  0.32682783  1
  V  V20  1  0.70284157  0.57150176  0.67317217  1
  V  V21  1  0.76367673  0.28148181  0.82723625  1
  V  V22  1  0.73630355  0.78171785  0.17323568  1
  V  V23  1  0.79734115  0.07168075  0.32700210  1
  P  P24  1  0.02629001  0.45315228  0.76100118  1
  P  P25  1  0.12048626  0.70357343  0.89013041  1
  P  P26  1  0.05921356  0.93027630  0.24530530  1
  P  P27  1  0.12203417  0.14968786  0.42698234  1
  P  P28  1  0.37788830  0.64935842  0.57281718  1
  P  P29  1  0.44132560  0.43050397  0.75466274  1
  P  P30  1  0.52614643  0.04685413  0.76042378  1
  P  P31  1  0.37948281  0.20320411  0.10973755  1
  P  P32  1  0.62051719  0.79679589  0.89026245  1
  P  P33  1  0.47385357  0.95314587  0.23957622  1
  P  P34  1  0.55867440  0.56949603  0.24533726  1
  P  P35  1  0.62211170  0.35064158  0.42718282  1
  P  P36  1  0.87796583  0.85031214  0.57301766  1
  P  P37  1  0.94078644  0.06972370  0.75469470  1
  P  P38  1  0.87951374  0.29642657  0.10986959  1
  P  P39  1  0.97370999  0.54684772  0.23899882  1
  O  O40  1  0.02202424  0.41413384  0.63019224  1
  O  O41  1  0.02371920  0.83986524  0.55242603  1
  O  O42  1  0.08755686  0.08984816  0.73490579  1
  O  O43  1  0.11813552  0.36483176  0.85809102  1
  O  O44  1  0.09315613  0.60256791  0.77325470  1
  O  O45  1  0.18307742  0.82906012  0.84529559  1
  O  O46  1  0.22602643  0.63100146  0.99379063  1
  O  O47  1  0.01588557  0.27664420  0.07420183  1
  O  O48  1  0.11030469  0.07966995  0.29441194  1
  O  O49  1  0.06906633  0.92735471  0.11300887  1
  O  O50  1  0.11990587  0.53633488  0.21069761  1
  O  O51  1  0.18834059  0.28749797  0.41924819  1
  O  O52  1  0.16511111  0.82965369  0.31926462  1
  O  O53  1  0.22288506  0.06166172  0.51864491  1
  O  O54  1  0.27639364  0.56175141  0.48137118  1
  O  O55  1  0.33535956  0.32997109  0.68091402  1
  O  O56  1  0.31216511  0.78768435  0.58060575  1
  O  O57  1  0.37983382  0.03637049  0.78840435  1
  O  O58  1  0.38978307  0.57989739  0.70548184  1
  O  O59  1  0.43205574  0.42819220  0.88703853  1
  O  O60  1  0.48390997  0.77763689  0.92567233  1
  O  O61  1  0.27437707  0.13054786  0.00580738  1
  O  O62  1  0.31676837  0.32899872  0.15426573  1
  O  O63  1  0.40636205  0.10254704  0.22673949  1
  O  O64  1  0.41205812  0.58995411  0.26557459  1
  O  O65  1  0.38246582  0.86461045  0.14244545  1
  O  O66  1  0.52194318  0.08550127  0.62964243  1
  O  O67  1  0.47651365  0.34134660  0.44815143  1
  O  O68  1  0.52348635  0.65865340  0.55184857  1
  O  O69  1  0.47805682  0.91449873  0.37035757  1
  O  O70  1  0.61753418  0.13538955  0.85755455  1
  O  O71  1  0.58794188  0.41004589  0.73442541  1
  O  O72  1  0.59363795  0.89745296  0.77326051  1
  O  O73  1  0.68323163  0.67100128  0.84573427  1
  O  O74  1  0.72562293  0.86945214  0.99419262  1
  O  O75  1  0.51609003  0.22236311  0.07432767  1
  O  O76  1  0.56794426  0.57180780  0.11296147  1
  O  O77  1  0.61021693  0.42010261  0.29451816  1
  O  O78  1  0.62016618  0.96362951  0.21159565  1
  O  O79  1  0.68783489  0.21231565  0.41939425  1
  O  O80  1  0.66464044  0.67002891  0.31908598  1
  O  O81  1  0.72360636  0.43824859  0.51862882  1
  O  O82  1  0.77711494  0.93833828  0.48135509  1
  O  O83  1  0.83488889  0.17034631  0.68073538  1
  O  O84  1  0.81165941  0.71250203  0.58075181  1
  O  O85  1  0.88009413  0.46366512  0.78930239  1
  O  O86  1  0.93093367  0.07264529  0.88699113  1
  O  O87  1  0.88969531  0.92033005  0.70558806  1
  O  O88  1  0.98411443  0.72335580  0.92579817  1
  O  O89  1  0.77397357  0.36899854  0.00620937  1
  O  O90  1  0.81692258  0.17093988  0.15470441  1
  O  O91  1  0.90684387  0.39743209  0.22674530  1
  O  O92  1  0.88186448  0.63516824  0.14190898  1
  O  O93  1  0.91244314  0.91015184  0.26509421  1
  O  O94  1  0.97628080  0.16013476  0.44757397  1
  O  O95  1  0.97797576  0.58586616  0.36980776  1
