# generated using pymatgen
data_Sr3(CoO3)2
_symmetry_space_group_name_H-M   'P 1'
_cell_length_a   11.43813078
_cell_length_b   11.86439458
_cell_length_c   3.89144941
_cell_angle_alpha   80.59270218
_cell_angle_beta   89.97780463
_cell_angle_gamma   118.82551556
_symmetry_Int_Tables_number   1
_chemical_formula_structural   Sr3(CoO3)2
_chemical_formula_sum   'Sr9 Co6 O18'
_cell_volume   454.51758095
_cell_formula_units_Z   3
loop_
 _symmetry_equiv_pos_site_id
 _symmetry_equiv_pos_as_xyz
  1  'x, y, z'
loop_
 _atom_site_type_symbol
 _atom_site_label
 _atom_site_symmetry_multiplicity
 _atom_site_fract_x
 _atom_site_fract_y
 _atom_site_fract_z
 _atom_site_occupancy
  Sr  Sr0  1  0.31683529  0.00139638  0.99971669  1
  Sr  Sr1  1  0.99995524  0.00083038  0.99867664  1
  Sr  Sr2  1  0.68352092  0.00064937  0.99963417  1
  Sr  Sr3  1  0.15210371  0.64103880  0.17945659  1
  Sr  Sr4  1  0.81099581  0.62236757  0.18643237  1
  Sr  Sr5  1  0.48749397  0.64028131  0.17905789  1
  Sr  Sr6  1  0.84857207  0.36153565  0.81865805  1
  Sr  Sr7  1  0.18919329  0.37953916  0.81019135  1
  Sr  Sr8  1  0.51238967  0.36132812  0.82018914  1
  Co  Co9  1  0.59841923  0.19705370  0.40218451  1
  Co  Co10  1  0.26397316  0.19515787  0.40241239  1
  Co  Co11  1  0.93022544  0.19499583  0.40232611  1
  Co  Co12  1  0.07015784  0.80725026  0.59479522  1
  Co  Co13  1  0.40221261  0.80504668  0.59735728  1
  Co  Co14  1  0.73585901  0.80620240  0.59571686  1
  O  O15  1  0.74311385  0.17366355  0.41409776  1
  O  O16  1  0.85462643  0.00061630  0.49905724  1
  O  O17  1  0.14540199  0.00137288  0.49831179  1
  O  O18  1  0.03217600  0.38701439  0.30663378  1
  O  O19  1  0.41762407  0.83544845  0.08209786  1
  O  O20  1  0.75407896  0.80742287  0.09503323  1
  O  O21  1  0.35349897  0.38665678  0.30658596  1
  O  O22  1  0.43073235  0.17510713  0.41410730  1
  O  O23  1  0.69543652  0.38966458  0.30411673  1
  O  O24  1  0.05256147  0.80799601  0.09448262  1
  O  O25  1  0.64574389  0.61435939  0.69127607  1
  O  O26  1  0.56988365  0.82717284  0.58581153  1
  O  O27  1  0.30506112  0.61244171  0.69351051  1
  O  O28  1  0.24581187  0.19420892  0.90309252  1
  O  O29  1  0.58288158  0.16610167  0.91784253  1
  O  O30  1  0.94726656  0.19391492  0.90285892  1
  O  O31  1  0.25780144  0.82904564  0.58542860  1
  O  O32  1  0.96835402  0.61574949  0.68958280  1
