# generated using pymatgen
data_V3O5F
_symmetry_space_group_name_H-M   'P 1'
_cell_length_a   7.26460576
_cell_length_b   5.51122992
_cell_length_c   5.51122992
_cell_angle_alpha   70.80986139
_cell_angle_beta   72.03566153
_cell_angle_gamma   72.03566153
_symmetry_Int_Tables_number   1
_chemical_formula_structural   V3O5F
_chemical_formula_sum   'V6 O10 F2'
_cell_volume   192.89612302
_cell_formula_units_Z   2
loop_
 _symmetry_equiv_pos_site_id
 _symmetry_equiv_pos_as_xyz
  1  'x, y, z'
loop_
 _atom_site_type_symbol
 _atom_site_label
 _atom_site_symmetry_multiplicity
 _atom_site_fract_x
 _atom_site_fract_y
 _atom_site_fract_z
 _atom_site_occupancy
  V  V0  1  0.84401968  0.66920327  0.66920327  1
  V  V1  1  0.66771797  0.35023751  0.35023751  1
  V  V2  1  0.33228203  0.64976249  0.64976249  1
  V  V3  1  0.15598032  0.33079673  0.33079673  1
  V  V4  1  0.50000000  0.00000000  0.00000000  1
  V  V5  1  0.00000000  0.00000000  0.00000000  1
  O  O6  1  0.67060579  0.03740151  0.63103936  1
  O  O7  1  0.32939421  0.36896064  0.96259849  1
  O  O8  1  0.96776184  0.23460816  0.23460816  1
  O  O9  1  0.62821852  0.57003473  0.57003473  1
  O  O10  1  0.03223816  0.76539184  0.76539184  1
  O  O11  1  0.37178148  0.42996527  0.42996527  1
  O  O12  1  0.00000000  0.30680445  0.69319555  1
  O  O13  1  0.67060579  0.63103936  0.03740151  1
  O  O14  1  0.32939421  0.96259849  0.36896064  1
  O  O15  1  0.00000000  0.69319555  0.30680445  1
  F  F16  1  0.30233712  0.89063872  0.89063872  1
  F  F17  1  0.69766288  0.10936128  0.10936128  1
