# generated using pymatgen
data_Li2CoNiO4
_symmetry_space_group_name_H-M   'P 1'
_cell_length_a   5.03622050
_cell_length_b   2.90945628
_cell_length_c   5.07461183
_cell_angle_alpha   90.00000532
_cell_angle_beta   70.31496983
_cell_angle_gamma   89.99999644
_symmetry_Int_Tables_number   1
_chemical_formula_structural   Li2CoNiO4
_chemical_formula_sum   'Li2 Co1 Ni1 O4'
_cell_volume   70.01107526
_cell_formula_units_Z   1
loop_
 _symmetry_equiv_pos_site_id
 _symmetry_equiv_pos_as_xyz
  1  'x, y, z'
loop_
 _atom_site_type_symbol
 _atom_site_label
 _atom_site_symmetry_multiplicity
 _atom_site_fract_x
 _atom_site_fract_y
 _atom_site_fract_z
 _atom_site_occupancy
  Li  Li0  1  0.50000000  0.00000000  0.50000000  1
  Li  Li1  1  0.50000000  0.50000000  0.00000000  1
  Co  Co2  1  0.00000000  0.50000000  0.50000000  1
  Ni  Ni3  1  0.00000000  0.00000000  0.00000000  1
  O  O4  1  0.77913107  1.00000000  0.71995850  1
  O  O5  1  0.77739761  0.50000000  0.26659707  1
  O  O6  1  0.22260239  0.50000000  0.73340293  1
  O  O7  1  0.22086893  0.00000000  0.28004150  1
