# generated using pymatgen
data_LaMg6Zn
_symmetry_space_group_name_H-M   'P 1'
_cell_length_a   6.92081171
_cell_length_b   6.24095694
_cell_length_c   5.12359287
_cell_angle_alpha   90.00000000
_cell_angle_beta   90.00000000
_cell_angle_gamma   116.80036735
_symmetry_Int_Tables_number   1
_chemical_formula_structural   LaMg6Zn
_chemical_formula_sum   'La1 Mg6 Zn1'
_cell_volume   197.52924711
_cell_formula_units_Z   1
loop_
 _symmetry_equiv_pos_site_id
 _symmetry_equiv_pos_as_xyz
  1  'x, y, z'
loop_
 _atom_site_type_symbol
 _atom_site_label
 _atom_site_symmetry_multiplicity
 _atom_site_fract_x
 _atom_site_fract_y
 _atom_site_fract_z
 _atom_site_occupancy
  La  La0  1  0.12685258  0.81342579  0.25000000  1
  Mg  Mg1  1  0.63498160  0.31632830  0.25000000  1
  Mg  Mg2  1  0.63498160  0.81865230  0.25000000  1
  Mg  Mg3  1  0.34577205  0.17972106  0.75000000  1
  Mg  Mg4  1  0.34577205  0.66605199  0.75000000  1
  Mg  Mg5  1  0.87948053  0.18974076  0.75000000  1
  Mg  Mg6  1  0.80077069  0.65038585  0.75000000  1
  Zn  Zn7  1  0.23138889  0.36569394  0.25000000  1
