# generated using pymatgen
data_Al11AgO17
_symmetry_space_group_name_H-M   'P 1'
_cell_length_a   5.65565217
_cell_length_b   5.65564866
_cell_length_c   22.79221874
_cell_angle_alpha   89.99969070
_cell_angle_beta   90.00053237
_cell_angle_gamma   120.04000208
_symmetry_Int_Tables_number   1
_chemical_formula_structural   Al11AgO17
_chemical_formula_sum   'Al22 Ag2 O34'
_cell_volume   631.11303599
_cell_formula_units_Z   2
loop_
 _symmetry_equiv_pos_site_id
 _symmetry_equiv_pos_as_xyz
  1  'x, y, z'
loop_
 _atom_site_type_symbol
 _atom_site_label
 _atom_site_symmetry_multiplicity
 _atom_site_fract_x
 _atom_site_fract_y
 _atom_site_fract_z
 _atom_site_occupancy
  Al  Al0  1  0.16708663  0.83291890  0.89455738  1
  Al  Al1  1  0.16708750  0.83291795  0.60544762  1
  Al  Al2  1  0.33230736  0.66769271  0.17550885  1
  Al  Al3  1  0.33313674  0.66686527  0.02477278  1
  Al  Al4  1  0.33228730  0.66771240  0.32442595  1
  Al  Al5  1  0.16904736  0.33535775  0.60774550  1
  Al  Al6  1  -0.00000030  0.00000593  0.00000243  1
  Al  Al7  1  0.99999981  0.99999949  0.50000313  1
  Al  Al8  1  0.33313673  0.66686169  0.47523269  1
  Al  Al9  1  0.16905298  0.33536067  0.89225888  1
  Al  Al10  1  0.33535516  0.16905120  0.10774254  1
  Al  Al11  1  0.33534542  0.16904139  0.39225818  1
  Al  Al12  1  0.66465044  0.83095510  0.60774484  1
  Al  Al13  1  0.66465082  0.83095643  0.89226042  1
  Al  Al14  1  0.66770607  0.33229660  0.67555040  1
  Al  Al15  1  0.83095550  0.66464533  0.39225749  1
  Al  Al16  1  0.83094850  0.66464558  0.10774247  1
  Al  Al17  1  0.66686019  0.33314275  0.97523195  1
  Al  Al18  1  0.66770173  0.33229894  0.82446668  1
  Al  Al19  1  0.66686294  0.33313837  0.52477412  1
  Al  Al20  1  0.83291345  0.16708146  0.39455526  1
  Al  Al21  1  0.83290985  0.16708875  0.10544505  1
  Ag  Ag22  1  0.24277087  0.75722680  0.75000156  1
  Ag  Ag23  1  0.75722873  0.24277007  0.24999540  1
  O  O24  1  0.15737892  0.84261967  0.05015803  1
  O  O25  1  0.15738033  0.84261457  0.44983840  1
  O  O26  1  0.00756107  0.50588987  0.64579431  1
  O  O27  1  0.00755278  0.50588466  0.85420103  1
  O  O28  1  0.31920014  0.68079987  0.25006449  1
  O  O29  1  0.33390258  0.66609551  0.55550552  1
  O  O30  1  0.15610513  0.31435907  0.04950946  1
  O  O31  1  0.49411994  0.99244411  0.64579232  1
  O  O32  1  0.99923785  0.00076511  0.14140814  1
  O  O33  1  0.15610740  0.31435559  0.45048657  1
  O  O34  1  0.99923424  0.00075451  0.35859313  1
  O  O35  1  0.00076746  0.99924560  0.64140481  1
  O  O36  1  0.00076338  0.99924526  0.85859051  1
  O  O37  1  0.33390440  0.66610371  0.94448914  1
  O  O38  1  0.49412287  0.99245344  0.85420137  1
  O  O39  1  0.31435846  0.15611008  0.54950824  1
  O  O40  1  0.31435472  0.15611263  0.95048710  1
  O  O41  1  0.49936763  0.50064029  0.64540265  1
  O  O42  1  0.49937347  0.50063310  0.85459192  1
  O  O43  1  0.50063804  0.49935374  0.35459703  1
  O  O44  1  0.50063132  0.49937227  0.14541138  1
  O  O45  1  0.68564357  0.84389593  0.04950949  1
  O  O46  1  0.68564294  0.84389031  0.45048826  1
  O  O47  1  0.66609791  0.33390525  0.44448960  1
  O  O48  1  0.50587552  0.00754048  0.14579866  1
  O  O49  1  0.50587947  0.00756036  0.35420787  1
  O  O50  1  0.84389247  0.68564532  0.54950892  1
  O  O51  1  0.84389136  0.68564879  0.95048614  1
  O  O52  1  0.66608753  0.33390728  0.05550715  1
  O  O53  1  0.68079257  0.31921421  0.74998662  1
  O  O54  1  0.99245892  0.49412436  0.14579829  1
  O  O55  1  0.99243534  0.49410964  0.35420511  1
  O  O56  1  0.84261752  0.15738800  0.94983944  1
  O  O57  1  0.84261897  0.15738486  0.55015733  1
