# generated using pymatgen
data_Li4V2P4H3O16
_symmetry_space_group_name_H-M   'P 1'
_cell_length_a   4.95237447
_cell_length_b   7.71399888
_cell_length_c   8.35020944
_cell_angle_alpha   91.00439361
_cell_angle_beta   90.75265037
_cell_angle_gamma   102.03519898
_symmetry_Int_Tables_number   1
_chemical_formula_structural   Li4V2P4H3O16
_chemical_formula_sum   'Li4 V2 P4 H3 O16'
_cell_volume   311.89416378
_cell_formula_units_Z   1
loop_
 _symmetry_equiv_pos_site_id
 _symmetry_equiv_pos_as_xyz
  1  'x, y, z'
loop_
 _atom_site_type_symbol
 _atom_site_label
 _atom_site_symmetry_multiplicity
 _atom_site_fract_x
 _atom_site_fract_y
 _atom_site_fract_z
 _atom_site_occupancy
  Li  Li0  1  0.12370973  0.67884879  0.64341689  1
  Li  Li1  1  0.39043349  0.85356318  0.12659185  1
  Li  Li2  1  0.58484946  0.15290205  0.88033989  1
  Li  Li3  1  0.87611534  0.31887850  0.35214846  1
  V  V4  1  0.49792809  0.00231510  0.49953200  1
  V  V5  1  0.00150740  0.49671015  0.00301898  1
  P  P6  1  0.11085513  0.25408804  0.67240866  1
  P  P7  1  0.37799001  0.24242027  0.15418079  1
  P  P8  1  0.62223297  0.75045448  0.84534650  1
  P  P9  1  0.88192133  0.74736570  0.32721172  1
  H  H10  1  0.45818937  0.46013965  0.59838597  1
  H  H11  1  0.53876804  0.52866945  0.37953703  1
  H  H12  1  0.94320252  0.96948075  0.98151791  1
  O  O13  1  0.10457809  0.82308289  0.45215705  1
  O  O14  1  0.98070295  0.30008080  0.82985775  1
  O  O15  1  0.25712280  0.44478726  0.59685431  1
  O  O16  1  0.38408282  0.66030058  0.95057444  1
  O  O17  1  0.15961452  0.36370555  0.17384171  1
  O  O18  1  0.26008213  0.06749163  0.06066708  1
  O  O19  1  0.33547182  0.14916459  0.69620619  1
  O  O20  1  0.51811205  0.79646353  0.68213482  1
  O  O21  1  0.47875925  0.20921523  0.32443643  1
  O  O22  1  0.74751294  0.93515642  0.93705653  1
  O  O23  1  0.65918549  0.85346633  0.30333501  1
  O  O24  1  0.84704755  0.63997416  0.82738391  1
  O  O25  1  0.62481043  0.34512355  0.05494505  1
  O  O26  1  0.73655630  0.55818569  0.40635845  1
  O  O27  1  0.00776585  0.70039630  0.16883983  1
  O  O28  1  0.89155213  0.17717840  0.54682578  1
