# generated using pymatgen
data_Li6Fe5SbO12
_symmetry_space_group_name_H-M   'P 1'
_cell_length_a   5.31157444
_cell_length_b   5.31157423
_cell_length_c   10.47490841
_cell_angle_alpha   86.10989786
_cell_angle_beta   86.10990103
_cell_angle_gamma   120.19889678
_symmetry_Int_Tables_number   1
_chemical_formula_structural   Li6Fe5SbO12
_chemical_formula_sum   'Li6 Fe5 Sb1 O12'
_cell_volume   253.04268496
_cell_formula_units_Z   1
loop_
 _symmetry_equiv_pos_site_id
 _symmetry_equiv_pos_as_xyz
  1  'x, y, z'
loop_
 _atom_site_type_symbol
 _atom_site_label
 _atom_site_symmetry_multiplicity
 _atom_site_fract_x
 _atom_site_fract_y
 _atom_site_fract_z
 _atom_site_occupancy
  Li  Li0  1  0.55239924  0.88306060  0.28401864  1
  Li  Li1  1  0.77950863  0.77950863  0.71113486  1
  Li  Li2  1  0.11694140  0.44760376  0.71598136  1
  Li  Li3  1  0.88306060  0.55239924  0.28401864  1
  Li  Li4  1  0.22048637  0.22048637  0.28886414  1
  Li  Li5  1  0.44760376  0.11694140  0.71598136  1
  Fe  Fe6  1  0.16970043  0.83029957  0.50000000  1
  Fe  Fe7  1  0.50000000  0.50000000  0.50000000  1
  Fe  Fe8  1  0.83029957  0.16970043  0.50000000  1
  Fe  Fe9  1  0.33863903  0.66136097  1.00000000  1
  Fe  Fe10  1  0.66136097  0.33863903  0.00000000  1
  Sb  Sb11  1  0.00000000  0.00000000  0.00000000  1
  O  O12  1  0.35004447  0.03098017  0.89791002  1
  O  O13  1  0.96901983  0.64995553  0.10208998  1
  O  O14  1  0.47290010  0.82377747  0.61274532  1
  O  O15  1  0.86723677  0.86723677  0.39180477  1
  O  O16  1  0.17622253  0.52709990  0.38725468  1
  O  O17  1  0.71148706  0.71148706  0.89282728  1
  O  O18  1  0.28851294  0.28851294  0.10717272  1
  O  O19  1  0.82377747  0.47290010  0.61274532  1
  O  O20  1  0.13276323  0.13276323  0.60819523  1
  O  O21  1  0.52709990  0.17622253  0.38725468  1
  O  O22  1  0.03098017  0.35004447  0.89791002  1
  O  O23  1  0.64995553  0.96901983  0.10208998  1
