# generated using pymatgen
data_VOF2
_symmetry_space_group_name_H-M   'P 1'
_cell_length_a   5.20695135
_cell_length_b   13.38601158
_cell_length_c   5.20700169
_cell_angle_alpha   88.94354168
_cell_angle_beta   119.10399370
_cell_angle_gamma   90.29110328
_symmetry_Int_Tables_number   1
_chemical_formula_structural   VOF2
_chemical_formula_sum   'V6 O6 F12'
_cell_volume   317.04848911
_cell_formula_units_Z   6
loop_
 _symmetry_equiv_pos_site_id
 _symmetry_equiv_pos_as_xyz
  1  'x, y, z'
loop_
 _atom_site_type_symbol
 _atom_site_label
 _atom_site_symmetry_multiplicity
 _atom_site_fract_x
 _atom_site_fract_y
 _atom_site_fract_z
 _atom_site_occupancy
  V  V0  1  0.02004999  0.50358569  0.98627131  1
  V  V1  1  0.93560763  0.99941458  0.98718200  1
  V  V2  1  0.64661601  0.82974731  0.34706169  1
  V  V3  1  0.33333300  0.66666700  0.66666700  1
  V  V4  1  0.73105937  0.33391842  0.34615100  1
  V  V5  1  0.33333300  0.16666700  0.66666700  1
  O  O6  1  0.99871712  0.25281889  0.57031609  1
  O  O7  1  0.74859268  0.91910737  0.08714097  1
  O  O8  1  0.09296450  0.57900472  0.76513526  1
  O  O9  1  0.57370250  0.75432828  0.56819874  1
  O  O10  1  0.91807332  0.41422563  0.24619303  1
  O  O11  1  0.66794888  0.08051411  0.76301791  1
  F  F12  1  0.98335673  0.74887191  0.39621903  1
  F  F13  1  0.39005403  0.75634921  0.98866247  1
  F  F14  1  0.34297295  0.40993218  0.08271039  1
  F  F15  1  0.06371252  0.07962152  0.32642547  1
  F  F16  1  0.32369305  0.92340182  0.25062261  1
  F  F17  1  0.27661297  0.57698479  0.34467053  1
  F  F18  1  0.60295448  0.25371248  0.00690853  1
  F  F19  1  0.42944534  0.25042937  0.41222605  1
  F  F20  1  0.23722166  0.08290463  0.92110695  1
  F  F21  1  0.74732028  0.41467970  0.65840096  1
  F  F22  1  0.91934672  0.91865330  0.67493304  1
  F  F23  1  0.68331027  0.58446109  0.93711397  1
