# generated using pymatgen
data_LiVF6
_symmetry_space_group_name_H-M   'P 1'
_cell_length_a   4.84811708
_cell_length_b   4.84811708
_cell_length_c   8.84417165
_cell_angle_alpha   90.00000000
_cell_angle_beta   90.00000000
_cell_angle_gamma   90.00000000
_symmetry_Int_Tables_number   1
_chemical_formula_structural   LiVF6
_chemical_formula_sum   'Li2 V2 F12'
_cell_volume   207.87552618
_cell_formula_units_Z   2
loop_
 _symmetry_equiv_pos_site_id
 _symmetry_equiv_pos_as_xyz
  1  'x, y, z'
loop_
 _atom_site_type_symbol
 _atom_site_label
 _atom_site_symmetry_multiplicity
 _atom_site_fract_x
 _atom_site_fract_y
 _atom_site_fract_z
 _atom_site_occupancy
  Li  Li0  1  0.00000000  0.00000000  0.34795773  1
  Li  Li1  1  0.50000000  0.50000000  0.84795773  1
  V  V2  1  0.00000000  0.00000000  0.99630891  1
  V  V3  1  0.50000000  0.50000000  0.49630891  1
  F  F4  1  0.17706871  0.82293129  0.14891147  1
  F  F5  1  0.19669869  0.80330131  0.85854279  1
  F  F6  1  0.23476599  0.76523401  0.48797742  1
  F  F7  1  0.26523401  0.26523401  0.98797742  1
  F  F8  1  0.30330131  0.30330131  0.35854279  1
  F  F9  1  0.32293129  0.32293129  0.64891147  1
  F  F10  1  0.69669869  0.69669869  0.35854279  1
  F  F11  1  0.67706871  0.67706871  0.64891147  1
  F  F12  1  0.73476599  0.73476599  0.98797742  1
  F  F13  1  0.76523401  0.23476599  0.48797742  1
  F  F14  1  0.82293129  0.17706871  0.14891147  1
  F  F15  1  0.80330131  0.19669869  0.85854279  1
