# generated using pymatgen
data_LiVF6
_symmetry_space_group_name_H-M   'P 1'
_cell_length_a   9.21163532
_cell_length_b   9.38822955
_cell_length_c   12.67808393
_cell_angle_alpha   90.00000000
_cell_angle_beta   89.60749599
_cell_angle_gamma   90.00000000
_symmetry_Int_Tables_number   1
_chemical_formula_structural   LiVF6
_chemical_formula_sum   'Li8 V8 F48'
_cell_volume   1096.38697656
_cell_formula_units_Z   8
loop_
 _symmetry_equiv_pos_site_id
 _symmetry_equiv_pos_as_xyz
  1  'x, y, z'
loop_
 _atom_site_type_symbol
 _atom_site_label
 _atom_site_symmetry_multiplicity
 _atom_site_fract_x
 _atom_site_fract_y
 _atom_site_fract_z
 _atom_site_occupancy
  Li  Li0  1  0.10709329  0.11990175  0.14604123  1
  Li  Li1  1  0.10376764  0.38041168  0.85904118  1
  Li  Li2  1  0.39617836  0.62324428  0.35366619  1
  Li  Li3  1  0.47202717  0.74860232  0.99279232  1
  Li  Li4  1  0.60376764  0.11958832  0.35904118  1
  Li  Li5  1  0.60709329  0.38009825  0.64604123  1
  Li  Li6  1  0.89617836  0.87675572  0.85366619  1
  Li  Li7  1  0.97202717  0.75139768  0.49279232  1
  V  V8  1  0.24290574  0.96990810  0.38642083  1
  V  V9  1  0.25501988  0.46660071  0.11777966  1
  V  V10  1  0.25121441  0.53096624  0.61880250  1
  V  V11  1  0.25385429  0.03154362  0.87878679  1
  V  V12  1  0.75121441  0.96903376  0.11880250  1
  V  V13  1  0.75385429  0.46845638  0.37878679  1
  V  V14  1  0.74290574  0.53009190  0.88642083  1
  V  V15  1  0.75501988  0.03339929  0.61777966  1
  F  F16  1  0.09012775  0.84333013  0.38772738  1
  F  F17  1  0.10314157  0.58375489  0.11807866  1
  F  F18  1  0.09251451  0.63303588  0.57537209  1
  F  F19  1  0.09251688  0.92798867  0.83930578  1
  F  F20  1  0.12569963  0.11133982  0.42087588  1
  F  F21  1  0.13810345  0.31910356  0.16021074  1
  F  F22  1  0.15919233  0.06714078  0.00631311  1
  F  F23  1  0.16064738  0.49678588  0.74537229  1
  F  F24  1  0.16550704  0.19210473  0.82724796  1
  F  F25  1  0.17481945  0.37236841  0.56533366  1
  F  F26  1  0.20931133  0.00888902  0.24585052  1
  F  F27  1  0.21772289  0.42706387  0.97851003  1
  F  F28  1  0.28115133  0.92692333  0.51916734  1
  F  F29  1  0.29138484  0.50993572  0.25586993  1
  F  F30  1  0.32683486  0.86768758  0.93644886  1
  F  F31  1  0.33085472  0.68702224  0.67244096  1
  F  F32  1  0.33690714  0.99693789  0.75589991  1
  F  F33  1  0.34057712  0.56718120  0.49183008  1
  F  F34  1  0.35928340  0.82103025  0.33967288  1
  F  F35  1  0.37586808  0.61299060  0.07786383  1
  F  F36  1  0.40225841  0.08721743  0.38146599  1
  F  F37  1  0.40521937  0.34704319  0.11351400  1
  F  F38  1  0.40860778  0.42674966  0.66182359  1
  F  F39  1  0.40440596  0.13056793  0.92407482  1
  F  F40  1  0.59251451  0.86696412  0.07537209  1
  F  F41  1  0.59251688  0.57201133  0.33930578  1
  F  F42  1  0.59012775  0.65666987  0.88772738  1
  F  F43  1  0.60314157  0.91624511  0.61807866  1
  F  F44  1  0.62569963  0.38866018  0.92087588  1
  F  F45  1  0.63810345  0.18089644  0.66021074  1
  F  F46  1  0.65919233  0.43285922  0.50631311  1
  F  F47  1  0.66064738  0.00321412  0.24537229  1
  F  F48  1  0.66550704  0.30789527  0.32724796  1
  F  F49  1  0.67481945  0.12763159  0.06533366  1
  F  F50  1  0.70931133  0.49111098  0.74585052  1
  F  F51  1  0.71772289  0.07293613  0.47851103  1
  F  F52  1  0.78115133  0.57307667  0.01916734  1
  F  F53  1  0.79138484  0.99006428  0.75586993  1
  F  F54  1  0.82683486  0.63231242  0.43644886  1
  F  F55  1  0.83085472  0.81297776  0.17244096  1
  F  F56  1  0.83690714  0.50306211  0.25589991  1
  F  F57  1  0.84057712  0.93281880  0.99183008  1
  F  F58  1  0.85928340  0.67896975  0.83967288  1
  F  F59  1  0.87586808  0.88700940  0.57786383  1
  F  F60  1  0.90860778  0.07325034  0.16182359  1
  F  F61  1  0.90440596  0.36943207  0.42407482  1
  F  F62  1  0.90225841  0.41278257  0.88146599  1
  F  F63  1  0.90521937  0.15295681  0.61351400  1
