# generated using pymatgen
data_LiVF6
_symmetry_space_group_name_H-M   'P 1'
_cell_length_a   9.69381280
_cell_length_b   8.69418707
_cell_length_c   5.00240832
_cell_angle_alpha   90.00000000
_cell_angle_beta   90.00000000
_cell_angle_gamma   90.00000000
_symmetry_Int_Tables_number   1
_chemical_formula_structural   LiVF6
_chemical_formula_sum   'Li4 V4 F24'
_cell_volume   421.60208230
_cell_formula_units_Z   4
loop_
 _symmetry_equiv_pos_site_id
 _symmetry_equiv_pos_as_xyz
  1  'x, y, z'
loop_
 _atom_site_type_symbol
 _atom_site_label
 _atom_site_symmetry_multiplicity
 _atom_site_fract_x
 _atom_site_fract_y
 _atom_site_fract_z
 _atom_site_occupancy
  Li  Li0  1  0.11911916  0.87588071  0.01466835  1
  Li  Li1  1  0.38088084  0.37588071  0.51466835  1
  Li  Li2  1  0.61911916  0.62411929  0.01466835  1
  Li  Li3  1  0.88088084  0.12411929  0.51466835  1
  V  V4  1  0.12861908  0.24735004  0.00012627  1
  V  V5  1  0.37138092  0.74735004  0.50012627  1
  V  V6  1  0.62861908  0.25264996  0.00012627  1
  V  V7  1  0.87138092  0.75264996  0.50012627  1
  F  F8  1  0.01525872  0.10458815  0.82925158  1
  F  F9  1  0.01504055  0.24303419  0.29118226  1
  F  F10  1  0.03187809  0.39657585  0.85549680  1
  F  F11  1  0.21530875  0.07446422  0.12987624  1
  F  F12  1  0.24645586  0.37062262  0.17827360  1
  F  F13  1  0.24602628  0.24506892  0.71543790  1
  F  F14  1  0.25397372  0.74506892  0.21543790  1
  F  F15  1  0.25354414  0.87062262  0.67827360  1
  F  F16  1  0.28469125  0.57446422  0.62987624  1
  F  F17  1  0.46812191  0.89657585  0.35549680  1
  F  F18  1  0.48495945  0.74303419  0.79118226  1
  F  F19  1  0.48474128  0.60458815  0.32925158  1
  F  F20  1  0.51525872  0.39541185  0.82925158  1
  F  F21  1  0.51504055  0.25696581  0.29118226  1
  F  F22  1  0.53187809  0.10342415  0.85549680  1
  F  F23  1  0.71530875  0.42553578  0.12987624  1
  F  F24  1  0.74645586  0.12937738  0.17827360  1
  F  F25  1  0.74602628  0.25493108  0.71543790  1
  F  F26  1  0.75397372  0.75493108  0.21543790  1
  F  F27  1  0.75354414  0.62937738  0.67827360  1
  F  F28  1  0.78469125  0.92553578  0.62987624  1
  F  F29  1  0.96812191  0.60342415  0.35549680  1
  F  F30  1  0.98495945  0.75696581  0.79118226  1
  F  F31  1  0.98474128  0.89541185  0.32925158  1
