# generated using pymatgen
data_LiFeSiO4
_symmetry_space_group_name_H-M   'P 1'
_cell_length_a   5.18286622
_cell_length_b   5.18286608
_cell_length_c   6.68841936
_cell_angle_alpha   90.00000000
_cell_angle_beta   90.00000000
_cell_angle_gamma   90.99203275
_symmetry_Int_Tables_number   1
_chemical_formula_structural   LiFeSiO4
_chemical_formula_sum   'Li2 Fe2 Si2 O8'
_cell_volume   179.63807028
_cell_formula_units_Z   2
loop_
 _symmetry_equiv_pos_site_id
 _symmetry_equiv_pos_as_xyz
  1  'x, y, z'
loop_
 _atom_site_type_symbol
 _atom_site_label
 _atom_site_symmetry_multiplicity
 _atom_site_fract_x
 _atom_site_fract_y
 _atom_site_fract_z
 _atom_site_occupancy
  Li  Li0  1  0.30699780  0.69300220  0.50000000  1
  Li  Li1  1  0.69300220  0.30699780  0.00000000  1
  Fe  Fe2  1  0.31590907  0.68409093  0.00000000  1
  Fe  Fe3  1  0.68409093  0.31590907  0.50000000  1
  Si  Si4  1  0.17894718  0.17894718  0.25000000  1
  Si  Si5  1  0.82105282  0.82105282  0.75000000  1
  O  O6  1  0.13278953  0.76594006  0.76296219  1
  O  O7  1  0.23405994  0.86721047  0.23703781  1
  O  O8  1  0.32204497  0.30114042  0.44961424  1
  O  O9  1  0.30114042  0.32204497  0.05038576  1
  O  O10  1  0.69885958  0.67795503  0.55038576  1
  O  O11  1  0.67795503  0.69885958  0.94961424  1
  O  O12  1  0.76594006  0.13278953  0.73703781  1
  O  O13  1  0.86721047  0.23405994  0.26296219  1
