# generated using pymatgen
data_Li8MnO5F
_symmetry_space_group_name_H-M   'P 1'
_cell_length_a   5.35003764
_cell_length_b   6.00031462
_cell_length_c   5.36630577
_cell_angle_alpha   112.11448027
_cell_angle_beta   65.99854088
_cell_angle_gamma   118.16530522
_symmetry_Int_Tables_number   1
_chemical_formula_structural   Li8MnO5F
_chemical_formula_sum   'Li8 Mn1 O5 F1'
_cell_volume   135.05067492
_cell_formula_units_Z   1
loop_
 _symmetry_equiv_pos_site_id
 _symmetry_equiv_pos_as_xyz
  1  'x, y, z'
loop_
 _atom_site_type_symbol
 _atom_site_label
 _atom_site_symmetry_multiplicity
 _atom_site_fract_x
 _atom_site_fract_y
 _atom_site_fract_z
 _atom_site_occupancy
  Li  Li0  1  0.11487096  0.36077999  0.47557525  1
  Li  Li1  1  0.52767221  0.65165042  0.22934685  1
  Li  Li2  1  0.23867237  0.64703966  0.89054881  1
  Li  Li3  1  0.29828203  0.01110300  0.36139412  1
  Li  Li4  1  0.66518711  0.96552688  0.66228756  1
  Li  Li5  1  0.76566381  0.34705634  0.09452545  1
  Li  Li6  1  0.46830692  0.36905796  0.79384216  1
  Li  Li7  1  0.89934063  0.65243546  0.51835204  1
  Mn  Mn8  1  0.02116629  0.97899232  0.96832977  1
  O  O9  1  0.26804110  0.76035983  0.58031577  1
  O  O10  1  0.36188098  0.23984016  0.11280237  1
  O  O11  1  0.06311054  0.23165377  0.77850022  1
  O  O12  1  0.93771993  0.75613549  0.20890219  1
  O  O13  1  0.64062630  0.75185299  0.88482067  1
  F  F14  1  0.72945580  0.27651373  0.44045777  1
