# generated using pymatgen
data_Li4MnCo3(PO4)4
_symmetry_space_group_name_H-M   'P 1'
_cell_length_a   4.75988334
_cell_length_b   10.35183155
_cell_length_c   6.01533001
_cell_angle_alpha   90.00000000
_cell_angle_beta   90.00000000
_cell_angle_gamma   89.95970535
_symmetry_Int_Tables_number   1
_chemical_formula_structural   Li4MnCo3(PO4)4
_chemical_formula_sum   'Li4 Mn1 Co3 P4 O16'
_cell_volume   296.39635336
_cell_formula_units_Z   1
loop_
 _symmetry_equiv_pos_site_id
 _symmetry_equiv_pos_as_xyz
  1  'x, y, z'
loop_
 _atom_site_type_symbol
 _atom_site_label
 _atom_site_symmetry_multiplicity
 _atom_site_fract_x
 _atom_site_fract_y
 _atom_site_fract_z
 _atom_site_occupancy
  Li  Li0  1  0.00037393  0.99872495  0.99964447  1
  Li  Li1  1  0.00037393  0.99872495  0.50035553  1
  Li  Li2  1  0.49961036  0.50084249  0.50113145  1
  Li  Li3  1  0.49961036  0.50084249  0.99886855  1
  Mn  Mn4  1  0.97346092  0.28018426  0.25000000  1
  Co  Co5  1  0.02572201  0.72107036  0.75000000  1
  Co  Co6  1  0.47697725  0.21885991  0.75000000  1
  Co  Co7  1  0.52274482  0.77993054  0.25000000  1
  P  P8  1  0.08639625  0.59609782  0.25000000  1
  P  P9  1  0.41577345  0.09113482  0.25000000  1
  P  P10  1  0.58770033  0.90580310  0.75000000  1
  P  P11  1  0.91028707  0.40732097  0.75000000  1
  O  O12  1  0.21017445  0.45754680  0.25000000  1
  O  O13  1  0.22284635  0.66679711  0.04473573  1
  O  O14  1  0.22284635  0.66679711  0.45526427  1
  O  O15  1  0.23285603  0.40126676  0.75000000  1
  O  O16  1  0.26484848  0.90174774  0.75000000  1
  O  O17  1  0.28174824  0.16200594  0.04398991  1
  O  O18  1  0.28174824  0.16200594  0.45601009  1
  O  O19  1  0.29218086  0.95205310  0.25000000  1
  O  O20  1  0.70771260  0.04535206  0.75000000  1
  O  O21  1  0.72558278  0.83496897  0.54500804  1
  O  O22  1  0.72558278  0.83496897  0.95499196  1
  O  O23  1  0.73788640  0.09421353  0.25000000  1
  O  O24  1  0.76309486  0.59882004  0.25000000  1
  O  O25  1  0.76902480  0.33704746  0.54778319  1
  O  O26  1  0.76902480  0.33704746  0.95221681  1
  O  O27  1  0.79381229  0.54782336  0.75000000  1
