# generated using pymatgen
data_Sn4P2O9
_symmetry_space_group_name_H-M   'P 1'
_cell_length_a   9.48305979
_cell_length_b   7.11077631
_cell_length_c   14.59487097
_cell_angle_alpha   89.99985015
_cell_angle_beta   105.42465025
_cell_angle_gamma   90.00023146
_symmetry_Int_Tables_number   1
_chemical_formula_structural   Sn4P2O9
_chemical_formula_sum   'Sn16 P8 O36'
_cell_volume   948.71172712
_cell_formula_units_Z   4
loop_
 _symmetry_equiv_pos_site_id
 _symmetry_equiv_pos_as_xyz
  1  'x, y, z'
loop_
 _atom_site_type_symbol
 _atom_site_label
 _atom_site_symmetry_multiplicity
 _atom_site_fract_x
 _atom_site_fract_y
 _atom_site_fract_z
 _atom_site_occupancy
  Sn  Sn0  1  0.03730492  0.21627534  0.85247215  1
  Sn  Sn1  1  0.03730468  0.28372563  0.35247180  1
  Sn  Sn2  1  0.32266789  0.72879288  0.82968830  1
  Sn  Sn3  1  0.28262061  0.98037367  0.61284008  1
  Sn  Sn4  1  0.31973773  0.49840627  0.59088034  1
  Sn  Sn5  1  0.32266816  0.77120770  0.32968896  1
  Sn  Sn6  1  0.28261975  0.51962681  0.11284001  1
  Sn  Sn7  1  0.31973891  0.00159282  0.09088075  1
  Sn  Sn8  1  0.68026109  0.99840718  0.90911925  1
  Sn  Sn9  1  0.71738025  0.48037319  0.88715999  1
  Sn  Sn10  1  0.67733184  0.22879230  0.67031104  1
  Sn  Sn11  1  0.68026227  0.50159373  0.40911966  1
  Sn  Sn12  1  0.71737939  0.01962633  0.38715992  1
  Sn  Sn13  1  0.67733211  0.27120712  0.17031170  1
  Sn  Sn14  1  0.96269532  0.71627437  0.64752820  1
  Sn  Sn15  1  0.96269508  0.78372466  0.14752785  1
  P  P16  1  0.03145198  0.70833497  0.90160001  1
  P  P17  1  0.03145017  0.79166649  0.40160023  1
  P  P18  1  0.36877097  0.26705001  0.81568826  1
  P  P19  1  0.36877197  0.23295197  0.31569052  1
  P  P20  1  0.63122803  0.76704803  0.68430948  1
  P  P21  1  0.63122903  0.73294999  0.18431174  1
  P  P22  1  0.96854983  0.20833351  0.59839977  1
  P  P23  1  0.96854802  0.29166503  0.09839999  1
  O  O24  1  0.07245455  0.76841206  0.80677274  1
  O  O25  1  0.03305092  0.00263241  0.61214885  1
  O  O26  1  0.17981832  0.71132141  0.97862665  1
  O  O27  1  0.08332717  0.33708083  0.57669877  1
  O  O28  1  0.25201940  0.39809575  0.84233307  1
  O  O29  1  0.07245421  0.73159024  0.30677191  1
  O  O30  1  0.23844271  0.71336619  0.67451148  1
  O  O31  1  0.03305165  0.49736483  0.11214816  1
  O  O32  1  0.29312028  0.07669775  0.77922401  1
  O  O33  1  0.17981939  0.78868043  0.47862592  1
  O  O34  1  0.08333102  0.16291485  0.07669841  1
  O  O35  1  0.25201921  0.10190531  0.34233294  1
  O  O36  1  0.42501720  0.37085025  0.73736728  1
  O  O37  1  0.50349815  0.23663903  0.90215235  1
  O  O38  1  0.23844311  0.78663411  0.17451155  1
  O  O39  1  0.29312108  0.42330357  0.27922391  1
  O  O40  1  0.49650184  0.73663757  0.59784733  1
  O  O41  1  0.57498141  0.87085004  0.76263122  1
  O  O42  1  0.42501859  0.12914996  0.23736878  1
  O  O43  1  0.50349816  0.26336243  0.40215267  1
  O  O44  1  0.70687892  0.57669643  0.72077609  1
  O  O45  1  0.76155689  0.21336589  0.82548845  1
  O  O46  1  0.49650185  0.76336097  0.09784765  1
  O  O47  1  0.57498280  0.62914975  0.26263272  1
  O  O48  1  0.74798079  0.89809469  0.65766706  1
  O  O49  1  0.91666898  0.83708515  0.92330159  1
  O  O50  1  0.82018061  0.21131957  0.52137408  1
  O  O51  1  0.70687972  0.92330225  0.22077599  1
  O  O52  1  0.96694835  0.50263517  0.88785184  1
  O  O53  1  0.76155729  0.28663381  0.32548852  1
  O  O54  1  0.92754579  0.26840976  0.69322809  1
  O  O55  1  0.74798060  0.60190425  0.15766693  1
  O  O56  1  0.91667283  0.66291917  0.42330123  1
  O  O57  1  0.82018068  0.28867859  0.02137335  1
  O  O58  1  0.96694908  0.99736759  0.38785115  1
  O  O59  1  0.92754545  0.23158794  0.19322726  1
