# generated using pymatgen
data_P4WO12
_symmetry_space_group_name_H-M   'P 1'
_cell_length_a   7.42855037
_cell_length_b   8.52569438
_cell_length_c   9.40116357
_cell_angle_alpha   65.07141845
_cell_angle_beta   66.72451429
_cell_angle_gamma   64.17093292
_symmetry_Int_Tables_number   1
_chemical_formula_structural   P4WO12
_chemical_formula_sum   'P8 W2 O24'
_cell_volume   469.39528838
_cell_formula_units_Z   2
loop_
 _symmetry_equiv_pos_site_id
 _symmetry_equiv_pos_as_xyz
  1  'x, y, z'
loop_
 _atom_site_type_symbol
 _atom_site_label
 _atom_site_symmetry_multiplicity
 _atom_site_fract_x
 _atom_site_fract_y
 _atom_site_fract_z
 _atom_site_occupancy
  P  P0  1  0.69590865  0.87758579  0.86653381  1
  P  P1  1  0.96893960  0.39128906  0.32798247  1
  P  P2  1  0.31179729  0.89131565  0.82793398  1
  P  P3  1  0.44006515  0.62243563  0.63350013  1
  P  P4  1  0.55993485  0.37756437  0.36649987  1
  P  P5  1  0.68820271  0.10868435  0.17206602  1
  P  P6  1  0.03106040  0.60871094  0.67201753  1
  P  P7  1  0.30409135  0.12241421  0.13346619  1
  W  W8  1  0.85720735  0.25005658  0.75009602  1
  W  W9  1  0.14279265  0.74994342  0.24990398  1
  O  O10  1  0.85985956  0.70672813  0.79992812  1
  O  O11  1  0.85942049  0.93187787  0.21295675  1
  O  O12  1  0.00434812  0.56812975  0.28678105  1
  O  O13  1  0.51648509  0.93792072  0.77985742  1
  O  O14  1  0.96814063  0.26772137  0.49908520  1
  O  O15  1  0.59611741  0.46776444  0.72652559  1
  O  O16  1  0.79024859  0.03231075  0.77374801  1
  O  O17  1  0.26534520  0.76750578  0.99896758  1
  O  O18  1  0.76568852  0.43789000  0.27997988  1
  O  O19  1  0.36628223  0.79347063  0.69995569  1
  O  O20  1  0.63951570  0.81109918  0.04431473  1
  O  O21  1  0.49532474  0.68875699  0.45571473  1
  O  O22  1  0.50467526  0.31124301  0.54428527  1
  O  O23  1  0.36048430  0.18890082  0.95568527  1
  O  O24  1  0.63371777  0.20652937  0.30004431  1
  O  O25  1  0.23431148  0.56211000  0.72002012  1
  O  O26  1  0.73465480  0.23249422  0.00103242  1
  O  O27  1  0.20975141  0.96768925  0.22625199  1
  O  O28  1  0.40388259  0.53223556  0.27347441  1
  O  O29  1  0.03185937  0.73227863  0.50091480  1
  O  O30  1  0.48351491  0.06207928  0.22014258  1
  O  O31  1  0.99565188  0.43187025  0.71321895  1
  O  O32  1  0.14057951  0.06812213  0.78704325  1
  O  O33  1  0.14014044  0.29327187  0.20007188  1
