# generated using pymatgen
data_Na2TmPCO7
_symmetry_space_group_name_H-M   'P 1'
_cell_length_a   9.19329931
_cell_length_b   6.93622562
_cell_length_c   5.33283509
_cell_angle_alpha   90.00000000
_cell_angle_beta   91.06886759
_cell_angle_gamma   90.00000000
_symmetry_Int_Tables_number   1
_chemical_formula_structural   Na2TmPCO7
_chemical_formula_sum   'Na4 Tm2 P2 C2 O14'
_cell_volume   339.99864729
_cell_formula_units_Z   2
loop_
 _symmetry_equiv_pos_site_id
 _symmetry_equiv_pos_as_xyz
  1  'x, y, z'
loop_
 _atom_site_type_symbol
 _atom_site_label
 _atom_site_symmetry_multiplicity
 _atom_site_fract_x
 _atom_site_fract_y
 _atom_site_fract_z
 _atom_site_occupancy
  Na  Na0  1  0.22374556  0.49564882  0.23414879  1
  Na  Na1  1  0.22374556  0.00435118  0.23414879  1
  Na  Na2  1  0.77625444  0.50435118  0.76585121  1
  Na  Na3  1  0.77625444  0.99564882  0.76585121  1
  Tm  Tm4  1  0.35868499  0.75000000  0.77299648  1
  Tm  Tm5  1  0.64131501  0.25000000  0.22700352  1
  P  P6  1  0.41889681  0.25000000  0.70913165  1
  P  P7  1  0.58110319  0.75000000  0.29086835  1
  C  C8  1  0.06719041  0.75000000  0.73118951  1
  C  C9  1  0.93280959  0.25000000  0.26881049  1
  O  O10  1  0.06866829  0.25000000  0.29224193  1
  O  O11  1  0.13579463  0.75000000  0.95098658  1
  O  O12  1  0.15553630  0.75000000  0.53508444  1
  O  O13  1  0.33980329  0.06664137  0.79686788  1
  O  O14  1  0.33980329  0.43335863  0.79686788  1
  O  O15  1  0.42068789  0.75000000  0.18203964  1
  O  O16  1  0.42820742  0.25000000  0.41642044  1
  O  O17  1  0.57179258  0.75000000  0.58357956  1
  O  O18  1  0.57931211  0.25000000  0.81796036  1
  O  O19  1  0.66019671  0.56664137  0.20313212  1
  O  O20  1  0.66019671  0.93335863  0.20313212  1
  O  O21  1  0.84446370  0.25000000  0.46491556  1
  O  O22  1  0.86420537  0.25000000  0.04901342  1
  O  O23  1  0.93133171  0.75000000  0.70775807  1
