# generated using pymatgen
data_Na5(WO3)6
_symmetry_space_group_name_H-M   'P 1'
_cell_length_a   6.83660895
_cell_length_b   16.87793102
_cell_length_c   6.83660895
_cell_angle_alpha   90.00000000
_cell_angle_beta   109.62993429
_cell_angle_gamma   90.00000000
_symmetry_Int_Tables_number   1
_chemical_formula_structural   Na5(WO3)6
_chemical_formula_sum   'Na10 W12 O36'
_cell_volume   743.01437261
_cell_formula_units_Z   2
loop_
 _symmetry_equiv_pos_site_id
 _symmetry_equiv_pos_as_xyz
  1  'x, y, z'
loop_
 _atom_site_type_symbol
 _atom_site_label
 _atom_site_symmetry_multiplicity
 _atom_site_fract_x
 _atom_site_fract_y
 _atom_site_fract_z
 _atom_site_occupancy
  Na  Na0  1  0.50036957  0.66631655  0.49963043  1
  Na  Na1  1  0.24962352  0.16633784  0.75037648  1
  Na  Na2  1  0.24998817  0.50000000  0.75001183  1
  Na  Na3  1  0.50036957  0.33368345  0.49963043  1
  Na  Na4  1  0.50000997  0.00000000  0.49999003  1
  Na  Na5  1  0.24962352  0.83366216  0.75037648  1
  Na  Na6  1  0.75032727  0.83380009  0.24967273  1
  Na  Na7  1  0.75032727  0.16619991  0.24967273  1
  Na  Na8  1  0.99965850  0.66619889  0.00034150  1
  Na  Na9  1  0.99965850  0.33380111  0.00034150  1
  W  W10  1  0.75125640  0.16505017  0.75116544  1
  W  W11  1  0.75125640  0.83494983  0.75116544  1
  W  W12  1  0.74981428  0.50000000  0.75012090  1
  W  W13  1  0.24883456  0.83494983  0.24874360  1
  W  W14  1  0.50117256  0.66506608  0.00120517  1
  W  W15  1  0.99879483  0.66506608  0.49882744  1
  W  W16  1  0.50009622  0.00000000  -0.00014457  1
  W  W17  1  0.24987910  0.50000000  0.25018572  1
  W  W18  1  0.99879483  0.33493392  0.49882744  1
  W  W19  1  0.24883456  0.16505017  0.24874360  1
  W  W20  1  0.50117256  0.33493392  0.00120517  1
  W  W21  1  0.00014457  0.00000000  0.49990378  1
  O  O22  1  0.62526834  0.74998033  0.87533616  1
  O  O23  1  0.62275779  0.91418602  0.87176507  1
  O  O24  1  0.62275779  0.08581398  0.87176507  1
  O  O25  1  0.62526834  0.25001967  0.87533616  1
  O  O26  1  0.87830596  0.58587614  0.62716366  1
  O  O27  1  0.87489366  0.75006841  0.62510275  1
  O  O28  1  0.62189367  0.58575360  0.87260095  1
  O  O29  1  0.87489366  0.24993159  0.62510275  1
  O  O30  1  0.62189367  0.41424640  0.87260095  1
  O  O31  1  0.87167339  0.91415512  0.62285644  1
  O  O32  1  0.87167339  0.08584488  0.62285644  1
  O  O33  1  0.87830596  0.41412386  0.62716366  1
  O  O34  1  0.24996655  0.66648375  0.75003345  1
  O  O35  1  0.25270546  0.00000000  0.74729454  1
  O  O36  1  0.24996655  0.33351625  0.75003345  1
  O  O37  1  0.50002342  0.16648920  0.49997658  1
  O  O38  1  0.74726763  0.00000000  0.25273237  1
  O  O39  1  0.75000841  0.33179044  0.24999159  1
  O  O40  1  0.50002342  0.83351080  0.49997658  1
  O  O41  1  0.75000841  0.66820956  0.24999159  1
  O  O42  1  0.49732179  0.50000000  0.50267821  1
  O  O43  1  0.37489725  0.75006841  0.12510634  1
  O  O44  1  0.12823493  0.08581398  0.37724221  1
  O  O45  1  0.12739905  0.41424640  0.37810633  1
  O  O46  1  0.12739905  0.58575360  0.37810633  1
  O  O47  1  0.12466384  0.74998033  0.37473166  1
  O  O48  1  0.37283634  0.58587614  0.12169404  1
  O  O49  1  0.12466384  0.25001967  0.37473166  1
  O  O50  1  0.37714356  0.08584488  0.12832661  1
  O  O51  1  0.37489725  0.24993159  0.12510634  1
  O  O52  1  0.37283634  0.41412386  0.12169404  1
  O  O53  1  0.12823493  0.91418602  0.37724221  1
  O  O54  1  0.37714356  0.91415512  0.12832661  1
  O  O55  1  -0.00002827  0.83179122  0.00002827  1
  O  O56  1  0.00282261  0.50000000  0.99717739  1
  O  O57  1  -0.00002827  0.16820878  0.00002827  1
