# generated using pymatgen
data_Sn8P2O13
_symmetry_space_group_name_H-M   'P 1'
_cell_length_a   7.31873655
_cell_length_b   7.31873655
_cell_length_c   14.34080626
_cell_angle_alpha   84.25657381
_cell_angle_beta   95.74342619
_cell_angle_gamma   91.97285374
_symmetry_Int_Tables_number   1
_chemical_formula_structural   Sn8P2O13
_chemical_formula_sum   'Sn16 P4 O26'
_cell_volume   760.22550290
_cell_formula_units_Z   2
loop_
 _symmetry_equiv_pos_site_id
 _symmetry_equiv_pos_as_xyz
  1  'x, y, z'
loop_
 _atom_site_type_symbol
 _atom_site_label
 _atom_site_symmetry_multiplicity
 _atom_site_fract_x
 _atom_site_fract_y
 _atom_site_fract_z
 _atom_site_occupancy
  Sn  Sn0  1  0.07425885  0.92574115  0.69443352  1
  Sn  Sn1  1  0.26299329  0.73700671  0.51243798  1
  Sn  Sn2  1  0.32752985  0.67247015  0.89087708  1
  Sn  Sn3  1  0.54809552  0.92422017  0.70587651  1
  Sn  Sn4  1  0.07577983  0.45190448  0.70587651  1
  Sn  Sn5  1  0.42566125  0.57433875  0.28449645  1
  Sn  Sn6  1  0.67077734  0.83796696  0.09640334  1
  Sn  Sn7  1  0.16203304  0.32922266  0.09640334  1
  Sn  Sn8  1  0.32922266  0.16203304  0.90359666  1
  Sn  Sn9  1  0.83796696  0.67077734  0.90359666  1
  Sn  Sn10  1  0.57433875  0.42566125  0.71550355  1
  Sn  Sn11  1  0.45190448  0.07577983  0.29412349  1
  Sn  Sn12  1  0.92422017  0.54809552  0.29412349  1
  Sn  Sn13  1  0.67247015  0.32752985  0.10912292  1
  Sn  Sn14  1  0.73700671  0.26299329  0.48756202  1
  Sn  Sn15  1  0.92574115  0.07425885  0.30556648  1
  P  P16  1  0.15568877  0.84431123  0.09869164  1
  P  P17  1  0.25339643  0.25339643  0.50000000  1
  P  P18  1  0.74660357  0.74660357  0.50000000  1
  P  P19  1  0.84431123  0.15568877  0.90130836  1
  O  O20  1  0.14801588  0.85198412  0.98995318  1
  O  O21  1  0.33470675  0.94832390  0.80937548  1
  O  O22  1  0.05167610  0.66529325  0.80937548  1
  O  O23  1  0.26942819  0.73057181  0.66197305  1
  O  O24  1  0.78293838  0.96579661  0.86539401  1
  O  O25  1  0.03420339  0.21706162  0.86539401  1
  O  O26  1  0.29918017  0.70081983  0.14357875  1
  O  O27  1  0.57789072  0.73580931  0.56042718  1
  O  O28  1  0.26419069  0.42210928  0.56042718  1
  O  O29  1  0.32948367  0.38128483  0.78747874  1
  O  O30  1  0.61871517  0.67051633  0.78747874  1
  O  O31  1  0.73900399  0.92690588  0.43252609  1
  O  O32  1  0.07309412  0.26099601  0.43252609  1
  O  O33  1  0.26099601  0.07309412  0.56747391  1
  O  O34  1  0.92690588  0.73900399  0.56747391  1
  O  O35  1  0.38128483  0.32948367  0.21252126  1
  O  O36  1  0.67051633  0.61871517  0.21252126  1
  O  O37  1  0.42210928  0.26419069  0.43957282  1
  O  O38  1  0.73580931  0.57789072  0.43957282  1
  O  O39  1  0.70081983  0.29918017  0.85642125  1
  O  O40  1  0.21706162  0.03420339  0.13460599  1
  O  O41  1  0.96579661  0.78293838  0.13460599  1
  O  O42  1  0.73057181  0.26942819  0.33802695  1
  O  O43  1  0.66529325  0.05167610  0.19062452  1
  O  O44  1  0.94832390  0.33470675  0.19062452  1
  O  O45  1  0.85198412  0.14801588  0.01004682  1
