# generated using pymatgen
data_DyGaO3
_symmetry_space_group_name_H-M   'P 1'
_cell_length_a   6.12098752
_cell_length_b   6.12098759
_cell_length_c   11.72040022
_cell_angle_alpha   90.00049786
_cell_angle_beta   89.99946676
_cell_angle_gamma   120.00031483
_symmetry_Int_Tables_number   1
_chemical_formula_structural   DyGaO3
_chemical_formula_sum   'Dy6 Ga6 O18'
_cell_volume   380.28981049
_cell_formula_units_Z   6
loop_
 _symmetry_equiv_pos_site_id
 _symmetry_equiv_pos_as_xyz
  1  'x, y, z'
loop_
 _atom_site_type_symbol
 _atom_site_label
 _atom_site_symmetry_multiplicity
 _atom_site_fract_x
 _atom_site_fract_y
 _atom_site_fract_z
 _atom_site_occupancy
  Dy  Dy0  1  0.33332956  0.66666897  0.22950993  1
  Dy  Dy1  1  0.99999285  0.00000386  0.27130744  1
  Dy  Dy2  1  0.99998950  0.99999506  0.77130416  1
  Dy  Dy3  1  0.33332414  0.66666202  0.72950703  1
  Dy  Dy4  1  0.66665543  0.33332718  0.72950705  1
  Dy  Dy5  1  0.66666351  0.33333803  0.22950842  1
  Ga  Ga6  1  0.99999495  0.66574042  0.49672393  1
  Ga  Ga7  1  0.99999435  0.33426386  0.99672120  1
  Ga  Ga8  1  0.33423969  0.33424470  0.49672227  1
  Ga  Ga9  1  0.66574198  0.66575426  0.99672106  1
  Ga  Ga10  1  0.33424634  0.00000341  0.99672055  1
  Ga  Ga11  1  0.66573584  0.99999766  0.49672384  1
  O  O12  1  0.99999231  0.69318452  0.65942558  1
  O  O13  1  0.99999555  0.64068432  0.33522273  1
  O  O14  1  0.99998669  0.35931543  0.83522646  1
  O  O15  1  0.99999357  0.30680990  0.15942584  1
  O  O16  1  0.33333040  0.66666744  0.01654572  1
  O  O17  1  0.33332694  0.66666295  0.51654319  1
  O  O18  1  -0.00000017  0.00000815  0.47376927  1
  O  O19  1  0.99999410  0.00000484  0.97377008  1
  O  O20  1  0.30680576  0.30680581  0.65942242  1
  O  O21  1  0.35931887  0.35932850  0.33522071  1
  O  O22  1  0.30680762  0.00000516  0.15942540  1
  O  O23  1  0.64066216  0.64066871  0.83522683  1
  O  O24  1  0.69318253  0.69319098  0.15942667  1
  O  O25  1  0.35930910  0.99998943  0.83522687  1
  O  O26  1  0.66666692  0.33333489  0.51654514  1
  O  O27  1  0.66666598  0.33333540  0.01654457  1
  O  O28  1  0.64067346  0.00000643  0.33522168  1
  O  O29  1  0.69318206  0.99999670  0.65942498  1
