# generated using pymatgen
data_Li7(NiO2)10
_symmetry_space_group_name_H-M   'P 1'
_cell_length_a   4.97400855
_cell_length_b   8.59133568
_cell_length_c   8.59133568
_cell_angle_alpha   68.63413461
_cell_angle_beta   95.34939941
_cell_angle_gamma   84.65060059
_symmetry_Int_Tables_number   1
_chemical_formula_structural   Li7(NiO2)10
_chemical_formula_sum   'Li7 Ni10 O20'
_cell_volume   337.19730640
_cell_formula_units_Z   1
loop_
 _symmetry_equiv_pos_site_id
 _symmetry_equiv_pos_as_xyz
  1  'x, y, z'
loop_
 _atom_site_type_symbol
 _atom_site_label
 _atom_site_symmetry_multiplicity
 _atom_site_fract_x
 _atom_site_fract_y
 _atom_site_fract_z
 _atom_site_occupancy
  Li  Li0  1  0.25000000  0.04989687  0.54989687  1
  Li  Li1  1  0.25000000  0.24372818  0.74372818  1
  Li  Li2  1  0.25000000  0.45627182  0.95627182  1
  Li  Li3  1  0.25000000  0.65010313  0.15010313  1
  Li  Li4  1  0.75000000  0.35000000  0.85000000  1
  Li  Li5  1  0.75000000  0.75067134  0.25067134  1
  Li  Li6  1  0.75000000  0.94932866  0.44932866  1
  Ni  Ni7  1  0.00224785  0.20213342  0.19707999  1
  Ni  Ni8  1  0.99444812  0.40050363  0.40105893  1
  Ni  Ni9  1  0.99751356  0.60118020  0.59881880  1
  Ni  Ni10  1  0.99444812  0.79894107  0.79949637  1
  Ni  Ni11  1  0.00224785  0.00292001  0.99786658  1
  Ni  Ni12  1  0.50555188  0.29949637  0.29894107  1
  Ni  Ni13  1  0.49775215  0.49786658  0.50292001  1
  Ni  Ni14  1  0.49775215  0.69707999  0.70213342  1
  Ni  Ni15  1  0.50555188  0.90105893  0.90050363  1
  Ni  Ni16  1  0.50248644  0.09881980  0.10118120  1
  O  O17  1  0.15448716  0.00949094  0.79547848  1
  O  O18  1  0.13967290  0.20209685  0.99790315  1
  O  O19  1  0.10457448  0.81092055  0.59214532  1
  O  O20  1  0.15448716  0.40452152  0.19050906  1
  O  O21  1  0.10457448  0.60785468  0.38907945  1
  O  O22  1  0.36032710  0.49790315  0.70209685  1
  O  O23  1  0.34551284  0.69050906  0.90452152  1
  O  O24  1  0.39542552  0.09214532  0.31092055  1
  O  O25  1  0.34551284  0.29547848  0.50949094  1
  O  O26  1  0.39542552  0.88907945  0.10785468  1
  O  O27  1  0.61322114  0.12241334  0.89520931  1
  O  O28  1  0.62624049  0.89731303  0.69472592  1
  O  O29  1  0.61322114  0.30479069  0.07758666  1
  O  O30  1  0.64937482  0.70294273  0.49705727  1
  O  O31  1  0.62624049  0.50527408  0.30268697  1
  O  O32  1  0.88677886  0.57758666  0.80479069  1
  O  O33  1  0.88677886  0.39520931  0.62241334  1
  O  O34  1  0.87375951  0.19472592  0.39731303  1
  O  O35  1  0.85062518  0.99705727  0.20294273  1
  O  O36  1  0.87375951  0.80268697  0.00527408  1
