# generated using pymatgen
data_Mn2V3Sb(PO4)6
_symmetry_space_group_name_H-M   'P 1'
_cell_length_a   8.72948481
_cell_length_b   8.69759869
_cell_length_c   8.69759884
_cell_angle_alpha   60.00000158
_cell_angle_beta   60.12075449
_cell_angle_gamma   60.12075692
_symmetry_Int_Tables_number   1
_chemical_formula_structural   Mn2V3Sb(PO4)6
_chemical_formula_sum   'Mn2 V3 Sb1 P6 O24'
_cell_volume   467.80260566
_cell_formula_units_Z   1
loop_
 _symmetry_equiv_pos_site_id
 _symmetry_equiv_pos_as_xyz
  1  'x, y, z'
loop_
 _atom_site_type_symbol
 _atom_site_label
 _atom_site_symmetry_multiplicity
 _atom_site_fract_x
 _atom_site_fract_y
 _atom_site_fract_z
 _atom_site_occupancy
  Mn  Mn0  1  0.01661958  0.99446014  0.99446014  1
  Mn  Mn1  1  0.49834281  0.50055240  0.50055240  1
  V  V2  1  0.06753946  0.64415318  0.64415318  1
  V  V3  1  0.43279221  0.85573560  0.85573560  1
  V  V4  1  0.92810166  0.35729978  0.35729978  1
  Sb  Sb5  1  0.56738721  0.14420393  0.14420393  1
  P  P6  1  0.24531600  0.25312735  0.54509503  1
  P  P7  1  0.24531600  0.95646162  0.25312735  1
  P  P8  1  0.24531600  0.54509503  0.95646162  1
  P  P9  1  0.74725416  0.46138886  0.04325791  1
  P  P10  1  0.74725416  0.04325791  0.74809808  1
  P  P11  1  0.74725416  0.74809808  0.46138886  1
  O  O12  1  0.07430303  0.11596436  0.30851523  1
  O  O13  1  0.07430303  0.50121738  0.11596436  1
  O  O14  1  0.07430303  0.30851523  0.50121738  1
  O  O15  1  0.23823619  0.08701814  0.73403405  1
  O  O16  1  0.43357739  0.19308884  0.38471798  1
  O  O17  1  0.26500213  0.41386546  0.55732438  1
  O  O18  1  0.23823619  0.94071062  0.08701814  1
  O  O19  1  0.26500213  0.76380803  0.41386546  1
  O  O20  1  0.56938684  0.61224550  0.00745331  1
  O  O21  1  0.26500213  0.55732438  0.76380803  1
  O  O22  1  0.76094769  0.26078877  0.05973115  1
  O  O23  1  0.56938684  0.00745331  0.81091434  1
  O  O24  1  0.43357739  0.98861579  0.19308884  1
  O  O25  1  0.23823619  0.73403405  0.94071062  1
  O  O26  1  0.73431076  0.43584143  0.23847548  1
  O  O27  1  0.43357739  0.38471798  0.98861579  1
  O  O28  1  0.73431076  0.23847548  0.59137234  1
  O  O29  1  0.76094769  0.05973115  0.91853239  1
  O  O30  1  0.73431076  0.59137234  0.43584143  1
  O  O31  1  0.56938684  0.81091434  0.61224550  1
  O  O32  1  0.76094769  0.91853239  0.26078877  1
  O  O33  1  0.92807183  0.69757672  0.48881219  1
  O  O34  1  0.92807183  0.48881219  0.88554025  1
  O  O35  1  0.92807183  0.88554025  0.69757672  1
