# generated using pymatgen
data_Li4Si2NiO7
_symmetry_space_group_name_H-M   'P 1'
_cell_length_a   5.37872917
_cell_length_b   7.20483908
_cell_length_c   8.15524451
_cell_angle_alpha   85.95148752
_cell_angle_beta   90.00000000
_cell_angle_gamma   68.08244888
_symmetry_Int_Tables_number   1
_chemical_formula_structural   Li4Si2NiO7
_chemical_formula_sum   'Li8 Si4 Ni2 O14'
_cell_volume   292.34625219
_cell_formula_units_Z   2
loop_
 _symmetry_equiv_pos_site_id
 _symmetry_equiv_pos_as_xyz
  1  'x, y, z'
loop_
 _atom_site_type_symbol
 _atom_site_label
 _atom_site_symmetry_multiplicity
 _atom_site_fract_x
 _atom_site_fract_y
 _atom_site_fract_z
 _atom_site_occupancy
  Li  Li0  1  0.73615758  0.85135905  0.87540852  1
  Li  Li1  1  0.41248437  0.85135905  0.37540852  1
  Li  Li2  1  0.88266353  0.58514953  0.59372775  1
  Li  Li3  1  0.53218594  0.58514953  0.09372775  1
  Li  Li4  1  0.12304690  0.44318475  0.94750048  1
  Li  Li5  1  0.43376834  0.44318475  0.44750048  1
  Li  Li6  1  0.18531487  0.99930793  0.01956572  1
  Li  Li7  1  0.81537819  0.99930793  0.51956572  1
  Si  Si8  1  0.30743753  0.72686382  0.73968869  1
  Si  Si9  1  0.96569865  0.72686382  0.23968869  1
  Si  Si10  1  0.25480982  0.14750758  0.66899106  1
  Si  Si11  1  0.59768260  0.14750758  0.16899106  1
  Ni  Ni12  1  0.68030646  0.30386834  0.79852848  1
  Ni  Ni13  1  0.01582519  0.30386834  0.29852848  1
  O  O14  1  0.21907818  0.93948276  0.60558471  1
  O  O15  1  0.84143907  0.93948276  0.10558471  1
  O  O16  1  0.42721706  0.77963914  0.90537110  1
  O  O17  1  0.79314380  0.77963914  0.40537110  1
  O  O18  1  0.04676551  0.66945951  0.77370710  1
  O  O19  1  0.28377398  0.66945951  0.27370710  1
  O  O20  1  0.53876654  0.54988819  0.64337325  1
  O  O21  1  0.91134527  0.54988819  0.14337325  1
  O  O22  1  0.14513110  0.32344606  0.51889483  1
  O  O23  1  0.53142284  0.32344606  0.01889483  1
  O  O24  1  0.07175214  0.21646977  0.83220002  1
  O  O25  1  0.71177808  0.21646977  0.33220002  1
  O  O26  1  0.57539946  0.09535457  0.70713827  1
  O  O27  1  0.32924598  0.09535457  0.20713827  1
