# generated using pymatgen
data_Li5Fe3(BO3)4
_symmetry_space_group_name_H-M   'P 1'
_cell_length_a   5.24550566
_cell_length_b   8.98109553
_cell_length_c   10.08564266
_cell_angle_alpha   90.00000000
_cell_angle_beta   91.67967175
_cell_angle_gamma   90.00000000
_symmetry_Int_Tables_number   1
_chemical_formula_structural   Li5Fe3(BO3)4
_chemical_formula_sum   'Li10 Fe6 B8 O24'
_cell_volume   474.93437732
_cell_formula_units_Z   2
loop_
 _symmetry_equiv_pos_site_id
 _symmetry_equiv_pos_as_xyz
  1  'x, y, z'
loop_
 _atom_site_type_symbol
 _atom_site_label
 _atom_site_symmetry_multiplicity
 _atom_site_fract_x
 _atom_site_fract_y
 _atom_site_fract_z
 _atom_site_occupancy
  Li  Li0  1  0.16046709  0.98292727  0.66182923  1
  Li  Li1  1  0.15906618  0.66454736  0.61605471  1
  Li  Li2  1  0.18000563  0.98888533  0.09518149  1
  Li  Li3  1  0.33681660  0.15646908  0.88656880  1
  Li  Li4  1  0.32104448  0.49008808  0.38780029  1
  Li  Li5  1  0.66046709  0.51707273  0.16182923  1
  Li  Li6  1  0.68000563  0.51111467  0.59518149  1
  Li  Li7  1  0.65906618  0.83545264  0.11605471  1
  Li  Li8  1  0.82104448  0.00991192  0.88780029  1
  Li  Li9  1  0.83681660  0.34353092  0.38656880  1
  Fe  Fe10  1  0.15259427  0.32266675  0.12957839  1
  Fe  Fe11  1  0.34501749  0.47320448  0.83256445  1
  Fe  Fe12  1  0.34413562  0.82135640  0.37663694  1
  Fe  Fe13  1  0.65259427  0.17733325  0.62957839  1
  Fe  Fe14  1  0.84413562  0.67864360  0.87663694  1
  Fe  Fe15  1  0.84501749  0.02679552  0.33256445  1
  B  B16  1  0.16353041  0.32490855  0.62076170  1
  B  B17  1  0.16547622  0.66598739  0.12886707  1
  B  B18  1  0.32973384  0.82787412  0.88004948  1
  B  B19  1  0.34203319  0.16716454  0.37228907  1
  B  B20  1  0.66547622  0.83401261  0.62886707  1
  B  B21  1  0.66353041  0.17509145  0.12076170  1
  B  B22  1  0.84203319  0.33283546  0.87228907  1
  B  B23  1  0.82973384  0.67212588  0.38004948  1
  O  O24  1  0.09983335  0.32999390  0.90726468  1
  O  O25  1  0.09095086  0.66690860  0.40931586  1
  O  O26  1  0.18142189  0.95257324  0.88249104  1
  O  O27  1  0.20019004  0.29163625  0.34564919  1
  O  O28  1  0.21758504  0.68937902  0.84757062  1
  O  O29  1  0.22259004  0.02569933  0.36239007  1
  O  O30  1  0.27139583  0.18694759  0.64850769  1
  O  O31  1  0.29781001  0.53540836  0.13562403  1
  O  O32  1  0.28337599  0.79837351  0.17502998  1
  O  O33  1  0.31693212  0.45548781  0.62920994  1
  O  O34  1  0.41143257  0.82683610  0.57775926  1
  O  O35  1  0.40656225  0.15903810  0.09100604  1
  O  O36  1  0.59095086  0.83309140  0.90931586  1
  O  O37  1  0.59983335  0.17000610  0.40726468  1
  O  O38  1  0.68142189  0.54742676  0.38249104  1
  O  O39  1  0.70019004  0.20836375  0.84564919  1
  O  O40  1  0.72259004  0.47430067  0.86239007  1
  O  O41  1  0.71758504  0.81062098  0.34757062  1
  O  O42  1  0.79781001  0.96459164  0.63562403  1
  O  O43  1  0.77139583  0.31305241  0.14850769  1
  O  O44  1  0.78337599  0.70162649  0.67502998  1
  O  O45  1  0.81693212  0.04451219  0.12920994  1
  O  O46  1  0.90656225  0.34096190  0.59100604  1
  O  O47  1  0.91143257  0.67316390  0.07775926  1
