# generated using pymatgen
data_NaSnPCO7
_symmetry_space_group_name_H-M   'P 1'
_cell_length_a   8.79252770
_cell_length_b   5.33194008
_cell_length_c   6.58776947
_cell_angle_alpha   90.00000000
_cell_angle_beta   90.00000000
_cell_angle_gamma   88.25952600
_symmetry_Int_Tables_number   1
_chemical_formula_structural   NaSnPCO7
_chemical_formula_sum   'Na2 Sn2 P2 C2 O14'
_cell_volume   308.70025829
_cell_formula_units_Z   2
loop_
 _symmetry_equiv_pos_site_id
 _symmetry_equiv_pos_as_xyz
  1  'x, y, z'
loop_
 _atom_site_type_symbol
 _atom_site_label
 _atom_site_symmetry_multiplicity
 _atom_site_fract_x
 _atom_site_fract_y
 _atom_site_fract_z
 _atom_site_occupancy
  Na  Na0  1  0.08547296  0.77068147  0.25000000  1
  Na  Na1  1  0.91452704  0.22931853  0.75000000  1
  Sn  Sn2  1  0.33220896  0.78038283  0.75000000  1
  Sn  Sn3  1  0.66779104  0.21961717  0.25000000  1
  P  P4  1  0.43054108  0.72456321  0.25000000  1
  P  P5  1  0.56945892  0.27543679  0.75000000  1
  C  C6  1  0.04629001  0.70282241  0.75000000  1
  C  C7  1  0.95370999  0.29717759  0.25000000  1
  O  O8  1  0.09235691  0.33275843  0.25000000  1
  O  O9  1  0.10612124  0.93233927  0.75000000  1
  O  O10  1  0.15392812  0.52039282  0.75000000  1
  O  O11  1  0.32592565  0.78822115  0.06618644  1
  O  O12  1  0.32592565  0.78822115  0.43381356  1
  O  O13  1  0.42179631  0.12761627  0.75000000  1
  O  O14  1  0.47494009  0.44059698  0.25000000  1
  O  O15  1  0.52505991  0.55940302  0.75000000  1
  O  O16  1  0.57820369  0.87238373  0.25000000  1
  O  O17  1  0.67407435  0.21177885  0.56618644  1
  O  O18  1  0.67407435  0.21177885  0.93381356  1
  O  O19  1  0.84607188  0.47960718  0.25000000  1
  O  O20  1  0.89387876  0.06766073  0.25000000  1
  O  O21  1  0.90764309  0.66724157  0.75000000  1
