# generated using pymatgen
data_La6Sm2Cr5(FeO8)3
_symmetry_space_group_name_H-M   'P 1'
_cell_length_a   7.84195457
_cell_length_b   7.84336326
_cell_length_c   7.84163281
_cell_angle_alpha   90.00000000
_cell_angle_beta   90.00000000
_cell_angle_gamma   89.98958367
_symmetry_Int_Tables_number   1
_chemical_formula_structural   La6Sm2Cr5(FeO8)3
_chemical_formula_sum   'La6 Sm2 Cr5 Fe3 O24'
_cell_volume   482.31764121
_cell_formula_units_Z   1
loop_
 _symmetry_equiv_pos_site_id
 _symmetry_equiv_pos_as_xyz
  1  'x, y, z'
loop_
 _atom_site_type_symbol
 _atom_site_label
 _atom_site_symmetry_multiplicity
 _atom_site_fract_x
 _atom_site_fract_y
 _atom_site_fract_z
 _atom_site_occupancy
  La  La0  1  0.25028921  0.25087067  0.25028461  1
  La  La1  1  0.25028921  0.25087067  0.74971539  1
  La  La2  1  0.25028788  0.74917351  0.25031479  1
  La  La3  1  0.25028788  0.74917351  0.74968521  1
  La  La4  1  0.74969801  0.74917695  0.25027905  1
  La  La5  1  0.74969801  0.74917695  0.74972095  1
  Sm  Sm6  1  0.74967934  0.25090012  0.25031501  1
  Sm  Sm7  1  0.74967934  0.25090012  0.74968499  1
  Cr  Cr8  1  0.99953351  0.49956227  0.00000000  1
  Cr  Cr9  1  0.99954769  0.49956409  0.50000000  1
  Cr  Cr10  1  0.50040742  0.00045435  0.50000000  1
  Cr  Cr11  1  0.50045153  0.49956962  0.00000000  1
  Cr  Cr12  1  0.50047693  0.49953041  0.50000000  1
  Fe  Fe13  1  0.99936353  0.00065159  0.00000000  1
  Fe  Fe14  1  0.99934813  0.00066154  0.50000000  1
  Fe  Fe15  1  0.50062450  0.00065834  0.00000000  1
  O  O16  1  0.25031010  0.00019846  0.00000000  1
  O  O17  1  0.25053430  0.00021049  0.50000000  1
  O  O18  1  0.25008752  0.49986718  0.00000000  1
  O  O19  1  0.25022173  0.49985295  0.50000000  1
  O  O20  1  0.74970066  0.00245426  0.00000000  1
  O  O21  1  0.74944469  0.00261946  0.50000000  1
  O  O22  1  0.74992672  0.49716366  0.00000000  1
  O  O23  1  0.74980117  0.49716892  0.50000000  1
  O  O24  1  0.99738918  0.25097237  0.00000000  1
  O  O25  1  0.99736847  0.25091423  0.50000000  1
  O  O26  1  0.99982386  0.74904053  0.00000000  1
  O  O27  1  0.99980588  0.74910598  0.50000000  1
  O  O28  1  0.50262045  0.25090976  0.00000000  1
  O  O29  1  0.50282421  0.25046790  0.50000000  1
  O  O30  1  0.50015466  0.74910185  0.00000000  1
  O  O31  1  0.50014310  0.74951162  0.50000000  1
  O  O32  1  0.99867860  0.00134868  0.25030561  1
  O  O33  1  0.99867860  0.00134868  0.74969439  1
  O  O34  1  0.99848446  0.49849707  0.25007822  1
  O  O35  1  0.99848446  0.49849707  0.74992178  1
  O  O36  1  0.50140633  0.00144055  0.25054979  1
  O  O37  1  0.50140633  0.00144055  0.74945021  1
  O  O38  1  0.50152119  0.49848653  0.25021140  1
  O  O39  1  0.50152119  0.49848653  0.74978860  1
