# generated using pymatgen
data_Li11(CoO4)2
_symmetry_space_group_name_H-M   'P 1'
_cell_length_a   6.58302968
_cell_length_b   6.58346168
_cell_length_c   9.33611188
_cell_angle_alpha   90.06669216
_cell_angle_beta   89.97327120
_cell_angle_gamma   91.32921831
_symmetry_Int_Tables_number   1
_chemical_formula_structural   Li11(CoO4)2
_chemical_formula_sum   'Li22 Co4 O16'
_cell_volume   404.50971463
_cell_formula_units_Z   2
loop_
 _symmetry_equiv_pos_site_id
 _symmetry_equiv_pos_as_xyz
  1  'x, y, z'
loop_
 _atom_site_type_symbol
 _atom_site_label
 _atom_site_symmetry_multiplicity
 _atom_site_fract_x
 _atom_site_fract_y
 _atom_site_fract_z
 _atom_site_occupancy
  Li  Li0  1  0.04050210  0.53808210  0.37239882  1
  Li  Li1  1  0.03433126  0.53697010  0.87769040  1
  Li  Li2  1  0.02330846  0.97710578  0.37432748  1
  Li  Li3  1  0.27215024  0.27179605  0.34947537  1
  Li  Li4  1  0.24638000  0.25286435  0.09423535  1
  Li  Li5  1  0.22790828  0.22769154  0.85042243  1
  Li  Li6  1  0.25274694  0.24727641  0.59328537  1
  Li  Li7  1  0.47969154  0.52072903  0.87566310  1
  Li  Li8  1  0.46189142  0.95972491  0.37681548  1
  Li  Li9  1  0.46330579  0.96529819  0.87310508  1
  Li  Li10  1  0.53586613  0.03616949  0.12461123  1
  Li  Li11  1  0.52809372  0.47060789  0.14296453  1
  Li  Li12  1  0.53512756  0.03558890  0.62506979  1
  Li  Li13  1  0.53198849  0.46969615  0.60763512  1
  Li  Li14  1  0.75261654  0.74687186  0.15597568  1
  Li  Li15  1  0.72804418  0.72850940  0.40007302  1
  Li  Li16  1  0.74719999  0.75307724  0.65655073  1
  Li  Li17  1  0.77197145  0.77252607  0.90015879  1
  Li  Li18  1  0.97032902  0.02847486  0.10459850  1
  Li  Li19  1  0.96958973  0.03228089  0.64470441  1
  Li  Li20  1  0.96627433  0.46674575  0.12496817  1
  Li  Li21  1  0.96175938  0.46172565  0.62535224  1
  Co  Co22  1  0.25091116  0.75103479  0.12375771  1
  Co  Co23  1  0.25058659  0.75058379  0.62614211  1
  Co  Co24  1  0.74626780  0.25362473  0.37395488  1
  Co  Co25  1  0.75387193  0.24586703  0.87606243  1
  O  O26  1  0.01719612  0.25127095  0.48022320  1
  O  O27  1  0.00995592  0.26757649  0.98275957  1
  O  O28  1  0.24781146  0.49474582  0.72502672  1
  O  O29  1  0.25121855  0.00508037  0.22367964  1
  O  O30  1  0.25749049  0.00447575  0.71793778  1
  O  O31  1  0.24299393  0.49610583  0.21711744  1
  O  O32  1  0.48170678  0.24822437  0.98034097  1
  O  O33  1  0.48975041  0.23250402  0.48227662  1
  O  O34  1  0.50543701  0.75163190  0.02545213  1
  O  O35  1  0.50398470  0.75710739  0.53296719  1
  O  O36  1  0.73266151  0.99002258  0.76845615  1
  O  O37  1  0.74801211  0.98202030  0.26909536  1
  O  O38  1  0.76760551  0.51041333  0.26674461  1
  O  O39  1  0.75105436  0.51719152  0.77033083  1
  O  O40  1  0.99544515  0.74256807  0.03196062  1
  O  O41  1  0.99513997  0.74832036  0.52563397  1
