# generated using pymatgen
data_Na2HoPCO7
_symmetry_space_group_name_H-M   'P 1'
_cell_length_a   9.22181204
_cell_length_b   6.97827621
_cell_length_c   5.24057822
_cell_angle_alpha   90.00000000
_cell_angle_beta   90.95416238
_cell_angle_gamma   90.00000000
_symmetry_Int_Tables_number   1
_chemical_formula_structural   Na2HoPCO7
_chemical_formula_sum   'Na4 Ho2 P2 C2 O14'
_cell_volume   337.19676900
_cell_formula_units_Z   2
loop_
 _symmetry_equiv_pos_site_id
 _symmetry_equiv_pos_as_xyz
  1  'x, y, z'
loop_
 _atom_site_type_symbol
 _atom_site_label
 _atom_site_symmetry_multiplicity
 _atom_site_fract_x
 _atom_site_fract_y
 _atom_site_fract_z
 _atom_site_occupancy
  Na  Na0  1  0.21208679  0.49853871  0.23211896  1
  Na  Na1  1  0.21208679  0.00146129  0.23211896  1
  Na  Na2  1  0.78791321  0.50146129  0.76788104  1
  Na  Na3  1  0.78791321  0.99853871  0.76788104  1
  Ho  Ho4  1  0.36654574  0.75000000  0.77628656  1
  Ho  Ho5  1  0.63345426  0.25000000  0.22371344  1
  P  P6  1  0.41766403  0.25000000  0.70530516  1
  P  P7  1  0.58233597  0.75000000  0.29469484  1
  C  C8  1  0.06997641  0.75000000  0.73222726  1
  C  C9  1  0.93002359  0.25000000  0.26777274  1
  O  O10  1  0.06553175  0.25000000  0.29903980  1
  O  O11  1  0.13478657  0.75000000  0.95712762  1
  O  O12  1  0.16045530  0.75000000  0.53616856  1
  O  O13  1  0.34404256  0.06781054  0.81012190  1
  O  O14  1  0.34404256  0.43218946  0.81012190  1
  O  O15  1  0.41711342  0.75000000  0.21071460  1
  O  O16  1  0.41303064  0.25000000  0.40747396  1
  O  O17  1  0.58696936  0.75000000  0.59252604  1
  O  O18  1  0.58288658  0.25000000  0.78928540  1
  O  O19  1  0.65595744  0.56781054  0.18987810  1
  O  O20  1  0.65595744  0.93218946  0.18987810  1
  O  O21  1  0.83954470  0.25000000  0.46383144  1
  O  O22  1  0.86521343  0.25000000  0.04287238  1
  O  O23  1  0.93446825  0.75000000  0.70096020  1
