# generated using pymatgen
data_Cs3LaO3
_symmetry_space_group_name_H-M   'P 1'
_cell_length_a   12.47856551
_cell_length_b   7.82800258
_cell_length_c   8.63981022
_cell_angle_alpha   90.00000000
_cell_angle_beta   94.61961710
_cell_angle_gamma   90.00000000
_symmetry_Int_Tables_number   1
_chemical_formula_structural   Cs3LaO3
_chemical_formula_sum   'Cs12 La4 O12'
_cell_volume   841.21433326
_cell_formula_units_Z   4
loop_
 _symmetry_equiv_pos_site_id
 _symmetry_equiv_pos_as_xyz
  1  'x, y, z'
loop_
 _atom_site_type_symbol
 _atom_site_label
 _atom_site_symmetry_multiplicity
 _atom_site_fract_x
 _atom_site_fract_y
 _atom_site_fract_z
 _atom_site_occupancy
  Cs  Cs0  1  0.07554174  0.33965697  0.65235806  1
  Cs  Cs1  1  0.15644842  0.61981829  0.05796540  1
  Cs  Cs2  1  0.19467693  0.82146818  0.61854099  1
  Cs  Cs3  1  0.30532307  0.32146818  0.38145901  1
  Cs  Cs4  1  0.34355158  0.11981829  0.94203460  1
  Cs  Cs5  1  0.42445826  0.83965697  0.34764194  1
  Cs  Cs6  1  0.57554174  0.16034303  0.65235806  1
  Cs  Cs7  1  0.65644842  0.88018171  0.05796540  1
  Cs  Cs8  1  0.69467693  0.67853182  0.61854099  1
  Cs  Cs9  1  0.80532307  0.17853182  0.38145901  1
  Cs  Cs10  1  0.84355158  0.38018171  0.94203460  1
  Cs  Cs11  1  0.92445826  0.66034303  0.34764194  1
  La  La12  1  0.07032573  0.09011316  0.16529245  1
  La  La13  1  0.42967427  0.59011316  0.83470755  1
  La  La14  1  0.57032573  0.40988684  0.16529245  1
  La  La15  1  0.92967427  0.90988684  0.83470755  1
  O  O16  1  0.04331326  0.35573045  0.25113331  1
  O  O17  1  0.09354257  0.05260718  0.89657054  1
  O  O18  1  0.19620687  0.94210161  0.30654269  1
  O  O19  1  0.30379313  0.44210161  0.69345731  1
  O  O20  1  0.40645743  0.55260718  0.10342946  1
  O  O21  1  0.45668674  0.85573045  0.74886669  1
  O  O22  1  0.54331326  0.14426955  0.25113331  1
  O  O23  1  0.59354257  0.44739282  0.89657054  1
  O  O24  1  0.69620687  0.55789839  0.30654269  1
  O  O25  1  0.80379313  0.05789839  0.69345731  1
  O  O26  1  0.90645743  0.94739282  0.10342946  1
  O  O27  1  0.95668674  0.64426955  0.74886669  1
