# generated using pymatgen
data_Li2SiNiO4
_symmetry_space_group_name_H-M   'P 1'
_cell_length_a   6.33091088
_cell_length_b   5.41772366
_cell_length_c   4.92331831
_cell_angle_alpha   89.96762318
_cell_angle_beta   90.57959097
_cell_angle_gamma   89.96890550
_symmetry_Int_Tables_number   1
_chemical_formula_structural   Li2SiNiO4
_chemical_formula_sum   'Li4 Si2 Ni2 O8'
_cell_volume   168.85682122
_cell_formula_units_Z   2
loop_
 _symmetry_equiv_pos_site_id
 _symmetry_equiv_pos_as_xyz
  1  'x, y, z'
loop_
 _atom_site_type_symbol
 _atom_site_label
 _atom_site_symmetry_multiplicity
 _atom_site_fract_x
 _atom_site_fract_y
 _atom_site_fract_z
 _atom_site_occupancy
  Li  Li0  1  0.25034105  0.32378237  0.49546187  1
  Li  Li1  1  0.49724585  0.16009661  0.99583811  1
  Li  Li2  1  0.74941349  0.67128291  0.99661292  1
  Li  Li3  1  0.99556160  0.83495809  0.49660659  1
  Si  Si4  1  0.99717528  0.16391383  0.00659313  1
  Si  Si5  1  0.49667257  0.83116263  0.50659168  1
  Ni  Ni6  1  0.24539403  0.66591423  0.99343826  1
  Ni  Ni7  1  0.74558548  0.32879067  0.49378698  1
  O  O8  1  0.99957636  0.87455989  0.90154279  1
  O  O9  1  0.20986382  0.31102265  0.90165295  1
  O  O10  1  0.28088852  0.68709329  0.39683286  1
  O  O11  1  0.49589077  0.82717769  0.84191313  1
  O  O12  1  0.50025967  0.12028563  0.40077637  1
  O  O13  1  0.70922918  0.68334701  0.40235858  1
  O  O14  1  0.78135146  0.30853863  0.89700592  1
  O  O15  1  0.99637185  0.16819885  0.34187985  1
