# generated using pymatgen
data_Na2LiMnPCO7
_symmetry_space_group_name_H-M   'P 1'
_cell_length_a   8.87032414
_cell_length_b   6.78910857
_cell_length_c   5.11277176
_cell_angle_alpha   89.92976606
_cell_angle_beta   89.15657676
_cell_angle_gamma   90.72375988
_symmetry_Int_Tables_number   1
_chemical_formula_structural   Na2LiMnPCO7
_chemical_formula_sum   'Na4 Li2 Mn2 P2 C2 O14'
_cell_volume   307.84103445
_cell_formula_units_Z   2
loop_
 _symmetry_equiv_pos_site_id
 _symmetry_equiv_pos_as_xyz
  1  'x, y, z'
loop_
 _atom_site_type_symbol
 _atom_site_label
 _atom_site_symmetry_multiplicity
 _atom_site_fract_x
 _atom_site_fract_y
 _atom_site_fract_z
 _atom_site_occupancy
  Na  Na0  1  0.08368931  0.25815080  0.75741694  1
  Na  Na1  1  0.25549105  0.99946302  0.24969427  1
  Na  Na2  1  0.74421281  0.50236592  0.75194806  1
  Na  Na3  1  0.74350765  0.99793519  0.75339459  1
  Li  Li4  1  0.27280598  0.47793247  0.22775237  1
  Li  Li5  1  0.91475947  0.74121572  0.25366933  1
  Mn  Mn6  1  0.35897367  0.74575606  0.77923789  1
  Mn  Mn7  1  0.64040568  0.25032945  0.22436553  1
  P  P8  1  0.40821171  0.25345166  0.70797799  1
  P  P9  1  0.59117295  0.74602718  0.29882421  1
  C  C10  1  0.05173859  0.74887734  0.72849499  1
  C  C11  1  0.94550932  0.25861663  0.26385493  1
  O  O12  1  0.09178591  0.27159667  0.28215301  1
  O  O13  1  0.09083374  0.75080519  0.97331489  1
  O  O14  1  0.15455318  0.74232972  0.54298649  1
  O  O15  1  0.31635346  0.06398556  0.78117636  1
  O  O16  1  0.31711588  0.43012128  0.81883925  1
  O  O17  1  0.42046170  0.27109456  0.40202874  1
  O  O18  1  0.42960143  0.73411799  0.18240471  1
  O  O19  1  0.56985715  0.24905469  0.81787971  1
  O  O20  1  0.57305302  0.74727122  0.60281769  1
  O  O21  1  0.69174774  0.56922713  0.21611937  1
  O  O22  1  0.68030931  0.93389964  0.21064736  1
  O  O23  1  0.86057484  0.25098357  0.47336340  1
  O  O24  1  0.88182666  0.25259595  0.03699998  1
  O  O25  1  0.91144981  0.75279539  0.66263597  1
