# generated using pymatgen
data_Li2CoH8(CO5)2
_symmetry_space_group_name_H-M   'P 1'
_cell_length_a   5.50775305
_cell_length_b   5.50775305
_cell_length_c   13.89554512
_cell_angle_alpha   82.39891405
_cell_angle_beta   97.60108595
_cell_angle_gamma   101.79437092
_symmetry_Int_Tables_number   1
_chemical_formula_structural   Li2CoH8(CO5)2
_chemical_formula_sum   'Li4 Co2 H16 C4 O20'
_cell_volume   406.58810299
_cell_formula_units_Z   2
loop_
 _symmetry_equiv_pos_site_id
 _symmetry_equiv_pos_as_xyz
  1  'x, y, z'
loop_
 _atom_site_type_symbol
 _atom_site_label
 _atom_site_symmetry_multiplicity
 _atom_site_fract_x
 _atom_site_fract_y
 _atom_site_fract_z
 _atom_site_occupancy
  Li  Li0  1  0.58685149  0.74917148  0.55768148  1
  Li  Li1  1  0.74917148  0.58685149  0.94231852  1
  Li  Li2  1  0.25082852  0.41314851  0.05768148  1
  Li  Li3  1  0.41314851  0.25082852  0.44231852  1
  Co  Co4  1  0.95512670  0.95512670  0.75000000  1
  Co  Co5  1  0.04487330  0.04487330  0.25000000  1
  H  H6  1  0.23211799  0.84232274  0.94043575  1
  H  H7  1  0.12220714  0.80833925  0.54749219  1
  H  H8  1  0.15767726  0.76788201  0.44043575  1
  H  H9  1  0.19166075  0.87779286  0.04749219  1
  H  H10  1  0.22159121  0.47122154  0.87391066  1
  H  H11  1  0.52877846  0.77840879  0.37391066  1
  H  H12  1  0.25731397  0.36771280  0.62015017  1
  H  H13  1  0.36771280  0.25731397  0.87984983  1
  H  H14  1  0.63228720  0.74268603  0.12014917  1
  H  H15  1  0.74268603  0.63228720  0.37985083  1
  H  H16  1  0.47122154  0.22159121  0.62608934  1
  H  H17  1  0.77840879  0.52877846  0.12608934  1
  H  H18  1  0.80833925  0.12220714  0.95250781  1
  H  H19  1  0.84232274  0.23211799  0.55956425  1
  H  H20  1  0.87779286  0.19166075  0.45250781  1
  H  H21  1  0.76788201  0.15767726  0.05956425  1
  C  C22  1  0.51715499  0.95812226  0.78839826  1
  C  C23  1  0.04187774  0.48284501  0.28839826  1
  C  C24  1  0.95812226  0.51715499  0.71160174  1
  C  C25  1  0.48284501  0.04187774  0.21160174  1
  O  O26  1  0.14542557  0.75916394  0.99732304  1
  O  O27  1  0.31493147  0.99135987  0.81848402  1
  O  O28  1  0.24083606  0.85457443  0.49732304  1
  O  O29  1  0.00864013  0.68506853  0.31848402  1
  O  O30  1  0.54029183  0.94723938  0.69807452  1
  O  O31  1  0.71301403  0.93950035  0.85215434  1
  O  O32  1  0.05276062  0.45970817  0.19807452  1
  O  O33  1  0.36868895  0.41041451  0.91043338  1
  O  O34  1  0.06049965  0.28698597  0.35215434  1
  O  O35  1  0.58958549  0.63131105  0.41043338  1
  O  O36  1  0.41041451  0.36868895  0.58956662  1
  O  O37  1  0.93950035  0.71301403  0.64784566  1
  O  O38  1  0.63131105  0.58958549  0.08956662  1
  O  O39  1  0.94723938  0.54029183  0.80192548  1
  O  O40  1  0.28698597  0.06049965  0.14784566  1
  O  O41  1  0.45970817  0.05276062  0.30192548  1
  O  O42  1  0.99135987  0.31493147  0.68151598  1
  O  O43  1  0.75916394  0.14542557  0.50267696  1
  O  O44  1  0.68506853  0.00864013  0.18151598  1
  O  O45  1  0.85457443  0.24083606  0.00267696  1
