# generated using pymatgen
data_LiNi2(SO4)3
_symmetry_space_group_name_H-M   'P 1'
_cell_length_a   8.67978634
_cell_length_b   8.67978634
_cell_length_c   8.67978653
_cell_angle_alpha   59.43378214
_cell_angle_beta   59.43378214
_cell_angle_gamma   59.43378506
_symmetry_Int_Tables_number   1
_chemical_formula_structural   LiNi2(SO4)3
_chemical_formula_sum   'Li2 Ni4 S6 O24'
_cell_volume   456.43715408
_cell_formula_units_Z   2
loop_
 _symmetry_equiv_pos_site_id
 _symmetry_equiv_pos_as_xyz
  1  'x, y, z'
loop_
 _atom_site_type_symbol
 _atom_site_label
 _atom_site_symmetry_multiplicity
 _atom_site_fract_x
 _atom_site_fract_y
 _atom_site_fract_z
 _atom_site_occupancy
  Li  Li0  1  0.00000000  0.00000000  0.00000000  1
  Li  Li1  1  0.50000000  0.50000000  0.50000000  1
  Ni  Ni2  1  0.35558093  0.35558093  0.35558093  1
  Ni  Ni3  1  0.14441907  0.14441907  0.14441907  1
  Ni  Ni4  1  0.64441907  0.64441907  0.64441907  1
  Ni  Ni5  1  0.85558093  0.85558093  0.85558093  1
  S  S6  1  0.04442009  0.75000000  0.45557991  1
  S  S7  1  0.54442009  0.95557991  0.25000000  1
  S  S8  1  0.25000000  0.54442009  0.95557991  1
  S  S9  1  0.75000000  0.45557991  0.04442009  1
  S  S10  1  0.45557991  0.04442009  0.75000000  1
  S  S11  1  0.95557991  0.25000000  0.54442009  1
  O  O12  1  0.06316004  0.90754023  0.26649755  1
  O  O13  1  0.09245977  0.73350245  0.93683996  1
  O  O14  1  0.49126056  0.89589568  0.69048472  1
  O  O15  1  0.60410432  0.00873944  0.80951528  1
  O  O16  1  0.23350245  0.59245977  0.43683996  1
  O  O17  1  0.56316004  0.76649755  0.40754023  1
  O  O18  1  0.73350245  0.93683996  0.09245977  1
  O  O19  1  0.99126056  0.19048472  0.39589568  1
  O  O20  1  0.30951528  0.50873944  0.10410432  1
  O  O21  1  0.10410432  0.30951528  0.50873944  1
  O  O22  1  0.19048472  0.39589568  0.99126056  1
  O  O23  1  0.40754023  0.56316004  0.76649755  1
  O  O24  1  0.59245977  0.43683996  0.23350245  1
  O  O25  1  0.89589568  0.69048472  0.49126056  1
  O  O26  1  0.80951528  0.60410432  0.00873944  1
  O  O27  1  0.00873944  0.80951528  0.60410432  1
  O  O28  1  0.69048472  0.49126056  0.89589568  1
  O  O29  1  0.26649755  0.06316004  0.90754023  1
  O  O30  1  0.43683996  0.23350245  0.59245977  1
  O  O31  1  0.76649755  0.40754023  0.56316004  1
  O  O32  1  0.50873944  0.10410432  0.30951528  1
  O  O33  1  0.39589568  0.99126056  0.19048472  1
  O  O34  1  0.90754023  0.26649755  0.06316004  1
  O  O35  1  0.93683996  0.09245977  0.73350245  1
