# generated using pymatgen
data_Li4NbCr(WO6)2
_symmetry_space_group_name_H-M   'P 1'
_cell_length_a   5.47965971
_cell_length_b   10.95806931
_cell_length_c   9.65333432
_cell_angle_alpha   28.21729077
_cell_angle_beta   51.21737070
_cell_angle_gamma   56.45349950
_symmetry_Int_Tables_number   1
_chemical_formula_structural   Li4NbCr(WO6)2
_chemical_formula_sum   'Li4 Nb1 Cr1 W2 O12'
_cell_volume   213.64302000
_cell_formula_units_Z   1
loop_
 _symmetry_equiv_pos_site_id
 _symmetry_equiv_pos_as_xyz
  1  'x, y, z'
loop_
 _atom_site_type_symbol
 _atom_site_label
 _atom_site_symmetry_multiplicity
 _atom_site_fract_x
 _atom_site_fract_y
 _atom_site_fract_z
 _atom_site_occupancy
  Li  Li0  1  0.31788612  0.00056575  0.26813619  1
  Li  Li1  1  0.25533023  0.49662623  0.31002929  1
  Li  Li2  1  0.77115773  0.99631768  0.80991468  1
  Li  Li3  1  0.77441600  0.50442566  0.73973257  1
  Nb  Nb4  1  0.00691021  0.50282066  0.00931752  1
  Cr  Cr5  1  0.00266961  0.00004740  0.99640045  1
  W  W6  1  0.52232037  0.99580526  0.50176507  1
  W  W7  1  0.48482963  0.50551007  0.50419534  1
  O  O8  1  0.37643815  0.30869988  0.12252146  1
  O  O9  1  0.25261959  0.11611935  0.62001741  1
  O  O10  1  0.14463118  0.31532348  0.73096626  1
  O  O11  1  0.87533238  0.18213778  0.24807815  1
  O  O12  1  0.36852664  0.79232247  0.14084499  1
  O  O13  1  0.74242174  0.37344157  0.37475402  1
  O  O14  1  0.23385428  0.62289748  0.62645366  1
  O  O15  1  0.63374407  0.19988751  0.84918364  1
  O  O16  1  0.12291592  0.82262311  0.73330948  1
  O  O17  1  0.85038619  0.69485286  0.24209353  1
  O  O18  1  0.71887131  0.88694920  0.36946644  1
  O  O19  1  0.61593867  0.68262859  0.87401985  1
