# generated using pymatgen
data_CaLaI5
_symmetry_space_group_name_H-M   'P 1'
_cell_length_a   18.29752565
_cell_length_b   4.49717687
_cell_length_c   15.19999015
_cell_angle_alpha   90.00000000
_cell_angle_beta   90.00000000
_cell_angle_gamma   90.00000000
_symmetry_Int_Tables_number   1
_chemical_formula_structural   CaLaI5
_chemical_formula_sum   'Ca4 La4 I20'
_cell_volume   1250.76476827
_cell_formula_units_Z   4
loop_
 _symmetry_equiv_pos_site_id
 _symmetry_equiv_pos_as_xyz
  1  'x, y, z'
loop_
 _atom_site_type_symbol
 _atom_site_label
 _atom_site_symmetry_multiplicity
 _atom_site_fract_x
 _atom_site_fract_y
 _atom_site_fract_z
 _atom_site_occupancy
  Ca  Ca0  1  0.09194164  0.75000000  0.23896473  1
  Ca  Ca1  1  0.40805836  0.25000000  0.73896473  1
  Ca  Ca2  1  0.59194164  0.75000000  0.26103527  1
  Ca  Ca3  1  0.90805836  0.25000000  0.76103527  1
  La  La4  1  0.15678916  0.75000000  0.74258342  1
  La  La5  1  0.34321084  0.25000000  0.24258342  1
  La  La6  1  0.65678916  0.75000000  0.75741658  1
  La  La7  1  0.84321084  0.25000000  0.25741658  1
  I  I8  1  0.01705129  0.25000000  0.34962592  1
  I  I9  1  0.05917005  0.25000000  0.86146799  1
  I  I10  1  0.15440428  0.25000000  0.59612926  1
  I  I11  1  0.16996469  0.25000000  0.13282622  1
  I  I12  1  0.23859827  0.75000000  0.34924851  1
  I  I13  1  0.26140173  0.25000000  0.84924851  1
  I  I14  1  0.33003531  0.75000000  0.63282622  1
  I  I15  1  0.34559572  0.75000000  0.09612926  1
  I  I16  1  0.44082995  0.75000000  0.36146799  1
  I  I17  1  0.48294871  0.75000000  0.84962592  1
  I  I18  1  0.51705129  0.25000000  0.15037408  1
  I  I19  1  0.55917005  0.25000000  0.63853201  1
  I  I20  1  0.65440428  0.25000000  0.90387074  1
  I  I21  1  0.66996469  0.25000000  0.36717378  1
  I  I22  1  0.73859827  0.75000000  0.15075149  1
  I  I23  1  0.76140173  0.25000000  0.65075149  1
  I  I24  1  0.83003531  0.75000000  0.86717378  1
  I  I25  1  0.84559572  0.75000000  0.40387074  1
  I  I26  1  0.94082995  0.75000000  0.13853201  1
  I  I27  1  0.98294871  0.75000000  0.65037408  1
