# generated using pymatgen
data_CaSnS3
_symmetry_space_group_name_H-M   'P 1'
_cell_length_a   6.88696716
_cell_length_b   6.88696699
_cell_length_c   7.12118003
_cell_angle_alpha   61.08214496
_cell_angle_beta   61.08214468
_cell_angle_gamma   60.00000087
_symmetry_Int_Tables_number   1
_chemical_formula_structural   CaSnS3
_chemical_formula_sum   'Ca2 Sn2 S6'
_cell_volume   242.66447731
_cell_formula_units_Z   2
loop_
 _symmetry_equiv_pos_site_id
 _symmetry_equiv_pos_as_xyz
  1  'x, y, z'
loop_
 _atom_site_type_symbol
 _atom_site_label
 _atom_site_symmetry_multiplicity
 _atom_site_fract_x
 _atom_site_fract_y
 _atom_site_fract_z
 _atom_site_occupancy
  Ca  Ca0  1  0.79001000  0.79001000  0.62997000  1
  Ca  Ca1  1  0.29001000  0.29001000  0.12997000  1
  Sn  Sn2  1  0.50413795  0.50413795  0.48758615  1
  Sn  Sn3  1  0.00413795  0.00413795  0.98758615  1
  S  S4  1  0.21245279  0.62721387  0.29554795  1
  S  S5  1  0.86478539  0.21245279  0.29554795  1
  S  S6  1  0.62721387  0.86478539  0.29554795  1
  S  S7  1  0.12721387  0.71245279  0.79554795  1
  S  S8  1  0.36478539  0.12721387  0.79554795  1
  S  S9  1  0.71245279  0.36478539  0.79554795  1
