# generated using pymatgen
data_Li2Ni3BiO8
_symmetry_space_group_name_H-M   'P 1'
_cell_length_a   5.89751800
_cell_length_b   5.89751774
_cell_length_c   6.14667773
_cell_angle_alpha   61.33209371
_cell_angle_beta   118.66790696
_cell_angle_gamma   120.00000372
_symmetry_Int_Tables_number   1
_chemical_formula_structural   Li2Ni3BiO8
_chemical_formula_sum   'Li2 Ni3 Bi1 O8'
_cell_volume   154.14198844
_cell_formula_units_Z   1
loop_
 _symmetry_equiv_pos_site_id
 _symmetry_equiv_pos_as_xyz
  1  'x, y, z'
loop_
 _atom_site_type_symbol
 _atom_site_label
 _atom_site_symmetry_multiplicity
 _atom_site_fract_x
 _atom_site_fract_y
 _atom_site_fract_z
 _atom_site_occupancy
  Li  Li0  1  0.87899006  0.12100994  0.63697117  1
  Li  Li1  1  0.12100994  0.87899006  0.36302883  1
  Ni  Ni2  1  0.50000000  0.50000000  0.00000000  1
  Ni  Ni3  1  0.50000000  0.00000000  0.00000000  1
  Ni  Ni4  1  0.00000000  0.50000000  0.00000000  1
  Bi  Bi5  1  0.50000000  0.50000000  0.50000000  1
  O  O6  1  0.74825073  0.72292819  0.77357328  1
  O  O7  1  0.74825073  0.25174927  0.77357328  1
  O  O8  1  0.27116345  0.72883655  0.81349036  1
  O  O9  1  0.27707181  0.25174927  0.77357328  1
  O  O10  1  0.72292819  0.74825073  0.22642672  1
  O  O11  1  0.72883655  0.27116345  0.18650964  1
  O  O12  1  0.25174927  0.74825073  0.22642672  1
  O  O13  1  0.25174927  0.27707181  0.22642672  1
