# generated using pymatgen
data_Li3Fe4CoO8
_symmetry_space_group_name_H-M   'P 1'
_cell_length_a   6.02827357
_cell_length_b   6.02827355
_cell_length_c   6.01800477
_cell_angle_alpha   89.46887873
_cell_angle_beta   59.71586780
_cell_angle_gamma   59.61390558
_symmetry_Int_Tables_number   1
_chemical_formula_structural   Li3Fe4CoO8
_chemical_formula_sum   'Li3 Fe4 Co1 O8'
_cell_volume   153.78425484
_cell_formula_units_Z   1
loop_
 _symmetry_equiv_pos_site_id
 _symmetry_equiv_pos_as_xyz
  1  'x, y, z'
loop_
 _atom_site_type_symbol
 _atom_site_label
 _atom_site_symmetry_multiplicity
 _atom_site_fract_x
 _atom_site_fract_y
 _atom_site_fract_z
 _atom_site_occupancy
  Li  Li0  1  0.00000000  0.00000000  0.50000000  1
  Li  Li1  1  0.50000000  0.00000000  0.50000000  1
  Li  Li2  1  0.50000000  0.50000000  0.50000000  1
  Fe  Fe3  1  0.00000000  0.50000000  0.50000000  1
  Fe  Fe4  1  0.00000000  0.00000000  0.00000000  1
  Fe  Fe5  1  0.50000000  0.00000000  0.00000000  1
  Fe  Fe6  1  0.00000000  0.50000000  0.00000000  1
  Co  Co7  1  0.50000000  0.50000000  0.00000000  1
  O  O8  1  0.48026873  0.25433814  0.77406941  1
  O  O9  1  0.99977014  0.26402904  0.75194318  1
  O  O10  1  0.51208686  0.75171332  0.75194318  1
  O  O11  1  0.99109802  0.74233636  0.75123834  1
  O  O12  1  0.00890198  0.25766364  0.24876166  1
  O  O13  1  0.48791314  0.24828668  0.24805682  1
  O  O14  1  0.00022986  0.73597096  0.24805682  1
  O  O15  1  0.51973127  0.74566186  0.22593059  1
