# generated using pymatgen
data_FeH12(SO7)2
_symmetry_space_group_name_H-M   'P 1'
_cell_length_a   9.03744112
_cell_length_b   12.55050973
_cell_length_c   6.28916925
_cell_angle_alpha   90.00000000
_cell_angle_beta   107.32641647
_cell_angle_gamma   90.00000000
_symmetry_Int_Tables_number   1
_chemical_formula_structural   FeH12(SO7)2
_chemical_formula_sum   'Fe2 H24 S4 O28'
_cell_volume   680.97676032
_cell_formula_units_Z   2
loop_
 _symmetry_equiv_pos_site_id
 _symmetry_equiv_pos_as_xyz
  1  'x, y, z'
loop_
 _atom_site_type_symbol
 _atom_site_label
 _atom_site_symmetry_multiplicity
 _atom_site_fract_x
 _atom_site_fract_y
 _atom_site_fract_z
 _atom_site_occupancy
  Fe  Fe0  1  0.00000000  0.00000000  0.00000000  1
  Fe  Fe1  1  0.50000000  0.50000000  0.00000000  1
  H  H2  1  0.10184507  0.06076965  0.66538721  1
  H  H3  1  0.03560036  0.86018798  0.32330575  1
  H  H4  1  0.22122345  0.40534041  0.93678444  1
  H  H5  1  0.25938795  0.63367168  0.91354803  1
  H  H6  1  0.35448434  0.31500239  0.99642596  1
  H  H7  1  0.21148129  0.09921810  0.32493819  1
  H  H8  1  0.28851871  0.59921810  0.67506181  1
  H  H9  1  0.14551566  0.81500239  0.00357404  1
  H  H10  1  0.24061205  0.13367168  0.08645197  1
  H  H11  1  0.27877655  0.90534041  0.06321556  1
  H  H12  1  0.46439964  0.36018798  0.67669425  1
  H  H13  1  0.39815493  0.56076965  0.33461279  1
  H  H14  1  0.60184507  0.43923035  0.66538721  1
  H  H15  1  0.53560036  0.63981202  0.32330575  1
  H  H16  1  0.72122345  0.09465959  0.93678444  1
  H  H17  1  0.75938795  0.86632832  0.91354803  1
  H  H18  1  0.85448434  0.18499761  0.99642596  1
  H  H19  1  0.71148129  0.40078190  0.32493819  1
  H  H20  1  0.78851871  0.90078190  0.67506181  1
  H  H21  1  0.64551566  0.68499761  0.00357404  1
  H  H22  1  0.74061205  0.36632832  0.08645197  1
  H  H23  1  0.77877655  0.59465959  0.06321556  1
  H  H24  1  0.96439964  0.13981202  0.67669425  1
  H  H25  1  0.89815493  0.93923035  0.33461279  1
  S  S26  1  0.10617867  0.64664670  0.25774745  1
  S  S27  1  0.39382133  0.14664670  0.74225255  1
  S  S28  1  0.60617867  0.85335330  0.25774745  1
  S  S29  1  0.89382133  0.35335330  0.74225255  1
  O  O30  1  0.00338290  0.06425146  0.70822217  1
  O  O31  1  0.03541466  0.41987476  0.80721075  1
  O  O32  1  0.16524669  0.89280314  0.98783585  1
  O  O33  1  0.07902723  0.73806761  0.39073150  1
  O  O34  1  0.14544560  0.68570925  0.05578921  1
  O  O35  1  0.16354744  0.10663484  0.15967648  1
  O  O36  1  0.26264683  0.08173470  0.60018988  1
  O  O37  1  0.23735317  0.58173470  0.39981012  1
  O  O38  1  0.33645256  0.60663484  0.84032352  1
  O  O39  1  0.35455440  0.18570925  0.94421079  1
  O  O40  1  0.42097277  0.23806761  0.60926850  1
  O  O41  1  0.33475331  0.39280314  0.01216415  1
  O  O42  1  0.50338290  0.43574854  0.70822217  1
  O  O43  1  0.53541466  0.08012524  0.80721075  1
  O  O44  1  0.46458534  0.91987476  0.19278925  1
  O  O45  1  0.49661710  0.56425146  0.29177783  1
  O  O46  1  0.66524669  0.60719686  0.98783585  1
  O  O47  1  0.57902723  0.76193239  0.39073150  1
  O  O48  1  0.64544560  0.81429075  0.05578921  1
  O  O49  1  0.66354744  0.39336516  0.15967648  1
  O  O50  1  0.76264683  0.41826530  0.60018988  1
  O  O51  1  0.73735317  0.91826530  0.39981012  1
  O  O52  1  0.83645256  0.89336516  0.84032352  1
  O  O53  1  0.85455440  0.31429075  0.94421079  1
  O  O54  1  0.92097277  0.26193239  0.60926850  1
  O  O55  1  0.83475331  0.10719686  0.01216415  1
  O  O56  1  0.96458534  0.58012524  0.19278925  1
  O  O57  1  0.99661710  0.93574854  0.29177783  1
