# generated using pymatgen
data_Na3MgPCO7
_symmetry_space_group_name_H-M   'P 1'
_cell_length_a   9.02018654
_cell_length_b   5.30337111
_cell_length_c   6.58475513
_cell_angle_alpha   90.00000000
_cell_angle_beta   90.00000000
_cell_angle_gamma   90.28926044
_symmetry_Int_Tables_number   1
_chemical_formula_structural   Na3MgPCO7
_chemical_formula_sum   'Na6 Mg2 P2 C2 O14'
_cell_volume   314.99352913
_cell_formula_units_Z   2
loop_
 _symmetry_equiv_pos_site_id
 _symmetry_equiv_pos_as_xyz
  1  'x, y, z'
loop_
 _atom_site_type_symbol
 _atom_site_label
 _atom_site_symmetry_multiplicity
 _atom_site_fract_x
 _atom_site_fract_y
 _atom_site_fract_z
 _atom_site_occupancy
  Na  Na0  1  0.00464781  0.00052179  0.48836616  1
  Na  Na1  1  0.16707845  0.45305953  0.18972565  1
  Na  Na2  1  0.48899126  0.50123986  0.48561848  1
  Na  Na3  1  0.51100874  0.49876014  0.98561848  1
  Na  Na4  1  0.83292155  0.54694047  0.68972565  1
  Na  Na5  1  0.99535219  0.99947821  0.98836616  1
  Mg  Mg6  1  0.29407997  0.01643033  0.74426366  1
  Mg  Mg7  1  0.70592003  0.98356967  0.24426366  1
  P  P8  1  0.34687112  0.97782440  0.24047120  1
  P  P9  1  0.65312888  0.02217560  0.74047120  1
  C  C10  1  0.15286938  0.49023031  0.74063174  1
  C  C11  1  0.84713062  0.50976969  0.24063174  1
  O  O12  1  0.04784941  0.32040897  0.74144874  1
  O  O13  1  0.11827534  0.73056246  0.74968119  1
  O  O14  1  0.25400754  0.07362993  0.05459117  1
  O  O15  1  0.25603877  0.04303268  0.43466323  1
  O  O16  1  0.29023049  0.42156464  0.73511106  1
  O  O17  1  0.37018333  0.69081301  0.22307441  1
  O  O18  1  0.49882666  0.11972493  0.24695230  1
  O  O19  1  0.50117334  0.88027507  0.74695230  1
  O  O20  1  0.62981667  0.30918699  0.72307441  1
  O  O21  1  0.70976951  0.57843536  0.23511106  1
  O  O22  1  0.74396123  0.95696732  0.93466323  1
  O  O23  1  0.74599246  0.92637007  0.55459117  1
  O  O24  1  0.88172466  0.26943754  0.24968119  1
  O  O25  1  0.95215059  0.67959103  0.24144874  1
