# generated using pymatgen
data_Na2MnSiCO7
_symmetry_space_group_name_H-M   'P 1'
_cell_length_a   9.02638419
_cell_length_b   6.46459524
_cell_length_c   5.19407839
_cell_angle_alpha   90.00000000
_cell_angle_beta   88.56929910
_cell_angle_gamma   90.00000000
_symmetry_Int_Tables_number   1
_chemical_formula_structural   Na2MnSiCO7
_chemical_formula_sum   'Na4 Mn2 Si2 C2 O14'
_cell_volume   302.98996276
_cell_formula_units_Z   2
loop_
 _symmetry_equiv_pos_site_id
 _symmetry_equiv_pos_as_xyz
  1  'x, y, z'
loop_
 _atom_site_type_symbol
 _atom_site_label
 _atom_site_symmetry_multiplicity
 _atom_site_fract_x
 _atom_site_fract_y
 _atom_site_fract_z
 _atom_site_occupancy
  Na  Na0  1  0.24007551  0.01128111  0.23775757  1
  Na  Na1  1  0.24007551  0.48871889  0.23775757  1
  Na  Na2  1  0.75992449  0.51128111  0.76224243  1
  Na  Na3  1  0.75992449  0.98871889  0.76224243  1
  Mn  Mn4  1  0.34817931  0.75000000  0.78905790  1
  Mn  Mn5  1  0.65182069  0.25000000  0.21094210  1
  Si  Si6  1  0.42908499  0.25000000  0.71153951  1
  Si  Si7  1  0.57091501  0.75000000  0.28846049  1
  C  C8  1  0.07773046  0.75000000  0.72691538  1
  C  C9  1  0.92226954  0.25000000  0.27308462  1
  O  O10  1  0.05901751  0.25000000  0.30196084  1
  O  O11  1  0.14098971  0.75000000  0.95152256  1
  O  O12  1  0.17661199  0.75000000  0.53532270  1
  O  O13  1  0.32805827  0.04683001  0.78636120  1
  O  O14  1  0.32805827  0.45316999  0.78636120  1
  O  O15  1  0.41405152  0.75000000  0.13552123  1
  O  O16  1  0.46677474  0.25000000  0.39669407  1
  O  O17  1  0.53322526  0.75000000  0.60330593  1
  O  O18  1  0.58594848  0.25000000  0.86447877  1
  O  O19  1  0.67194173  0.54683001  0.21363880  1
  O  O20  1  0.67194173  0.95316999  0.21363880  1
  O  O21  1  0.82338801  0.25000000  0.46467730  1
  O  O22  1  0.85901029  0.25000000  0.04847744  1
  O  O23  1  0.94098249  0.75000000  0.69803916  1
