# generated using pymatgen
data_Li2AlVO4
_symmetry_space_group_name_H-M   'P 1'
_cell_length_a   5.11225558
_cell_length_b   5.89236190
_cell_length_c   7.65385606
_cell_angle_alpha   79.24362929
_cell_angle_beta   71.70390726
_cell_angle_gamma   89.77990431
_symmetry_Int_Tables_number   1
_chemical_formula_structural   Li2AlVO4
_chemical_formula_sum   'Li6 Al3 V3 O12'
_cell_volume   214.68664531
_cell_formula_units_Z   3
loop_
 _symmetry_equiv_pos_site_id
 _symmetry_equiv_pos_as_xyz
  1  'x, y, z'
loop_
 _atom_site_type_symbol
 _atom_site_label
 _atom_site_symmetry_multiplicity
 _atom_site_fract_x
 _atom_site_fract_y
 _atom_site_fract_z
 _atom_site_occupancy
  Li  Li0  1  0.00039118  0.50359076  0.99983294  1
  Li  Li1  1  0.00041282  0.34186230  0.66291318  1
  Li  Li2  1  0.00093518  0.98807193  0.99955586  1
  Li  Li3  1  0.99852858  0.66391814  0.33335994  1
  Li  Li4  1  0.99988319  0.17779689  0.33424797  1
  Li  Li5  1  0.99955816  0.82463887  0.67025437  1
  Al  Al6  1  0.49939125  0.74102814  0.99941819  1
  Al  Al7  1  0.50144151  0.42580243  0.33466873  1
  Al  Al8  1  0.50083762  0.58325181  0.66734196  1
  V  V9  1  0.50101841  0.24993334  0.00154450  1
  V  V10  1  0.49897370  0.91844483  0.33069406  1
  V  V11  1  0.49923522  0.08235663  0.66402058  1
  O  O12  1  0.27374532  0.94442766  0.15603182  1
  O  O13  1  0.28510213  0.46762319  0.16370614  1
  O  O14  1  0.27619672  0.14916952  0.48858730  1
  O  O15  1  0.28419198  0.62264985  0.49695406  1
  O  O16  1  0.27931135  0.30253237  0.82345944  1
  O  O17  1  0.28233256  0.77566150  0.83013396  1
  O  O18  1  0.71608913  0.69571528  0.16759364  1
  O  O19  1  0.72408985  0.21684686  0.18037602  1
  O  O20  1  0.71748926  0.39102121  0.50293042  1
  O  O21  1  0.72225733  0.86449795  0.51078391  1
  O  O22  1  0.71784457  0.54722073  0.83414433  1
  O  O23  1  0.72074397  0.02193882  0.84744769  1
