# generated using pymatgen
data_Li2AlFeO4
_symmetry_space_group_name_H-M   'P 1'
_cell_length_a   6.43936536
_cell_length_b   10.91757820
_cell_length_c   5.15811666
_cell_angle_alpha   90.00000000
_cell_angle_beta   89.89390483
_cell_angle_gamma   90.00000000
_symmetry_Int_Tables_number   1
_chemical_formula_structural   Li2AlFeO4
_chemical_formula_sum   'Li8 Al4 Fe4 O16'
_cell_volume   362.62671383
_cell_formula_units_Z   4
loop_
 _symmetry_equiv_pos_site_id
 _symmetry_equiv_pos_as_xyz
  1  'x, y, z'
loop_
 _atom_site_type_symbol
 _atom_site_label
 _atom_site_symmetry_multiplicity
 _atom_site_fract_x
 _atom_site_fract_y
 _atom_site_fract_z
 _atom_site_occupancy
  Li  Li0  1  0.00732923  0.83528359  0.68915428  1
  Li  Li1  1  0.23990521  0.07894378  0.70449877  1
  Li  Li2  1  0.26009479  0.57894378  0.79550123  1
  Li  Li3  1  0.49267077  0.33528359  0.81084572  1
  Li  Li4  1  0.50732923  0.66471641  0.18915428  1
  Li  Li5  1  0.73990521  0.42105622  0.20449877  1
  Li  Li6  1  0.76009479  0.92105622  0.29550123  1
  Li  Li7  1  0.99267077  0.16471641  0.31084572  1
  Al  Al8  1  0.24478759  0.41321121  0.31509996  1
  Al  Al9  1  0.25521241  0.91321121  0.18490004  1
  Al  Al10  1  0.74478759  0.08678879  0.81509996  1
  Al  Al11  1  0.75521241  0.58678879  0.68490004  1
  Fe  Fe12  1  0.00323361  0.66551629  0.18234135  1
  Fe  Fe13  1  0.49676639  0.16551629  0.31765865  1
  Fe  Fe14  1  0.50323361  0.83448371  0.68234135  1
  Fe  Fe15  1  0.99676639  0.33448371  0.81765865  1
  O  O16  1  0.02144782  0.33692183  0.18869905  1
  O  O17  1  0.02996315  0.83187582  0.29115932  1
  O  O18  1  0.25148069  0.06842578  0.28923809  1
  O  O19  1  0.23363803  0.40904386  0.66180943  1
  O  O20  1  0.26636197  0.90904386  0.83819057  1
  O  O21  1  0.24851931  0.56842578  0.21076191  1
  O  O22  1  0.47003685  0.33187582  0.20884068  1
  O  O23  1  0.47855218  0.83692183  0.31130095  1
  O  O24  1  0.52144782  0.16307817  0.68869905  1
  O  O25  1  0.52996315  0.66812418  0.79115932  1
  O  O26  1  0.75148069  0.43157422  0.78923809  1
  O  O27  1  0.73363803  0.09095614  0.16180943  1
  O  O28  1  0.76636197  0.59095614  0.33819057  1
  O  O29  1  0.74851931  0.93157422  0.71076191  1
  O  O30  1  0.97003685  0.16812418  0.70884068  1
  O  O31  1  0.97855218  0.66307817  0.81130095  1
