# generated using pymatgen
data_LiVSn3(PO4)6
_symmetry_space_group_name_H-M   'P 1'
_cell_length_a   8.90539171
_cell_length_b   8.90539171
_cell_length_c   8.90539200
_cell_angle_alpha   58.57688663
_cell_angle_beta   58.57688553
_cell_angle_gamma   58.57688426
_symmetry_Int_Tables_number   1
_chemical_formula_structural   LiVSn3(PO4)6
_chemical_formula_sum   'Li1 V1 Sn3 P6 O24'
_cell_volume   483.14414439
_cell_formula_units_Z   1
loop_
 _symmetry_equiv_pos_site_id
 _symmetry_equiv_pos_as_xyz
  1  'x, y, z'
loop_
 _atom_site_type_symbol
 _atom_site_label
 _atom_site_symmetry_multiplicity
 _atom_site_fract_x
 _atom_site_fract_y
 _atom_site_fract_z
 _atom_site_occupancy
  Li  Li0  1  0.99967342  0.99967342  0.99967342  1
  V  V1  1  0.85469312  0.85469312  0.85469312  1
  Sn  Sn2  1  0.14588737  0.14588737  0.14588737  1
  Sn  Sn3  1  0.35898871  0.35898871  0.35898871  1
  Sn  Sn4  1  0.64184444  0.64184444  0.64184444  1
  P  P5  1  0.03600455  0.75170692  0.46258023  1
  P  P6  1  0.46258023  0.03600455  0.75170692  1
  P  P7  1  0.75170692  0.46258023  0.03600455  1
  P  P8  1  0.24274776  0.54678846  0.96112415  1
  P  P9  1  0.54678846  0.96112415  0.24274776  1
  P  P10  1  0.96112415  0.24274776  0.54678846  1
  O  O11  1  0.13334258  0.26317857  0.52536808  1
  O  O12  1  0.26317857  0.52536808  0.13334258  1
  O  O13  1  0.05983774  0.91973326  0.27742579  1
  O  O14  1  0.52536808  0.13334258  0.26317857  1
  O  O15  1  0.21448475  0.57961046  0.45550860  1
  O  O16  1  0.99055773  0.79884777  0.63243396  1
  O  O17  1  0.27742579  0.05983774  0.91973326  1
  O  O18  1  0.45550860  0.21448475  0.57961046  1
  O  O19  1  0.57961046  0.45550860  0.21448475  1
  O  O20  1  0.21054360  0.38101634  0.98634964  1
  O  O21  1  0.06817741  0.72936787  0.93161161  1
  O  O22  1  0.38101634  0.98634964  0.21054360  1
  O  O23  1  0.63243396  0.99055773  0.79884777  1
  O  O24  1  0.91973326  0.27742579  0.05983774  1
  O  O25  1  0.79884777  0.63243396  0.99055773  1
  O  O26  1  0.40837327  0.57399113  0.78048437  1
  O  O27  1  0.57399113  0.78048437  0.40837327  1
  O  O28  1  0.72936787  0.93161161  0.06817741  1
  O  O29  1  0.98634964  0.21054360  0.38101634  1
  O  O30  1  0.78048437  0.40837327  0.57399113  1
  O  O31  1  0.48611001  0.87107689  0.72052846  1
  O  O32  1  0.93161161  0.06817741  0.72936787  1
  O  O33  1  0.72052846  0.48611001  0.87107689  1
  O  O34  1  0.87107689  0.72052846  0.48611001  1
