# generated using pymatgen
data_Li3Mn(BO3)2
_symmetry_space_group_name_H-M   'P 1'
_cell_length_a   5.17055232
_cell_length_b   6.38517775
_cell_length_c   7.76374667
_cell_angle_alpha   70.65049389
_cell_angle_beta   89.42657130
_cell_angle_gamma   88.42641873
_symmetry_Int_Tables_number   1
_chemical_formula_structural   Li3Mn(BO3)2
_chemical_formula_sum   'Li6 Mn2 B4 O12'
_cell_volume   241.74978119
_cell_formula_units_Z   2
loop_
 _symmetry_equiv_pos_site_id
 _symmetry_equiv_pos_as_xyz
  1  'x, y, z'
loop_
 _atom_site_type_symbol
 _atom_site_label
 _atom_site_symmetry_multiplicity
 _atom_site_fract_x
 _atom_site_fract_y
 _atom_site_fract_z
 _atom_site_occupancy
  Li  Li0  1  0.18786441  0.93005951  0.89924344  1
  Li  Li1  1  0.29996202  0.06881161  0.24494047  1
  Li  Li2  1  0.37619337  0.77222825  0.55857510  1
  Li  Li3  1  0.62380663  0.22777175  0.44142490  1
  Li  Li4  1  0.70003798  0.93118839  0.75505953  1
  Li  Li5  1  0.81213559  0.06994049  0.10075656  1
  Mn  Mn6  1  0.09835904  0.58260193  0.22996475  1
  Mn  Mn7  1  0.90164096  0.41739807  0.77003525  1
  B  B8  1  0.16572728  0.17154894  0.55847546  1
  B  B9  1  0.34529572  0.33383621  0.87542488  1
  B  B10  1  0.65470428  0.66616379  0.12457512  1
  B  B11  1  0.83427272  0.82845106  0.44152454  1
  O  O12  1  0.08058103  0.81281979  0.37257941  1
  O  O13  1  0.25309971  0.50129870  0.72408344  1
  O  O14  1  0.14581169  0.20887803  0.98221356  1
  O  O15  1  0.23746716  0.29685360  0.37801583  1
  O  O16  1  0.35111139  0.02734615  0.66032378  1
  O  O17  1  0.39958208  0.70985955  0.08413596  1
  O  O18  1  0.60041792  0.29014045  0.91586404  1
  O  O19  1  0.64888861  0.97265385  0.33967622  1
  O  O20  1  0.76253284  0.70314640  0.62198417  1
  O  O21  1  0.85418831  0.79112197  0.01778644  1
  O  O22  1  0.74690029  0.49870130  0.27591656  1
  O  O23  1  0.91941897  0.18718021  0.62742059  1
