# generated using pymatgen
data_Na3Li3Fe2P2(CO7)2
_symmetry_space_group_name_H-M   'P 1'
_cell_length_a   8.72434587
_cell_length_b   6.66499151
_cell_length_c   5.07631414
_cell_angle_alpha   89.79092059
_cell_angle_beta   88.34508056
_cell_angle_gamma   90.51056941
_symmetry_Int_Tables_number   1
_chemical_formula_structural   Na3Li3Fe2P2(CO7)2
_chemical_formula_sum   'Na3 Li3 Fe2 P2 C2 O14'
_cell_volume   295.03885874
_cell_formula_units_Z   1
loop_
 _symmetry_equiv_pos_site_id
 _symmetry_equiv_pos_as_xyz
  1  'x, y, z'
loop_
 _atom_site_type_symbol
 _atom_site_label
 _atom_site_symmetry_multiplicity
 _atom_site_fract_x
 _atom_site_fract_y
 _atom_site_fract_z
 _atom_site_occupancy
  Na  Na0  1  0.08344206  0.25696156  0.76037821  1
  Na  Na1  1  0.25732077  0.99933689  0.24710323  1
  Na  Na2  1  0.74399803  0.50147664  0.75161956  1
  Li  Li3  1  0.27749517  0.47783676  0.22391679  1
  Li  Li4  1  0.72883830  0.98663831  0.76114021  1
  Li  Li5  1  0.90766403  0.75425687  0.25168164  1
  Fe  Fe6  1  0.35435748  0.74466327  0.77605199  1
  Fe  Fe7  1  0.64827958  0.24495157  0.22013059  1
  P  P8  1  0.41386405  0.24784628  0.70562106  1
  P  P9  1  0.59158988  0.74874602  0.29436923  1
  C  C10  1  0.04550662  0.75683719  0.73077215  1
  C  C11  1  0.94676246  0.25572175  0.27332987  1
  O  O12  1  0.09404681  0.27502579  0.28686191  1
  O  O13  1  0.08282596  0.75298942  0.97672864  1
  O  O14  1  0.15257234  0.73784509  0.54720781  1
  O  O15  1  0.31291516  0.06007124  0.77270551  1
  O  O16  1  0.32530480  0.42992004  0.82413386  1
  O  O17  1  0.42901325  0.27294901  0.39822894  1
  O  O18  1  0.42954860  0.73226764  0.17750883  1
  O  O19  1  0.57619982  0.23048324  0.81666577  1
  O  O20  1  0.57303475  0.77186870  0.60042821  1
  O  O21  1  0.69301448  0.56273630  0.23142866  1
  O  O22  1  0.68603538  0.93000391  0.17928502  1
  O  O23  1  0.86031890  0.23561284  0.48475063  1
  O  O24  1  0.88128007  0.25542258  0.04625813  1
  O  O25  1  0.90477124  0.77753208  0.66169553  1
