# generated using pymatgen
data_MnPO4
_symmetry_space_group_name_H-M   'P 1'
_cell_length_a   6.88497588
_cell_length_b   8.95155348
_cell_length_c   8.95155861
_cell_angle_alpha   95.53387988
_cell_angle_beta   63.30613708
_cell_angle_gamma   116.69377729
_symmetry_Int_Tables_number   1
_chemical_formula_structural   MnPO4
_chemical_formula_sum   'Mn6 P6 O24'
_cell_volume   436.50923959
_cell_formula_units_Z   6
loop_
 _symmetry_equiv_pos_site_id
 _symmetry_equiv_pos_as_xyz
  1  'x, y, z'
loop_
 _atom_site_type_symbol
 _atom_site_label
 _atom_site_symmetry_multiplicity
 _atom_site_fract_x
 _atom_site_fract_y
 _atom_site_fract_z
 _atom_site_occupancy
  Mn  Mn0  1  0.80824433  0.38088781  0.93592248  1
  Mn  Mn1  1  0.74999812  0.72678418  0.72678457  1
  Mn  Mn2  1  0.30825379  0.06407302  0.61911709  1
  Mn  Mn3  1  0.69174621  0.93592698  0.38088291  1
  Mn  Mn4  1  0.25000188  0.27321582  0.27321543  1
  Mn  Mn5  1  0.19175567  0.61911219  0.06407752  1
  P  P6  1  0.84757398  0.12080685  0.65276388  1
  P  P7  1  0.74999528  0.29296580  0.29296623  1
  P  P8  1  0.34757309  0.34723513  0.87919547  1
  P  P9  1  0.65242691  0.65276487  0.12080453  1
  P  P10  1  0.25000472  0.70703420  0.70703377  1
  P  P11  1  0.15242602  0.87919315  0.34723612  1
  O  O12  1  0.74690249  0.18505240  0.82059769  1
  O  O13  1  0.86660007  0.17096073  0.26545885  1
  O  O14  1  0.64523254  0.04154343  0.59173796  1
  O  O15  1  0.95506875  0.47244622  0.27034159  1
  O  O16  1  0.91918662  0.73647740  0.48247449  1
  O  O17  1  0.90857954  0.98054947  0.68231255  1
  O  O18  1  0.59142213  0.68231731  0.98054795  1
  O  O19  1  0.58081935  0.48247137  0.73648184  1
  O  O20  1  0.54492015  0.27033944  0.47244802  1
  O  O21  1  0.85476299  0.59173538  0.04154049  1
  O  O22  1  0.63339386  0.26545925  0.17096030  1
  O  O23  1  0.24689316  0.17940178  0.81495094  1
  O  O24  1  0.75310684  0.82059822  0.18504906  1
  O  O25  1  0.36660614  0.73454075  0.82903970  1
  O  O26  1  0.14523701  0.40826462  0.95845951  1
  O  O27  1  0.45507985  0.72966056  0.52755198  1
  O  O28  1  0.41918065  0.51752863  0.26351816  1
  O  O29  1  0.40857787  0.31768269  0.01945205  1
  O  O30  1  0.09142046  0.01945053  0.31768745  1
  O  O31  1  0.08081338  0.26352260  0.51752551  1
  O  O32  1  0.04493125  0.52755378  0.72965841  1
  O  O33  1  0.35476746  0.95845657  0.40826204  1
  O  O34  1  0.13339993  0.82903927  0.73454115  1
  O  O35  1  0.25309751  0.81494760  0.17940231  1
