# generated using pymatgen
data_Na3FeBAsO7
_symmetry_space_group_name_H-M   'P 1'
_cell_length_a   9.11541434
_cell_length_b   6.86773638
_cell_length_c   5.29728572
_cell_angle_alpha   90.00000000
_cell_angle_beta   88.88561278
_cell_angle_gamma   90.00000000
_symmetry_Int_Tables_number   1
_chemical_formula_structural   Na3FeBAsO7
_chemical_formula_sum   'Na6 Fe2 B2 As2 O14'
_cell_volume   331.55934896
_cell_formula_units_Z   2
loop_
 _symmetry_equiv_pos_site_id
 _symmetry_equiv_pos_as_xyz
  1  'x, y, z'
loop_
 _atom_site_type_symbol
 _atom_site_label
 _atom_site_symmetry_multiplicity
 _atom_site_fract_x
 _atom_site_fract_y
 _atom_site_fract_z
 _atom_site_occupancy
  Na  Na0  1  0.07267178  0.25000000  0.75583835  1
  Na  Na1  1  0.24323946  0.99960006  0.24786093  1
  Na  Na2  1  0.24323946  0.50039994  0.24786093  1
  Na  Na3  1  0.75676054  0.49960006  0.75213907  1
  Na  Na4  1  0.75676054  0.00039894  0.75213907  1
  Na  Na5  1  0.92732822  0.75000000  0.24416165  1
  Fe  Fe6  1  0.33014562  0.75000000  0.77872085  1
  Fe  Fe7  1  0.66985438  0.25000000  0.22127915  1
  B  B8  1  0.06237301  0.75000000  0.73449135  1
  B  B9  1  0.93762699  0.25000000  0.26550865  1
  As  As10  1  0.42330538  0.25000000  0.70727856  1
  As  As11  1  0.57669462  0.75000000  0.29272144  1
  O  O12  1  0.08435786  0.25000000  0.29772514  1
  O  O13  1  0.13103296  0.75000000  0.96991882  1
  O  O14  1  0.16643461  0.75000000  0.53275282  1
  O  O15  1  0.31245261  0.05422827  0.78172120  1
  O  O16  1  0.31245261  0.44577173  0.78172120  1
  O  O17  1  0.46320944  0.25000000  0.38472797  1
  O  O18  1  0.41280376  0.75000000  0.13982309  1
  O  O19  1  0.58719624  0.25000000  0.86017691  1
  O  O20  1  0.53679056  0.75000000  0.61527203  1
  O  O21  1  0.68754739  0.55422827  0.21827880  1
  O  O22  1  0.68754739  0.94577173  0.21827880  1
  O  O23  1  0.83356539  0.25000000  0.46724718  1
  O  O24  1  0.86896704  0.25000000  0.03008118  1
  O  O25  1  0.91564214  0.75000000  0.70227486  1
