# generated using pymatgen
data_Li2MnAsCO7
_symmetry_space_group_name_H-M   'P 1'
_cell_length_a   8.71349470
_cell_length_b   6.50854477
_cell_length_c   5.22300845
_cell_angle_alpha   90.00000000
_cell_angle_beta   86.65701941
_cell_angle_gamma   90.00000000
_symmetry_Int_Tables_number   1
_chemical_formula_structural   Li2MnAsCO7
_chemical_formula_sum   'Li4 Mn2 As2 C2 O14'
_cell_volume   295.70410395
_cell_formula_units_Z   2
loop_
 _symmetry_equiv_pos_site_id
 _symmetry_equiv_pos_as_xyz
  1  'x, y, z'
loop_
 _atom_site_type_symbol
 _atom_site_label
 _atom_site_symmetry_multiplicity
 _atom_site_fract_x
 _atom_site_fract_y
 _atom_site_fract_z
 _atom_site_occupancy
  Li  Li0  1  0.21308641  0.51356985  0.21754845  1
  Li  Li1  1  0.21308641  0.98643015  0.21754845  1
  Li  Li2  1  0.78691359  0.48643015  0.78245155  1
  Li  Li3  1  0.78691359  0.01356985  0.78245155  1
  Mn  Mn4  1  0.34288442  0.75000000  0.78143929  1
  Mn  Mn5  1  0.65711558  0.25000000  0.21856071  1
  As  As6  1  0.42794586  0.25000000  0.70733206  1
  As  As7  1  0.57205414  0.75000000  0.29266794  1
  C  C8  1  0.05337187  0.75000000  0.71803905  1
  C  C9  1  0.94662813  0.25000000  0.28196095  1
  O  O10  1  0.09249962  0.25000000  0.27305195  1
  O  O11  1  0.12708009  0.75000000  0.93581706  1
  O  O12  1  0.14211605  0.75000000  0.51102734  1
  O  O13  1  0.31893554  0.04667483  0.81792713  1
  O  O14  1  0.31893554  0.45332517  0.81792713  1
  O  O15  1  0.39003185  0.75000000  0.18858532  1
  O  O16  1  0.44637221  0.25000000  0.37339143  1
  O  O17  1  0.55362779  0.75000000  0.62660857  1
  O  O18  1  0.60996815  0.25000000  0.81141468  1
  O  O19  1  0.68106446  0.54667483  0.18207287  1
  O  O20  1  0.68106446  0.95332517  0.18207287  1
  O  O21  1  0.85788395  0.25000000  0.48897266  1
  O  O22  1  0.87291991  0.25000000  0.06418294  1
  O  O23  1  0.90750038  0.75000000  0.72694805  1
