# generated using pymatgen
data_LiMn2(PO4)2
_symmetry_space_group_name_H-M   'P 1'
_cell_length_a   6.71605073
_cell_length_b   9.09633577
_cell_length_c   9.09345185
_cell_angle_alpha   94.74473445
_cell_angle_beta   64.53018489
_cell_angle_gamma   115.52428359
_symmetry_Int_Tables_number   1
_chemical_formula_structural   LiMn2(PO4)2
_chemical_formula_sum   'Li3 Mn6 P6 O24'
_cell_volume   448.98989891
_cell_formula_units_Z   3
loop_
 _symmetry_equiv_pos_site_id
 _symmetry_equiv_pos_as_xyz
  1  'x, y, z'
loop_
 _atom_site_type_symbol
 _atom_site_label
 _atom_site_symmetry_multiplicity
 _atom_site_fract_x
 _atom_site_fract_y
 _atom_site_fract_z
 _atom_site_occupancy
  Li  Li0  1  0.50087522  0.50067155  0.49922401  1
  Li  Li1  1  0.25026730  0.98855058  0.98832958  1
  Li  Li2  1  0.99911731  0.49923948  0.50085014  1
  Mn  Mn3  1  0.80581230  0.37899648  0.93506711  1
  Mn  Mn4  1  0.74989808  0.73557315  0.73576960  1
  Mn  Mn5  1  0.30395105  0.06549974  0.61507747  1
  Mn  Mn6  1  0.69383714  0.93507732  0.37979352  1
  Mn  Mn7  1  0.25010707  0.27023570  0.27002370  1
  Mn  Mn8  1  0.19519756  0.61463724  0.06566490  1
  P  P9  1  0.84477162  0.12872123  0.65310752  1
  P  P10  1  0.74988718  0.29029636  0.29082469  1
  P  P11  1  0.34721106  0.34349218  0.87119043  1
  P  P12  1  0.65524519  0.65403193  0.12935772  1
  P  P13  1  0.25033739  0.71041194  0.70980761  1
  P  P14  1  0.15289586  0.87143042  0.34401839  1
  O  O15  1  0.72208746  0.17687360  0.82512291  1
  O  O16  1  0.86791039  0.17120443  0.26758380  1
  O  O17  1  0.63875152  0.04256938  0.59256724  1
  O  O18  1  0.95564639  0.46575495  0.27533959  1
  O  O19  1  0.94125338  0.72202600  0.47117846  1
  O  O20  1  0.92934618  0.99972347  0.66969240  1
  O  O21  1  0.57112811  0.66993813  0.99974441  1
  O  O22  1  0.55878349  0.47096093  0.72176327  1
  O  O23  1  0.54484594  0.27528302  0.46557991  1
  O  O24  1  0.86180071  0.59374783  0.04308840  1
  O  O25  1  0.63137056  0.26722508  0.17179313  1
  O  O26  1  0.24479012  0.16813846  0.82314784  1
  O  O27  1  0.77657462  0.82548082  0.17795453  1
  O  O28  1  0.36649477  0.73642743  0.83147516  1
  O  O29  1  0.13840740  0.40253208  0.95533287  1
  O  O30  1  0.45522898  0.72604477  0.53440911  1
  O  O31  1  0.44163188  0.52974128  0.28014116  1
  O  O32  1  0.42448592  0.32449090  0.00441246  1
  O  O33  1  0.07538691  0.00457910  0.32482067  1
  O  O34  1  0.05833084  0.27987504  0.52971350  1
  O  O35  1  0.04559815  0.53513378  0.72514452  1
  O  O36  1  0.36062789  0.95522536  0.40260656  1
  O  O37  1  0.13398954  0.83144487  0.73627277  1
  O  O38  1  0.25612052  0.82324899  0.16753992  1
