# generated using pymatgen
data_Na3CoPCO7
_symmetry_space_group_name_H-M   'P 1'
_cell_length_a   9.00190855
_cell_length_b   5.31415758
_cell_length_c   6.61034078
_cell_angle_alpha   90.00000000
_cell_angle_beta   90.00000000
_cell_angle_gamma   90.58114291
_symmetry_Int_Tables_number   1
_chemical_formula_structural   Na3CoPCO7
_chemical_formula_sum   'Na6 Co2 P2 C2 O14'
_cell_volume   316.20631169
_cell_formula_units_Z   2
loop_
 _symmetry_equiv_pos_site_id
 _symmetry_equiv_pos_as_xyz
  1  'x, y, z'
loop_
 _atom_site_type_symbol
 _atom_site_label
 _atom_site_symmetry_multiplicity
 _atom_site_fract_x
 _atom_site_fract_y
 _atom_site_fract_z
 _atom_site_occupancy
  Na  Na0  1  0.00741537  0.99909687  0.48919307  1
  Na  Na1  1  0.16614833  0.45698339  0.18219387  1
  Na  Na2  1  0.48649621  0.51078172  0.49148034  1
  Na  Na3  1  0.51350379  0.48921828  0.99148034  1
  Na  Na4  1  0.83385167  0.54301661  0.68219387  1
  Na  Na5  1  0.99258463  0.00090313  0.98919307  1
  Co  Co6  1  0.29348325  0.01637543  0.75373272  1
  Co  Co7  1  0.70651675  0.98362457  0.25373272  1
  P  P8  1  0.34751017  0.97684920  0.24154231  1
  P  P9  1  0.65248983  0.02315080  0.74154231  1
  C  C10  1  0.15266501  0.48600933  0.73861019  1
  C  C11  1  0.84733499  0.51399067  0.23861019  1
  O  O12  1  0.04599664  0.31862360  0.74261644  1
  O  O13  1  0.11905367  0.72547280  0.74842424  1
  O  O14  1  0.25203240  0.07547509  0.05807209  1
  O  O15  1  0.25596276  0.04031472  0.43400566  1
  O  O16  1  0.28918027  0.41670559  0.72964080  1
  O  O17  1  0.37104939  0.69256789  0.22098219  1
  O  O18  1  0.49858559  0.12416515  0.24410709  1
  O  O19  1  0.50141441  0.87583485  0.74410709  1
  O  O20  1  0.62895061  0.30743211  0.72098219  1
  O  O21  1  0.71081973  0.58329441  0.22964080  1
  O  O22  1  0.74403724  0.95968528  0.93400566  1
  O  O23  1  0.74796760  0.92452491  0.55807209  1
  O  O24  1  0.88094633  0.27452720  0.24842424  1
  O  O25  1  0.95400336  0.68137640  0.24261644  1
