# generated using pymatgen
data_LiFeO2
_symmetry_space_group_name_H-M   'P 1'
_cell_length_a   5.14967250
_cell_length_b   5.17913328
_cell_length_c   7.97023912
_cell_angle_alpha   109.06754616
_cell_angle_beta   101.63192752
_cell_angle_gamma   100.16419488
_symmetry_Int_Tables_number   1
_chemical_formula_structural   LiFeO2
_chemical_formula_sum   'Li5 Fe5 O10'
_cell_volume   189.92152185
_cell_formula_units_Z   5
loop_
 _symmetry_equiv_pos_site_id
 _symmetry_equiv_pos_as_xyz
  1  'x, y, z'
loop_
 _atom_site_type_symbol
 _atom_site_label
 _atom_site_symmetry_multiplicity
 _atom_site_fract_x
 _atom_site_fract_y
 _atom_site_fract_z
 _atom_site_occupancy
  Li  Li0  1  0.21674499  0.91506675  0.41373162  1
  Li  Li1  1  0.38944486  0.28951194  0.77699498  1
  Li  Li2  1  0.50000000  0.50000000  0.50000000  1
  Li  Li3  1  0.61055514  0.71048806  0.22300502  1
  Li  Li4  1  0.78325501  0.08493325  0.58626838  1
  Fe  Fe5  1  0.09927724  0.69447844  0.68538225  1
  Fe  Fe6  1  0.00000000  0.50000000  0.00000000  1
  Fe  Fe7  1  0.68944567  0.89147166  0.88921109  1
  Fe  Fe8  1  0.31055433  0.10852834  0.11078891  1
  Fe  Fe9  1  0.90072276  0.30552156  0.31461775  1
  O  O10  1  0.04739844  0.10160572  0.86173328  1
  O  O11  1  0.33655520  0.71146943  0.94427492  1
  O  O12  1  0.13629806  0.31156747  0.54439157  1
  O  O13  1  0.22895329  0.48031939  0.23116476  1
  O  O14  1  0.45183022  0.89838551  0.66524214  1
  O  O15  1  0.54816978  0.10161449  0.33475786  1
  O  O16  1  0.77104671  0.51968061  0.76883524  1
  O  O17  1  0.86370194  0.68843253  0.45560843  1
  O  O18  1  0.66344480  0.28853057  0.05572508  1
  O  O19  1  0.95260156  0.89839428  0.13826672  1
