# generated using pymatgen
data_Li5Fe5(NiO6)2
_symmetry_space_group_name_H-M   'P 1'
_cell_length_a   5.15512857
_cell_length_b   5.15512887
_cell_length_c   9.84090971
_cell_angle_alpha   84.99596171
_cell_angle_beta   95.00403805
_cell_angle_gamma   60.26075925
_symmetry_Int_Tables_number   1
_chemical_formula_structural   Li5Fe5(NiO6)2
_chemical_formula_sum   'Li5 Fe5 Ni2 O12'
_cell_volume   223.62597345
_cell_formula_units_Z   1
loop_
 _symmetry_equiv_pos_site_id
 _symmetry_equiv_pos_as_xyz
  1  'x, y, z'
loop_
 _atom_site_type_symbol
 _atom_site_label
 _atom_site_symmetry_multiplicity
 _atom_site_fract_x
 _atom_site_fract_y
 _atom_site_fract_z
 _atom_site_occupancy
  Li  Li0  1  0.16769160  0.65979573  0.51010444  1
  Li  Li1  1  0.31796675  0.84719307  0.98826143  1
  Li  Li2  1  0.65979573  0.16769160  0.98989556  1
  Li  Li3  1  0.84719307  0.31796675  0.51173857  1
  Li  Li4  1  0.91954986  0.91954986  0.75000000  1
  Fe  Fe5  1  0.08339440  0.08339440  0.25000000  1
  Fe  Fe6  1  0.99504385  0.51553163  0.98685362  1
  Fe  Fe7  1  0.51553163  0.99504385  0.51314638  1
  Fe  Fe8  1  0.42058676  0.42058676  0.25000000  1
  Fe  Fe9  1  0.57621089  0.57621089  0.75000000  1
  Ni  Ni10  1  0.24960552  0.24960552  0.75000000  1
  Ni  Ni11  1  0.75152626  0.75152626  0.25000000  1
  O  O12  1  0.94798139  0.23459865  0.87464210  1
  O  O13  1  0.23459865  0.94798139  0.62535790  1
  O  O14  1  0.14851946  0.35433849  0.37150223  1
  O  O15  1  0.35433849  0.14851946  0.12849777  1
  O  O16  1  0.28634539  0.54006513  0.87328859  1
  O  O17  1  0.54006513  0.28634539  0.62671141  1
  O  O18  1  0.44844884  0.72201415  0.36585303  1
  O  O19  1  0.72201415  0.44844884  0.13414697  1
  O  O20  1  0.62685315  0.85504842  0.87683279  1
  O  O21  1  0.85504842  0.62685315  0.62316721  1
  O  O22  1  0.78057683  0.05111276  0.36872767  1
  O  O23  1  0.05111276  0.78057683  0.13127233  1
