# generated using pymatgen
data_Li2FeAsCO7
_symmetry_space_group_name_H-M   'P 1'
_cell_length_a   8.67304616
_cell_length_b   6.61798256
_cell_length_c   5.13011475
_cell_angle_alpha   90.00000000
_cell_angle_beta   87.39287744
_cell_angle_gamma   90.00000000
_symmetry_Int_Tables_number   1
_chemical_formula_structural   Li2FeAsCO7
_chemical_formula_sum   'Li4 Fe2 As2 C2 O14'
_cell_volume   294.15388890
_cell_formula_units_Z   2
loop_
 _symmetry_equiv_pos_site_id
 _symmetry_equiv_pos_as_xyz
  1  'x, y, z'
loop_
 _atom_site_type_symbol
 _atom_site_label
 _atom_site_symmetry_multiplicity
 _atom_site_fract_x
 _atom_site_fract_y
 _atom_site_fract_z
 _atom_site_occupancy
  Li  Li0  1  0.20939264  0.51078414  0.21120422  1
  Li  Li1  1  0.20939264  0.98921586  0.21120422  1
  Li  Li2  1  0.79060736  0.48921586  0.78879578  1
  Li  Li3  1  0.79060736  0.01078414  0.78879578  1
  Fe  Fe4  1  0.34422407  0.75000000  0.78714398  1
  Fe  Fe5  1  0.65577593  0.25000000  0.21285602  1
  As  As6  1  0.42109066  0.25000000  0.71653715  1
  As  As7  1  0.57890934  0.75000000  0.28346285  1
  C  C8  1  0.05427206  0.75000000  0.73613284  1
  C  C9  1  0.94572794  0.25000000  0.26386716  1
  O  O10  1  0.09037330  0.25000000  0.29360547  1
  O  O11  1  0.11445207  0.75000000  0.96712998  1
  O  O12  1  0.15735798  0.75000000  0.53839567  1
  O  O13  1  0.31690815  0.04610955  0.82553118  1
  O  O14  1  0.31690815  0.45389045  0.82553118  1
  O  O15  1  0.39326315  0.75000000  0.17412524  1
  O  O16  1  0.44475495  0.25000000  0.37921079  1
  O  O17  1  0.55524505  0.75000000  0.62078921  1
  O  O18  1  0.60673685  0.25000000  0.82587476  1
  O  O19  1  0.68309185  0.54610955  0.17446882  1
  O  O20  1  0.68309185  0.95389045  0.17446882  1
  O  O21  1  0.84264202  0.25000000  0.46160433  1
  O  O22  1  0.88554793  0.25000000  0.03287002  1
  O  O23  1  0.90962670  0.75000000  0.70639453  1
