# generated using pymatgen
data_Li2ZnFe(PO4)2
_symmetry_space_group_name_H-M   'P 1'
_cell_length_a   10.32832484
_cell_length_b   6.04614374
_cell_length_c   4.75774972
_cell_angle_alpha   90.00000000
_cell_angle_beta   90.35797387
_cell_angle_gamma   90.00000000
_symmetry_Int_Tables_number   1
_chemical_formula_structural   Li2ZnFe(PO4)2
_chemical_formula_sum   'Li4 Zn2 Fe2 P4 O16'
_cell_volume   297.09919319
_cell_formula_units_Z   2
loop_
 _symmetry_equiv_pos_site_id
 _symmetry_equiv_pos_as_xyz
  1  'x, y, z'
loop_
 _atom_site_type_symbol
 _atom_site_label
 _atom_site_symmetry_multiplicity
 _atom_site_fract_x
 _atom_site_fract_y
 _atom_site_fract_z
 _atom_site_occupancy
  Li  Li0  1  0.00000000  0.00000000  0.00000000  1
  Li  Li1  1  0.00000000  0.50000000  0.00000000  1
  Li  Li2  1  0.50000000  0.00000000  0.50000000  1
  Li  Li3  1  0.50000000  0.50000000  0.50000000  1
  Zn  Zn4  1  0.28169389  0.25000000  0.97806107  1
  Zn  Zn5  1  0.71830611  0.75000000  0.02193893  1
  Fe  Fe6  1  0.22059326  0.75000000  0.47345059  1
  Fe  Fe7  1  0.77940674  0.25000000  0.52654941  1
  P  P8  1  0.09435903  0.25000000  0.41725581  1
  P  P9  1  0.40712444  0.75000000  0.91713459  1
  P  P10  1  0.59287556  0.25000000  0.08286541  1
  P  P11  1  0.90564097  0.75000000  0.58274419  1
  O  O12  1  0.04505174  0.75000000  0.70857247  1
  O  O13  1  0.09781198  0.25000000  0.74127987  1
  O  O14  1  0.16567809  0.04614070  0.28353429  1
  O  O15  1  0.16567809  0.45385930  0.28353429  1
  O  O16  1  0.33602755  0.95493305  0.78291875  1
  O  O17  1  0.33602755  0.54506695  0.78291875  1
  O  O18  1  0.40600693  0.75000000  0.24063152  1
  O  O19  1  0.45335168  0.25000000  0.20796626  1
  O  O20  1  0.54664832  0.75000000  0.79203374  1
  O  O21  1  0.59399307  0.25000000  0.75936848  1
  O  O22  1  0.66397245  0.04506695  0.21708125  1
  O  O23  1  0.66397245  0.45493305  0.21708125  1
  O  O24  1  0.83432191  0.54614070  0.71646571  1
  O  O25  1  0.83432191  0.95385930  0.71646571  1
  O  O26  1  0.90218802  0.75000000  0.25872013  1
  O  O27  1  0.95494826  0.25000000  0.29142753  1
