# generated using pymatgen
data_Mn3FeNi2(PO4)6
_symmetry_space_group_name_H-M   'P 1'
_cell_length_a   8.43798549
_cell_length_b   8.43798540
_cell_length_c   8.43798585
_cell_angle_alpha   60.98977756
_cell_angle_beta   60.98978185
_cell_angle_gamma   60.98977682
_symmetry_Int_Tables_number   1
_chemical_formula_structural   Mn3FeNi2(PO4)6
_chemical_formula_sum   'Mn3 Fe1 Ni2 P6 O24'
_cell_volume   434.28824897
_cell_formula_units_Z   1
loop_
 _symmetry_equiv_pos_site_id
 _symmetry_equiv_pos_as_xyz
  1  'x, y, z'
loop_
 _atom_site_type_symbol
 _atom_site_label
 _atom_site_symmetry_multiplicity
 _atom_site_fract_x
 _atom_site_fract_y
 _atom_site_fract_z
 _atom_site_occupancy
  Mn  Mn0  1  0.14203790  0.14203790  0.14203790  1
  Mn  Mn1  1  0.35866704  0.35866704  0.35866704  1
  Mn  Mn2  1  0.64214085  0.64214085  0.64214085  1
  Fe  Fe3  1  0.85715559  0.85715559  0.85715559  1
  Ni  Ni4  1  0.99925128  0.99925128  0.99925128  1
  Ni  Ni5  1  0.50078972  0.50078972  0.50078972  1
  P  P6  1  0.04418050  0.74935429  0.45417105  1
  P  P7  1  0.45417105  0.04418050  0.74935429  1
  P  P8  1  0.74935429  0.45417105  0.04418050  1
  P  P9  1  0.25042811  0.54237595  0.96026443  1
  P  P10  1  0.54237595  0.96026443  0.25042811  1
  P  P11  1  0.96026443  0.25042811  0.54237595  1
  O  O12  1  0.12042480  0.31673500  0.50287553  1
  O  O13  1  0.31673500  0.50287553  0.12042480  1
  O  O14  1  0.06202566  0.90883439  0.25285646  1
  O  O15  1  0.50287553  0.12042480  0.31673500  1
  O  O16  1  0.00989716  0.81283729  0.61161000  1
  O  O17  1  0.24547595  0.58466587  0.44077775  1
  O  O18  1  0.25285646  0.06202566  0.90883439  1
  O  O19  1  0.44077775  0.24547595  0.58466587  1
  O  O20  1  0.18620882  0.38501927  0.99264775  1
  O  O21  1  0.58466587  0.44077775  0.24547595  1
  O  O22  1  0.09240994  0.74222469  0.94423698  1
  O  O23  1  0.38501927  0.99264775  0.18620882  1
  O  O24  1  0.61161000  0.00989716  0.81283729  1
  O  O25  1  0.90883439  0.25285646  0.06202566  1
  O  O26  1  0.41412113  0.55317142  0.76042512  1
  O  O27  1  0.81283729  0.61161000  0.00989716  1
  O  O28  1  0.55317142  0.76042512  0.41412113  1
  O  O29  1  0.74222469  0.94423698  0.09240994  1
  O  O30  1  0.76042512  0.41412113  0.55317142  1
  O  O31  1  0.99264775  0.18620882  0.38501927  1
  O  O32  1  0.48755900  0.88576226  0.68637902  1
  O  O33  1  0.94423698  0.09240994  0.74222469  1
  O  O34  1  0.68637902  0.48755900  0.88576226  1
  O  O35  1  0.88576226  0.68637902  0.48755900  1
