# generated using pymatgen
data_Li3MgV8O16
_symmetry_space_group_name_H-M   'P 1'
_cell_length_a   5.99800598
_cell_length_b   5.99800598
_cell_length_c   12.10472732
_cell_angle_alpha   59.48026869
_cell_angle_beta   59.48026869
_cell_angle_gamma   60.40453888
_symmetry_Int_Tables_number   1
_chemical_formula_structural   Li3MgV8O16
_chemical_formula_sum   'Li3 Mg1 V8 O16'
_cell_volume   306.39788888
_cell_formula_units_Z   1
loop_
 _symmetry_equiv_pos_site_id
 _symmetry_equiv_pos_as_xyz
  1  'x, y, z'
loop_
 _atom_site_type_symbol
 _atom_site_label
 _atom_site_symmetry_multiplicity
 _atom_site_fract_x
 _atom_site_fract_y
 _atom_site_fract_z
 _atom_site_occupancy
  Li  Li0  1  0.99929011  0.99929011  0.00129303  1
  Li  Li1  1  0.24933850  0.24933850  0.12236392  1
  Li  Li2  1  0.24631195  0.24631195  0.62901758  1
  Mg  Mg3  1  0.62222156  0.62222156  0.56349408  1
  V  V4  1  0.63130255  0.13137112  0.30734654  1
  V  V5  1  0.62222506  0.62222506  0.06644832  1
  V  V6  1  0.00255543  0.00255543  0.49669953  1
  V  V7  1  0.62676786  0.62676786  0.31070240  1
  V  V8  1  0.13137112  0.63130255  0.30734654  1
  V  V9  1  0.61805490  0.13212907  0.81449125  1
  V  V10  1  0.13212907  0.61805490  0.81449125  1
  V  V11  1  0.62171989  0.62171989  0.81491034  1
  O  O12  1  0.84391286  0.39929382  0.18514034  1
  O  O13  1  0.39869186  0.39869186  0.17817474  1
  O  O14  1  0.38637739  0.38637739  0.41736615  1
  O  O15  1  0.39929382  0.84391286  0.18514034  1
  O  O16  1  0.86690330  0.86690330  0.20459100  1
  O  O17  1  0.86982683  0.39772494  0.43322674  1
  O  O18  1  0.39772494  0.86982683  0.43322674  1
  O  O19  1  0.86890861  0.86890861  0.43338751  1
  O  O20  1  0.37323243  0.37323243  0.70766353  1
  O  O21  1  0.83258613  0.36523281  0.70654420  1
  O  O22  1  0.37542423  0.37542423  0.92262174  1
  O  O23  1  0.36523281  0.83258613  0.70654420  1
  O  O24  1  0.86937357  0.41889584  0.92785461  1
  O  O25  1  0.87389161  0.87389161  0.69894715  1
  O  O26  1  0.41889584  0.86937357  0.92785461  1
  O  O27  1  0.85643977  0.85643977  0.93311462  1
