# generated using pymatgen
data_Sm2(WO4)3
_symmetry_space_group_name_H-M   'P 1'
_cell_length_a   7.04424859
_cell_length_b   7.04424859
_cell_length_c   11.60357723
_cell_angle_alpha   79.19244612
_cell_angle_beta   100.80755388
_cell_angle_gamma   67.76264817
_symmetry_Int_Tables_number   1
_chemical_formula_structural   Sm2(WO4)3
_chemical_formula_sum   'Sm4 W6 O24'
_cell_volume   501.90819199
_cell_formula_units_Z   2
loop_
 _symmetry_equiv_pos_site_id
 _symmetry_equiv_pos_as_xyz
  1  'x, y, z'
loop_
 _atom_site_type_symbol
 _atom_site_label
 _atom_site_symmetry_multiplicity
 _atom_site_fract_x
 _atom_site_fract_y
 _atom_site_fract_z
 _atom_site_occupancy
  Sm  Sm0  1  0.30634345  0.94779663  0.59485026  1
  Sm  Sm1  1  0.05220337  0.69365655  0.09485026  1
  Sm  Sm2  1  0.94779663  0.30634345  0.90514974  1
  Sm  Sm3  1  0.69365655  0.05220337  0.40514974  1
  W  W4  1  0.49157094  0.79764947  0.95233539  1
  W  W5  1  0.20235053  0.50842906  0.45233539  1
  W  W6  1  0.88185978  0.88185978  0.75000000  1
  W  W7  1  0.11814022  0.11814022  0.25000000  1
  W  W8  1  0.79764947  0.49157094  0.54766461  1
  W  W9  1  0.50842906  0.20235053  0.04766461  1
  O  O10  1  0.35182059  0.79515419  0.80344971  1
  O  O11  1  0.59617930  0.98780223  0.72022767  1
  O  O12  1  0.97314073  0.94735273  0.89088669  1
  O  O13  1  0.32611927  0.60551039  0.56103604  1
  O  O14  1  0.77667034  0.62341215  0.96228361  1
  O  O15  1  0.10082988  0.32550958  0.57612739  1
  O  O16  1  0.20484581  0.64817941  0.30344971  1
  O  O17  1  0.32550958  0.10082988  0.92387261  1
  O  O18  1  0.62341215  0.77667034  0.53771639  1
  O  O19  1  0.60551039  0.32611927  0.93896396  1
  O  O20  1  0.94735273  0.97314073  0.60911331  1
  O  O21  1  0.01219777  0.40382070  0.22022767  1
  O  O22  1  0.98780223  0.59617930  0.77977233  1
  O  O23  1  0.05264727  0.02685927  0.39088669  1
  O  O24  1  0.39448961  0.67388073  0.06103604  1
  O  O25  1  0.37658785  0.22332966  0.46228361  1
  O  O26  1  0.67449042  0.89917012  0.07612739  1
  O  O27  1  0.79515419  0.35182059  0.69655029  1
  O  O28  1  0.89917012  0.67449042  0.42387261  1
  O  O29  1  0.22332966  0.37658785  0.03771639  1
  O  O30  1  0.67388073  0.39448961  0.43896396  1
  O  O31  1  0.02685927  0.05264727  0.10911331  1
  O  O32  1  0.40382070  0.01219777  0.27977233  1
  O  O33  1  0.64817941  0.20484581  0.19655029  1
