# generated using pymatgen
data_Li6V3P8O29
_symmetry_space_group_name_H-M   'P 1'
_cell_length_a   9.82479658
_cell_length_b   9.79772912
_cell_length_c   13.97464680
_cell_angle_alpha   89.68375231
_cell_angle_beta   89.73213971
_cell_angle_gamma   59.74612280
_symmetry_Int_Tables_number   1
_chemical_formula_structural   Li6V3P8O29
_chemical_formula_sum   'Li12 V6 P16 O58'
_cell_volume   1161.97313156
_cell_formula_units_Z   2
loop_
 _symmetry_equiv_pos_site_id
 _symmetry_equiv_pos_as_xyz
  1  'x, y, z'
loop_
 _atom_site_type_symbol
 _atom_site_label
 _atom_site_symmetry_multiplicity
 _atom_site_fract_x
 _atom_site_fract_y
 _atom_site_fract_z
 _atom_site_occupancy
  Li  Li0  1  0.90798029  0.76159103  0.06477508  1
  Li  Li1  1  0.76007579  0.90049761  0.56195784  1
  Li  Li2  1  0.90207624  0.33258266  0.55882920  1
  Li  Li3  1  0.66382325  0.67454079  0.88576523  1
  Li  Li4  1  0.76619355  0.32421502  0.06098019  1
  Li  Li5  1  0.32715988  0.90567022  0.06069648  1
  Li  Li6  1  0.66445147  0.23352237  0.44016549  1
  Li  Li7  1  0.33639792  0.75805763  0.56183687  1
  Li  Li8  1  0.23552855  0.09905744  0.43897105  1
  Li  Li9  1  0.09967060  0.23509693  0.94010718  1
  Li  Li10  1  0.98922003  0.96423201  0.99565728  1
  Li  Li11  1  0.01504717  0.94874254  0.49420612  1
  V  V12  1  0.56356157  0.43658098  0.24959613  1
  V  V13  1  0.43384928  0.56169695  0.75396527  1
  V  V14  1  0.56294188  0.00365461  0.75152621  1
  V  V15  1  0.43614546  0.00105003  0.24698690  1
  V  V16  1  0.00319126  0.56664626  0.25245983  1
  V  V17  1  0.00036420  0.43873509  0.74525093  1
  P  P18  1  0.90838285  0.77626680  0.84666944  1
  P  P19  1  0.77142403  0.91366451  0.34347576  1
  P  P20  1  0.91228175  0.31378305  0.34155054  1
  P  P21  1  0.66991337  0.66515714  0.12747589  1
  P  P22  1  0.66130609  0.66876364  0.62956067  1
  P  P23  1  0.77924249  0.31455018  0.84234895  1
  P  P24  1  0.69045202  0.22587276  0.65787491  1
  P  P25  1  0.31390756  0.90992668  0.84210503  1
  P  P26  1  0.69402360  0.08529721  0.15827752  1
  P  P27  1  0.31252008  0.77502201  0.34473718  1
  P  P28  1  0.22157021  0.69594580  0.15937635  1
  P  P29  1  0.33337469  0.33179856  0.36816925  1
  P  P30  1  0.33148482  0.33099826  0.87090392  1
  P  P31  1  0.08268927  0.69860014  0.66102952  1
  P  P32  1  0.22775305  0.08637904  0.65637454  1
  P  P33  1  0.08598849  0.22946755  0.15751228  1
  O  O34  1  0.98694232  0.80387580  0.58001893  1
  O  O35  1  0.91153183  0.74445667  0.33732905  1
  O  O36  1  0.80191928  0.99339989  0.07769635  1
  O  O37  1  0.74154851  0.91740544  0.83779781  1
  O  O38  1  0.89706438  0.62496255  0.83113614  1
  O  O39  1  0.81308952  0.67652672  0.16552874  1
  O  O40  1  0.90694709  0.47105145  0.32856757  1
  O  O41  1  0.00061589  0.22808217  0.06803686  1
  O  O42  1  0.92416878  0.33890235  0.83624667  1
  O  O43  1  0.67093607  0.81278671  0.67137262  1
  O  O44  1  0.61552366  0.91530859  0.33000122  1
  O  O45  1  0.80911939  0.51249115  0.66770313  1
  O  O46  1  0.67067949  0.66262762  0.01915831  1
  O  O47  1  0.65682102  0.67252374  0.52263576  1
  O  O48  1  0.68021704  0.51074105  0.16799909  1
  O  O49  1  0.47869267  0.89488662  0.83042139  1
  O  O50  1  0.51339985  0.81050814  0.16499919  1
  O  O51  1  0.74504126  0.33486965  0.34096612  1
  O  O52  1  0.79649388  0.20672253  0.75144716  1
  O  O53  1  0.77995507  0.22362347  0.56851364  1
  O  O54  1  0.78675235  0.23006254  0.93330691  1
  O  O55  1  0.62896918  0.48004030  0.83043528  1
  O  O56  1  0.50984547  0.67502387  0.67304467  1
  O  O57  1  0.65976265  0.25844443  0.15886293  1
  O  O58  1  0.46898857  0.61764329  0.33050596  1
  O  O59  1  0.34028929  0.91757560  0.33645603  1
  O  O60  1  0.79003338  0.01186739  0.25732141  1
  O  O61  1  0.77709800  0.99389896  0.43503418  1
  O  O62  1  0.22449167  0.99768565  0.56871767  1
  O  O63  1  0.66756912  0.08193926  0.65868567  1
  O  O64  1  0.53466469  0.38182681  0.66919878  1
  O  O65  1  0.33657380  0.74449090  0.84125560  1
  O  O66  1  0.49001680  0.32093063  0.32907992  1
  O  O67  1  0.38017603  0.54170038  0.16817216  1
  O  O68  1  0.20552724  0.80372050  0.07782880  1
  O  O69  1  0.22928835  0.78704827  0.43747568  1
  O  O70  1  0.19844570  0.79277410  0.25841915  1
  O  O71  1  0.25375561  0.66186405  0.65802365  1
  O  O72  1  0.47730937  0.18407438  0.82293254  1
  O  O73  1  0.54031309  0.08130638  0.16621238  1
  O  O74  1  0.33750164  0.47587984  0.82523210  1
  O  O75  1  0.33357314  0.32499630  0.97680026  1
  O  O76  1  0.33546261  0.32296611  0.47498316  1
  O  O77  1  0.19319233  0.48356830  0.32347640  1
  O  O78  1  0.38164671  0.08763278  0.66672261  1
  O  O79  1  0.32310658  0.18760451  0.32559709  1
  O  O80  1  0.08238815  0.66441545  0.15983631  1
  O  O81  1  0.01139427  0.78868574  0.76051491  1
  O  O82  1  0.98562636  0.77916604  0.93832050  1
  O  O83  1  0.07550884  0.54353715  0.66838035  1
  O  O84  1  0.18354770  0.33212713  0.82847644  1
  O  O85  1  0.08580317  0.38430951  0.17093318  1
  O  O86  1  0.25605355  0.08554903  0.15742385  1
  O  O87  1  0.22831889  0.00232497  0.93065928  1
  O  O88  1  0.20592527  0.00247752  0.75054897  1
  O  O89  1  0.08206974  0.25534507  0.65607938  1
  O  O90  1  0.00027211  0.22350178  0.43052023  1
  O  O91  1  0.00043378  0.20375629  0.24929879  1
