# generated using pymatgen
data_Li6V3P8O29
_symmetry_space_group_name_H-M   'P 1'
_cell_length_a   9.80540057
_cell_length_b   9.80002832
_cell_length_c   13.99803382
_cell_angle_alpha   89.92200722
_cell_angle_beta   90.58506535
_cell_angle_gamma   60.10561852
_symmetry_Int_Tables_number   1
_chemical_formula_structural   Li6V3P8O29
_chemical_formula_sum   'Li12 V6 P16 O58'
_cell_volume   1166.04927722
_cell_formula_units_Z   2
loop_
 _symmetry_equiv_pos_site_id
 _symmetry_equiv_pos_as_xyz
  1  'x, y, z'
loop_
 _atom_site_type_symbol
 _atom_site_label
 _atom_site_symmetry_multiplicity
 _atom_site_fract_x
 _atom_site_fract_y
 _atom_site_fract_z
 _atom_site_occupancy
  Li  Li0  1  0.68294957  0.66207583  0.39233408  1
  Li  Li1  1  0.76505629  0.33135953  0.05816153  1
  Li  Li2  1  0.33183208  0.90298244  0.05835816  1
  Li  Li3  1  0.66386048  0.23714061  0.44351123  1
  Li  Li4  1  0.32561200  0.76980261  0.56571960  1
  Li  Li5  1  0.66165026  0.09625061  0.93449723  1
  Li  Li6  1  0.23718342  0.65906217  0.93796310  1
  Li  Li7  1  0.09605422  0.66962548  0.44135466  1
  Li  Li8  1  0.23005417  0.10128325  0.44660887  1
  Li  Li9  1  0.09982777  0.23718661  0.93594632  1
  Li  Li10  1  0.98217857  0.96785870  0.99828300  1
  Li  Li11  1  0.95788181  0.02486618  0.51333532  1
  V  V12  1  0.56464514  0.43405988  0.25071784  1
  V  V13  1  0.43503065  0.56404322  0.75243171  1
  V  V14  1  0.56702618  0.99799741  0.74852339  1
  V  V15  1  0.43595915  0.00290924  0.24913426  1
  V  V16  1  0.99915668  0.56474613  0.24732976  1
  V  V17  1  0.99728674  0.44020326  0.74562547  1
  P  P18  1  0.91800329  0.77797144  0.83875321  1
  P  P19  1  0.78178868  0.91380782  0.34003694  1
  P  P20  1  0.91385726  0.30666741  0.34140207  1
  P  P21  1  0.66472574  0.66426101  0.12991300  1
  P  P22  1  0.66291085  0.66975577  0.63172789  1
  P  P23  1  0.77704240  0.31130774  0.84127278  1
  P  P24  1  0.68409775  0.22595807  0.65855077  1
  P  P25  1  0.31527582  0.91246074  0.84243183  1
  P  P26  1  0.68890467  0.08494756  0.15315261  1
  P  P27  1  0.32045966  0.77410541  0.34240011  1
  P  P28  1  0.22542159  0.68899412  0.15857584  1
  P  P29  1  0.33099484  0.33468235  0.37154690  1
  P  P30  1  0.33344396  0.33127444  0.86936656  1
  P  P31  1  0.08584219  0.69018493  0.65477142  1
  P  P32  1  0.22236374  0.08926998  0.65905325  1
  P  P33  1  0.08394652  0.22902698  0.15540801  1
  O  O34  1  0.01608617  0.77522751  0.56207030  1
  O  O35  1  0.92281162  0.74456151  0.34336963  1
  O  O36  1  0.76756307  0.01344993  0.06110215  1
  O  O37  1  0.74724790  0.91609131  0.84117051  1
  O  O38  1  0.92627027  0.61792717  0.83258165  1
  O  O39  1  0.80991197  0.66622215  0.17926804  1
  O  O40  1  0.90367233  0.46971090  0.33444146  1
  O  O41  1  -0.00010594  0.23036326  0.06427403  1
  O  O42  1  0.91850385  0.33720908  0.84235638  1
  O  O43  1  0.67152114  0.81002038  0.67527385  1
  O  O44  1  0.63008625  0.90056427  0.32969762  1
  O  O45  1  0.81052896  0.51959463  0.67594267  1
  O  O46  1  0.66525141  0.66169850  0.02396693  1
  O  O47  1  0.66073036  0.66915301  0.52429606  1
  O  O48  1  0.67482290  0.50841337  0.17070201  1
  O  O49  1  0.46998371  0.91308271  0.82979434  1
  O  O50  1  0.51179042  0.81139283  0.16992953  1
  O  O51  1  0.74230461  0.33613480  0.34224335  1
  O  O52  1  0.79682513  0.20598046  0.74910579  1
  O  O53  1  0.77114013  0.21173918  0.56806711  1
  O  O54  1  0.77516010  0.22297170  0.92996231  1
  O  O55  1  0.62062844  0.46872679  0.82821650  1
  O  O56  1  0.51084595  0.67509359  0.66951390  1
  O  O57  1  0.66182531  0.25382892  0.16160311  1
  O  O58  1  0.48545530  0.62789830  0.32813941  1
  O  O59  1  0.34081583  0.92140384  0.34278727  1
  O  O60  1  0.80217305  0.98620933  0.24038021  1
  O  O61  1  0.78523146  0.01334751  0.41958965  1
  O  O62  1  0.21763377  0.00153899  0.57052157  1
  O  O63  1  0.65384292  0.08678254  0.66799043  1
  O  O64  1  0.53153322  0.38308924  0.66960017  1
  O  O65  1  0.34243218  0.74252878  0.84438467  1
  O  O66  1  0.48282613  0.33060799  0.33147025  1
  O  O67  1  0.38409182  0.53414901  0.17198758  1
  O  O68  1  0.22310187  0.77696711  0.06925173  1
  O  O69  1  0.23877899  0.76512206  0.43059163  1
  O  O70  1  0.21185128  0.79637306  0.25029790  1
  O  O71  1  0.25620278  0.66413701  0.66536134  1
  O  O72  1  0.48778971  0.18720630  0.83147927  1
  O  O73  1  0.53254231  0.08356443  0.17006614  1
  O  O74  1  0.32389031  0.48776438  0.83041147  1
  O  O75  1  0.33272065  0.33284505  0.97630279  1
  O  O76  1  0.32871774  0.33913042  0.47773322  1
  O  O77  1  0.18343146  0.48522088  0.32781472  1
  O  O78  1  0.37878132  0.08632550  0.67043236  1
  O  O79  1  0.32671462  0.18713763  0.33071855  1
  O  O80  1  0.08691183  0.66060282  0.16241285  1
  O  O81  1  0.98926599  0.80420247  0.74052383  1
  O  O82  1  0.01301936  0.79279148  0.91927844  1
  O  O83  1  0.09129524  0.53192589  0.66728691  1
  O  O84  1  0.18775331  0.32456663  0.82680934  1
  O  O85  1  0.09306606  0.37934474  0.17025061  1
  O  O86  1  0.24984168  0.08017399  0.16058871  1
  O  O87  1  0.22777794  0.99951083  0.93131900  1
  O  O88  1  0.20514896  0.99585162  0.75055531  1
  O  O89  1  0.08276378  0.25581177  0.66193042  1
  O  O90  1  0.00822661  0.20151661  0.42230264  1
  O  O91  1  0.98598328  0.21376390  0.24243464  1
