# generated using pymatgen
data_TiP6(WO8)3
_symmetry_space_group_name_H-M   'P 1'
_cell_length_a   8.92540109
_cell_length_b   8.92540134
_cell_length_c   8.92540119
_cell_angle_alpha   58.92197791
_cell_angle_beta   58.92197842
_cell_angle_gamma   58.92197859
_symmetry_Int_Tables_number   1
_chemical_formula_structural   TiP6(WO8)3
_chemical_formula_sum   'Ti1 P6 W3 O24'
_cell_volume   490.39992341
_cell_formula_units_Z   1
loop_
 _symmetry_equiv_pos_site_id
 _symmetry_equiv_pos_as_xyz
  1  'x, y, z'
loop_
 _atom_site_type_symbol
 _atom_site_label
 _atom_site_symmetry_multiplicity
 _atom_site_fract_x
 _atom_site_fract_y
 _atom_site_fract_z
 _atom_site_occupancy
  Ti  Ti0  1  0.85895398  0.85895398  0.85895398  1
  P  P1  1  0.03426632  0.75062781  0.46933444  1
  P  P2  1  0.46933444  0.03426632  0.75062781  1
  P  P3  1  0.75062781  0.46933444  0.03426632  1
  P  P4  1  0.24599209  0.54102437  0.96269644  1
  P  P5  1  0.54102437  0.96269644  0.24599209  1
  P  P6  1  0.96269644  0.24599209  0.54102437  1
  W  W7  1  0.14246917  0.14246917  0.14246917  1
  W  W8  1  0.35769545  0.35769545  0.35769545  1
  W  W9  1  0.64270551  0.64270551  0.64270551  1
  O  O10  1  0.12922641  0.27883689  0.51172191  1
  O  O11  1  0.27883689  0.51172191  0.12922641  1
  O  O12  1  0.06003555  0.92146124  0.28887664  1
  O  O13  1  0.51172191  0.12922641  0.27883689  1
  O  O14  1  0.20987729  0.58258942  0.44073344  1
  O  O15  1  0.99936429  0.78176568  0.63859699  1
  O  O16  1  0.28887664  0.06003555  0.92146124  1
  O  O17  1  0.44073344  0.20987729  0.58258942  1
  O  O18  1  0.58258942  0.44073344  0.20987729  1
  O  O19  1  0.22006693  0.36805869  0.99022861  1
  O  O20  1  0.07547255  0.71394090  0.93557747  1
  O  O21  1  0.36805869  0.99022861  0.22006693  1
  O  O22  1  0.63859699  0.99936429  0.78176568  1
  O  O23  1  0.92146124  0.28887664  0.06003555  1
  O  O24  1  0.78176568  0.63859699  0.99936429  1
  O  O25  1  0.41976777  0.56422327  0.78642095  1
  O  O26  1  0.56422327  0.78642095  0.41976777  1
  O  O27  1  0.71394090  0.93557747  0.07547255  1
  O  O28  1  0.99022861  0.22006693  0.36805869  1
  O  O29  1  0.78642095  0.41976777  0.56422327  1
  O  O30  1  0.49110265  0.86637414  0.71991671  1
  O  O31  1  0.93557747  0.07547255  0.71394090  1
  O  O32  1  0.71991671  0.49110265  0.86637414  1
  O  O33  1  0.86637414  0.71991671  0.49110265  1
