# generated using pymatgen
data_BaTi14O28
_symmetry_space_group_name_H-M   'P 1'
_cell_length_a   10.43621147
_cell_length_b   8.48568507
_cell_length_c   13.51711885
_cell_angle_alpha   84.82285974
_cell_angle_beta   83.80946599
_cell_angle_gamma   111.25803370
_symmetry_Int_Tables_number   1
_chemical_formula_structural   BaTi14O28
_chemical_formula_sum   'Ba2 Ti28 O56'
_cell_volume   1098.23935077
_cell_formula_units_Z   2
loop_
 _symmetry_equiv_pos_site_id
 _symmetry_equiv_pos_as_xyz
  1  'x, y, z'
loop_
 _atom_site_type_symbol
 _atom_site_label
 _atom_site_symmetry_multiplicity
 _atom_site_fract_x
 _atom_site_fract_y
 _atom_site_fract_z
 _atom_site_occupancy
  Ba  Ba0  1  0.42650897  0.57372866  0.42700661  1
  Ba  Ba1  1  0.85531993  0.14444341  0.85465089  1
  Ti  Ti2  1  0.87508207  0.82954500  0.35170844  1
  Ti  Ti3  1  0.73661494  0.97544544  0.20673714  1
  Ti  Ti4  1  0.78994960  0.86843339  0.60881610  1
  Ti  Ti5  1  0.93382089  0.73027274  0.75301935  1
  Ti  Ti6  1  0.92344823  0.41172356  0.10364023  1
  Ti  Ti7  1  0.63068029  0.68705134  0.81756576  1
  Ti  Ti8  1  0.49544344  0.84551241  0.67681198  1
  Ti  Ti9  1  0.77951344  0.55578498  0.96040764  1
  Ti  Ti10  1  0.35208585  0.98467348  0.53276942  1
  Ti  Ti11  1  0.70083235  0.59694306  0.21548591  1
  Ti  Ti12  1  0.54907105  0.73889583  0.07888722  1
  Ti  Ti13  1  0.98129902  0.31228980  0.50609861  1
  Ti  Ti14  1  0.83827378  0.45552556  0.36391700  1
  Ti  Ti15  1  0.41034624  0.88458704  0.93402979  1
  Ti  Ti16  1  0.58505458  0.11730076  0.07041880  1
  Ti  Ti17  1  0.44736057  0.25895131  0.92172863  1
  Ti  Ti18  1  0.30434536  0.40163392  0.77939655  1
  Ti  Ti19  1  0.01988891  0.68503179  0.49414628  1
  Ti  Ti20  1  0.15777516  0.54563797  0.64340374  1
  Ti  Ti21  1  0.65502330  0.02713322  0.46817384  1
  Ti  Ti22  1  0.36249163  0.30235501  0.18189493  1
  Ti  Ti23  1  0.50641739  0.15922696  0.32533319  1
  Ti  Ti24  1  0.21868949  0.44152879  0.03773544  1
  Ti  Ti25  1  0.08215817  0.60047345  0.89869778  1
  Ti  Ti26  1  0.06683689  0.27256434  0.24792593  1
  Ti  Ti27  1  0.20341581  0.11334796  0.38704390  1
  Ti  Ti28  1  0.12807801  0.16899927  0.64220876  1
  Ti  Ti29  1  0.26579399  0.02939767  0.79177739  1
  O  O30  1  0.96184258  0.95978411  0.67760865  1
  O  O31  1  0.70745112  0.97759795  0.06606185  1
  O  O32  1  0.98737427  0.68991620  0.35342399  1
  O  O33  1  0.84614186  0.83246640  0.21061377  1
  O  O34  1  0.88447711  0.80496765  0.49997578  1
  O  O35  1  0.73562810  0.94267738  0.35753354  1
  O  O36  1  0.95779155  0.62227956  0.01289519  1
  O  O37  1  0.81625054  0.77024637  0.87037407  1
  O  O38  1  0.67325934  0.91208907  0.72907910  1
  O  O39  1  0.46932611  0.94386935  0.41519421  1
  O  O40  1  0.89796099  0.51647229  0.84322052  1
  O  O41  1  0.75550785  0.66262438  0.70132284  1
  O  O42  1  0.61241667  0.80242169  0.55665595  1
  O  O43  1  0.97323260  0.33889062  0.35762406  1
  O  O44  1  0.83144189  0.48199451  0.21437876  1
  O  O45  1  0.68915516  0.62499882  0.07144712  1
  O  O46  1  0.57785272  0.73667950  0.21979867  1
  O  O47  1  0.86850499  0.45363547  0.50456101  1
  O  O48  1  0.71885019  0.59557859  0.36233804  1
  O  O49  1  0.43939908  0.88185108  0.07501817  1
  O  O50  1  0.55006697  0.77169496  0.92814449  1
  O  O51  1  0.40120476  0.90947977  0.78569426  1
  O  O52  1  0.75221252  0.32478878  0.03533324  1
  O  O53  1  0.89300066  0.18581128  0.18278934  1
  O  O54  1  0.46389159  0.61532959  0.75174285  1
  O  O55  1  0.18054707  0.89803023  0.46692342  1
  O  O56  1  0.60900278  0.46982075  0.89496733  1
  O  O57  1  0.32374110  0.75470817  0.60804229  1
  O  O58  1  0.53338134  0.38981092  0.25031494  1
  O  O59  1  0.82191530  0.09906209  0.53389794  1
  O  O60  1  0.67664562  0.24462119  0.39081329  1
  O  O61  1  0.39263172  0.52850769  0.10286961  1
  O  O62  1  0.25051357  0.67070302  0.96174480  1
  O  O63  1  0.10525715  0.81623144  0.81874617  1
  O  O64  1  0.59658594  0.08948419  0.21418623  1
  O  O65  1  0.45411011  0.23225070  0.07126010  1
  O  O66  1  0.56688559  0.11891283  0.92315750  1
  O  O67  1  0.27772064  0.40557355  0.63453223  1
  O  O68  1  0.41722562  0.26064871  0.78118545  1
  O  O69  1  0.13748600  0.54616122  0.49509393  1
  O  O70  1  0.02419369  0.66192109  0.64160961  1
  O  O71  1  0.16346461  0.51265808  0.78743815  1
  O  O72  1  0.31242243  0.37535017  0.92806005  1
  O  O73  1  0.38770987  0.19776871  0.44237970  1
  O  O74  1  0.24567269  0.34156860  0.30115333  1
  O  O75  1  0.53004313  0.05162833  0.58437062  1
  O  O76  1  0.09884734  0.47792094  0.15497673  1
  O  O77  1  0.18683388  0.23625320  0.13068694  1
  O  O78  1  0.32779827  0.09209929  0.27274150  1
  O  O79  1  0.04006072  0.37308337  0.98449767  1
  O  O80  1  0.26141689  0.05242468  0.64406734  1
  O  O81  1  0.12214101  0.20165621  0.49826204  1
  O  O82  1  0.00762555  0.30866017  0.65107503  1
  O  O83  1  0.14850006  0.16831222  0.79034593  1
  O  O84  1  0.29828309  0.02434627  0.93223512  1
  O  O85  1  0.03519165  0.04352553  0.32381432  1
