# generated using pymatgen
data_Li9Mn2Co5O16
_symmetry_space_group_name_H-M   'P 1'
_cell_length_a   2.89138867
_cell_length_b   19.50933734
_cell_length_c   5.16393166
_cell_angle_alpha   98.62933225
_cell_angle_beta   90.00000000
_cell_angle_gamma   90.00000000
_symmetry_Int_Tables_number   1
_chemical_formula_structural   Li9Mn2Co5O16
_chemical_formula_sum   'Li9 Mn2 Co5 O16'
_cell_volume   287.99509774
_cell_formula_units_Z   1
loop_
 _symmetry_equiv_pos_site_id
 _symmetry_equiv_pos_as_xyz
  1  'x, y, z'
loop_
 _atom_site_type_symbol
 _atom_site_label
 _atom_site_symmetry_multiplicity
 _atom_site_fract_x
 _atom_site_fract_y
 _atom_site_fract_z
 _atom_site_occupancy
  Li  Li0  1  0.50000000  0.99347822  0.50325586  1
  Li  Li1  1  0.00000000  0.12514100  0.74189964  1
  Li  Li2  1  0.50000000  0.25038392  0.99600292  1
  Li  Li3  1  0.00000000  0.37408767  0.25298915  1
  Li  Li4  1  0.50000000  0.50293557  0.50551322  1
  Li  Li5  1  0.00000000  0.87544741  0.26554856  1
  Li  Li6  1  0.50000000  0.74982314  0.99794001  1
  Li  Li7  1  0.00000000  0.62779398  0.75285620  1
  Li  Li8  1  0.50000000  0.87424428  0.73544442  1
  Mn  Mn9  1  0.00000000  0.99505629  0.97904743  1
  Mn  Mn10  1  0.50000000  0.37678549  0.74805906  1
  Co  Co11  1  0.50000000  0.12286394  0.24321340  1
  Co  Co12  1  0.00000000  0.24841823  0.49364739  1
  Co  Co13  1  0.00000000  0.50325767  0.01736410  1
  Co  Co14  1  0.50000000  0.62747139  0.27366540  1
  Co  Co15  1  0.00000000  0.75599841  0.50999608  1
  O  O16  1  0.50000000  0.94379340  0.11542133  1
  O  O17  1  -0.00000000  0.06382095  0.32863536  1
  O  O18  1  0.50000000  0.18975030  0.61703856  1
  O  O19  1  0.00000000  0.31694983  0.85338920  1
  O  O20  1  0.50000000  0.44672760  0.12066086  1
  O  O21  1  0.00000000  0.80323382  0.81906415  1
  O  O22  1  0.50000000  0.68927013  0.61789780  1
  O  O23  1  -0.00000000  0.56811203  0.37959744  1
  O  O24  1  0.50000000  0.05503914  0.87742190  1
  O  O25  1  -0.00000000  0.18105364  0.14739677  1
  O  O26  1  0.50000000  0.30584366  0.36944549  1
  O  O27  1  0.00000000  0.43425014  0.63610399  1
  O  O28  1  0.50000000  0.55975442  0.91009894  1
  O  O29  1  0.00000000  0.94175456  0.65566507  1
  O  O30  1  0.50000000  0.80842523  0.36539827  1
  O  O31  1  0.00000000  0.68903455  0.17032202  1
