# generated using pymatgen
data_Li6V3P8O29
_symmetry_space_group_name_H-M   'P 1'
_cell_length_a   9.79717405
_cell_length_b   9.78630639
_cell_length_c   13.98649284
_cell_angle_alpha   90.65318940
_cell_angle_beta   90.21648777
_cell_angle_gamma   60.14256053
_symmetry_Int_Tables_number   1
_chemical_formula_structural   Li6V3P8O29
_chemical_formula_sum   'Li12 V6 P16 O58'
_cell_volume   1162.92556373
_cell_formula_units_Z   2
loop_
 _symmetry_equiv_pos_site_id
 _symmetry_equiv_pos_as_xyz
  1  'x, y, z'
loop_
 _atom_site_type_symbol
 _atom_site_label
 _atom_site_symmetry_multiplicity
 _atom_site_fract_x
 _atom_site_fract_y
 _atom_site_fract_z
 _atom_site_occupancy
  Li  Li0  1  0.90996952  0.77047551  0.05670937  1
  Li  Li1  1  0.90298806  0.33388650  0.56463019  1
  Li  Li2  1  0.66860437  0.67120470  0.88543532  1
  Li  Li3  1  0.76044557  0.32926643  0.06094352  1
  Li  Li4  1  0.31608564  0.91704625  0.05877423  1
  Li  Li5  1  0.66602542  0.23237576  0.44352049  1
  Li  Li6  1  0.33305446  0.76106086  0.56245244  1
  Li  Li7  1  0.23366173  0.66725106  0.93882432  1
  Li  Li8  1  0.09436862  0.66647430  0.44002700  1
  Li  Li9  1  0.23186473  0.09369267  0.44534272  1
  Li  Li10  1  0.97026965  0.04752497  0.98568530  1
  Li  Li11  1  0.95640133  0.98703258  0.51630234  1
  V  V12  1  0.56681190  0.43211944  0.25096681  1
  V  V13  1  0.43969414  0.55975436  0.75017417  1
  V  V14  1  0.56433033  -0.00003671  0.75007028  1
  V  V15  1  0.44185651  0.00111943  0.24938995  1
  V  V16  1  0.99941838  0.56397613  0.24601170  1
  V  V17  1  0.00384871  0.43655487  0.74986225  1
  P  P18  1  0.90923327  0.78102113  0.83917561  1
  P  P19  1  0.78005773  0.91651714  0.34159439  1
  P  P20  1  0.91320092  0.31637423  0.34621388  1
  P  P21  1  0.66502158  0.66741267  0.12846601  1
  P  P22  1  0.66598778  0.66509174  0.63099748  1
  P  P23  1  0.78047574  0.31640136  0.84326043  1
  P  P24  1  0.69164308  0.22037234  0.66025699  1
  P  P25  1  0.31133516  0.90947917  0.84515651  1
  P  P26  1  0.69734975  0.08127025  0.15487427  1
  P  P27  1  0.31449881  0.77395124  0.34180591  1
  P  P28  1  0.22972775  0.68260149  0.15720735  1
  P  P29  1  0.33334280  0.33426036  0.36886465  1
  P  P30  1  0.33291248  0.33425177  0.86992322  1
  P  P31  1  0.08825504  0.68875459  0.65483113  1
  P  P32  1  0.22574471  0.08237710  0.65913707  1
  P  P33  1  0.08232030  0.21951558  0.15991836  1
  O  O34  1  0.01274736  0.77993511  0.56537672  1
  O  O35  1  0.91987779  0.74398750  0.33730715  1
  O  O36  1  0.79900827  0.99686656  0.07046724  1
  O  O37  1  0.74428666  0.92271031  0.83978026  1
  O  O38  1  0.89502141  0.62969112  0.82858547  1
  O  O39  1  0.81099143  0.67901455  0.16429460  1
  O  O40  1  0.90741256  0.47333790  0.32902278  1
  O  O41  1  0.98738990  0.20997211  0.07896372  1
  O  O42  1  0.91980362  0.34474677  0.83860921  1
  O  O43  1  0.66780466  0.80919125  0.67932696  1
  O  O44  1  0.62284470  0.91738114  0.33219453  1
  O  O45  1  0.81270172  0.51206512  0.67059913  1
  O  O46  1  0.65823810  0.67125650  0.02089530  1
  O  O47  1  0.66030146  0.66316144  0.52449794  1
  O  O48  1  0.67587101  0.51311035  0.16678516  1
  O  O49  1  0.47490160  0.89674054  0.83526107  1
  O  O50  1  0.51232999  0.81321721  0.17163475  1
  O  O51  1  0.74559092  0.33703165  0.34256384  1
  O  O52  1  0.79666264  0.20570646  0.75274843  1
  O  O53  1  0.78553587  0.21324653  0.57153463  1
  O  O54  1  0.78158302  0.23314657  0.93293837  1
  O  O55  1  0.62775475  0.47948253  0.83128502  1
  O  O56  1  0.51223225  0.67187881  0.67317339  1
  O  O57  1  0.66165683  0.25523017  0.15996378  1
  O  O58  1  0.47245431  0.61913240  0.32619728  1
  O  O59  1  0.33853848  0.91735029  0.34272733  1
  O  O60  1  0.80143534  0.00033244  0.24905436  1
  O  O61  1  0.79315894  0.00387290  0.42670858  1
  O  O62  1  0.22117641  0.99275231  0.57064918  1
  O  O63  1  0.66053733  0.08365821  0.66189538  1
  O  O64  1  0.53798067  0.38009158  0.66766933  1
  O  O65  1  0.33608047  0.74024902  0.84181802  1
  O  O66  1  0.49098011  0.32103303  0.33081552  1
  O  O67  1  0.38096100  0.52530529  0.17226933  1
  O  O68  1  0.23222970  0.76746896  0.06836595  1
  O  O69  1  0.22910342  0.76851957  0.43018943  1
  O  O70  1  0.20622513  0.79430090  0.24917319  1
  O  O71  1  0.25798829  0.65934520  0.66053980  1
  O  O72  1  0.47428884  0.18500270  0.82459649  1
  O  O73  1  0.54243901  0.07764640  0.16437973  1
  O  O74  1  0.33627340  0.48318562  0.82892644  1
  O  O75  1  0.32465479  0.34431927  0.97585534  1
  O  O76  1  0.33313093  0.32871474  0.47534305  1
  O  O77  1  0.19023108  0.48618362  0.32748251  1
  O  O78  1  0.38025601  0.08405591  0.66806461  1
  O  O79  1  0.32716572  0.18707905  0.32354805  1
  O  O80  1  0.08266909  0.66184532  0.15671739  1
  O  O81  1  0.99974792  0.79653749  0.74766467  1
  O  O82  1  0.00267033  0.77493951  0.92754150  1
  O  O83  1  0.08132422  0.53637135  0.66277883  1
  O  O84  1  0.18379315  0.34246214  0.82094062  1
  O  O85  1  0.07734830  0.38126345  0.17010991  1
  O  O86  1  0.25364559  0.08377689  0.15822748  1
  O  O87  1  0.21976885  0.99190864  0.93375304  1
  O  O88  1  0.20659167  0.99707524  0.75245994  1
  O  O89  1  0.08191353  0.24972167  0.65886887  1
  O  O90  1  0.99690826  0.23463128  0.43706379  1
  O  O91  1  0.00871118  0.19935608  0.25872299  1
