# generated using pymatgen
data_CaLaI5
_symmetry_space_group_name_H-M   'P 1'
_cell_length_a   4.47549137
_cell_length_b   7.78363382
_cell_length_c   18.30985984
_cell_angle_alpha   90.00000000
_cell_angle_beta   90.00000000
_cell_angle_gamma   106.70796687
_symmetry_Int_Tables_number   1
_chemical_formula_structural   CaLaI5
_chemical_formula_sum   'Ca2 La2 I10'
_cell_volume   610.90692867
_cell_formula_units_Z   2
loop_
 _symmetry_equiv_pos_site_id
 _symmetry_equiv_pos_as_xyz
  1  'x, y, z'
loop_
 _atom_site_type_symbol
 _atom_site_label
 _atom_site_symmetry_multiplicity
 _atom_site_fract_x
 _atom_site_fract_y
 _atom_site_fract_z
 _atom_site_occupancy
  Ca  Ca0  1  0.00000000  0.00000000  0.00000000  1
  Ca  Ca1  1  0.00000000  0.00000000  0.50000000  1
  La  La2  1  0.48518207  0.97036414  0.25000000  1
  La  La3  1  0.51481793  0.02963586  0.75000000  1
  I  I4  1  0.10090766  0.20181433  0.15011505  1
  I  I5  1  0.10090766  0.20181433  0.34988495  1
  I  I6  1  0.38635509  0.77271018  0.07457167  1
  I  I7  1  0.16443000  0.32885900  0.75000000  1
  I  I8  1  0.38635509  0.77271018  0.42542833  1
  I  I9  1  0.61364491  0.22728982  0.57457167  1
  I  I10  1  0.61364491  0.22728982  0.92542833  1
  I  I11  1  0.83557000  0.67114100  0.25000000  1
  I  I12  1  0.89909234  0.79818567  0.65011505  1
  I  I13  1  0.89909234  0.79818567  0.84988495  1
