# generated using pymatgen
data_Li6V3P8O29
_symmetry_space_group_name_H-M   'P 1'
_cell_length_a   9.81283909
_cell_length_b   9.79783840
_cell_length_c   13.96271924
_cell_angle_alpha   90.01934816
_cell_angle_beta   89.75323084
_cell_angle_gamma   59.97196114
_symmetry_Int_Tables_number   1
_chemical_formula_structural   Li6V3P8O29
_chemical_formula_sum   'Li12 V6 P16 O58'
_cell_volume   1162.24311882
_cell_formula_units_Z   2
loop_
 _symmetry_equiv_pos_site_id
 _symmetry_equiv_pos_as_xyz
  1  'x, y, z'
loop_
 _atom_site_type_symbol
 _atom_site_label
 _atom_site_symmetry_multiplicity
 _atom_site_fract_x
 _atom_site_fract_y
 _atom_site_fract_z
 _atom_site_occupancy
  Li  Li0  1  0.90707829  0.76348057  0.06156222  1
  Li  Li1  1  0.76206415  0.90431278  0.56189963  1
  Li  Li2  1  0.90595800  0.33432472  0.56022087  1
  Li  Li3  1  0.66095481  0.67442302  0.88562458  1
  Li  Li4  1  0.76597293  0.32240134  0.06130335  1
  Li  Li5  1  0.32422296  0.90713336  0.06352411  1
  Li  Li6  1  0.66714251  0.23538985  0.43995874  1
  Li  Li7  1  0.33899336  0.76065372  0.56040254  1
  Li  Li8  1  0.09998221  0.66623908  0.43978486  1
  Li  Li9  1  0.09906990  0.23309570  0.94229663  1
  Li  Li10  1  0.98879104  0.96703839  0.99619981  1
  Li  Li11  1  0.03741608  0.01661677  0.49432528  1
  V  V12  1  0.56251314  0.43718958  0.24682716  1
  V  V13  1  0.43477600  0.56226596  0.75387349  1
  V  V14  1  0.55963290  0.00321576  0.74946633  1
  V  V15  1  0.43655324  0.00246484  0.25144799  1
  V  V16  1  0.00029182  0.56555105  0.25038017  1
  V  V17  1  0.00148195  0.43666896  0.74783028  1
  P  P18  1  0.90522549  0.77947277  0.84257123  1
  P  P19  1  0.77223076  0.91465614  0.34486526  1
  P  P20  1  0.90991706  0.31439968  0.34231957  1
  P  P21  1  0.66642134  0.66902351  0.12741303  1
  P  P22  1  0.66592483  0.66532358  0.62983062  1
  P  P23  1  0.77860509  0.31380803  0.84394534  1
  P  P24  1  0.69084217  0.22567845  0.65835276  1
  P  P25  1  0.31326108  0.91119593  0.84453299  1
  P  P26  1  0.69671338  0.08197515  0.15915661  1
  P  P27  1  0.31213813  0.77425275  0.34268179  1
  P  P28  1  0.22023640  0.69372199  0.15781090  1
  P  P29  1  0.33501746  0.33411478  0.36807922  1
  P  P30  1  0.33061616  0.33258393  0.87010169  1
  P  P31  1  0.08628831  0.68998160  0.65827660  1
  P  P32  1  0.22244873  0.08202135  0.65778241  1
  P  P33  1  0.08711127  0.22534457  0.15832309  1
  O  O34  1  0.99756164  0.77723198  0.56934200  1
  O  O35  1  0.91907954  0.74701968  0.34181823  1
  O  O36  1  0.80773253  0.99163417  0.07881298  1
  O  O37  1  0.73807821  0.91921384  0.83630306  1
  O  O38  1  0.89498562  0.62660364  0.82900293  1
  O  O39  1  0.81093285  0.67819756  0.16645458  1
  O  O40  1  0.91119795  0.47057077  0.32863390  1
  O  O41  1  0.99855831  0.22659521  0.06943620  1
  O  O42  1  0.92399697  0.33657048  0.83995253  1
  O  O43  1  0.67512427  0.81061752  0.66981500  1
  O  O44  1  0.62198662  0.90610337  0.32997009  1
  O  O45  1  0.81264868  0.51108273  0.67057047  1
  O  O46  1  0.66542234  0.67213384  0.01920126  1
  O  O47  1  0.66621473  0.66074438  0.52284151  1
  O  O48  1  0.67663304  0.51375021  0.16497494  1
  O  O49  1  0.47849975  0.89497498  0.83019702  1
  O  O50  1  0.51228951  0.81328512  0.16815688  1
  O  O51  1  0.74011174  0.34238895  0.33829121  1
  O  O52  1  0.79600470  0.20645761  0.75206374  1
  O  O53  1  0.78253693  0.22248833  0.56966026  1
  O  O54  1  0.78174180  0.22993854  0.93410571  1
  O  O55  1  0.62902475  0.47952154  0.83132043  1
  O  O56  1  0.51363337  0.67305864  0.67338069  1
  O  O57  1  0.66028642  0.25630366  0.15924897  1
  O  O58  1  0.46700885  0.61526622  0.32766824  1
  O  O59  1  0.34322713  0.91077114  0.33773054  1
  O  O60  1  0.79319931  0.01041345  0.25820237  1
  O  O61  1  0.77049400  0.99921425  0.43614397  1
  O  O62  1  0.20675219  0.98694697  0.57846820  1
  O  O63  1  0.66582685  0.08285980  0.65825610  1
  O  O64  1  0.53546816  0.38158741  0.66929578  1
  O  O65  1  0.33596416  0.74558092  0.84089450  1
  O  O66  1  0.48962325  0.32440295  0.32745663  1
  O  O67  1  0.37770312  0.53997230  0.16515646  1
  O  O68  1  0.20173283  0.80181766  0.07657966  1
  O  O69  1  0.22778087  0.77561015  0.43479289  1
  O  O70  1  0.19603801  0.78995004  0.25714958  1
  O  O71  1  0.25461534  0.66222092  0.65785556  1
  O  O72  1  0.47329371  0.18543694  0.82116288  1
  O  O73  1  0.54498072  0.07456970  0.16463205  1
  O  O74  1  0.33626699  0.47701397  0.82485826  1
  O  O75  1  0.32823644  0.32907603  0.97614625  1
  O  O76  1  0.33716165  0.33325706  0.47481183  1
  O  O77  1  0.18851252  0.48927131  0.32962032  1
  O  O78  1  0.38280723  0.07326134  0.66255622  1
  O  O79  1  0.33159783  0.18955486  0.32012525  1
  O  O80  1  0.08160633  0.65892193  0.15910978  1
  O  O81  1  0.00176694  0.79369911  0.75232386  1
  O  O82  1  0.98544440  0.78213463  0.93328455  1
  O  O83  1  0.08597776  0.53314846  0.66929184  1
  O  O84  1  0.18113885  0.33304054  0.82813880  1
  O  O85  1  0.09061471  0.37856870  0.17233324  1
  O  O86  1  0.25342298  0.08126397  0.15883896  1
  O  O87  1  0.23215569  0.99962300  0.93540329  1
  O  O88  1  0.20037592  0.01123338  0.75816931  1
  O  O89  1  0.08397015  0.25316646  0.65631984  1
  O  O90  1  0.98708049  0.22838498  0.43310910  1
  O  O91  1  0.99884141  0.20448500  0.25111312  1
