# generated using pymatgen
data_SnP6(WO8)3
_symmetry_space_group_name_H-M   'P 1'
_cell_length_a   8.82784051
_cell_length_b   8.85505722
_cell_length_c   8.85505720
_cell_angle_alpha   60.00000198
_cell_angle_beta   59.89796339
_cell_angle_gamma   59.89796294
_symmetry_Int_Tables_number   1
_chemical_formula_structural   SnP6(WO8)3
_chemical_formula_sum   'Sn1 P6 W3 O24'
_cell_volume   488.70940661
_cell_formula_units_Z   1
loop_
 _symmetry_equiv_pos_site_id
 _symmetry_equiv_pos_as_xyz
  1  'x, y, z'
loop_
 _atom_site_type_symbol
 _atom_site_label
 _atom_site_symmetry_multiplicity
 _atom_site_fract_x
 _atom_site_fract_y
 _atom_site_fract_z
 _atom_site_occupancy
  Sn  Sn0  1  0.58300778  0.13899741  0.13899741  1
  P  P1  1  0.25110444  0.24892643  0.53768884  1
  P  P2  1  0.25110444  0.96228030  0.24892643  1
  P  P3  1  0.25110444  0.53768884  0.96228030  1
  P  P4  1  0.74874744  0.46180481  0.03747365  1
  P  P5  1  0.74874744  0.03747365  0.75197410  1
  P  P6  1  0.74874744  0.75197410  0.46180481  1
  W  W7  1  0.07847568  0.64050811  0.64050811  1
  W  W8  1  0.41983062  0.86005646  0.86005646  1
  W  W9  1  0.91739065  0.36086945  0.36086945  1
  O  O10  1  0.07548608  0.12482097  0.29021165  1
  O  O11  1  0.07548608  0.50948129  0.12482097  1
  O  O12  1  0.07548608  0.29021165  0.50948129  1
  O  O13  1  0.26001217  0.08312461  0.72026986  1
  O  O14  1  0.42859299  0.20791746  0.37631451  1
  O  O15  1  0.23786742  0.41444944  0.56727639  1
  O  O16  1  0.26001217  0.93659336  0.08312461  1
  O  O17  1  0.23786742  0.78040676  0.41444944  1
  O  O18  1  0.57191768  0.62668177  0.00207039  1
  O  O19  1  0.23786742  0.56727639  0.78040676  1
  O  O20  1  0.75110179  0.28306171  0.04845381  1
  O  O21  1  0.57191768  0.00207039  0.79932916  1
  O  O22  1  0.42859299  0.98717603  0.20791746  1
  O  O23  1  0.26001217  0.72026986  0.93659336  1
  O  O24  1  0.75050187  0.44615624  0.21624877  1
  O  O25  1  0.42859299  0.37631451  0.98717603  1
  O  O26  1  0.75050187  0.21624877  0.58709211  1
  O  O27  1  0.75110179  0.04845381  0.91738269  1
  O  O28  1  0.75050187  0.58709211  0.44615624  1
  O  O29  1  0.57191768  0.79932916  0.62668177  1
  O  O30  1  0.75110179  0.91738269  0.28306171  1
  O  O31  1  0.92510154  0.70094067  0.50013792  1
  O  O32  1  0.92510154  0.50013792  0.87381987  1
  O  O33  1  0.92510154  0.87381987  0.70094067  1
