# generated using pymatgen
data_Ba2LaI7
_symmetry_space_group_name_H-M   'P 1'
_cell_length_a   12.18106409
_cell_length_b   18.10714831
_cell_length_c   7.94941343
_cell_angle_alpha   90.00000000
_cell_angle_beta   90.91069021
_cell_angle_gamma   90.00000000
_symmetry_Int_Tables_number   1
_chemical_formula_structural   Ba2LaI7
_chemical_formula_sum   'Ba8 La4 I28'
_cell_volume   1753.13560324
_cell_formula_units_Z   4
loop_
 _symmetry_equiv_pos_site_id
 _symmetry_equiv_pos_as_xyz
  1  'x, y, z'
loop_
 _atom_site_type_symbol
 _atom_site_label
 _atom_site_symmetry_multiplicity
 _atom_site_fract_x
 _atom_site_fract_y
 _atom_site_fract_z
 _atom_site_occupancy
  Ba  Ba0  1  0.04881269  0.22059364  0.26650047  1
  Ba  Ba1  1  0.17605136  0.56042621  0.26824784  1
  Ba  Ba2  1  0.32394864  0.06042621  0.73175216  1
  Ba  Ba3  1  0.45118731  0.72059364  0.73349953  1
  Ba  Ba4  1  0.54881269  0.27940636  0.26650047  1
  Ba  Ba5  1  0.67605136  0.93957379  0.26824784  1
  Ba  Ba6  1  0.82394864  0.43957379  0.73175216  1
  Ba  Ba7  1  0.95118731  0.77940636  0.73349953  1
  La  La8  1  0.21893872  0.87299065  0.21887770  1
  La  La9  1  0.28106128  0.37299065  0.78112230  1
  La  La10  1  0.71893872  0.62700935  0.21887770  1
  La  La11  1  0.78106128  0.12700935  0.78112230  1
  I  I12  1  0.03785420  0.14129192  0.70545254  1
  I  I13  1  0.06413415  0.39725244  0.00689394  1
  I  I14  1  0.07810739  0.39589861  0.50437364  1
  I  I15  1  0.12020391  0.93052566  0.85647040  1
  I  I16  1  0.19599742  0.73913921  0.49761456  1
  I  I17  1  0.20519833  0.72311059  0.99607043  1
  I  I18  1  0.21321512  0.04546511  0.29928338  1
  I  I19  1  0.28678488  0.54546511  0.70071662  1
  I  I20  1  0.29480167  0.22311059  0.00392957  1
  I  I21  1  0.30400258  0.23913921  0.50238544  1
  I  I22  1  0.37979609  0.43052566  0.14352960  1
  I  I23  1  0.42189261  0.89589861  0.49562636  1
  I  I24  1  0.43586585  0.89725244  0.99310606  1
  I  I25  1  0.46214580  0.64129192  0.29454746  1
  I  I26  1  0.53785420  0.35870808  0.70545254  1
  I  I27  1  0.56413415  0.10274756  0.00689394  1
  I  I28  1  0.57810739  0.10410139  0.50437364  1
  I  I29  1  0.62020391  0.56947434  0.85647040  1
  I  I30  1  0.69599742  0.76086079  0.49761456  1
  I  I31  1  0.70519833  0.77688941  0.99607043  1
  I  I32  1  0.71321512  0.45453489  0.29928338  1
  I  I33  1  0.78678488  0.95453489  0.70071662  1
  I  I34  1  0.79480167  0.27688941  0.00392957  1
  I  I35  1  0.80400258  0.26086079  0.50238544  1
  I  I36  1  0.87979609  0.06947434  0.14352960  1
  I  I37  1  0.92189261  0.60410139  0.49562636  1
  I  I38  1  0.93586585  0.60274756  0.99310606  1
  I  I39  1  0.96214580  0.85870808  0.29454746  1
