# generated using pymatgen
data_Li6V3P8O29
_symmetry_space_group_name_H-M   'P 1'
_cell_length_a   9.82646477
_cell_length_b   9.79930253
_cell_length_c   13.92572919
_cell_angle_alpha   90.26466372
_cell_angle_beta   89.97285033
_cell_angle_gamma   59.90268742
_symmetry_Int_Tables_number   1
_chemical_formula_structural   Li6V3P8O29
_chemical_formula_sum   'Li12 V6 P16 O58'
_cell_volume   1160.13212547
_cell_formula_units_Z   2
loop_
 _symmetry_equiv_pos_site_id
 _symmetry_equiv_pos_as_xyz
  1  'x, y, z'
loop_
 _atom_site_type_symbol
 _atom_site_label
 _atom_site_symmetry_multiplicity
 _atom_site_fract_x
 _atom_site_fract_y
 _atom_site_fract_z
 _atom_site_occupancy
  Li  Li0  1  0.91211370  0.77946954  0.05615605  1
  Li  Li1  1  0.90196816  0.33212764  0.56125971  1
  Li  Li2  1  0.66586309  0.67242252  0.88499854  1
  Li  Li3  1  0.77644085  0.30338374  0.06069508  1
  Li  Li4  1  0.30951140  0.91502193  0.05971618  1
  Li  Li5  1  0.66391801  0.23216616  0.44246974  1
  Li  Li6  1  0.33307731  0.76189327  0.56108780  1
  Li  Li7  1  0.22359648  0.68309483  0.94006551  1
  Li  Li8  1  0.09607453  0.66445553  0.44002276  1
  Li  Li9  1  0.23492847  0.09539606  0.44159309  1
  Li  Li10  1  0.08815163  0.22835982  0.94044668  1
  Li  Li11  1  0.96665331  0.98621318  0.50871899  1
  V  V12  1  0.56727239  0.43100858  0.25025128  1
  V  V13  1  0.43870178  0.56307725  0.75096025  1
  V  V14  1  0.56808912  0.99885227  0.74842613  1
  V  V15  1  0.43958404  0.00064769  0.25107636  1
  V  V16  1  -0.00025444  0.56800038  0.24914767  1
  V  V17  1  0.00241282  0.43662748  0.74713862  1
  P  P18  1  0.90791708  0.77416823  0.84003750  1
  P  P19  1  0.77675107  0.91764387  0.34260850  1
  P  P20  1  0.91183494  0.31652370  0.34286329  1
  P  P21  1  0.66668082  0.66681505  0.12804676  1
  P  P22  1  0.66589502  0.66537479  0.62906873  1
  P  P23  1  0.77359892  0.32092272  0.84417206  1
  P  P24  1  0.68929103  0.22451576  0.65998763  1
  P  P25  1  0.31894793  0.91137948  0.84303191  1
  P  P26  1  0.68488902  0.08517416  0.15577383  1
  P  P27  1  0.31447391  0.77239554  0.34266212  1
  P  P28  1  0.23285756  0.67857577  0.15805551  1
  P  P29  1  0.33360820  0.33348438  0.37212472  1
  P  P30  1  0.33194601  0.33407803  0.86987208  1
  P  P31  1  0.08947982  0.68743932  0.65590573  1
  P  P32  1  0.22919458  0.08364758  0.65612307  1
  P  P33  1  0.08816975  0.23060800  0.15864645  1
  O  O34  1  0.01107560  0.77523817  0.56550903  1
  O  O35  1  0.91848442  0.74517624  0.33874558  1
  O  O36  1  0.76791800  0.99462379  0.06846437  1
  O  O37  1  0.74352280  0.91853442  0.84165491  1
  O  O38  1  0.88796320  0.62683476  0.82368614  1
  O  O39  1  0.81453054  0.67294270  0.16510540  1
  O  O40  1  0.90715486  0.47365172  0.32970190  1
  O  O41  1  0.99614622  0.24863233  0.06863976  1
  O  O42  1  0.92375152  0.33447281  0.84210370  1
  O  O43  1  0.66904611  0.80971655  0.67468702  1
  O  O44  1  0.62110804  0.91665824  0.33431314  1
  O  O45  1  0.81520532  0.51120700  0.66870705  1
  O  O46  1  0.66098526  0.67019502  0.02008585  1
  O  O47  1  0.66134530  0.65928410  0.52254082  1
  O  O48  1  0.67211297  0.51507796  0.16757224  1
  O  O49  1  0.48590435  0.88618320  0.82742445  1
  O  O50  1  0.51536771  0.81647609  0.17032756  1
  O  O51  1  0.74444286  0.33772027  0.34177361  1
  O  O52  1  0.79347241  0.21128409  0.75250100  1
  O  O53  1  0.78075360  0.22004657  0.57049980  1
  O  O54  1  0.75446719  0.25128878  0.93411592  1
  O  O55  1  0.63076243  0.48991532  0.82434558  1
  O  O56  1  0.51207808  0.67297538  0.67206456  1
  O  O57  1  0.66535336  0.25311289  0.15953508  1
  O  O58  1  0.47157636  0.61873020  0.32830043  1
  O  O59  1  0.33562564  0.91749284  0.34251168  1
  O  O60  1  0.79550717  0.99975567  0.24809181  1
  O  O61  1  0.79210155  0.00412443  0.42734998  1
  O  O62  1  0.22591584  0.99242893  0.56856695  1
  O  O63  1  0.66434798  0.08349502  0.66267499  1
  O  O64  1  0.53277260  0.38205644  0.66890983  1
  O  O65  1  0.33145763  0.74807639  0.84597931  1
  O  O66  1  0.49082761  0.31968929  0.33312011  1
  O  O67  1  0.37988032  0.51755424  0.17690380  1
  O  O68  1  0.24649647  0.75621713  0.06827261  1
  O  O69  1  0.22500050  0.77113409  0.43099249  1
  O  O70  1  0.20849970  0.79191086  0.24874634  1
  O  O71  1  0.25620942  0.66501768  0.66185789  1
  O  O72  1  0.47178183  0.18462052  0.82313733  1
  O  O73  1  0.52297891  0.10014309  0.17500294  1
  O  O74  1  0.33563756  0.48340800  0.82961901  1
  O  O75  1  0.32146458  0.33872770  0.97605675  1
  O  O76  1  0.33251500  0.32876034  0.47937658  1
  O  O77  1  0.19013584  0.48855642  0.33206045  1
  O  O78  1  0.38295407  0.08586416  0.66608133  1
  O  O79  1  0.32424626  0.18732756  0.32909875  1
  O  O80  1  0.08288716  0.66440779  0.15663660  1
  O  O81  1  0.99794842  0.79332318  0.74884179  1
  O  O82  1  0.00471417  0.75176542  0.92846721  1
  O  O83  1  0.09220579  0.52963130  0.66632183  1
  O  O84  1  0.17975202  0.33976203  0.82524329  1
  O  O85  1  0.09874177  0.38074049  0.17898975  1
  O  O86  1  0.25216490  0.08338090  0.15751599  1
  O  O87  1  0.24105690  0.00750697  0.93197671  1
  O  O88  1  0.21042297  0.99957543  0.75161990  1
  O  O89  1  0.08345443  0.25012850  0.65568933  1
  O  O90  1  0.99925816  0.22626978  0.43145263  1
  O  O91  1  0.99774703  0.20890458  0.24905982  1
