# generated using pymatgen
data_Na2LiMnPCO7
_symmetry_space_group_name_H-M   'P 1'
_cell_length_a   8.82981702
_cell_length_b   6.84843406
_cell_length_c   10.21140020
_cell_angle_alpha   89.97262236
_cell_angle_beta   88.91871465
_cell_angle_gamma   90.42050965
_symmetry_Int_Tables_number   1
_chemical_formula_structural   Na2LiMnPCO7
_chemical_formula_sum   'Na8 Li4 Mn4 P4 C4 O28'
_cell_volume   617.36095330
_cell_formula_units_Z   4
loop_
 _symmetry_equiv_pos_site_id
 _symmetry_equiv_pos_as_xyz
  1  'x, y, z'
loop_
 _atom_site_type_symbol
 _atom_site_label
 _atom_site_symmetry_multiplicity
 _atom_site_fract_x
 _atom_site_fract_y
 _atom_site_fract_z
 _atom_site_occupancy
  Na  Na0  1  0.08390087  0.25600583  0.87717332  1
  Na  Na1  1  0.25522652  0.99975894  0.62501519  1
  Na  Na2  1  0.25644902  0.00029540  0.12584353  1
  Na  Na3  1  0.25574737  0.50032275  0.12618090  1
  Na  Na4  1  0.74419500  0.50316771  0.87601559  1
  Na  Na5  1  0.74370958  0.99676377  0.87605171  1
  Na  Na6  1  0.74317839  0.50152329  0.37523364  1
  Na  Na7  1  0.74337467  0.99919768  0.37601410  1
  Li  Li8  1  0.08779245  0.25464365  0.37813163  1
  Li  Li9  1  0.27248008  0.47221566  0.61291156  1
  Li  Li10  1  0.91369137  0.74075403  0.62565665  1
  Li  Li11  1  0.90854528  0.74972811  0.12727527  1
  Mn  Mn12  1  0.36039846  0.74801532  0.88694569  1
  Mn  Mn13  1  0.35710687  0.74652905  0.39165239  1
  Mn  Mn14  1  0.64352599  0.24951642  0.61297843  1
  Mn  Mn15  1  0.64040213  0.25066826  0.11177468  1
  P  P16  1  0.40862629  0.25412889  0.85204264  1
  P  P17  1  0.40366232  0.24890159  0.35646372  1
  P  P18  1  0.59325360  0.74536583  0.64711009  1
  P  P19  1  0.59439406  0.75057245  0.14808505  1
  C  C20  1  0.05097354  0.74932616  0.86358307  1
  C  C21  1  0.04982099  0.74983297  0.36462253  1
  C  C22  1  0.95533814  0.25961004  0.62653706  1
  C  C23  1  0.94115865  0.25038012  0.13973848  1
  O  O24  1  0.09915192  0.27632471  0.64695661  1
  O  O25  1  0.08568238  0.24849421  0.16016356  1
  O  O26  1  0.08718358  0.74924327  0.98715704  1
  O  O27  1  0.08786334  0.75173727  0.48745197  1
  O  O28  1  0.15637460  0.74697840  0.77238031  1
  O  O29  1  0.15521614  0.74564559  0.27274792  1
  O  O30  1  0.31605884  0.06752463  0.88976547  1
  O  O31  1  0.31716494  0.43222983  0.90259070  1
  O  O32  1  0.30840164  0.06504530  0.39564272  1
  O  O33  1  0.30616586  0.42673838  0.40270245  1
  O  O34  1  0.42402932  0.26751708  0.69879319  1
  O  O35  1  0.43056488  0.73205242  0.58979998  1
  O  O36  1  0.42511627  0.25459092  0.20413106  1
  O  O37  1  0.43518288  0.75162369  0.08575296  1
  O  O38  1  0.57089930  0.24901184  0.90853987  1
  O  O39  1  0.57492132  0.74791302  0.79936548  1
  O  O40  1  0.56372538  0.25034552  0.41641329  1
  O  O41  1  0.57050519  0.74907456  0.30015094  1
  O  O42  1  0.69448313  0.56920670  0.60595658  1
  O  O43  1  0.68191305  0.93186949  0.60283391  1
  O  O44  1  0.69074510  0.57029544  0.10687040  1
  O  O45  1  0.69169609  0.93215213  0.10772398  1
  O  O46  1  0.85974211  0.24987513  0.72606754  1
  O  O47  1  0.84706977  0.25160772  0.23872676  1
  O  O48  1  0.90454222  0.25137353  0.50793574  1
  O  O49  1  0.88751829  0.25127935  0.02155611  1
  O  O50  1  0.91099319  0.75146100  0.82859414  1
  O  O51  1  0.91013564  0.75156396  0.33019243  1
