# generated using pymatgen
data_V2FeO6
_symmetry_space_group_name_H-M   'P 1'
_cell_length_a   6.85764700
_cell_length_b   6.85764765
_cell_length_c   5.89004014
_cell_angle_alpha   74.77341817
_cell_angle_beta   105.22658058
_cell_angle_gamma   95.43574712
_symmetry_Int_Tables_number   1
_chemical_formula_structural   V2FeO6
_chemical_formula_sum   'V4 Fe2 O12'
_cell_volume   257.78773405
_cell_formula_units_Z   2
loop_
 _symmetry_equiv_pos_site_id
 _symmetry_equiv_pos_as_xyz
  1  'x, y, z'
loop_
 _atom_site_type_symbol
 _atom_site_label
 _atom_site_symmetry_multiplicity
 _atom_site_fract_x
 _atom_site_fract_y
 _atom_site_fract_z
 _atom_site_occupancy
  V  V0  1  0.20738686  0.61095512  0.76347412  1
  V  V1  1  0.38904488  0.79261314  0.26347412  1
  V  V2  1  0.61095512  0.20738686  0.73652588  1
  V  V3  1  0.79261314  0.38904488  0.23652588  1
  Fe  Fe4  1  0.08400913  0.08400913  0.75000000  1
  Fe  Fe5  1  0.91599087  0.91599087  0.25000000  1
  O  O6  1  0.03566751  0.80208039  0.64501942  1
  O  O7  1  0.09268340  0.38097625  0.78801972  1
  O  O8  1  0.19791961  0.96433249  0.14501942  1
  O  O9  1  0.36621278  0.64359341  0.55695902  1
  O  O10  1  0.38097625  0.09268340  0.71198028  1
  O  O11  1  0.35640659  0.63378722  0.05695902  1
  O  O12  1  0.64359341  0.36621278  0.94304098  1
  O  O13  1  0.61902375  0.90731660  0.28801972  1
  O  O14  1  0.63378722  0.35640659  0.44304098  1
  O  O15  1  0.80208039  0.03566751  0.85498058  1
  O  O16  1  0.90731660  0.61902375  0.21198028  1
  O  O17  1  0.96433249  0.19791961  0.35498058  1
