# generated using pymatgen
data_Na3Li3Fe2P2(CO7)2
_symmetry_space_group_name_H-M   'P 1'
_cell_length_a   8.71772356
_cell_length_b   6.71015967
_cell_length_c   10.17790951
_cell_angle_alpha   89.57761704
_cell_angle_beta   87.93336658
_cell_angle_gamma   89.91919109
_symmetry_Int_Tables_number   1
_chemical_formula_structural   Na3Li3Fe2P2(CO7)2
_chemical_formula_sum   'Na6 Li6 Fe4 P4 C4 O28'
_cell_volume   594.97658445
_cell_formula_units_Z   2
loop_
 _symmetry_equiv_pos_site_id
 _symmetry_equiv_pos_as_xyz
  1  'x, y, z'
loop_
 _atom_site_type_symbol
 _atom_site_label
 _atom_site_symmetry_multiplicity
 _atom_site_fract_x
 _atom_site_fract_y
 _atom_site_fract_z
 _atom_site_occupancy
  Na  Na0  1  0.08584177  0.25026689  0.38007116  1
  Na  Na1  1  0.25558468  0.99874600  0.63117355  1
  Na  Na2  1  0.26200366  0.00011066  0.11909010  1
  Na  Na3  1  0.26137477  0.50227434  0.12088323  1
  Na  Na4  1  0.74325017  0.50033917  0.87580396  1
  Na  Na5  1  0.74098171  0.50234590  0.37459120  1
  Li  Li6  1  0.08598989  0.24863594  0.87658737  1
  Li  Li7  1  0.27613174  0.47715352  0.62457608  1
  Li  Li8  1  0.72826295  0.98061943  0.88136452  1
  Li  Li9  1  0.72136320  0.97802452  0.38475242  1
  Li  Li10  1  0.90462052  0.75482241  0.62412579  1
  Li  Li11  1  0.90600757  0.76551294  0.12501285  1
  Fe  Fe12  1  0.35349380  0.74813713  0.88403029  1
  Fe  Fe13  1  0.35241229  0.74603705  0.39418028  1
  Fe  Fe14  1  0.65067681  0.24235681  0.61443781  1
  Fe  Fe15  1  0.65172754  0.24504064  0.10830342  1
  P  P16  1  0.40702575  0.24839677  0.84969424  1
  P  P17  1  0.41937275  0.24332113  0.35672593  1
  P  P18  1  0.59317110  0.74686844  0.64787520  1
  P  P19  1  0.59542466  0.75444911  0.14151271  1
  C  C20  1  0.04578787  0.75749016  0.86380533  1
  C  C21  1  0.04453914  0.76059934  0.36456594  1
  C  C22  1  0.94653522  0.25604531  0.64382731  1
  C  C23  1  0.94937464  0.24904393  0.13131753  1
  O  O24  1  0.09277959  0.27761729  0.66101267  1
  O  O25  1  0.09411475  0.25062900  0.15265719  1
  O  O26  1  0.08091934  0.75330106  0.98657563  1
  O  O27  1  0.08223191  0.75685046  0.48681357  1
  O  O28  1  0.15546193  0.74268163  0.77281676  1
  O  O29  1  0.15242626  0.74548174  0.27232861  1
  O  O30  1  0.30065034  0.06756774  0.88349125  1
  O  O31  1  0.31421534  0.43338525  0.89714688  1
  O  O32  1  0.31807957  0.05943584  0.39556191  1
  O  O33  1  0.32718668  0.42999312  0.40656373  1
  O  O34  1  0.43202483  0.26403108  0.69627245  1
  O  O35  1  0.43102899  0.72896914  0.59004195  1
  O  O36  1  0.43973767  0.25502101  0.20386796  1
  O  O37  1  0.43798852  0.75160938  0.07591553  1
  O  O38  1  0.56615662  0.23001546  0.91164657  1
  O  O39  1  0.57212183  0.77150479  0.80010977  1
  O  O40  1  0.57978382  0.23051074  0.41616555  1
  O  O41  1  0.56876256  0.77445436  0.29362470  1
  O  O42  1  0.69595948  0.56224295  0.61736134  1
  O  O43  1  0.68652327  0.92621210  0.58959851  1
  O  O44  1  0.69242787  0.56411801  0.11117372  1
  O  O45  1  0.69747201  0.93003466  0.08770398  1
  O  O46  1  0.85226497  0.23349393  0.74449816  1
  O  O47  1  0.84952615  0.24201606  0.23048854  1
  O  O48  1  0.89037129  0.25523577  0.52725106  1
  O  O49  1  0.90070755  0.25343835  0.01230072  1
  O  O50  1  0.90540431  0.77538252  0.82753479  1
  O  O51  1  0.90271734  0.77813002  0.33116632  1
