# generated using pymatgen
data_Li2CrAsCO7
_symmetry_space_group_name_H-M   'P 1'
_cell_length_a   8.62326937
_cell_length_b   6.57695440
_cell_length_c   5.08310716
_cell_angle_alpha   90.00000000
_cell_angle_beta   86.48086956
_cell_angle_gamma   90.00000000
_symmetry_Int_Tables_number   1
_chemical_formula_structural   Li2CrAsCO7
_chemical_formula_sum   'Li4 Cr2 As2 C2 O14'
_cell_volume   287.74404983
_cell_formula_units_Z   2
loop_
 _symmetry_equiv_pos_site_id
 _symmetry_equiv_pos_as_xyz
  1  'x, y, z'
loop_
 _atom_site_type_symbol
 _atom_site_label
 _atom_site_symmetry_multiplicity
 _atom_site_fract_x
 _atom_site_fract_y
 _atom_site_fract_z
 _atom_site_occupancy
  Li  Li0  1  0.21489639  0.50524300  0.21642832  1
  Li  Li1  1  0.21489639  0.99475700  0.21642832  1
  Li  Li2  1  0.78510361  0.49475700  0.78357168  1
  Li  Li3  1  0.78510361  0.00524300  0.78357168  1
  Cr  Cr4  1  0.33609763  0.75000000  0.79572454  1
  Cr  Cr5  1  0.66390237  0.25000000  0.20427546  1
  As  As6  1  0.41880076  0.25000000  0.71491880  1
  As  As7  1  0.58119924  0.75000000  0.28508120  1
  C  C8  1  0.05563666  0.75000000  0.72860514  1
  C  C9  1  0.94436334  0.25000000  0.27139486  1
  O  O10  1  0.08824202  0.25000000  0.30197938  1
  O  O11  1  0.11446560  0.75000000  0.96235112  1
  O  O12  1  0.16254263  0.75000000  0.53127678  1
  O  O13  1  0.31074170  0.04831235  0.82946231  1
  O  O14  1  0.31074170  0.45168765  0.82946231  1
  O  O15  1  0.39735856  0.75000000  0.17028777  1
  O  O16  1  0.44554751  0.25000000  0.37555605  1
  O  O17  1  0.55445249  0.75000000  0.62444395  1
  O  O18  1  0.60264144  0.25000000  0.82971223  1
  O  O19  1  0.68925830  0.54831235  0.17053669  1
  O  O20  1  0.68925830  0.95168765  0.17053669  1
  O  O21  1  0.83745737  0.25000000  0.46872322  1
  O  O22  1  0.88553440  0.25000000  0.03764888  1
  O  O23  1  0.91175798  0.75000000  0.69802062  1
