# generated using pymatgen
data_Li4Cr3Fe3(TeO8)2
_symmetry_space_group_name_H-M   'P 1'
_cell_length_a   6.01655986
_cell_length_b   6.01009611
_cell_length_c   9.82577382
_cell_angle_alpha   89.99817880
_cell_angle_beta   90.52466341
_cell_angle_gamma   119.95549224
_symmetry_Int_Tables_number   1
_chemical_formula_structural   Li4Cr3Fe3(TeO8)2
_chemical_formula_sum   'Li4 Cr3 Fe3 Te2 O16'
_cell_volume   307.82045987
_cell_formula_units_Z   1
loop_
 _symmetry_equiv_pos_site_id
 _symmetry_equiv_pos_as_xyz
  1  'x, y, z'
loop_
 _atom_site_type_symbol
 _atom_site_label
 _atom_site_symmetry_multiplicity
 _atom_site_fract_x
 _atom_site_fract_y
 _atom_site_fract_z
 _atom_site_occupancy
  Li  Li0  1  0.33202758  0.66605310  0.90822126  1
  Li  Li1  1  0.00094731  0.00050560  0.98951043  1
  Li  Li2  1  0.00226632  0.00122565  0.49044239  1
  Li  Li3  1  0.66561918  0.33276501  0.40524211  1
  Cr  Cr4  1  0.17074545  0.83096672  0.21341788  1
  Cr  Cr5  1  0.17075959  0.33982842  0.21339374  1
  Cr  Cr6  1  0.34240277  0.17118855  0.71370811  1
  Fe  Fe7  1  0.66405501  0.83199369  0.21410196  1
  Fe  Fe8  1  0.83333388  0.66277353  0.71425097  1
  Fe  Fe9  1  0.83336799  0.17055921  0.71425796  1
  Te  Te10  1  0.33510935  0.66755931  0.48549403  1
  Te  Te11  1  0.66762925  0.33383883  0.98715385  1
  O  O12  1  0.16175934  0.83734167  0.59744409  1
  O  O13  1  0.03301567  0.51655813  0.33517730  1
  O  O14  1  0.33652617  0.66826214  0.11015145  1
  O  O15  1  0.99934561  0.99971558  0.30650725  1
  O  O16  1  0.00159713  0.00074102  0.80528630  1
  O  O17  1  0.16167951  0.32440681  0.59745925  1
  O  O18  1  0.47897071  0.96467124  0.34192076  1
  O  O19  1  0.47902050  0.51429040  0.34188841  1
  O  O20  1  0.31728349  0.15863729  0.09809122  1
  O  O21  1  0.67385950  0.83696092  0.59387086  1
  O  O22  1  0.51515134  0.48048709  0.84130843  1
  O  O23  1  0.51527500  0.03474986  0.84134833  1
  O  O24  1  0.67030567  0.33518933  0.60938972  1
  O  O25  1  0.83771134  0.67778973  0.09552181  1
  O  O26  1  0.96256474  0.48126378  0.84773299  1
  O  O27  1  0.83767158  0.15997639  0.09554614  1
