# generated using pymatgen
data_Li6V3P8O29
_symmetry_space_group_name_H-M   'P 1'
_cell_length_a   9.80742117
_cell_length_b   9.77665041
_cell_length_c   13.95308679
_cell_angle_alpha   90.14710447
_cell_angle_beta   90.30411932
_cell_angle_gamma   60.13023053
_symmetry_Int_Tables_number   1
_chemical_formula_structural   Li6V3P8O29
_chemical_formula_sum   'Li12 V6 P16 O58'
_cell_volume   1160.13397536
_cell_formula_units_Z   2
loop_
 _symmetry_equiv_pos_site_id
 _symmetry_equiv_pos_as_xyz
  1  'x, y, z'
loop_
 _atom_site_type_symbol
 _atom_site_label
 _atom_site_symmetry_multiplicity
 _atom_site_fract_x
 _atom_site_fract_y
 _atom_site_fract_z
 _atom_site_occupancy
  Li  Li0  1  0.91248766  0.76655088  0.05826649  1
  Li  Li1  1  0.90084955  0.33544300  0.56430827  1
  Li  Li2  1  0.66290782  0.66837125  0.88402891  1
  Li  Li3  1  0.77052504  0.32457233  0.05842227  1
  Li  Li4  1  0.32828294  0.90904467  0.05967640  1
  Li  Li5  1  0.66202688  0.23477963  0.44299773  1
  Li  Li6  1  0.33401555  0.76148521  0.56553774  1
  Li  Li7  1  0.66493875  0.09981495  0.93615909  1
  Li  Li8  1  0.09516316  0.66596421  0.44252504  1
  Li  Li9  1  0.23265860  0.09914592  0.44378831  1
  Li  Li10  1  0.04453462  0.98196981  0.98676673  1
  Li  Li11  1  0.95989140  0.98811852  0.51427680  1
  V  V12  1  0.56547133  0.43520304  0.24857142  1
  V  V13  1  0.43537568  0.56033453  0.75299528  1
  V  V14  1  0.56439404  0.99700098  0.74404893  1
  V  V15  1  0.43422443  0.00070284  0.25111713  1
  V  V16  1  0.99992403  0.56542960  0.24843200  1
  V  V17  1  0.00365417  0.43678552  0.75341047  1
  P  P18  1  0.90980804  0.78138821  0.84253219  1
  P  P19  1  0.77743916  0.91596231  0.33982041  1
  P  P20  1  0.91353906  0.31527342  0.34442829  1
  P  P21  1  0.66670333  0.66734918  0.12693532  1
  P  P22  1  0.66500080  0.66201125  0.63003952  1
  P  P23  1  0.77849717  0.31510539  0.84196035  1
  P  P24  1  0.68834864  0.22515884  0.65746653  1
  P  P25  1  0.31499370  0.90764570  0.84365831  1
  P  P26  1  0.68383809  0.08650715  0.15418744  1
  P  P27  1  0.31509199  0.77069463  0.34519879  1
  P  P28  1  0.22343083  0.69338048  0.15840804  1
  P  P29  1  0.33289281  0.33439201  0.36901366  1
  P  P30  1  0.33823446  0.32747523  0.87048271  1
  P  P31  1  0.08548162  0.69148298  0.65720088  1
  P  P32  1  0.22328512  0.08718009  0.65891439  1
  P  P33  1  0.08429619  0.22232287  0.15892196  1
  O  O34  1  0.00775122  0.78266927  0.56706662  1
  O  O35  1  0.91646904  0.74454626  0.34110475  1
  O  O36  1  0.76619354  0.00428696  0.06297299  1
  O  O37  1  0.74242791  0.92515777  0.83930261  1
  O  O38  1  0.89408071  0.63076311  0.83041989  1
  O  O39  1  0.81027117  0.67974158  0.16597673  1
  O  O40  1  0.90985876  0.47306189  0.32758754  1
  O  O41  1  0.99490918  0.20572992  0.07652191  1
  O  O42  1  0.91954555  0.34076093  0.84258844  1
  O  O43  1  0.66641076  0.80920012  0.67646956  1
  O  O44  1  0.61824658  0.92021173  0.33035232  1
  O  O45  1  0.81272950  0.51177837  0.67235209  1
  O  O46  1  0.66557353  0.66758977  0.01882832  1
  O  O47  1  0.66242874  0.66104492  0.52328252  1
  O  O48  1  0.67929320  0.51120269  0.16620240  1
  O  O49  1  0.47625272  0.89980609  0.83355018  1
  O  O50  1  0.51246860  0.81073955  0.16712345  1
  O  O51  1  0.74539262  0.33849967  0.34093852  1
  O  O52  1  0.79650675  0.20757420  0.75002558  1
  O  O53  1  0.78350297  0.21623785  0.56880580  1
  O  O54  1  0.77216217  0.22764229  0.92982037  1
  O  O55  1  0.62819198  0.47939337  0.83104876  1
  O  O56  1  0.51236337  0.67054654  0.67181183  1
  O  O57  1  0.66188919  0.25541733  0.15894232  1
  O  O58  1  0.47274938  0.61753397  0.32801121  1
  O  O59  1  0.33813059  0.91629155  0.34274623  1
  O  O60  1  0.80010572  0.99094734  0.24174524  1
  O  O61  1  0.78978962  0.00889196  0.42191997  1
  O  O62  1  0.22177014  0.99694455  0.57063014  1
  O  O63  1  0.65823739  0.08710871  0.65940591  1
  O  O64  1  0.53692590  0.38376309  0.66538470  1
  O  O65  1  0.34276284  0.73968239  0.83872066  1
  O  O66  1  0.48837495  0.32229963  0.32811637  1
  O  O67  1  0.37989539  0.53850917  0.16784371  1
  O  O68  1  0.20901939  0.79994892  0.07743750  1
  O  O69  1  0.23368101  0.76795301  0.43608374  1
  O  O70  1  0.20031766  0.79121360  0.25748766  1
  O  O71  1  0.25446601  0.66245598  0.66171201  1
  O  O72  1  0.48385438  0.17779556  0.82671066  1
  O  O73  1  0.52718719  0.09242204  0.17076373  1
  O  O74  1  0.34206026  0.47214470  0.82422712  1
  O  O75  1  0.34701214  0.32360455  0.97642409  1
  O  O76  1  0.33370655  0.33561458  0.47623518  1
  O  O77  1  0.18867970  0.48990725  0.32824605  1
  O  O78  1  0.37664453  0.09244446  0.66753813  1
  O  O79  1  0.31968204  0.18980182  0.33001934  1
  O  O80  1  0.08302646  0.66139374  0.15890628  1
  O  O81  1  0.99781961  0.79795078  0.75007638  1
  O  O82  1  0.99304498  0.78401529  0.93225155  1
  O  O83  1  0.07974953  0.53779780  0.66655211  1
  O  O84  1  0.18643462  0.33653128  0.82501463  1
  O  O85  1  0.08117616  0.38006399  0.16790691  1
  O  O86  1  0.25676769  0.08249294  0.16099096  1
  O  O87  1  0.22722808  0.98924274  0.93339176  1
  O  O88  1  0.20557140  0.00174852  0.75270029  1
  O  O89  1  0.07933236  0.25441191  0.65894847  1
  O  O90  1  0.99628353  0.23463849  0.43647480  1
  O  O91  1  0.00863838  0.19976789  0.25752218  1
