# generated using pymatgen
data_Te3WO12
_symmetry_space_group_name_H-M   'P 1'
_cell_length_a   5.30639126
_cell_length_b   10.61889123
_cell_length_c   9.32010333
_cell_angle_alpha   28.59726727
_cell_angle_beta   51.90816787
_cell_angle_gamma   57.21126580
_symmetry_Int_Tables_number   1
_chemical_formula_structural   Te3WO12
_chemical_formula_sum   'Te3 W1 O12'
_cell_volume   197.83567318
_cell_formula_units_Z   1
loop_
 _symmetry_equiv_pos_site_id
 _symmetry_equiv_pos_as_xyz
  1  'x, y, z'
loop_
 _atom_site_type_symbol
 _atom_site_label
 _atom_site_symmetry_multiplicity
 _atom_site_fract_x
 _atom_site_fract_y
 _atom_site_fract_z
 _atom_site_occupancy
  Te  Te0  1  0.49632292  0.00007692  0.49670996  1
  Te  Te1  1  0.49680404  0.49995482  0.49652008  1
  Te  Te2  1  0.99646024  0.50002206  0.99660563  1
  W  W3  1  0.99689002  0.99994448  0.99649203  1
  O  O4  1  0.37891521  0.31567368  0.11363667  1
  O  O5  1  0.24918610  0.11607176  0.62964874  1
  O  O6  1  0.13228384  0.30954145  0.74279559  1
  O  O7  1  0.87925284  0.18433948  0.24467162  1
  O  O8  1  0.36350679  0.80690065  0.13173519  1
  O  O9  1  0.74662774  0.36743326  0.37907057  1
  O  O10  1  0.24630392  0.63247215  0.61415129  1
  O  O11  1  0.62928867  0.19280990  0.86199703  1
  O  O12  1  0.11393422  0.81583025  0.74817447  1
  O  O13  1  0.86122340  0.69037667  0.25029279  1
  O  O14  1  0.74384365  0.88420471  0.36336590  1
  O  O15  1  0.61435641  0.68434676  0.87933343  1
