# generated using pymatgen
data_Li9Mn2Co5O16
_symmetry_space_group_name_H-M   'P 1'
_cell_length_a   2.88226754
_cell_length_b   17.05430053
_cell_length_c   5.87382899
_cell_angle_alpha   89.77429770
_cell_angle_beta   90.00000000
_cell_angle_gamma   90.00000000
_symmetry_Int_Tables_number   1
_chemical_formula_structural   Li9Mn2Co5O16
_chemical_formula_sum   'Li9 Mn2 Co5 O16'
_cell_volume   288.72615785
_cell_formula_units_Z   1
loop_
 _symmetry_equiv_pos_site_id
 _symmetry_equiv_pos_as_xyz
  1  'x, y, z'
loop_
 _atom_site_type_symbol
 _atom_site_label
 _atom_site_symmetry_multiplicity
 _atom_site_fract_x
 _atom_site_fract_y
 _atom_site_fract_z
 _atom_site_occupancy
  Li  Li0  1  0.50000000  0.12891485  0.24957964  1
  Li  Li1  1  0.50000000  0.37564578  0.74394143  1
  Li  Li2  1  0.50000000  0.62172538  0.24574165  1
  Li  Li3  1  0.00000000  0.25976052  0.00467080  1
  Li  Li4  1  0.00000000  0.49631371  0.49508957  1
  Li  Li5  1  0.00000000  0.74852167  0.99900523  1
  Li  Li6  1  0.50000000  0.87136305  0.74963853  1
  Li  Li7  1  0.00000000  0.99823541  0.50239363  1
  Li  Li8  1  0.50000000  0.37577676  0.25539081  1
  Mn  Mn9  1  0.00000000  -0.00080983  0.99886660  1
  Mn  Mn10  1  -0.00000000  0.25793184  0.49673227  1
  Co  Co11  1  -0.00000000  0.48596478  0.00657154  1
  Co  Co12  1  -0.00000000  0.74765973  0.50220652  1
  Co  Co13  1  0.50000000  0.62378892  0.75827107  1
  Co  Co14  1  0.50000000  0.87076909  0.25146586  1
  Co  Co15  1  0.50000000  0.12909866  0.74906861  1
  O  O16  1  0.50000000  0.00099848  0.22914248  1
  O  O17  1  0.50000000  0.25171727  0.72495758  1
  O  O18  1  0.50000000  0.50016923  0.22477726  1
  O  O19  1  0.00000000  0.12670802  0.97129868  1
  O  O20  1  0.00000000  0.36407683  0.49773738  1
  O  O21  1  0.00000000  0.62538018  0.98134085  1
  O  O22  1  0.50000000  0.74760637  0.73206010  1
  O  O23  1  0.00000000  0.87261550  0.48824978  1
  O  O24  1  0.50000000  0.24797782  0.27654199  1
  O  O25  1  0.50000000  0.50268402  0.77538935  1
  O  O26  1  0.50000000  0.75219189  0.26791931  1
  O  O27  1  0.00000000  0.38059910  0.99811428  1
  O  O28  1  0.00000000  0.62711957  0.51707160  1
  O  O29  1  -0.00000000  0.87588126  0.01176945  1
  O  O30  1  0.50000000  0.00117600  0.76939701  1
  O  O31  1  -0.00000000  0.13243812  0.52559916  1
