# generated using pymatgen
data_Li2MnFeO4
_symmetry_space_group_name_H-M   'P 1'
_cell_length_a   5.14113317
_cell_length_b   10.45590777
_cell_length_c   10.00369335
_cell_angle_alpha   16.91246156
_cell_angle_beta   29.08655693
_cell_angle_gamma   33.27038437
_symmetry_Int_Tables_number   1
_chemical_formula_structural   Li2MnFeO4
_chemical_formula_sum   'Li2 Mn1 Fe1 O4'
_cell_volume   76.04887474
_cell_formula_units_Z   1
loop_
 _symmetry_equiv_pos_site_id
 _symmetry_equiv_pos_as_xyz
  1  'x, y, z'
loop_
 _atom_site_type_symbol
 _atom_site_label
 _atom_site_symmetry_multiplicity
 _atom_site_fract_x
 _atom_site_fract_y
 _atom_site_fract_z
 _atom_site_occupancy
  Li  Li0  1  0.00000000  0.00000000  0.00000000  1
  Li  Li1  1  0.00000000  0.50000000  0.00000000  1
  Mn  Mn2  1  0.50000000  0.50000000  0.50000000  1
  Fe  Fe3  1  0.50000000  0.00000000  0.50000000  1
  O  O4  1  0.23245006  0.00000000  0.25225033  1
  O  O5  1  0.22170505  0.50000000  0.24973988  1
  O  O6  1  0.76754994  1.00000000  0.74774967  1
  O  O7  1  0.77829495  0.50000000  0.75026012  1
