# generated using pymatgen
data_MnCr(PO4)2
_symmetry_space_group_name_H-M   'P 1'
_cell_length_a   9.86257632
_cell_length_b   5.89648209
_cell_length_c   4.84241851
_cell_angle_alpha   90.00000000
_cell_angle_beta   91.38336973
_cell_angle_gamma   90.00000000
_symmetry_Int_Tables_number   1
_chemical_formula_structural   MnCr(PO4)2
_chemical_formula_sum   'Mn2 Cr2 P4 O16'
_cell_volume   281.52637173
_cell_formula_units_Z   2
loop_
 _symmetry_equiv_pos_site_id
 _symmetry_equiv_pos_as_xyz
  1  'x, y, z'
loop_
 _atom_site_type_symbol
 _atom_site_label
 _atom_site_symmetry_multiplicity
 _atom_site_fract_x
 _atom_site_fract_y
 _atom_site_fract_z
 _atom_site_occupancy
  Mn  Mn0  1  0.27620365  0.25000000  0.94465275  1
  Mn  Mn1  1  0.72379635  0.75000000  0.05534725  1
  Cr  Cr2  1  0.22716865  0.75000000  0.46781402  1
  Cr  Cr3  1  0.77283135  0.25000000  0.53218598  1
  P  P4  1  0.09557006  0.25000000  0.40954785  1
  P  P5  1  0.40572640  0.75000000  0.92062305  1
  P  P6  1  0.59427360  0.25000000  0.07937695  1
  P  P7  1  0.90442994  0.75000000  0.59045215  1
  O  O8  1  0.05521317  0.75000000  0.66478979  1
  O  O9  1  0.11335588  0.25000000  0.72857257  1
  O  O10  1  0.17068094  0.04429043  0.27409266  1
  O  O11  1  0.17068094  0.45570957  0.27409266  1
  O  O12  1  0.32921388  0.95032583  0.76410177  1
  O  O13  1  0.32921388  0.54967417  0.76410177  1
  O  O14  1  0.38896857  0.75000000  0.23067875  1
  O  O15  1  0.44411379  0.25000000  0.15396534  1
  O  O16  1  0.55588621  0.75000000  0.84603466  1
  O  O17  1  0.61103143  0.25000000  0.76932125  1
  O  O18  1  0.67078612  0.04967417  0.23589823  1
  O  O19  1  0.67078612  0.45032583  0.23589823  1
  O  O20  1  0.82931906  0.54429043  0.72590734  1
  O  O21  1  0.82931906  0.95570957  0.72590734  1
  O  O22  1  0.88664412  0.75000000  0.27142743  1
  O  O23  1  0.94478683  0.25000000  0.33521021  1
