# generated using pymatgen
data_Li11U4(WO5)8
_symmetry_space_group_name_H-M   'P 1'
_cell_length_a   7.81317324
_cell_length_b   12.97289049
_cell_length_c   7.68763892
_cell_angle_alpha   90.00000000
_cell_angle_beta   89.98508471
_cell_angle_gamma   90.00000000
_symmetry_Int_Tables_number   1
_chemical_formula_structural   Li11U4(WO5)8
_chemical_formula_sum   'Li11 U4 W8 O40'
_cell_volume   779.21475609
_cell_formula_units_Z   1
loop_
 _symmetry_equiv_pos_site_id
 _symmetry_equiv_pos_as_xyz
  1  'x, y, z'
loop_
 _atom_site_type_symbol
 _atom_site_label
 _atom_site_symmetry_multiplicity
 _atom_site_fract_x
 _atom_site_fract_y
 _atom_site_fract_z
 _atom_site_occupancy
  Li  Li0  1  0.00000000  0.50724485  0.75000000  1
  Li  Li1  1  0.16678229  0.50555833  0.02276565  1
  Li  Li2  1  0.17498812  0.49645309  0.48412520  1
  Li  Li3  1  0.30976047  0.00616912  0.99893112  1
  Li  Li4  1  0.31021496  0.99459979  0.49904184  1
  Li  Li5  1  0.50000000  0.98760554  0.25000000  1
  Li  Li6  1  0.50000000  0.01232499  0.75000000  1
  Li  Li7  1  0.69023953  0.00616912  0.50106888  1
  Li  Li8  1  0.68978504  0.99459979  0.00095816  1
  Li  Li9  1  0.82501188  0.49645309  0.01587480  1
  Li  Li10  1  0.83321771  0.50555833  0.47723435  1
  U  U11  1  0.00000000  0.01907894  0.25000000  1
  U  U12  1  0.00000000  0.97942731  0.75000000  1
  U  U13  1  0.50000000  0.52163300  0.25000000  1
  U  U14  1  0.50000000  0.47946701  0.75000000  1
  W  W15  1  0.00957816  0.25502359  -0.00048612  1
  W  W16  1  0.00967605  0.74357696  0.49992197  1
  W  W17  1  0.49045611  0.24307732  0.49956658  1
  W  W18  1  0.49041631  0.75677873  -0.00050266  1
  W  W19  1  0.50954389  0.24307732  0.00043342  1
  W  W20  1  0.50958369  0.75677873  0.50050266  1
  W  W21  1  0.99042184  0.25502359  0.50048612  1
  W  W22  1  0.99032395  0.74357696  0.00007803  1
  O  O23  1  0.00000000  0.21525694  0.25000000  1
  O  O24  1  0.00000000  0.25879587  0.75000000  1
  O  O25  1  0.00000000  0.73054741  0.25000000  1
  O  O26  1  0.00000000  0.78727416  0.75000000  1
  O  O27  1  0.00662526  0.09486180  0.97400990  1
  O  O28  1  0.00637039  0.90140366  0.47034701  1
  O  O29  1  0.00386561  0.39437645  0.02560921  1
  O  O30  1  0.00657384  0.60513006  0.55053826  1
  O  O31  1  0.24773087  0.01875523  0.25015828  1
  O  O32  1  0.24810907  0.98027548  0.74985269  1
  O  O33  1  0.24576562  0.24717315  0.49957673  1
  O  O34  1  0.24522326  0.75075513  0.00004621  1
  O  O35  1  0.25477207  0.24792347  0.00041336  1
  O  O36  1  0.25471252  0.75123950  0.49951732  1
  O  O37  1  0.25881512  0.52242898  0.25192437  1
  O  O38  1  0.25543229  0.48063315  0.74970899  1
  O  O39  1  0.49544566  0.10217557  0.54258319  1
  O  O40  1  0.49466183  0.89753694  0.04230802  1
  O  O41  1  0.49399902  0.40043825  0.47107118  1
  O  O42  1  0.49474985  0.59976768  0.97056215  1
  O  O43  1  0.50000000  0.23009763  0.25000000  1
  O  O44  1  0.50000000  0.71626851  0.25000000  1
  O  O45  1  0.50000000  0.77019555  0.75000000  1
  O  O46  1  0.50000000  0.28396040  0.75000000  1
  O  O47  1  0.50600098  0.40043825  0.02892882  1
  O  O48  1  0.50525015  0.59976768  0.52943785  1
  O  O49  1  0.50455434  0.10217557  0.95741681  1
  O  O50  1  0.50533817  0.89753694  0.45769198  1
  O  O51  1  0.74456771  0.48063315  0.75029101  1
  O  O52  1  0.74118488  0.52242898  0.24807563  1
  O  O53  1  0.74522793  0.24792347  0.49958664  1
  O  O54  1  0.74528748  0.75123950  0.00048268  1
  O  O55  1  0.75423438  0.24717315  0.00042327  1
  O  O56  1  0.75477674  0.75075513  0.49995379  1
  O  O57  1  0.75226913  0.01875523  0.24984172  1
  O  O58  1  0.75189093  0.98027548  0.75014731  1
  O  O59  1  0.99613439  0.39437645  0.47439079  1
  O  O60  1  0.99342616  0.60513006  0.94946174  1
  O  O61  1  0.99337474  0.09486180  0.52599010  1
  O  O62  1  0.99362961  0.90140366  0.02965299  1
