# generated using pymatgen
data_MnV3(PO4)6
_symmetry_space_group_name_H-M   'P 1'
_cell_length_a   8.70881497
_cell_length_b   8.70881553
_cell_length_c   8.70881513
_cell_angle_alpha   58.47324166
_cell_angle_beta   58.47324494
_cell_angle_gamma   58.47324643
_symmetry_Int_Tables_number   1
_chemical_formula_structural   MnV3(PO4)6
_chemical_formula_sum   'Mn1 V3 P6 O24'
_cell_volume   450.73424452
_cell_formula_units_Z   1
loop_
 _symmetry_equiv_pos_site_id
 _symmetry_equiv_pos_as_xyz
  1  'x, y, z'
loop_
 _atom_site_type_symbol
 _atom_site_label
 _atom_site_symmetry_multiplicity
 _atom_site_fract_x
 _atom_site_fract_y
 _atom_site_fract_z
 _atom_site_occupancy
  Mn  Mn0  1  0.85639759  0.85639759  0.85639759  1
  V  V1  1  0.14176400  0.14176400  0.14176400  1
  V  V2  1  0.35959008  0.35959008  0.35959008  1
  V  V3  1  0.63928043  0.63928043  0.63928043  1
  P  P4  1  0.03043604  0.75114522  0.46873819  1
  P  P5  1  0.46873819  0.03043604  0.75114522  1
  P  P6  1  0.75114522  0.46873819  0.03043604  1
  P  P7  1  0.24557707  0.53645702  0.96685859  1
  P  P8  1  0.53645702  0.96685859  0.24557707  1
  P  P9  1  0.96685859  0.24557707  0.53645702  1
  O  O10  1  0.13966246  0.28176075  0.50252012  1
  O  O11  1  0.28176075  0.50252012  0.13966246  1
  O  O12  1  0.05745051  0.92424799  0.28566629  1
  O  O13  1  0.50252012  0.13966246  0.28176075  1
  O  O14  1  0.21444577  0.57345340  0.43678268  1
  O  O15  1  0.01402928  0.76880860  0.64361671  1
  O  O16  1  0.28566629  0.05745051  0.92424799  1
  O  O17  1  0.43678268  0.21444577  0.57345340  1
  O  O18  1  0.57345340  0.43678268  0.21444577  1
  O  O19  1  0.22360561  0.36210275  0.98896839  1
  O  O20  1  0.07321764  0.72060433  0.94306134  1
  O  O21  1  0.36210275  0.98896839  0.22360561  1
  O  O22  1  0.64361671  0.01402928  0.76880860  1
  O  O23  1  0.92424799  0.28566629  0.05745051  1
  O  O24  1  0.76880860  0.64361671  0.01402928  1
  O  O25  1  0.42719623  0.56239688  0.78445230  1
  O  O26  1  0.56239688  0.78445230  0.42719623  1
  O  O27  1  0.72060433  0.94306134  0.07321764  1
  O  O28  1  0.98896839  0.22360561  0.36210275  1
  O  O29  1  0.78445230  0.42719623  0.56239688  1
  O  O30  1  0.49895399  0.85666131  0.72009345  1
  O  O31  1  0.94306134  0.07321764  0.72060433  1
  O  O32  1  0.72009345  0.49895399  0.85666131  1
  O  O33  1  0.85666131  0.72009345  0.49895399  1
