# generated using pymatgen
data_Li2Fe3WO8
_symmetry_space_group_name_H-M   'P 1'
_cell_length_a   6.05081540
_cell_length_b   6.04650470
_cell_length_c   9.78105037
_cell_angle_alpha   90.22472975
_cell_angle_beta   89.88771431
_cell_angle_gamma   119.97644250
_symmetry_Int_Tables_number   1
_chemical_formula_structural   Li2Fe3WO8
_chemical_formula_sum   'Li4 Fe6 W2 O16'
_cell_volume   309.98032518
_cell_formula_units_Z   2
loop_
 _symmetry_equiv_pos_site_id
 _symmetry_equiv_pos_as_xyz
  1  'x, y, z'
loop_
 _atom_site_type_symbol
 _atom_site_label
 _atom_site_symmetry_multiplicity
 _atom_site_fract_x
 _atom_site_fract_y
 _atom_site_fract_z
 _atom_site_occupancy
  Li  Li0  1  0.33641724  0.66951198  0.90912076  1
  Li  Li1  1  0.99474851  0.99729906  0.98705972  1
  Li  Li2  1  0.00525149  0.00255055  0.48705972  1
  Li  Li3  1  0.66358276  0.33309473  0.40912076  1
  Fe  Fe4  1  0.17137687  0.82694414  0.21559514  1
  Fe  Fe5  1  0.17150237  0.34369061  0.21560208  1
  Fe  Fe6  1  0.66355853  0.83232439  0.21175891  1
  Fe  Fe7  1  0.33644147  0.16876586  0.71175891  1
  Fe  Fe8  1  0.82862313  0.65556728  0.71559514  1
  Fe  Fe9  1  0.82849763  0.17218825  0.71560208  1
  W  W10  1  0.33049838  0.66512964  0.48718612  1
  W  W11  1  0.66950162  0.33463026  0.98718612  1
  O  O12  1  0.15430280  0.80839490  0.58644387  1
  O  O13  1  0.03637300  0.51768126  0.34495415  1
  O  O14  1  0.32738842  0.66267288  0.11048471  1
  O  O15  1  0.00940431  0.00526218  0.29829725  1
  O  O16  1  0.99059569  0.99585787  0.79829725  1
  O  O17  1  0.15468722  0.34630824  0.58551299  1
  O  O18  1  0.46128711  0.95588743  0.35624844  1
  O  O19  1  0.46240253  0.50603099  0.35630890  1
  O  O20  1  0.35189410  0.17593299  0.08934696  1
  O  O21  1  0.64810590  0.82403989  0.58934696  1
  O  O22  1  0.53871289  0.49460032  0.85624844  1
  O  O23  1  0.53759747  0.04362746  0.85630890  1
  O  O24  1  0.67261158  0.33528446  0.61048471  1
  O  O25  1  0.84569720  0.65409209  0.08644387  1
  O  O26  1  0.96362700  0.48130826  0.84495415  1
  O  O27  1  0.84531278  0.19162102  0.08551299  1
