# generated using pymatgen
data_Li9Mn2Co5O16
_symmetry_space_group_name_H-M   'P 1'
_cell_length_a   2.90384862
_cell_length_b   19.56331856
_cell_length_c   5.16740717
_cell_angle_alpha   100.02237860
_cell_angle_beta   90.00000000
_cell_angle_gamma   90.00000000
_symmetry_Int_Tables_number   1
_chemical_formula_structural   Li9Mn2Co5O16
_chemical_formula_sum   'Li9 Mn2 Co5 O16'
_cell_volume   289.07510881
_cell_formula_units_Z   1
loop_
 _symmetry_equiv_pos_site_id
 _symmetry_equiv_pos_as_xyz
  1  'x, y, z'
loop_
 _atom_site_type_symbol
 _atom_site_label
 _atom_site_symmetry_multiplicity
 _atom_site_fract_x
 _atom_site_fract_y
 _atom_site_fract_z
 _atom_site_occupancy
  Li  Li0  1  0.50000000  0.99539232  0.50338941  1
  Li  Li1  1  -0.00000000  0.12254072  0.73660026  1
  Li  Li2  1  0.50000000  0.24978236  0.99572032  1
  Li  Li3  1  -0.00000000  0.37565470  0.25258924  1
  Li  Li4  1  0.50000000  0.50131496  0.50234509  1
  Li  Li5  1  -0.00000000  0.87686159  0.27550299  1
  Li  Li6  1  0.50000000  0.74954028  -0.00005645  1
  Li  Li7  1  -0.00000000  0.62731527  0.75557710  1
  Li  Li8  1  0.50000000  0.87531983  0.73454044  1
  Mn  Mn9  1  -0.00000000  0.99384624  0.98586536  1
  Mn  Mn10  1  0.00000000  0.24959159  0.49674518  1
  Co  Co11  1  0.50000000  0.12313347  0.23314038  1
  Co  Co12  1  0.50000000  0.37828511  0.75546233  1
  Co  Co13  1  -0.00000000  0.50367755  0.00924643  1
  Co  Co14  1  0.50000000  0.62636226  0.27832184  1
  Co  Co15  1  0.00000000  0.75445381  0.50277440  1
  O  O16  1  0.50000000  0.94235842  0.11157377  1
  O  O17  1  0.00000000  0.06211877  0.34225196  1
  O  O18  1  0.50000000  0.19037432  0.59707214  1
  O  O19  1  -0.00000000  0.31920786  0.87794408  1
  O  O20  1  0.50000000  0.44592285  0.10243785  1
  O  O21  1  -0.00000000  0.80184590  0.81668992  1
  O  O22  1  0.50000000  0.68761868  0.61307778  1
  O  O23  1  -0.00000000  0.56670908  0.38455901  1
  O  O24  1  0.50000000  0.05382737  0.88839607  1
  O  O25  1  -0.00000000  0.18173802  0.11137858  1
  O  O26  1  0.50000000  0.30804366  0.39496507  1
  O  O27  1  -0.00000000  0.43575476  0.62982279  1
  O  O28  1  0.50000000  0.56259756  0.91697262  1
  O  O29  1  -0.00000000  0.94138249  0.65481760  1
  O  O30  1  0.50000000  0.80769506  0.37117356  1
  O  O31  1  -0.00000000  0.68973313  0.16910290  1
