# generated using pymatgen
data_Na2LiMnPCO7
_symmetry_space_group_name_H-M   'P 1'
_cell_length_a   8.85903187
_cell_length_b   6.82335446
_cell_length_c   10.22184600
_cell_angle_alpha   90.01371987
_cell_angle_beta   88.95911708
_cell_angle_gamma   89.66357069
_symmetry_Int_Tables_number   1
_chemical_formula_structural   Na2LiMnPCO7
_chemical_formula_sum   'Na8 Li4 Mn4 P4 C4 O28'
_cell_volume   617.78071603
_cell_formula_units_Z   4
loop_
 _symmetry_equiv_pos_site_id
 _symmetry_equiv_pos_as_xyz
  1  'x, y, z'
loop_
 _atom_site_type_symbol
 _atom_site_label
 _atom_site_symmetry_multiplicity
 _atom_site_fract_x
 _atom_site_fract_y
 _atom_site_fract_z
 _atom_site_occupancy
  Na  Na0  1  0.08383851  0.25075194  0.37839378  1
  Na  Na1  1  0.25570115  0.00027150  0.62600861  1
  Na  Na2  1  0.25604084  0.49933680  0.62592054  1
  Na  Na3  1  0.25814368  0.00039243  0.12373326  1
  Na  Na4  1  0.25817416  0.50015960  0.12299083  1
  Na  Na5  1  0.74548450  0.50064568  0.87446020  1
  Na  Na6  1  0.74311361  0.50213103  0.37636323  1
  Na  Na7  1  0.74415902  0.99864020  0.37560642  1
  Li  Li8  1  0.08055869  0.24096132  0.87533653  1
  Li  Li9  1  0.73233392  0.97947031  0.88248435  1
  Li  Li10  1  0.90968304  0.75813490  0.62814421  1
  Li  Li11  1  0.90779361  0.75419524  0.12242486  1
  Mn  Mn12  1  0.35876775  0.74981605  0.88591832  1
  Mn  Mn13  1  0.36365289  0.75056143  0.38921818  1
  Mn  Mn14  1  0.64303517  0.24771237  0.61477767  1
  Mn  Mn15  1  0.64417680  0.24635271  0.10785577  1
  P  P16  1  0.40671891  0.24560951  0.85161555  1
  P  P17  1  0.41174992  0.25036195  0.35329757  1
  P  P18  1  0.59774096  0.75357781  0.64979403  1
  P  P19  1  0.59628073  0.74895577  0.14298514  1
  C  C20  1  0.04492161  0.75903690  0.86758182  1
  C  C21  1  0.05244110  0.75031307  0.36516094  1
  C  C22  1  0.94166523  0.24818236  0.64102296  1
  C  C23  1  0.94873887  0.24937532  0.12795465  1
  O  O24  1  0.08590436  0.25098056  0.66106232  1
  O  O25  1  0.09169554  0.25149023  0.14928066  1
  O  O26  1  0.08602970  0.75187373  0.98865504  1
  O  O27  1  0.08942898  0.75145941  0.48782405  1
  O  O28  1  0.14623990  0.74877604  0.77327459  1
  O  O29  1  0.15693923  0.75132474  0.27369128  1
  O  O30  1  0.30575591  0.06823650  0.89189478  1
  O  O31  1  0.31802603  0.43274154  0.89507993  1
  O  O32  1  0.31875854  0.06757703  0.39583779  1
  O  O33  1  0.31788452  0.43425224  0.39505577  1
  O  O34  1  0.42651877  0.24796166  0.69959078  1
  O  O35  1  0.43736954  0.74918203  0.59000499  1
  O  O36  1  0.43117881  0.24913714  0.20097981  1
  O  O37  1  0.43618237  0.75034840  0.08329010  1
  O  O38  1  0.56785741  0.23300055  0.91017442  1
  O  O39  1  0.57722212  0.76736499  0.80219535  1
  O  O40  1  0.57112794  0.25124182  0.41363857  1
  O  O41  1  0.57536939  0.75430645  0.29490391  1
  O  O42  1  0.69269347  0.56802687  0.61407373  1
  O  O43  1  0.69333095  0.93016181  0.60159456  1
  O  O44  1  0.69086934  0.56484109  0.10370810  1
  O  O45  1  0.69349192  0.92721801  0.09687485  1
  O  O46  1  0.84895068  0.24353470  0.74090148  1
  O  O47  1  0.85308864  0.24611803  0.22705477  1
  O  O48  1  0.88819624  0.24988148  0.52361664  1
  O  O49  1  0.89904569  0.25001393  0.00926513  1
  O  O50  1  0.90359511  0.77567221  0.83670816  1
  O  O51  1  0.91233424  0.74833262  0.33071897  1
