# generated using pymatgen
data_Na2LiMnPCO7
_symmetry_space_group_name_H-M   'P 1'
_cell_length_a   8.86306089
_cell_length_b   6.78466205
_cell_length_c   10.24859189
_cell_angle_alpha   90.18648539
_cell_angle_beta   89.19911738
_cell_angle_gamma   89.22376250
_symmetry_Int_Tables_number   1
_chemical_formula_structural   Na2LiMnPCO7
_chemical_formula_sum   'Na8 Li4 Mn4 P4 C4 O28'
_cell_volume   616.15686115
_cell_formula_units_Z   4
loop_
 _symmetry_equiv_pos_site_id
 _symmetry_equiv_pos_as_xyz
  1  'x, y, z'
loop_
 _atom_site_type_symbol
 _atom_site_label
 _atom_site_symmetry_multiplicity
 _atom_site_fract_x
 _atom_site_fract_y
 _atom_site_fract_z
 _atom_site_occupancy
  Na  Na0  1  0.08329379  0.24129869  0.87922979  1
  Na  Na1  1  0.08295353  0.24427707  0.37835465  1
  Na  Na2  1  0.25543846  0.99881199  0.62395808  1
  Na  Na3  1  0.25681380  0.49988720  0.62283241  1
  Na  Na4  1  0.25515182  0.50105377  0.12591719  1
  Na  Na5  1  0.74520341  0.50110225  0.87510041  1
  Na  Na6  1  0.74436175  0.50200211  0.37727122  1
  Na  Na7  1  0.74598256  0.99874417  0.37638088  1
  Li  Li8  1  0.27495613  0.02629835  0.11596022  1
  Li  Li9  1  0.72834547  0.97739402  0.88336998  1
  Li  Li10  1  0.90811511  0.76015766  0.62804855  1
  Li  Li11  1  0.91136787  0.76499660  0.12543724  1
  Mn  Mn12  1  0.35988754  0.75189153  0.88993098  1
  Mn  Mn13  1  0.36304923  0.75212297  0.38719689  1
  Mn  Mn14  1  0.64195246  0.24737945  0.61301771  1
  Mn  Mn15  1  0.64383923  0.24646659  0.11012523  1
  P  P16  1  0.41438701  0.24476619  0.85481336  1
  P  P17  1  0.40928513  0.24611827  0.35111733  1
  P  P18  1  0.59645341  0.75317239  0.64979656  1
  P  P19  1  0.59129289  0.75333506  0.14558726  1
  C  C20  1  0.04395671  0.75902887  0.86736234  1
  C  C21  1  0.05178804  0.75124571  0.36349030  1
  C  C22  1  0.94177362  0.24916234  0.63419311  1
  C  C23  1  0.94809950  0.24011195  0.13176062  1
  O  O24  1  0.08665771  0.25331461  0.64502789  1
  O  O25  1  0.09347727  0.22586425  0.14058923  1
  O  O26  1  0.08331389  0.74791476  0.98911253  1
  O  O27  1  0.08646518  0.75269646  0.48713882  1
  O  O28  1  0.14791571  0.75243493  0.77512718  1
  O  O29  1  0.15730966  0.75511685  0.27381905  1
  O  O30  1  0.31654749  0.06859083  0.90222549  1
  O  O31  1  0.32901559  0.43542661  0.89996484  1
  O  O32  1  0.31830376  0.06741218  0.40150750  1
  O  O33  1  0.31591357  0.43476404  0.38762834  1
  O  O34  1  0.42598546  0.24370373  0.70251165  1
  O  O35  1  0.43637471  0.74743459  0.58950660  1
  O  O36  1  0.42455463  0.23081126  0.19837446  1
  O  O37  1  0.42846434  0.76935609  0.09020840  1
  O  O38  1  0.57760284  0.23031191  0.90819678  1
  O  O39  1  0.57670335  0.76912072  0.80182408  1
  O  O40  1  0.56995234  0.25266501  0.40903013  1
  O  O41  1  0.57613214  0.75615626  0.29749142  1
  O  O42  1  0.69202955  0.56603802  0.61463691  1
  O  O43  1  0.69180169  0.92940992  0.60097324  1
  O  O44  1  0.67690060  0.56269500  0.10208593  1
  O  O45  1  0.69374696  0.92636011  0.09950066  1
  O  O46  1  0.85483515  0.24622416  0.73741769  1
  O  O47  1  0.86246647  0.24533862  0.23654766  1
  O  O48  1  0.88027243  0.24741105  0.51910046  1
  O  O49  1  0.88340479  0.24993101  0.01863447  1
  O  O50  1  0.90367818  0.77624762  0.83444023  1
  O  O51  1  0.91242708  0.74642221  0.32712507  1
