# generated using pymatgen
data_LiMnSbO4
_symmetry_space_group_name_H-M   'P 1'
_cell_length_a   6.28076709
_cell_length_b   6.33358835
_cell_length_c   6.33358808
_cell_angle_alpha   59.11891812
_cell_angle_beta   60.27549243
_cell_angle_gamma   60.27549384
_symmetry_Int_Tables_number   1
_chemical_formula_structural   LiMnSbO4
_chemical_formula_sum   'Li2 Mn2 Sb2 O8'
_cell_volume   177.66191010
_cell_formula_units_Z   2
loop_
 _symmetry_equiv_pos_site_id
 _symmetry_equiv_pos_as_xyz
  1  'x, y, z'
loop_
 _atom_site_type_symbol
 _atom_site_label
 _atom_site_symmetry_multiplicity
 _atom_site_fract_x
 _atom_site_fract_y
 _atom_site_fract_z
 _atom_site_occupancy
  Li  Li0  1  0.15180126  0.09819874  0.09819874  1
  Li  Li1  1  0.84819874  0.90180126  0.90180126  1
  Mn  Mn2  1  0.00000000  0.50000000  0.50000000  1
  Mn  Mn3  1  0.50000000  0.50000000  0.50000000  1
  Sb  Sb4  1  0.50000000  0.00000000  0.50000000  1
  Sb  Sb5  1  0.50000000  0.50000000  0.00000000  1
  O  O6  1  0.28191199  0.24857088  0.24857088  1
  O  O7  1  0.28230329  0.23020329  0.70519114  1
  O  O8  1  0.28230329  0.70519114  0.23020329  1
  O  O9  1  0.72094524  0.24857088  0.24857088  1
  O  O10  1  0.27905476  0.75142812  0.75142812  1
  O  O11  1  0.71769671  0.76979671  0.29480886  1
  O  O12  1  0.71769671  0.29480886  0.76979671  1
  O  O13  1  0.71808801  0.75142812  0.75142812  1
