# generated using pymatgen
data_Na3Li3Fe2P2(CO7)2
_symmetry_space_group_name_H-M   'P 1'
_cell_length_a   8.75212659
_cell_length_b   6.63083644
_cell_length_c   10.20111273
_cell_angle_alpha   90.47454834
_cell_angle_beta   88.40339308
_cell_angle_gamma   89.39277029
_symmetry_Int_Tables_number   1
_chemical_formula_structural   Na3Li3Fe2P2(CO7)2
_chemical_formula_sum   'Na6 Li6 Fe4 P4 C4 O28'
_cell_volume   591.72569828
_cell_formula_units_Z   2
loop_
 _symmetry_equiv_pos_site_id
 _symmetry_equiv_pos_as_xyz
  1  'x, y, z'
loop_
 _atom_site_type_symbol
 _atom_site_label
 _atom_site_symmetry_multiplicity
 _atom_site_fract_x
 _atom_site_fract_y
 _atom_site_fract_z
 _atom_site_occupancy
  Na  Na0  1  0.08425353  0.25210764  0.87869375  1
  Na  Na1  1  0.08413938  0.24171472  0.37873462  1
  Na  Na2  1  0.25512210  0.99503190  0.62491609  1
  Na  Na3  1  0.25662198  0.50219736  0.12755486  1
  Na  Na4  1  0.74502858  0.50152461  0.87473173  1
  Na  Na5  1  0.74387170  0.50079599  0.37604587  1
  Li  Li6  1  0.28116581  0.47141732  0.61067474  1
  Li  Li7  1  0.27961332  0.02719386  0.10939812  1
  Li  Li8  1  0.72529226  0.97937275  0.88403778  1
  Li  Li9  1  0.72387204  0.97819094  0.38762785  1
  Li  Li10  1  0.90275439  0.75682219  0.62593818  1
  Li  Li11  1  0.90757060  0.77991138  0.12700232  1
  Fe  Fe12  1  0.35370423  0.75140301  0.88968434  1
  Fe  Fe13  1  0.35381188  0.74710107  0.38929566  1
  Fe  Fe14  1  0.65110841  0.24247166  0.60996645  1
  Fe  Fe15  1  0.65130262  0.24627978  0.10808134  1
  P  P16  1  0.41654445  0.24917320  0.85270813  1
  P  P17  1  0.41613696  0.23758087  0.35327658  1
  P  P18  1  0.59073593  0.74600482  0.64770916  1
  P  P19  1  0.58906298  0.75898637  0.14706259  1
  C  C20  1  0.04302367  0.75896002  0.86487337  1
  C  C21  1  0.04237024  0.76123328  0.36526074  1
  C  C22  1  0.94929343  0.25781367  0.63520190  1
  C  C23  1  0.94958339  0.23861556  0.13549542  1
  O  O24  1  0.09543288  0.28201724  0.64184398  1
  O  O25  1  0.09689308  0.22110694  0.14139343  1
  O  O26  1  0.07443723  0.74763857  0.98853564  1
  O  O27  1  0.07517581  0.75882034  0.48877750  1
  O  O28  1  0.15411763  0.75054341  0.77640187  1
  O  O29  1  0.15248963  0.74563204  0.27621184  1
  O  O30  1  0.31462609  0.06755941  0.89452005  1
  O  O31  1  0.32920877  0.43961267  0.90511356  1
  O  O32  1  0.31716098  0.05804626  0.40110641  1
  O  O33  1  0.32562223  0.43089225  0.40016697  1
  O  O34  1  0.43139110  0.25997369  0.69922045  1
  O  O35  1  0.43030252  0.72414578  0.58818030  1
  O  O36  1  0.42991761  0.23269627  0.19989703  1
  O  O37  1  0.42796293  0.77250627  0.08744496  1
  O  O38  1  0.57822223  0.22977168  0.90853345  1
  O  O39  1  0.57166031  0.77605461  0.79920975  1
  O  O40  1  0.57780201  0.23151480  0.41023812  1
  O  O41  1  0.57174374  0.77812768  0.29959067  1
  O  O42  1  0.69436784  0.55805407  0.61752331  1
  O  O43  1  0.68345433  0.92502875  0.58831234  1
  O  O44  1  0.67518732  0.55936969  0.11090513  1
  O  O45  1  0.69564487  0.92898267  0.09321413  1
  O  O46  1  0.86370997  0.23865628  0.74064589  1
  O  O47  1  0.86352224  0.24297251  0.24123820  1
  O  O48  1  0.88348256  0.25024023  0.52202533  1
  O  O49  1  0.88414863  0.25219329  0.02240863  1
  O  O50  1  0.90366144  0.77772515  0.82618296  1
  O  O51  1  0.90267014  0.77821451  0.32718551  1
