# generated using pymatgen
data_Li2Fe3CoO8
_symmetry_space_group_name_H-M   'P 1'
_cell_length_a   5.85755836
_cell_length_b   5.85755855
_cell_length_c   5.85755870
_cell_angle_alpha   61.09813945
_cell_angle_beta   61.09813848
_cell_angle_gamma   61.09813515
_symmetry_Int_Tables_number   1
_chemical_formula_structural   Li2Fe3CoO8
_chemical_formula_sum   'Li2 Fe3 Co1 O8'
_cell_volume   145.62625253
_cell_formula_units_Z   1
loop_
 _symmetry_equiv_pos_site_id
 _symmetry_equiv_pos_as_xyz
  1  'x, y, z'
loop_
 _atom_site_type_symbol
 _atom_site_label
 _atom_site_symmetry_multiplicity
 _atom_site_fract_x
 _atom_site_fract_y
 _atom_site_fract_z
 _atom_site_occupancy
  Li  Li0  1  0.12518981  0.12518981  0.12518981  1
  Li  Li1  1  0.87481019  0.87481019  0.87481019  1
  Fe  Fe2  1  0.00000000  0.50000000  0.50000000  1
  Fe  Fe3  1  0.50000000  0.00000000  0.50000000  1
  Fe  Fe4  1  0.50000000  0.50000000  0.00000000  1
  Co  Co5  1  0.50000000  0.50000000  0.50000000  1
  O  O6  1  0.26211733  0.26211733  0.26211733  1
  O  O7  1  0.27071498  0.27071498  0.71053409  1
  O  O8  1  0.27071498  0.71053409  0.27071498  1
  O  O9  1  0.71053409  0.27071498  0.27071498  1
  O  O10  1  0.28946591  0.72928502  0.72928502  1
  O  O11  1  0.72928502  0.28946591  0.72928502  1
  O  O12  1  0.72928502  0.72928502  0.28946591  1
  O  O13  1  0.73788267  0.73788267  0.73788267  1
