# generated using pymatgen
data_Li9Mn2Co5O16
_symmetry_space_group_name_H-M   'P 1'
_cell_length_a   2.86908977
_cell_length_b   16.88151142
_cell_length_c   5.94263246
_cell_angle_alpha   89.54177347
_cell_angle_beta   90.00000000
_cell_angle_gamma   90.00000000
_symmetry_Int_Tables_number   1
_chemical_formula_structural   Li9Mn2Co5O16
_chemical_formula_sum   'Li9 Mn2 Co5 O16'
_cell_volume   287.81965317
_cell_formula_units_Z   1
loop_
 _symmetry_equiv_pos_site_id
 _symmetry_equiv_pos_as_xyz
  1  'x, y, z'
loop_
 _atom_site_type_symbol
 _atom_site_label
 _atom_site_symmetry_multiplicity
 _atom_site_fract_x
 _atom_site_fract_y
 _atom_site_fract_z
 _atom_site_occupancy
  Li  Li0  1  0.50000000  0.12932314  0.25150960  1
  Li  Li1  1  0.50000000  0.38395841  0.75573542  1
  Li  Li2  1  0.50000000  0.62185763  0.24277522  1
  Li  Li3  1  0.00000000  0.25397475  -0.00223498  1
  Li  Li4  1  0.00000000  0.50115956  0.48963105  1
  Li  Li5  1  0.00000000  0.74247940  0.99608495  1
  Li  Li6  1  0.50000000  0.87034809  0.74762348  1
  Li  Li7  1  0.00000000  0.00025699  0.50019176  1
  Li  Li8  1  0.00000000  0.50091075  0.00961121  1
  Mn  Mn9  1  0.00000000  0.00062022  -0.00045131  1
  Mn  Mn10  1  0.50000000  0.37947123  0.24467893  1
  Co  Co11  1  -0.00000000  0.25060439  0.50387122  1
  Co  Co12  1  0.00000000  0.74624996  0.50738135  1
  Co  Co13  1  0.50000000  0.61388582  0.75841509  1
  Co  Co14  1  0.50000000  0.87095546  0.25565453  1
  Co  Co15  1  0.50000000  0.12837037  0.74584026  1
  O  O16  1  0.50000000  0.00115009  0.22192993  1
  O  O17  1  0.50000000  0.25279933  0.73727956  1
  O  O18  1  0.50000000  0.48726963  0.25031627  1
  O  O19  1  -0.00000000  0.11630909  0.98408923  1
  O  O20  1  0.00000000  0.37202449  0.47120497  1
  O  O21  1  0.00000000  0.62432870  0.98481192  1
  O  O22  1  0.50000000  0.74990034  0.73750813  1
  O  O23  1  0.00000000  0.87561441  0.48623337  1
  O  O24  1  0.50000000  0.25587903  0.26233579  1
  O  O25  1  0.50000000  0.50354738  0.74614817  1
  O  O26  1  0.50000000  0.75260683  0.26395637  1
  O  O27  1  -0.00000000  0.37382107  0.02837736  1
  O  O28  1  -0.00000000  0.62734993  0.51580006  1
  O  O29  1  -0.00000000  0.88518426  0.01494349  1
  O  O30  1  0.50000000  -0.00082121  0.77856284  1
  O  O31  1  0.00000000  0.12861047  0.51018475  1
