# generated using pymatgen
data_Li6Sn3P8O29
_symmetry_space_group_name_H-M   'P 1'
_cell_length_a   9.88732508
_cell_length_b   9.88784141
_cell_length_c   14.05507932
_cell_angle_alpha   89.40832250
_cell_angle_beta   89.56631606
_cell_angle_gamma   60.37391767
_symmetry_Int_Tables_number   1
_chemical_formula_structural   Li6Sn3P8O29
_chemical_formula_sum   'Li12 Sn6 P16 O58'
_cell_volume   1194.38238106
_cell_formula_units_Z   2
loop_
 _symmetry_equiv_pos_site_id
 _symmetry_equiv_pos_as_xyz
  1  'x, y, z'
loop_
 _atom_site_type_symbol
 _atom_site_label
 _atom_site_symmetry_multiplicity
 _atom_site_fract_x
 _atom_site_fract_y
 _atom_site_fract_z
 _atom_site_occupancy
  Li  Li0  1  0.01610857  0.03808733  0.50562800  1
  Li  Li1  1  0.00322626  0.00303054  0.00429483  1
  Li  Li2  1  0.08931372  0.68109671  0.05824196  1
  Li  Li3  1  0.32880991  0.32611743  0.88798194  1
  Li  Li4  1  0.23220925  0.66610961  0.55690392  1
  Li  Li5  1  0.66214375  0.10510563  0.55726113  1
  Li  Li6  1  0.33966763  0.76805457  0.94605481  1
  Li  Li7  1  0.67637504  0.23031797  0.05848945  1
  Li  Li8  1  0.33081255  0.90406400  0.44053387  1
  Li  Li9  1  0.77011504  0.33454936  0.44398295  1
  Li  Li10  1  0.89628765  0.33575600  0.94242598  1
  Li  Li11  1  0.89804202  0.77185374  0.44405600  1
  Sn  Sn12  1  0.00031788  0.43251067  0.74579843  1
  Sn  Sn13  1  0.99794996  0.56190174  0.24959350  1
  Sn  Sn14  1  0.43446189  0.00168357  0.24487281  1
  Sn  Sn15  1  0.56699922  0.99430612  0.75187718  1
  Sn  Sn16  1  0.43760079  0.56601581  0.74871551  1
  Sn  Sn17  1  0.56489711  0.43602330  0.25172335  1
  P  P18  1  0.08222671  0.21615843  0.33923073  1
  P  P19  1  0.21703131  0.08320591  0.84097229  1
  P  P20  1  0.08942699  0.68705563  0.84733620  1
  P  P21  1  0.33183949  0.33770550  0.12430962  1
  P  P22  1  0.33718816  0.33251608  0.62444344  1
  P  P23  1  0.22297754  0.68911428  0.34394698  1
  P  P24  1  0.30819438  0.77768104  0.15642529  1
  P  P25  1  0.69029495  0.08227330  0.34676426  1
  P  P26  1  0.30575702  0.92005940  0.65051136  1
  P  P27  1  0.68496189  0.22174024  0.84426755  1
  P  P28  1  0.77624086  0.30835034  0.65568253  1
  P  P29  1  0.67072730  0.66144091  0.87690803  1
  P  P30  1  0.66457406  0.66932847  0.37819420  1
  P  P31  1  0.91593014  0.30641912  0.15084551  1
  P  P32  1  0.78250806  0.91906898  0.15760401  1
  P  P33  1  0.91828642  0.77593249  0.65825742  1
  O  O34  1  0.01300080  0.19865951  0.23917768  1
  O  O35  1  0.98779650  0.22107026  0.06027479  1
  O  O36  1  0.07519117  0.25003586  0.84494778  1
  O  O37  1  0.20078240  0.01716695  0.73965098  1
  O  O38  1  0.21815472  0.99460791  0.56082771  1
  O  O39  1  0.25005515  0.07622609  0.34225882  1
  O  O40  1  0.08264999  0.37143890  0.33784988  1
  O  O41  1  0.20544692  0.31268418  0.67353532  1
  O  O42  1  0.10893388  0.52126915  0.83601291  1
  O  O43  1  0.00685921  0.78034608  0.57115506  1
  O  O44  1  0.00293831  0.78728262  0.75310475  1
  O  O45  1  0.07704661  0.66867229  0.34632774  1
  O  O46  1  0.31222881  0.20466455  0.16890942  1
  O  O47  1  0.36654092  0.09954843  0.83804909  1
  O  O48  1  0.19189886  0.49624407  0.16135994  1
  O  O49  1  0.33446462  0.34062611  0.01730213  1
  O  O50  1  0.33978643  0.33659658  0.51885187  1
  O  O51  1  0.31884459  0.49176261  0.66393745  1
  O  O52  1  0.53161240  0.09276855  0.33488057  1
  O  O53  1  0.49612448  0.19305652  0.66513586  1
  O  O54  1  0.25494807  0.66880881  0.84521261  1
  O  O55  1  0.20419814  0.79084784  0.24960670  1
  O  O56  1  0.21748761  0.78061762  0.06904646  1
  O  O57  1  0.22222190  0.77927748  0.43046747  1
  O  O58  1  0.37054807  0.52973194  0.33575380  1
  O  O59  1  0.48953959  0.32149461  0.16143114  1
  O  O60  1  0.32428012  0.75439631  0.65761343  1
  O  O61  1  0.51933444  0.36686187  0.83479901  1
  O  O62  1  0.66754012  0.07627700  0.84678974  1
  O  O63  1  0.20853484  0.98451067  0.91922889  1
  O  O64  1  0.80092253  0.01135541  0.07840775  1
  O  O65  1  0.79979747  0.99051949  0.25812632  1
  O  O66  1  0.32748026  0.92203114  0.15613111  1
  O  O67  1  0.46623001  0.62814959  0.16494895  1
  O  O68  1  0.67168024  0.24795376  0.34654374  1
  O  O69  1  0.51229669  0.67822641  0.83707230  1
  O  O70  1  0.62718159  0.46749489  0.66105792  1
  O  O71  1  0.78109293  0.21614619  0.56872320  1
  O  O72  1  0.77176860  0.22897054  0.93021533  1
  O  O73  1  0.78481158  0.20976514  0.75034746  1
  O  O74  1  0.74941337  0.32684356  0.15909166  1
  O  O75  1  0.50873186  0.80608962  0.33564139  1
  O  O76  1  0.46545034  0.90983081  0.65986187  1
  O  O77  1  0.68435388  0.50986129  0.33962206  1
  O  O78  1  0.66781387  0.65687210  0.98248193  1
  O  O79  1  0.66390522  0.67084528  0.48441392  1
  O  O80  1  0.80960424  0.50363090  0.83635389  1
  O  O81  1  0.62981185  0.91403988  0.16082999  1
  O  O82  1  0.68766601  0.79535587  0.82873291  1
  O  O83  1  0.92219788  0.32474340  0.65620046  1
  O  O84  1  0.98723382  0.20028218  0.41796672  1
  O  O85  1  0.90449574  0.46674173  0.16075376  1
  O  O86  1  0.80450298  0.68680723  0.33649501  1
  O  O87  1  0.90485095  0.62790828  0.66365482  1
  O  O88  1  0.75479852  0.92271564  0.65780870  1
  O  O89  1  0.77459486  0.99829150  0.43682554  1
  O  O90  1  0.92326067  0.75085981  0.15713938  1
  O  O91  1  0.00612380  0.77328280  0.93464588  1
