# generated using pymatgen
data_NiSb3(PO4)6
_symmetry_space_group_name_H-M   'P 1'
_cell_length_a   8.92096404
_cell_length_b   8.92096446
_cell_length_c   8.92096418
_cell_angle_alpha   57.98753366
_cell_angle_beta   57.98753170
_cell_angle_gamma   57.98753028
_symmetry_Int_Tables_number   1
_chemical_formula_structural   NiSb3(PO4)6
_chemical_formula_sum   'Ni1 Sb3 P6 O24'
_cell_volume   478.84264652
_cell_formula_units_Z   1
loop_
 _symmetry_equiv_pos_site_id
 _symmetry_equiv_pos_as_xyz
  1  'x, y, z'
loop_
 _atom_site_type_symbol
 _atom_site_label
 _atom_site_symmetry_multiplicity
 _atom_site_fract_x
 _atom_site_fract_y
 _atom_site_fract_z
 _atom_site_occupancy
  Ni  Ni0  1  0.85643473  0.85643473  0.85643473  1
  Sb  Sb1  1  0.14307867  0.14307867  0.14307867  1
  Sb  Sb2  1  0.35657954  0.35657954  0.35657954  1
  Sb  Sb3  1  0.64421188  0.64421188  0.64421188  1
  P  P4  1  0.03698927  0.75119350  0.46718838  1
  P  P5  1  0.46718838  0.03698927  0.75119350  1
  P  P6  1  0.75119350  0.46718838  0.03698927  1
  P  P7  1  0.24579249  0.54194205  0.96177442  1
  P  P8  1  0.54194205  0.96177442  0.24579249  1
  P  P9  1  0.96177442  0.24579249  0.54194205  1
  O  O10  1  0.13313796  0.27753201  0.51167677  1
  O  O11  1  0.27753201  0.51167677  0.13313796  1
  O  O12  1  0.05957817  0.92387349  0.27954714  1
  O  O13  1  0.51167677  0.13313796  0.27753201  1
  O  O14  1  0.21878692  0.57565645  0.43863978  1
  O  O15  1  0.01266576  0.77625125  0.63242265  1
  O  O16  1  0.27954714  0.05957817  0.92387349  1
  O  O17  1  0.43863978  0.21878692  0.57565645  1
  O  O18  1  0.57565645  0.43863978  0.21878692  1
  O  O19  1  0.22853425  0.36403841  0.98644828  1
  O  O20  1  0.07728348  0.71810305  0.93969628  1
  O  O21  1  0.36403841  0.98644828  0.22853425  1
  O  O22  1  0.63242265  0.01266576  0.77625125  1
  O  O23  1  0.92387349  0.27954714  0.05957817  1
  O  O24  1  0.77625125  0.63242265  0.01266576  1
  O  O25  1  0.42673760  0.55653731  0.78200502  1
  O  O26  1  0.55653731  0.78200502  0.42673760  1
  O  O27  1  0.71810305  0.93969628  0.07728348  1
  O  O28  1  0.98644828  0.22853425  0.36403841  1
  O  O29  1  0.78200502  0.42673760  0.55653731  1
  O  O30  1  0.48333573  0.86773507  0.72459325  1
  O  O31  1  0.93969628  0.07728348  0.71810305  1
  O  O32  1  0.72459325  0.48333573  0.86773507  1
  O  O33  1  0.86773507  0.72459325  0.48333573  1
