# generated using pymatgen
data_Sr2CoCO3F5
_symmetry_space_group_name_H-M   'P 1'
_cell_length_a   5.57440845
_cell_length_b   8.92027398
_cell_length_c   13.46586956
_cell_angle_alpha   90.00000000
_cell_angle_beta   98.64918952
_cell_angle_gamma   90.00000000
_symmetry_Int_Tables_number   1
_chemical_formula_structural   Sr2CoCO3F5
_chemical_formula_sum   'Sr8 Co4 C4 O12 F20'
_cell_volume   661.97887694
_cell_formula_units_Z   4
loop_
 _symmetry_equiv_pos_site_id
 _symmetry_equiv_pos_as_xyz
  1  'x, y, z'
loop_
 _atom_site_type_symbol
 _atom_site_label
 _atom_site_symmetry_multiplicity
 _atom_site_fract_x
 _atom_site_fract_y
 _atom_site_fract_z
 _atom_site_occupancy
  Sr  Sr0  1  0.21119042  0.88838586  0.90269378  1
  Sr  Sr1  1  0.22479179  0.36153022  0.91608155  1
  Sr  Sr2  1  0.27520821  0.86153022  0.58391845  1
  Sr  Sr3  1  0.28880958  0.38838586  0.59730622  1
  Sr  Sr4  1  0.71119042  0.61161414  0.40269378  1
  Sr  Sr5  1  0.72479179  0.13846978  0.41608155  1
  Sr  Sr6  1  0.77520821  0.63846978  0.08391845  1
  Sr  Sr7  1  0.78880958  0.11161414  0.09730622  1
  Co  Co8  1  0.13538696  0.87217634  0.32659061  1
  Co  Co9  1  0.36461304  0.37217634  0.17340939  1
  Co  Co10  1  0.63538696  0.62782366  0.82659061  1
  Co  Co11  1  0.86461304  0.12782366  0.67340939  1
  C  C12  1  0.18418734  0.37589289  0.36333556  1
  C  C13  1  0.31581266  0.87589289  0.13666444  1
  C  C14  1  0.68418734  0.12410711  0.86333556  1
  C  C15  1  0.81581266  0.62410711  0.63666444  1
  O  O16  1  0.00435684  0.38108016  0.41453340  1
  O  O17  1  0.13060947  0.36872858  0.26573995  1
  O  O18  1  0.09502236  0.87728553  0.09105263  1
  O  O19  1  0.50435684  0.11891984  0.91453340  1
  O  O20  1  0.40497764  0.37728553  0.40894737  1
  O  O21  1  0.36939053  0.86872858  0.23426005  1
  O  O22  1  0.63060947  0.13127142  0.76573995  1
  O  O23  1  0.59502236  0.62271447  0.59105263  1
  O  O24  1  0.49564316  0.88108016  0.08546660  1
  O  O25  1  0.90497764  0.12271447  0.90894737  1
  O  O26  1  0.86939053  0.63127142  0.73426005  1
  O  O27  1  0.99564316  0.61891984  0.58546660  1
  F  F28  1  0.05552915  0.96119243  0.72709012  1
  F  F29  1  0.06601150  0.28278779  0.73576363  1
  F  F30  1  0.09403694  0.13028302  0.56558511  1
  F  F31  1  0.40596306  0.63028302  0.93441489  1
  F  F32  1  0.16982119  0.51229709  0.08636420  1
  F  F33  1  0.30788641  0.71721715  0.41418961  1
  F  F34  1  0.43398850  0.78278779  0.76423637  1
  F  F35  1  0.44447085  0.46119243  0.77290988  1
  F  F36  1  0.19211359  0.21721715  0.08581039  1
  F  F37  1  0.33017881  0.01229709  0.41363580  1
  F  F38  1  0.66982119  0.98770291  0.58636420  1
  F  F39  1  0.80788641  0.78278285  0.91418961  1
  F  F40  1  0.55552915  0.53880757  0.22709012  1
  F  F41  1  0.56601150  0.21721221  0.23576363  1
  F  F42  1  0.69211359  0.28278285  0.58581039  1
  F  F43  1  0.83017881  0.48770291  0.91363580  1
  F  F44  1  0.59403694  0.36971698  0.06558511  1
  F  F45  1  0.90596306  0.86971698  0.43441489  1
  F  F46  1  0.93398850  0.71721221  0.26423637  1
  F  F47  1  0.94447085  0.03880757  0.27290988  1
