# generated using pymatgen
data_Ni2PO5
_symmetry_space_group_name_H-M   'P 1'
_cell_length_a   5.35729975
_cell_length_b   7.08951911
_cell_length_c   5.35729975
_cell_angle_alpha   67.80051593
_cell_angle_beta   90.00000000
_cell_angle_gamma   112.19948407
_symmetry_Int_Tables_number   1
_chemical_formula_structural   Ni2PO5
_chemical_formula_sum   'Ni4 P2 O10'
_cell_volume   171.99083830
_cell_formula_units_Z   2
loop_
 _symmetry_equiv_pos_site_id
 _symmetry_equiv_pos_as_xyz
  1  'x, y, z'
loop_
 _atom_site_type_symbol
 _atom_site_label
 _atom_site_symmetry_multiplicity
 _atom_site_fract_x
 _atom_site_fract_y
 _atom_site_fract_z
 _atom_site_occupancy
  Ni  Ni0  1  0.50000000  0.50000000  0.00000000  1
  Ni  Ni1  1  0.50000000  0.00000000  0.50000000  1
  Ni  Ni2  1  0.00000000  0.00000000  0.50000000  1
  Ni  Ni3  1  0.50000000  0.50000000  0.50000000  1
  P  P4  1  0.12500000  0.75000000  0.12500000  1
  P  P5  1  0.87500000  0.25000000  0.87500000  1
  O  O6  1  0.80599662  0.11199324  0.18794101  1
  O  O7  1  0.29993525  0.61199324  0.19400338  1
  O  O8  1  0.37500000  0.25000000  0.37500000  1
  O  O9  1  0.81205899  0.61199324  0.19400338  1
  O  O10  1  0.19400338  0.88800676  0.29993525  1
  O  O11  1  0.80599662  0.11199324  0.70006475  1
  O  O12  1  0.70006475  0.38800676  0.80599662  1
  O  O13  1  0.18794101  0.38800676  0.80599662  1
  O  O14  1  0.62500000  0.75000000  0.62500000  1
  O  O15  1  0.19400338  0.88800676  0.81205899  1
