# generated using pymatgen
data_Na2NiPCO7
_symmetry_space_group_name_H-M   'P 1'
_cell_length_a   11.10304867
_cell_length_b   5.17586724
_cell_length_c   10.98620197
_cell_angle_alpha   88.82380099
_cell_angle_beta   73.43428358
_cell_angle_gamma   88.97569629
_symmetry_Int_Tables_number   1
_chemical_formula_structural   Na2NiPCO7
_chemical_formula_sum   'Na8 Ni4 P4 C4 O28'
_cell_volume   604.97349515
_cell_formula_units_Z   4
loop_
 _symmetry_equiv_pos_site_id
 _symmetry_equiv_pos_as_xyz
  1  'x, y, z'
loop_
 _atom_site_type_symbol
 _atom_site_label
 _atom_site_symmetry_multiplicity
 _atom_site_fract_x
 _atom_site_fract_y
 _atom_site_fract_z
 _atom_site_occupancy
  Na  Na0  1  0.12230033  0.24995061  0.14946377  1
  Na  Na1  1  0.37769967  0.75004939  0.35053623  1
  Na  Na2  1  0.11443979  0.75415742  0.62954146  1
  Na  Na3  1  0.59869869  0.21996892  0.31351860  1
  Na  Na4  1  0.90130131  0.78003108  0.18648140  1
  Na  Na5  1  0.62659986  0.24776088  0.63442525  1
  Na  Na6  1  0.38556021  0.24584258  0.87045854  1
  Na  Na7  1  0.87340014  0.75223912  0.86557475  1
  Ni  Ni8  1  0.29716911  0.77801000  0.04668429  1
  Ni  Ni9  1  0.20283089  0.22199000  0.45331571  1
  Ni  Ni10  1  0.80013858  0.78216192  0.54499509  1
  Ni  Ni11  1  0.69986142  0.21783808  0.95500491  1
  P  P12  1  0.08638550  0.71668396  0.33808957  1
  P  P13  1  0.41361450  0.28331604  0.16191043  1
  P  P14  1  0.58532483  0.72442055  0.83568780  1
  P  P15  1  0.91467517  0.27557945  0.66431220  1
  C  C16  1  0.84611082  0.28548487  0.08504600  1
  C  C17  1  0.33864101  0.28658697  0.58875860  1
  C  C18  1  0.16135899  0.71341303  0.91124140  1
  C  C19  1  0.65388918  0.71451513  0.41495400  1
  O  O20  1  0.12477090  0.78397224  0.19338415  1
  O  O21  1  0.33632493  0.13371000  0.08976300  1
  O  O22  1  0.11604482  0.42350884  0.35388521  1
  O  O23  1  0.38395518  0.57649116  0.14611479  1
  O  O24  1  0.16367507  0.86629000  0.41023700  1
  O  O25  1  0.05533682  0.20168289  0.61996369  1
  O  O26  1  0.55546248  0.22620721  0.11653641  1
  O  O27  1  0.37522910  0.21602776  0.30661585  1
  O  O28  1  0.28795270  0.47840298  0.53975765  1
  O  O29  1  0.79296353  0.47351073  0.03720241  1
  O  O30  1  0.81353677  0.05426559  0.06403727  1
  O  O31  1  0.30649588  0.06104533  0.55739180  1
  O  O32  1  0.58057099  0.67153753  0.34826878  1
  O  O33  1  0.08897395  0.68497814  0.84432739  1
  O  O34  1  0.91942901  0.32846247  0.15173122  1
  O  O35  1  0.41102605  0.31502186  0.65567261  1
  O  O36  1  0.19350412  0.93895467  0.94260820  1
  O  O37  1  0.68646323  0.94573441  0.43596273  1
  O  O38  1  0.70703647  0.52648927  0.46279759  1
  O  O39  1  0.21204730  0.52159702  0.96024235  1
  O  O40  1  0.94453752  0.77379279  0.38346359  1
  O  O41  1  0.44466318  0.79831711  0.88003631  1
  O  O42  1  0.63197960  0.79536869  0.69204676  1
  O  O43  1  0.83743626  0.13546683  0.58934654  1
  O  O44  1  0.60328879  0.42709600  0.85316898  1
  O  O45  1  0.89671121  0.57290400  0.64683102  1
  O  O46  1  0.66256374  0.86453317  0.91065346  1
  O  O47  1  0.86802040  0.20463131  0.80795324  1
