# generated using pymatgen
data_Li4Mn3Fe2Co3O16
_symmetry_space_group_name_H-M   'P 1'
_cell_length_a   5.74732675
_cell_length_b   5.77345862
_cell_length_c   9.44751375
_cell_angle_alpha   89.95776871
_cell_angle_beta   90.03437722
_cell_angle_gamma   119.99565423
_symmetry_Int_Tables_number   1
_chemical_formula_structural   Li4Mn3Fe2Co3O16
_chemical_formula_sum   'Li4 Mn3 Fe2 Co3 O16'
_cell_volume   271.49947468
_cell_formula_units_Z   1
loop_
 _symmetry_equiv_pos_site_id
 _symmetry_equiv_pos_as_xyz
  1  'x, y, z'
loop_
 _atom_site_type_symbol
 _atom_site_label
 _atom_site_symmetry_multiplicity
 _atom_site_fract_x
 _atom_site_fract_y
 _atom_site_fract_z
 _atom_site_occupancy
  Li  Li0  1  0.33485955  0.66804489  0.89263318  1
  Li  Li1  1  0.00509385  0.00041896  0.99815826  1
  Li  Li2  1  0.00989023  0.00618055  0.49656038  1
  Li  Li3  1  0.66524523  0.32965467  0.38835548  1
  Mn  Mn4  1  0.66099286  0.83002567  0.21520937  1
  Mn  Mn5  1  0.83029924  0.66209403  0.71488251  1
  Mn  Mn6  1  0.83047253  0.16936389  0.71511825  1
  Fe  Fe7  1  0.32680074  0.66518224  0.49094455  1
  Fe  Fe8  1  0.66231549  0.33505703  -0.00623612  1
  Co  Co9  1  0.16892430  0.82953952  0.21424320  1
  Co  Co10  1  0.16864727  0.33683265  0.21311534  1
  Co  Co11  1  0.33980146  0.17044339  0.71443965  1
  O  O12  1  0.16001704  0.83607025  0.60203102  1
  O  O13  1  0.03644723  0.51338948  0.32856026  1
  O  O14  1  0.33260975  0.66598881  0.10876302  1
  O  O15  1  0.00143744  0.00016342  0.30913793  1
  O  O16  1  0.00111551  0.00050492  0.81107021  1
  O  O17  1  0.15972476  0.32489448  0.60185174  1
  O  O18  1  0.48117452  0.96226690  0.33555025  1
  O  O19  1  0.47731759  0.51279471  0.33298113  1
  O  O20  1  0.32009650  0.16516263  0.10750656  1
  O  O21  1  0.67697963  0.83891192  0.60176217  1
  O  O22  1  0.51756855  0.48254704  0.83529184  1
  O  O23  1  0.51882342  0.03626844  0.83659067  1
  O  O24  1  0.66775983  0.33466221  0.60720974  1
  O  O25  1  0.83714926  0.67740117  0.10250486  1
  O  O26  1  0.96572312  0.48294553  0.83487844  1
  O  O27  1  0.84271209  0.16348959  0.10472609  1
