# generated using pymatgen
data_Fe3Ni2Sn(PO4)6
_symmetry_space_group_name_H-M   'P 1'
_cell_length_a   8.53907306
_cell_length_b   8.53907367
_cell_length_c   8.53907326
_cell_angle_alpha   60.90476185
_cell_angle_beta   60.90476323
_cell_angle_gamma   60.90476878
_symmetry_Int_Tables_number   1
_chemical_formula_structural   Fe3Ni2Sn(PO4)6
_chemical_formula_sum   'Fe3 Ni2 Sn1 P6 O24'
_cell_volume   449.24641392
_cell_formula_units_Z   1
loop_
 _symmetry_equiv_pos_site_id
 _symmetry_equiv_pos_as_xyz
  1  'x, y, z'
loop_
 _atom_site_type_symbol
 _atom_site_label
 _atom_site_symmetry_multiplicity
 _atom_site_fract_x
 _atom_site_fract_y
 _atom_site_fract_z
 _atom_site_occupancy
  Fe  Fe0  1  0.14547183  0.14547183  0.14547183  1
  Fe  Fe1  1  0.35442975  0.35442975  0.35442975  1
  Fe  Fe2  1  0.64388415  0.64388415  0.64388415  1
  Ni  Ni3  1  0.00347662  0.00347662  0.00347662  1
  Ni  Ni4  1  0.49931352  0.49931352  0.49931352  1
  Sn  Sn5  1  0.85611596  0.85611596  0.85611596  1
  P  P6  1  0.74801539  0.44922471  0.04919304  1
  P  P7  1  0.04919304  0.74801539  0.44922471  1
  P  P8  1  0.44922471  0.04919304  0.74801539  1
  P  P9  1  0.25458859  0.54217948  0.95283857  1
  P  P10  1  0.54217948  0.95283857  0.25458859  1
  P  P11  1  0.95283857  0.25458859  0.54217948  1
  O  O12  1  0.10686046  0.32272328  0.50263669  1
  O  O13  1  0.32272328  0.50263669  0.10686046  1
  O  O14  1  0.06278302  0.90795985  0.25301039  1
  O  O15  1  0.50263669  0.10686046  0.32272328  1
  O  O16  1  0.01514234  0.81747729  0.60265790  1
  O  O17  1  0.24718598  0.59141745  0.43371995  1
  O  O18  1  0.25301039  0.06278302  0.90795985  1
  O  O19  1  0.43371995  0.24718598  0.59141745  1
  O  O20  1  0.18139714  0.39065328  0.99447071  1
  O  O21  1  0.59141745  0.43371995  0.24718598  1
  O  O22  1  0.09458851  0.74424426  0.94021298  1
  O  O23  1  0.39065328  0.99447071  0.18139714  1
  O  O24  1  0.60265790  0.01514234  0.81747729  1
  O  O25  1  0.90795985  0.25301039  0.06278302  1
  O  O26  1  0.40932117  0.55995503  0.75335856  1
  O  O27  1  0.81747729  0.60265790  0.01514234  1
  O  O28  1  0.55995503  0.75335856  0.40932117  1
  O  O29  1  0.74424426  0.94021298  0.09458851  1
  O  O30  1  0.75335856  0.40932117  0.55995503  1
  O  O31  1  0.99447071  0.18139714  0.39065328  1
  O  O32  1  0.49674653  0.88977703  0.68296859  1
  O  O33  1  0.94021298  0.09458851  0.74424426  1
  O  O34  1  0.68296859  0.49674653  0.88977703  1
  O  O35  1  0.88977703  0.68296859  0.49674653  1
