# generated using pymatgen
data_NaLiTiAl(PO4)3
_symmetry_space_group_name_H-M   'P 1'
_cell_length_a   8.55887294
_cell_length_b   8.77607708
_cell_length_c   8.55887285
_cell_angle_alpha   119.50974197
_cell_angle_beta   59.75335264
_cell_angle_gamma   119.50974465
_symmetry_Int_Tables_number   1
_chemical_formula_structural   NaLiTiAl(PO4)3
_chemical_formula_sum   'Na2 Li2 Ti2 Al2 P6 O24'
_cell_volume   457.05617195
_cell_formula_units_Z   2
loop_
 _symmetry_equiv_pos_site_id
 _symmetry_equiv_pos_as_xyz
  1  'x, y, z'
loop_
 _atom_site_type_symbol
 _atom_site_label
 _atom_site_symmetry_multiplicity
 _atom_site_fract_x
 _atom_site_fract_y
 _atom_site_fract_z
 _atom_site_occupancy
  Na  Na0  1  0.01151206  0.99725692  0.00165789  1
  Na  Na1  1  0.49834211  0.50274308  0.48848794  1
  Li  Li2  1  0.15464057  0.25209921  0.74730322  1
  Li  Li3  1  0.75269678  0.24790079  0.34535943  1
  Ti  Ti4  1  0.64223131  0.92568082  0.64058044  1
  Ti  Ti5  1  0.85941956  0.57431918  0.85776869  1
  Al  Al6  1  0.15245941  0.44226229  0.14625829  1
  Al  Al7  1  0.35374171  0.05773771  0.34754059  1
  P  P8  1  0.04216498  0.25000000  0.45783502  1
  P  P9  1  0.53368147  0.75448732  0.24930526  1
  P  P10  1  0.25069474  0.74551268  0.96631853  1
  P  P11  1  0.74947816  0.25002949  0.03854259  1
  P  P12  1  0.46145741  0.24997051  0.75052184  1
  P  P13  1  0.96935540  0.75000000  0.53064460  1
  O  O14  1  0.28613787  0.91881681  0.13537817  1
  O  O15  1  0.13629660  0.92918340  0.50695743  1
  O  O16  1  0.05709438  0.26669960  0.27833283  1
  O  O17  1  0.01152384  0.42321769  0.63388716  1
  O  O18  1  0.07833124  0.73646216  0.94109623  1
  O  O19  1  0.51479319  0.93647415  0.28874117  1
  O  O20  1  0.36462183  0.58118319  0.21386213  1
  O  O21  1  0.22166717  0.23330040  0.44290562  1
  O  O22  1  0.55890377  0.76353784  0.42166876  1
  O  O23  1  0.72161987  0.74091122  0.07606622  1
  O  O24  1  0.21125883  0.56352585  0.98520681  1
  O  O25  1  0.42393378  0.75908878  0.77838013  1
  O  O26  1  0.58234489  0.23334099  0.22882554  1
  O  O27  1  0.77842493  0.42257545  0.01002697  1
  O  O28  1  0.27117446  0.26665901  0.91765511  1
  O  O29  1  0.43943961  0.23643581  0.57305444  1
  O  O30  1  0.78165865  0.76125733  0.55657987  1
  O  O31  1  0.63673527  0.42169593  0.77832998  1
  O  O32  1  0.48997303  0.07742455  0.72157507  1
  O  O33  1  0.92694556  0.26356419  0.06056039  1
  O  O34  1  0.99304257  0.57081660  0.36370340  1
  O  O35  1  0.94342013  0.73874267  0.71834135  1
  O  O36  1  0.86611284  0.07678231  0.48847616  1
  O  O37  1  0.72167002  0.07830407  0.86326473  1
