# generated using pymatgen
data_Li2FeF4
_symmetry_space_group_name_H-M   'P 1'
_cell_length_a   8.37343108
_cell_length_b   9.65245536
_cell_length_c   9.65245536
_cell_angle_alpha   100.84400537
_cell_angle_beta   115.70553414
_cell_angle_gamma   64.29446586
_symmetry_Int_Tables_number   1
_chemical_formula_structural   Li2FeF4
_chemical_formula_sum   'Li16 Fe8 F32'
_cell_volume   633.37731088
_cell_formula_units_Z   8
loop_
 _symmetry_equiv_pos_site_id
 _symmetry_equiv_pos_as_xyz
  1  'x, y, z'
loop_
 _atom_site_type_symbol
 _atom_site_label
 _atom_site_symmetry_multiplicity
 _atom_site_fract_x
 _atom_site_fract_y
 _atom_site_fract_z
 _atom_site_occupancy
  Li  Li0  1  0.50000000  0.14020959  0.14020959  1
  Li  Li1  1  0.00636367  0.25000000  0.01272634  1
  Li  Li2  1  0.99363633  0.01272634  0.25000000  1
  Li  Li3  1  0.64020959  0.35979041  0.14020959  1
  Li  Li4  1  0.35979041  0.14020959  0.35979041  1
  Li  Li5  1  0.74363633  0.25000000  0.48727366  1
  Li  Li6  1  0.25636367  0.48727366  0.25000000  1
  Li  Li7  1  0.00000000  0.35979041  0.35979041  1
  Li  Li8  1  0.00000000  0.64020959  0.64020959  1
  Li  Li9  1  0.25636367  0.75000000  0.51272634  1
  Li  Li10  1  0.74363633  0.51272634  0.75000000  1
  Li  Li11  1  0.35979041  0.64020959  0.85979041  1
  Li  Li12  1  0.64020959  0.85979041  0.64020959  1
  Li  Li13  1  0.99363633  0.75000000  0.98727366  1
  Li  Li14  1  0.00636367  0.98727366  0.75000000  1
  Li  Li15  1  0.50000000  0.85979041  0.85979041  1
  Fe  Fe16  1  0.22667920  0.11753688  0.61753688  1
  Fe  Fe17  1  0.77332080  0.61753688  0.11753688  1
  Fe  Fe18  1  0.60914132  0.61753688  0.38246312  1
  Fe  Fe19  1  0.65578392  0.11753688  0.88246312  1
  Fe  Fe20  1  0.34421608  0.88246312  0.11753688  1
  Fe  Fe21  1  0.39085868  0.38246312  0.61753688  1
  Fe  Fe22  1  0.22667920  0.38246312  0.88246312  1
  Fe  Fe23  1  0.77332080  0.88246312  0.38246312  1
  F  F24  1  0.26780274  0.11919860  0.13474197  1
  F  F25  1  0.73219726  0.13474197  0.11919860  1
  F  F26  1  0.61299866  0.11919860  0.36525803  1
  F  F27  1  0.38700134  0.36525803  0.11919860  1
  F  F28  1  0.13306077  0.13474197  0.38080140  1
  F  F29  1  0.86693923  0.38080140  0.13474197  1
  F  F30  1  0.00631065  0.62229185  0.12229185  1
  F  F31  1  0.99368935  0.12229185  0.62229185  1
  F  F32  1  0.24774063  0.36525803  0.38080140  1
  F  F33  1  0.75225937  0.38080140  0.36525803  1
  F  F34  1  0.51941629  0.62751805  0.12751805  1
  F  F35  1  0.48058371  0.12751805  0.62751805  1
  F  F36  1  0.39189824  0.12751805  0.87248195  1
  F  F37  1  0.11598020  0.87770815  0.12229185  1
  F  F38  1  0.60810176  0.87248195  0.12751805  1
  F  F39  1  0.85306565  0.62751805  0.37248195  1
  F  F40  1  0.37139751  0.62229185  0.37770815  1
  F  F41  1  0.14693435  0.37248195  0.62751805  1
  F  F42  1  0.62860249  0.37770815  0.62229185  1
  F  F43  1  0.88401980  0.12229185  0.87770815  1
  F  F44  1  0.51941629  0.87248195  0.37248195  1
  F  F45  1  0.48058371  0.37248195  0.87248195  1
  F  F46  1  0.75225937  0.63474197  0.61919860  1
  F  F47  1  0.24774063  0.61919860  0.63474197  1
  F  F48  1  0.00631065  0.87770815  0.37770815  1
  F  F49  1  0.99368935  0.37770815  0.87770815  1
  F  F50  1  0.86693923  0.86525803  0.61919860  1
  F  F51  1  0.13306077  0.61919860  0.86525803  1
  F  F52  1  0.38700134  0.88080140  0.63474197  1
  F  F53  1  0.61299866  0.63474197  0.88080140  1
  F  F54  1  0.26780274  0.86525803  0.88080140  1
  F  F55  1  0.73219726  0.88080140  0.86525803  1
