# generated using pymatgen
data_Li2MnVP2(HO5)2
_symmetry_space_group_name_H-M   'P 1'
_cell_length_a   5.43381780
_cell_length_b   7.39541492
_cell_length_c   14.44549290
_cell_angle_alpha   86.18120286
_cell_angle_beta   85.68670967
_cell_angle_gamma   105.85566853
_symmetry_Int_Tables_number   1
_chemical_formula_structural   Li2MnVP2(HO5)2
_chemical_formula_sum   'Li6 Mn3 V3 P6 H6 O30'
_cell_volume   554.52632810
_cell_formula_units_Z   3
loop_
 _symmetry_equiv_pos_site_id
 _symmetry_equiv_pos_as_xyz
  1  'x, y, z'
loop_
 _atom_site_type_symbol
 _atom_site_label
 _atom_site_symmetry_multiplicity
 _atom_site_fract_x
 _atom_site_fract_y
 _atom_site_fract_z
 _atom_site_occupancy
  Li  Li0  1  0.14351944  0.58298777  0.24815980  1
  Li  Li1  1  0.18218949  0.75162833  0.41586430  1
  Li  Li2  1  0.48113775  0.90533806  0.91573181  1
  Li  Li3  1  0.51886225  0.09466194  0.08426819  1
  Li  Li4  1  0.81781051  0.24837167  0.58413570  1
  Li  Li5  1  0.85648056  0.41701223  0.75184020  1
  Mn  Mn6  1  0.00000000  0.50000000  0.00000000  1
  Mn  Mn7  1  0.33687382  0.33291546  0.66723432  1
  Mn  Mn8  1  0.66312618  0.66708454  0.33276568  1
  V  V9  1  0.00000000  0.00000000  0.00000000  1
  V  V10  1  0.33562695  0.83164241  0.66769771  1
  V  V11  1  0.66437305  0.16835759  0.33230229  1
  P  P12  1  0.19398762  0.32872940  0.43826580  1
  P  P13  1  0.13514970  0.00486070  0.22639612  1
  P  P14  1  0.52444100  0.65991427  0.10783081  1
  P  P15  1  0.47555900  0.34008573  0.89216919  1
  P  P16  1  0.86485030  0.99513930  0.77360388  1
  P  P17  1  0.80601238  0.67127060  0.56173420  1
  H  H18  1  0.05528890  0.77999272  0.88154804  1
  H  H19  1  0.28181731  0.55732481  0.78657284  1
  H  H20  1  0.61318399  0.89516645  0.45046702  1
  H  H21  1  0.38681601  0.10483355  0.54953298  1
  H  H22  1  0.71818269  0.44267519  0.21342716  1
  H  H23  1  0.94471110  0.22000728  0.11845196  1
  O  O24  1  0.13299956  0.95610026  0.12370782  1
  O  O25  1  0.05521232  0.82267422  0.29367832  1
  O  O26  1  0.04847262  0.86919180  0.75621342  1
  O  O27  1  0.09146214  0.78478209  0.56961405  1
  O  O28  1  0.09868122  0.77871344  0.94715538  1
  O  O29  1  0.23232340  0.56522795  0.09876670  1
  O  O30  1  0.27162985  0.51048457  0.37015258  1
  O  O31  1  0.19643104  0.37688197  0.54041940  1
  O  O32  1  0.23256703  0.55901001  0.72116744  1
  O  O33  1  0.62553709  0.84147428  0.03660238  1
  O  O34  1  0.52443901  0.72228374  0.20783218  1
  O  O35  1  0.55906481  0.89378518  0.38654021  1
  O  O36  1  0.31319450  0.47886940  0.90430671  1
  O  O37  1  0.37992579  0.20444114  0.41995117  1
  O  O38  1  0.57832142  0.88400368  0.76693251  1
  O  O39  1  0.42167858  0.11599632  0.23306749  1
  O  O40  1  0.62007421  0.79555886  0.58004883  1
  O  O41  1  0.68680550  0.52113060  0.09569329  1
  O  O42  1  0.44093519  0.10621482  0.61345979  1
  O  O43  1  0.47556099  0.27771626  0.79216782  1
  O  O44  1  0.37446291  0.15852572  0.96339762  1
  O  O45  1  0.76743297  0.44098999  0.27883256  1
  O  O46  1  0.80356896  0.62311803  0.45958060  1
  O  O47  1  0.72837015  0.48951543  0.62984742  1
  O  O48  1  0.76767660  0.43477205  0.90123330  1
  O  O49  1  0.90131878  0.22128656  0.05284462  1
  O  O50  1  0.90853786  0.21521791  0.43038595  1
  O  O51  1  0.95152738  0.13080820  0.24378658  1
  O  O52  1  0.94478768  0.17732578  0.70632168  1
  O  O53  1  0.86700044  0.04389974  0.87629218  1
