# generated using pymatgen
data_FePO4
_symmetry_space_group_name_H-M   'P 1'
_cell_length_a   8.75080414
_cell_length_b   6.59323700
_cell_length_c   4.78109206
_cell_angle_alpha   90.00049568
_cell_angle_beta   90.00056618
_cell_angle_gamma   89.99974042
_symmetry_Int_Tables_number   1
_chemical_formula_structural   FePO4
_chemical_formula_sum   'Fe4 P4 O16'
_cell_volume   275.85048803
_cell_formula_units_Z   4
loop_
 _symmetry_equiv_pos_site_id
 _symmetry_equiv_pos_as_xyz
  1  'x, y, z'
loop_
 _atom_site_type_symbol
 _atom_site_label
 _atom_site_symmetry_multiplicity
 _atom_site_fract_x
 _atom_site_fract_y
 _atom_site_fract_z
 _atom_site_occupancy
  Fe  Fe0  1  0.00000000  0.00000000  0.00000000  1
  Fe  Fe1  1  0.00000000  0.50000000  0.00000000  1
  Fe  Fe2  1  0.50000000  0.00000000  0.50000000  1
  Fe  Fe3  1  0.50000000  0.50000000  0.50000000  1
  P  P4  1  0.17583851  0.24999268  0.47161782  1
  P  P5  1  0.32416853  0.74999208  0.97162295  1
  P  P6  1  0.67583147  0.25000792  0.02837705  1
  P  P7  1  0.82416149  0.75000732  0.52838218  1
  O  O8  1  0.11965991  0.05652199  0.32623982  1
  O  O9  1  0.11965583  0.44346019  0.32624553  1
  O  O10  1  0.12009861  0.24999430  0.78314715  1
  O  O11  1  0.14410471  0.74999212  0.94093034  1
  O  O12  1  0.35590089  0.24999016  0.44090333  1
  O  O13  1  0.37991779  0.74999477  0.28315192  1
  O  O14  1  0.38034665  0.55651514  0.82624500  1
  O  O15  1  0.38035112  0.94345050  0.82624071  1
  O  O16  1  0.61964888  0.05654950  0.17375929  1
  O  O17  1  0.61965335  0.44348486  0.17375500  1
  O  O18  1  0.62008221  0.25000523  0.71684808  1
  O  O19  1  0.64409911  0.75000984  0.55909667  1
  O  O20  1  0.85589529  0.25000788  0.05906966  1
  O  O21  1  0.87990139  0.75000570  0.21685285  1
  O  O22  1  0.88034417  0.55653981  0.67375447  1
  O  O23  1  0.88034009  0.94347801  0.67376018  1
