# generated using pymatgen
data_V4O7F5
_symmetry_space_group_name_H-M   'P 1'
_cell_length_a   5.23796326
_cell_length_b   5.35790531
_cell_length_c   17.34032967
_cell_angle_alpha   90.09214406
_cell_angle_beta   98.26102661
_cell_angle_gamma   60.84792703
_symmetry_Int_Tables_number   1
_chemical_formula_structural   V4O7F5
_chemical_formula_sum   'V8 O14 F10'
_cell_volume   419.27553063
_cell_formula_units_Z   2
loop_
 _symmetry_equiv_pos_site_id
 _symmetry_equiv_pos_as_xyz
  1  'x, y, z'
loop_
 _atom_site_type_symbol
 _atom_site_label
 _atom_site_symmetry_multiplicity
 _atom_site_fract_x
 _atom_site_fract_y
 _atom_site_fract_z
 _atom_site_occupancy
  V  V0  1  0.72998018  0.65243805  0.13242071  1
  V  V1  1  0.74717183  0.16512026  0.63359681  1
  V  V2  1  0.44720031  0.28799813  0.25515481  1
  V  V3  1  0.46236892  0.79903198  0.75508521  1
  V  V4  1  0.23351153  0.91404659  0.37583633  1
  V  V5  1  0.24580235  0.42685625  0.87702045  1
  V  V6  1  0.04383980  0.01054983  0.00778278  1
  V  V7  1  0.99429509  0.52120721  0.51179728  1
  O  O8  1  0.95573859  0.29539411  0.05888645  1
  O  O9  1  0.94417440  0.80726169  0.55848057  1
  O  O10  1  0.56164915  0.92343498  0.18657308  1
  O  O11  1  0.92167359  0.33274168  0.57639813  1
  O  O12  1  0.40838818  0.79199245  0.04075164  1
  O  O13  1  0.44812701  0.53902589  0.31225626  1
  O  O14  1  0.56556362  0.43459045  0.68722426  1
  O  O15  1  0.40605612  0.05950914  0.32919248  1
  O  O16  1  0.41079082  0.57819381  0.83090697  1
  O  O17  1  0.09634440  0.44108070  0.20619350  1
  O  O18  1  0.10962345  0.95479728  0.70543421  1
  O  O19  1  0.45742724  0.05113608  0.81205209  1
  O  O20  1  0.05227287  0.67794306  0.93387617  1
  O  O21  1  0.05783336  0.16601773  0.43381453  1
  F  F22  1  0.92380081  0.81968708  0.07718258  1
  F  F23  1  0.91529244  0.02375245  0.29301564  1
  F  F24  1  0.92402033  0.53083069  0.79296046  1
  F  F25  1  0.59297148  0.39557015  0.16800298  1
  F  F26  1  0.60404999  0.90617232  0.66876640  1
  F  F27  1  0.58739165  0.68654315  0.45416529  1
  F  F28  1  0.41635311  0.29355489  0.53989957  1
  F  F29  1  0.57309324  0.19525400  0.95439783  1
  F  F30  1  0.08740724  0.65358977  0.41696506  1
  F  F31  1  0.07578593  0.16467615  0.91391147  1
