# generated using pymatgen
data_Li4Ni3Sn3(SbO8)2
_symmetry_space_group_name_H-M   'P 1'
_cell_length_a   6.11953356
_cell_length_b   6.15699149
_cell_length_c   9.81478911
_cell_angle_alpha   90.00003268
_cell_angle_beta   89.89255159
_cell_angle_gamma   120.20346482
_symmetry_Int_Tables_number   1
_chemical_formula_structural   Li4Ni3Sn3(SbO8)2
_chemical_formula_sum   'Li4 Ni3 Sn3 Sb2 O16'
_cell_volume   319.59751174
_cell_formula_units_Z   1
loop_
 _symmetry_equiv_pos_site_id
 _symmetry_equiv_pos_as_xyz
  1  'x, y, z'
loop_
 _atom_site_type_symbol
 _atom_site_label
 _atom_site_symmetry_multiplicity
 _atom_site_fract_x
 _atom_site_fract_y
 _atom_site_fract_z
 _atom_site_occupancy
  Li  Li0  1  0.33571824  0.66787263  0.89529158  1
  Li  Li1  1  0.96396189  0.98198821  0.97959466  1
  Li  Li2  1  0.97742524  0.98871599  0.49792977  1
  Li  Li3  1  0.66255571  0.33128968  0.41257406  1
  Ni  Ni4  1  0.65849948  0.82925898  0.21460127  1
  Ni  Ni5  1  0.83314712  0.65928422  0.71241366  1
  Ni  Ni6  1  0.83313709  0.17387084  0.71241457  1
  Sn  Sn7  1  0.17191570  0.83222993  0.21348819  1
  Sn  Sn8  1  0.17190790  0.33970652  0.21348773  1
  Sn  Sn9  1  0.34289926  0.17146482  0.71297002  1
  Sb  Sb10  1  0.34520180  0.67261246  0.49354716  1
  Sb  Sb11  1  0.68798139  0.34400351  0.97830434  1
  O  O12  1  0.17062243  0.83290009  0.58843068  1
  O  O13  1  0.03448119  0.51725319  0.34794427  1
  O  O14  1  0.33253343  0.66628019  0.10246198  1
  O  O15  1  0.99742579  0.99872122  0.30870818  1
  O  O16  1  0.00127006  0.00064392  0.79806556  1
  O  O17  1  0.17061815  0.33774339  0.58843283  1
  O  O18  1  0.47856625  0.96043465  0.34704674  1
  O  O19  1  0.47855518  0.51814981  0.34704901  1
  O  O20  1  0.33807175  0.16905193  0.09498060  1
  O  O21  1  0.66243715  0.83122663  0.59366439  1
  O  O22  1  0.51965850  0.48105173  0.85459018  1
  O  O23  1  0.51964737  0.03862935  0.85459000  1
  O  O24  1  0.66686825  0.33344113  0.60811866  1
  O  O25  1  0.83656654  0.66622015  0.09462970  1
  O  O26  1  0.97176263  0.48589102  0.84788295  1
  O  O27  1  0.83656351  0.17036382  0.09462625  1
