# generated using pymatgen
data_Li2VP2O7
_symmetry_space_group_name_H-M   'P 1'
_cell_length_a   5.09704785
_cell_length_b   7.13597478
_cell_length_c   8.48605701
_cell_angle_alpha   90.00011089
_cell_angle_beta   90.00007710
_cell_angle_gamma   70.67666849
_symmetry_Int_Tables_number   1
_chemical_formula_structural   Li2VP2O7
_chemical_formula_sum   'Li4 V2 P4 O14'
_cell_volume   291.27043225
_cell_formula_units_Z   2
loop_
 _symmetry_equiv_pos_site_id
 _symmetry_equiv_pos_as_xyz
  1  'x, y, z'
loop_
 _atom_site_type_symbol
 _atom_site_label
 _atom_site_symmetry_multiplicity
 _atom_site_fract_x
 _atom_site_fract_y
 _atom_site_fract_z
 _atom_site_occupancy
  Li  Li0  1  0.17127071  0.34703573  0.85151864  1
  Li  Li1  1  0.28009455  0.90602901  0.16572316  1
  Li  Li2  1  0.71990739  0.09397161  0.66572278  1
  Li  Li3  1  0.82873068  0.65296368  0.35151855  1
  V  V4  1  0.20815251  0.27891644  0.49755011  1
  V  V5  1  0.79183645  0.72107751  0.99756024  1
  P  P6  1  0.39036132  0.47937433  0.18249241  1
  P  P7  1  0.20728191  0.91377919  0.79014239  1
  P  P8  1  0.79272187  0.08622226  0.29013847  1
  P  P9  1  0.60964086  0.52062486  0.68249467  1
  O  O10  1  0.06724647  0.12453159  0.31457358  1
  O  O11  1  0.14275624  0.11037702  0.69876783  1
  O  O12  1  0.20782856  0.50605319  0.03580576  1
  O  O13  1  0.22791642  0.50017270  0.33598277  1
  O  O14  1  0.43491160  0.37972409  0.68448525  1
  O  O15  1  0.62951663  0.08452986  0.44150376  1
  O  O16  1  0.60036297  0.25148873  0.16928760  1
  O  O17  1  0.39963966  0.74851175  0.66929109  1
  O  O18  1  0.37048335  0.91547492  0.94150571  1
  O  O19  1  0.56508345  0.62027670  0.18448696  1
  O  O20  1  0.77208085  0.49982584  0.83598165  1
  O  O21  1  0.79217257  0.49394867  0.53580631  1
  O  O22  1  0.85724519  0.88962432  0.19876935  1
  O  O23  1  0.93275480  0.87546999  0.81457694  1
