# generated using pymatgen
data_Ti3CoNi2(PO4)6
_symmetry_space_group_name_H-M   'P 1'
_cell_length_a   8.49876626
_cell_length_b   8.49876672
_cell_length_c   8.49876614
_cell_angle_alpha   61.04975594
_cell_angle_beta   61.04975558
_cell_angle_gamma   61.04975791
_symmetry_Int_Tables_number   1
_chemical_formula_structural   Ti3CoNi2(PO4)6
_chemical_formula_sum   'Ti3 Co1 Ni2 P6 O24'
_cell_volume   444.32313737
_cell_formula_units_Z   1
loop_
 _symmetry_equiv_pos_site_id
 _symmetry_equiv_pos_as_xyz
  1  'x, y, z'
loop_
 _atom_site_type_symbol
 _atom_site_label
 _atom_site_symmetry_multiplicity
 _atom_site_fract_x
 _atom_site_fract_y
 _atom_site_fract_z
 _atom_site_occupancy
  Ti  Ti0  1  0.14306656  0.14306656  0.14306656  1
  Ti  Ti1  1  0.35490463  0.35490463  0.35490463  1
  Ti  Ti2  1  0.64567224  0.64567224  0.64567224  1
  Co  Co3  1  0.85589537  0.85589537  0.85589537  1
  Ni  Ni4  1  0.99740732  0.99740732  0.99740732  1
  Ni  Ni5  1  0.49903225  0.49903225  0.49903225  1
  P  P6  1  0.25012736  0.54616938  0.95359020  1
  P  P7  1  0.54616938  0.95359020  0.25012736  1
  P  P8  1  0.95359020  0.25012736  0.54616938  1
  P  P9  1  0.04754054  0.75224632  0.45463441  1
  P  P10  1  0.45463441  0.04754054  0.75224632  1
  P  P11  1  0.75224632  0.45463441  0.04754054  1
  O  O12  1  0.11378982  0.32594772  0.48827595  1
  O  O13  1  0.32594772  0.48827595  0.11378982  1
  O  O14  1  0.05819051  0.90948450  0.25471503  1
  O  O15  1  0.48827595  0.11378982  0.32594772  1
  O  O16  1  0.01507943  0.81698337  0.60550144  1
  O  O17  1  0.24364684  0.58797042  0.43333556  1
  O  O18  1  0.25471503  0.05819051  0.90948450  1
  O  O19  1  0.43333556  0.24364684  0.58797042  1
  O  O20  1  0.18521691  0.38085510  0.00196478  1
  O  O21  1  0.58797042  0.43333556  0.24364684  1
  O  O22  1  0.09760857  0.73920837  0.94732451  1
  O  O23  1  0.38085510  0.00196478  0.18521691  1
  O  O24  1  0.60550144  0.01507943  0.81698337  1
  O  O25  1  0.90948450  0.25471503  0.05819051  1
  O  O26  1  0.41325576  0.55291828  0.75815633  1
  O  O27  1  0.81698337  0.60550144  0.01507943  1
  O  O28  1  0.55291828  0.75815633  0.41325576  1
  O  O29  1  0.73920837  0.94732451  0.09760857  1
  O  O30  1  0.75815633  0.41325576  0.55291828  1
  O  O31  1  0.00196478  0.18521691  0.38085510  1
  O  O32  1  0.50305729  0.88196383  0.68526509  1
  O  O33  1  0.94732451  0.09760857  0.73920837  1
  O  O34  1  0.68526509  0.50305729  0.88196383  1
  O  O35  1  0.88196383  0.68526509  0.50305729  1
