# generated using pymatgen
data_Li2FeF4
_symmetry_space_group_name_H-M   'P 1'
_cell_length_a   5.04737410
_cell_length_b   9.86346502
_cell_length_c   3.14582961
_cell_angle_alpha   90.00000000
_cell_angle_beta   90.00000000
_cell_angle_gamma   90.00000000
_symmetry_Int_Tables_number   1
_chemical_formula_structural   Li2FeF4
_chemical_formula_sum   'Li4 Fe2 F8'
_cell_volume   156.61386213
_cell_formula_units_Z   2
loop_
 _symmetry_equiv_pos_site_id
 _symmetry_equiv_pos_as_xyz
  1  'x, y, z'
loop_
 _atom_site_type_symbol
 _atom_site_label
 _atom_site_symmetry_multiplicity
 _atom_site_fract_x
 _atom_site_fract_y
 _atom_site_fract_z
 _atom_site_occupancy
  Li  Li0  1  0.02819082  0.70521657  0.50000000  1
  Li  Li1  1  0.47180918  0.20521657  0.50000000  1
  Li  Li2  1  0.52819082  0.79478343  0.50000000  1
  Li  Li3  1  0.97180918  0.29478343  0.50000000  1
  Fe  Fe4  1  0.00000000  0.00000000  0.00000000  1
  Fe  Fe5  1  0.50000000  0.50000000  0.00000000  1
  F  F6  1  0.25748951  0.15839262  0.00000000  1
  F  F7  1  0.29913801  0.39414189  0.50000000  1
  F  F8  1  0.20086199  0.89414189  0.50000000  1
  F  F9  1  0.24251049  0.65839262  0.00000000  1
  F  F10  1  0.75748951  0.34160738  0.00000000  1
  F  F11  1  0.79913801  0.10585811  0.50000000  1
  F  F12  1  0.70086199  0.60585811  0.50000000  1
  F  F13  1  0.74251049  0.84160738  0.00000000  1
