# generated using pymatgen
data_Li3V2P4(HO8)2
_symmetry_space_group_name_H-M   'P 1'
_cell_length_a   4.85610995
_cell_length_b   8.03441703
_cell_length_c   7.55388687
_cell_angle_alpha   90.64087252
_cell_angle_beta   104.64626671
_cell_angle_gamma   89.46518377
_symmetry_Int_Tables_number   1
_chemical_formula_structural   Li3V2P4(HO8)2
_chemical_formula_sum   'Li3 V2 P4 H2 O16'
_cell_volume   285.12134062
_cell_formula_units_Z   1
loop_
 _symmetry_equiv_pos_site_id
 _symmetry_equiv_pos_as_xyz
  1  'x, y, z'
loop_
 _atom_site_type_symbol
 _atom_site_label
 _atom_site_symmetry_multiplicity
 _atom_site_fract_x
 _atom_site_fract_y
 _atom_site_fract_z
 _atom_site_occupancy
  Li  Li0  1  0.38459043  0.86576292  0.84484859  1
  Li  Li1  1  0.60582952  0.13472504  0.15756166  1
  Li  Li2  1  0.90333625  0.63260400  0.35020346  1
  V  V3  1  0.49356059  0.49730084  0.99693519  1
  V  V4  1  0.00000480  0.00479717  0.50016092  1
  P  P5  1  0.13189667  0.35011016  0.26762087  1
  P  P6  1  0.36758063  0.84838828  0.23107453  1
  P  P7  1  0.63069658  0.15564206  0.76237329  1
  P  P8  1  0.87118295  0.65161185  0.73720478  1
  H  H9  1  0.52119436  0.50631424  0.50841604  1
  H  H10  1  0.96772737  0.00970786  0.98795957  1
  O  O11  1  0.12846367  0.55000275  0.85491408  1
  O  O12  1  0.01997493  0.18054548  0.30744014  1
  O  O13  1  0.15026916  0.82667294  0.34799854  1
  O  O14  1  0.26045254  0.45200373  0.43932098  1
  O  O15  1  0.37684895  0.04720664  0.66412363  1
  O  O16  1  0.53981312  0.32695711  0.82129378  1
  O  O17  1  0.24118751  0.94095397  0.05080950  1
  O  O18  1  0.34242291  0.32691779  0.14168016  1
  O  O19  1  0.65046399  0.67191288  0.85378309  1
  O  O20  1  0.75486027  0.05771424  0.94755614  1
  O  O21  1  0.48538201  0.67628973  0.18601420  1
  O  O22  1  0.61883774  0.95531109  0.34008204  1
  O  O23  1  0.73921692  0.56063913  0.55375143  1
  O  O24  1  0.84515438  0.17006685  0.64734051  1
  O  O25  1  0.98505679  0.81795110  0.69008225  1
  O  O26  1  0.86843995  0.45485518  0.15414963  1
