# generated using pymatgen
data_Li9Mn2Co5O16
_symmetry_space_group_name_H-M   'P 1'
_cell_length_a   2.89584253
_cell_length_b   16.87432105
_cell_length_c   5.90501996
_cell_angle_alpha   89.66867495
_cell_angle_beta   90.00000000
_cell_angle_gamma   90.00000000
_symmetry_Int_Tables_number   1
_chemical_formula_structural   Li9Mn2Co5O16
_chemical_formula_sum   'Li9 Mn2 Co5 O16'
_cell_volume   288.54619934
_cell_formula_units_Z   1
loop_
 _symmetry_equiv_pos_site_id
 _symmetry_equiv_pos_as_xyz
  1  'x, y, z'
loop_
 _atom_site_type_symbol
 _atom_site_label
 _atom_site_symmetry_multiplicity
 _atom_site_fract_x
 _atom_site_fract_y
 _atom_site_fract_z
 _atom_site_occupancy
  Li  Li0  1  0.50000000  0.13154755  0.24815326  1
  Li  Li1  1  0.50000000  0.37512519  0.74834902  1
  Li  Li2  1  0.50000000  0.63083610  0.25746440  1
  Li  Li3  1  -0.00000000  0.25294870  0.99768943  1
  Li  Li4  1  -0.00000000  0.50448951  0.49944432  1
  Li  Li5  1  -0.00000000  0.74366185  0.01679495  1
  Li  Li6  1  0.50000000  0.86414296  0.74321784  1
  Li  Li7  1  -0.00000000  0.99754068  0.50068820  1
  Li  Li8  1  -0.00000000  0.74401281  0.49093687  1
  Mn  Mn9  1  -0.00000000  0.99756905  0.99787540  1
  Mn  Mn10  1  0.50000000  0.86359425  0.25362158  1
  Co  Co11  1  -0.00000000  0.25318618  0.49624568  1
  Co  Co12  1  -0.00000000  0.50441752  0.00456558  1
  Co  Co13  1  0.50000000  0.37791893  0.24720701  1
  Co  Co14  1  0.50000000  0.63175794  0.74590591  1
  Co  Co15  1  0.50000000  0.12918522  0.75079325  1
  O  O16  1  0.50000000  0.98869980  0.22568597  1
  O  O17  1  0.50000000  0.24953304  0.73400148  1
  O  O18  1  0.50000000  0.50035507  0.23793679  1
  O  O19  1  -0.00000000  0.12676879  0.98081146  1
  O  O20  1  0.00000000  0.37578708  0.48704636  1
  O  O21  1  0.00000000  0.62329567  0.98628412  1
  O  O22  1  0.50000000  0.73414648  0.75426633  1
  O  O23  1  -0.00000000  0.87224240  0.47414495  1
  O  O24  1  0.50000000  0.25568386  0.25835583  1
  O  O25  1  0.50000000  0.51507474  0.76445305  1
  O  O26  1  0.50000000  0.75556533  0.25668693  1
  O  O27  1  -0.00000000  0.38293836  0.00520531  1
  O  O28  1  -0.00000000  0.62430956  0.52389034  1
  O  O29  1  0.00000000  0.86721651  0.02651298  1
  O  O30  1  0.50000000  0.99891065  0.76945404  1
  O  O31  1  -0.00000000  0.12753822  0.51631135  1
