# generated using pymatgen
data_Ti3MnFe2(PO4)6
_symmetry_space_group_name_H-M   'P 1'
_cell_length_a   8.57079328
_cell_length_b   8.57079390
_cell_length_c   8.57079320
_cell_angle_alpha   61.18992834
_cell_angle_beta   61.18993181
_cell_angle_gamma   61.18993059
_symmetry_Int_Tables_number   1
_chemical_formula_structural   Ti3MnFe2(PO4)6
_chemical_formula_sum   'Ti3 Mn1 Fe2 P6 O24'
_cell_volume   457.10984073
_cell_formula_units_Z   1
loop_
 _symmetry_equiv_pos_site_id
 _symmetry_equiv_pos_as_xyz
  1  'x, y, z'
loop_
 _atom_site_type_symbol
 _atom_site_label
 _atom_site_symmetry_multiplicity
 _atom_site_fract_x
 _atom_site_fract_y
 _atom_site_fract_z
 _atom_site_occupancy
  Ti  Ti0  1  0.14298156  0.14298156  0.14298156  1
  Ti  Ti1  1  0.35478087  0.35478087  0.35478087  1
  Ti  Ti2  1  0.64597723  0.64597723  0.64597723  1
  Mn  Mn3  1  0.85684220  0.85684220  0.85684220  1
  Fe  Fe4  1  0.99710139  0.99710139  0.99710139  1
  Fe  Fe5  1  0.49863771  0.49863771  0.49863771  1
  P  P6  1  0.04809569  0.75220513  0.45249164  1
  P  P7  1  0.45249164  0.04809569  0.75220513  1
  P  P8  1  0.25492738  0.53992564  0.95608766  1
  P  P9  1  0.53992564  0.95608766  0.25492738  1
  P  P10  1  0.95608766  0.25492738  0.53992564  1
  P  P11  1  0.75220513  0.45249164  0.04809569  1
  O  O12  1  0.11265933  0.33386139  0.47922915  1
  O  O13  1  0.33386139  0.47922915  0.11265933  1
  O  O14  1  0.05817832  0.90993436  0.25527761  1
  O  O15  1  0.47922915  0.11265933  0.33386139  1
  O  O16  1  0.02167070  0.81607384  0.60013778  1
  O  O17  1  0.24128310  0.58838716  0.42824791  1
  O  O18  1  0.25527761  0.05817832  0.90993436  1
  O  O19  1  0.42824791  0.24128310  0.58838716  1
  O  O20  1  0.18589566  0.37891262  0.00311159  1
  O  O21  1  0.58838716  0.42824791  0.24128310  1
  O  O22  1  0.10336347  0.73203909  0.95284262  1
  O  O23  1  0.37891262  0.00311159  0.18589566  1
  O  O24  1  0.60013778  0.02167070  0.81607384  1
  O  O25  1  0.90993436  0.25527761  0.05817832  1
  O  O26  1  0.41426004  0.55117276  0.76090180  1
  O  O27  1  0.81607384  0.60013778  0.02167070  1
  O  O28  1  0.55117276  0.76090180  0.41426004  1
  O  O29  1  0.73203909  0.95284262  0.10336347  1
  O  O30  1  0.76090180  0.41426004  0.55117276  1
  O  O31  1  0.00311159  0.18589566  0.37891262  1
  O  O32  1  0.50453861  0.87988027  0.68808670  1
  O  O33  1  0.95284262  0.10336347  0.73203909  1
  O  O34  1  0.68808670  0.50453861  0.87988027  1
  O  O35  1  0.87988027  0.68808670  0.50453861  1
