# generated using pymatgen
data_Li7Mn8(BO3)8
_symmetry_space_group_name_H-M   'P 1'
_cell_length_a   5.27463695
_cell_length_b   9.07688243
_cell_length_c   11.55039954
_cell_angle_alpha   68.10259658
_cell_angle_beta   77.94208244
_cell_angle_gamma   89.63081586
_symmetry_Int_Tables_number   1
_chemical_formula_structural   Li7Mn8(BO3)8
_chemical_formula_sum   'Li7 Mn8 B8 O24'
_cell_volume   500.22479052
_cell_formula_units_Z   1
loop_
 _symmetry_equiv_pos_site_id
 _symmetry_equiv_pos_as_xyz
  1  'x, y, z'
loop_
 _atom_site_type_symbol
 _atom_site_label
 _atom_site_symmetry_multiplicity
 _atom_site_fract_x
 _atom_site_fract_y
 _atom_site_fract_z
 _atom_site_occupancy
  Li  Li0  1  0.02631128  0.03788171  0.08634905  1
  Li  Li1  1  0.28463939  0.25018525  0.32976266  1
  Li  Li2  1  0.53024364  0.53719017  0.09248348  1
  Li  Li3  1  0.47865645  0.50952615  0.82732841  1
  Li  Li4  1  0.77535953  0.73997144  0.34141052  1
  Li  Li5  1  0.79908423  0.77799182  0.58683938  1
  Li  Li6  1  0.97401863  0.00957579  0.83498027  1
  Mn  Mn7  1  0.02416632  0.35700512  0.11474014  1
  Mn  Mn8  1  0.25502713  0.56013830  0.37731890  1
  Mn  Mn9  1  0.27271140  0.96163406  0.61603103  1
  Mn  Mn10  1  0.52253691  0.85359346  0.12278893  1
  Mn  Mn11  1  0.46216280  0.14781536  0.86569727  1
  Mn  Mn12  1  0.74945721  0.06432613  0.36819920  1
  Mn  Mn13  1  0.78787713  0.41578287  0.61966156  1
  Mn  Mn14  1  0.97285443  0.66357583  0.86770643  1
  B  B15  1  0.02477133  0.68490213  0.12892628  1
  B  B16  1  0.24169021  0.89373575  0.37756819  1
  B  B17  1  0.26377790  0.61510746  0.62521472  1
  B  B18  1  0.52516143  0.18642767  0.12297864  1
  B  B19  1  0.46846350  0.81251696  0.87862701  1
  B  B20  1  0.75021102  0.38921298  0.37282765  1
  B  B21  1  0.75728273  0.10415073  0.62706532  1
  B  B22  1  0.96907484  0.31442526  0.86906182  1
  O  O23  1  0.26465849  0.65176828  0.16286876  1
  O  O24  1  0.14233983  0.51879222  0.57907628  1
  O  O25  1  0.11366476  0.72604004  0.66010946  1
  O  O26  1  0.40683179  0.08627514  0.07939100  1
  O  O27  1  0.40572200  0.31782222  0.13310819  1
  O  O28  1  0.06163777  0.16651910  0.89502250  1
  O  O29  1  0.08457068  0.42733972  0.90071268  1
  O  O30  1  0.34056580  0.01765646  0.40416876  1
  O  O31  1  0.41184674  0.79480125  0.33748395  1
  O  O32  1  0.23824768  0.85560215  0.83876074  1
  O  O33  1  0.50080819  0.39248794  0.35969829  1
  O  O34  1  0.51942989  0.59956405  0.63534857  1
  O  O35  1  0.76623953  0.15416186  0.15695864  1
  O  O36  1  0.58509220  0.21363316  0.65424115  1
  O  O37  1  0.67237539  0.99624643  0.58059512  1
  O  O38  1  0.90941580  0.58838387  0.08117646  1
  O  O39  1  0.90005909  0.81108220  0.14788986  1
  O  O40  1  0.56621624  0.66723357  0.88959853  1
  O  O41  1  0.60363394  0.91945360  0.91063920  1
  O  O42  1  0.84521251  0.49162416  0.42558158  1
  O  O43  1  0.92181435  0.29174398  0.33263691  1
  O  O44  1  0.74668195  0.34964389  0.81427950  1
  O  O45  1  0.97575448  0.86955779  0.39302147  1
  O  O46  1  0.99856246  0.10666052  0.65003953  1
