# generated using pymatgen
data_V3(O2F)2
_symmetry_space_group_name_H-M   'P 1'
_cell_length_a   4.60647689
_cell_length_b   4.60647562
_cell_length_c   9.36581606
_cell_angle_alpha   89.97657583
_cell_angle_beta   90.02352788
_cell_angle_gamma   90.08600555
_symmetry_Int_Tables_number   1
_chemical_formula_structural   V3(O2F)2
_chemical_formula_sum   'V6 O8 F4'
_cell_volume   198.73883304
_cell_formula_units_Z   2
loop_
 _symmetry_equiv_pos_site_id
 _symmetry_equiv_pos_as_xyz
  1  'x, y, z'
loop_
 _atom_site_type_symbol
 _atom_site_label
 _atom_site_symmetry_multiplicity
 _atom_site_fract_x
 _atom_site_fract_y
 _atom_site_fract_z
 _atom_site_occupancy
  V  V0  1  0.00024309  0.99975792  0.02041643  1
  V  V1  1  -0.00001177  0.00000877  0.33726496  1
  V  V2  1  0.00017546  0.99982554  0.65288161  1
  V  V3  1  0.50007707  0.49992293  0.15133570  1
  V  V4  1  0.50034562  0.49965339  0.83498808  1
  V  V5  1  0.50002086  0.49998114  0.51932507  1
  O  O6  1  0.19559310  0.80440590  0.17067155  1
  O  O7  1  0.21053523  0.78946477  0.49297103  1
  O  O8  1  0.28990841  0.29097979  0.99176757  1
  O  O9  1  0.30354804  0.30331023  0.66961498  1
  O  O10  1  0.70902021  0.71009159  0.99176757  1
  O  O11  1  0.69668877  0.69645096  0.66961498  1
  O  O12  1  0.80470505  0.19529495  0.17043961  1
  O  O13  1  0.78917577  0.21082423  0.49267809  1
  F  F14  1  0.18996753  0.81003247  0.83375684  1
  F  F15  1  0.31020855  0.31111859  0.33326366  1
  F  F16  1  0.68888341  0.68979245  0.33326266  1
  F  F17  1  0.81091462  0.18908438  0.83398061  1
