# generated using pymatgen
data_Li4MnF7
_symmetry_space_group_name_H-M   'P 1'
_cell_length_a   7.49359580
_cell_length_b   7.57216440
_cell_length_c   5.70130647
_cell_angle_alpha   97.31024178
_cell_angle_beta   69.53204096
_cell_angle_gamma   124.27157281
_symmetry_Int_Tables_number   1
_chemical_formula_structural   Li4MnF7
_chemical_formula_sum   'Li8 Mn2 F14'
_cell_volume   249.44570360
_cell_formula_units_Z   2
loop_
 _symmetry_equiv_pos_site_id
 _symmetry_equiv_pos_as_xyz
  1  'x, y, z'
loop_
 _atom_site_type_symbol
 _atom_site_label
 _atom_site_symmetry_multiplicity
 _atom_site_fract_x
 _atom_site_fract_y
 _atom_site_fract_z
 _atom_site_occupancy
  Li  Li0  1  0.14806407  0.45542968  0.83211320  1
  Li  Li1  1  0.10003176  0.72432987  0.46619156  1
  Li  Li2  1  0.65560207  0.46894394  0.84595648  1
  Li  Li3  1  0.56234971  0.71063854  0.48350983  1
  Li  Li4  1  0.43765029  0.28936146  0.51649017  1
  Li  Li5  1  0.34439793  0.53105606  0.15404352  1
  Li  Li6  1  0.89996824  0.27567013  0.53380844  1
  Li  Li7  1  0.85193593  0.54457032  0.16788680  1
  Mn  Mn8  1  0.00000000  0.00000000  0.00000000  1
  Mn  Mn9  1  0.50000000  0.00000000  0.00000000  1
  F  F10  1  0.95100252  0.75815526  0.81728492  1
  F  F11  1  0.63864228  0.88420534  0.09955558  1
  F  F12  1  0.62760018  0.97482425  0.66009213  1
  F  F13  1  0.45623778  0.52226365  0.77502003  1
  F  F14  1  0.22105049  0.56695390  0.50773391  1
  F  F15  1  0.09112474  0.16201115  0.70817962  1
  F  F16  1  0.80618533  0.32419654  0.92265573  1
  F  F17  1  0.19381467  0.67580346  0.07734427  1
  F  F18  1  0.90887526  0.83798885  0.29182038  1
  F  F19  1  0.77894951  0.43304610  0.49226609  1
  F  F20  1  0.54376222  0.47773635  0.22497997  1
  F  F21  1  0.37239982  0.02517575  0.33990787  1
  F  F22  1  0.36135772  0.11579466  0.90044442  1
  F  F23  1  0.04899748  0.24184474  0.18271508  1
