# generated using pymatgen
data_Li2MnVP2(HO5)2
_symmetry_space_group_name_H-M   'P 1'
_cell_length_a   8.05206091
_cell_length_b   7.41470192
_cell_length_c   6.95633574
_cell_angle_alpha   117.49036191
_cell_angle_beta   87.71347497
_cell_angle_gamma   88.29733280
_symmetry_Int_Tables_number   1
_chemical_formula_structural   Li2MnVP2(HO5)2
_chemical_formula_sum   'Li4 Mn2 V2 P4 H4 O20'
_cell_volume   367.58784705
_cell_formula_units_Z   2
loop_
 _symmetry_equiv_pos_site_id
 _symmetry_equiv_pos_as_xyz
  1  'x, y, z'
loop_
 _atom_site_type_symbol
 _atom_site_label
 _atom_site_symmetry_multiplicity
 _atom_site_fract_x
 _atom_site_fract_y
 _atom_site_fract_z
 _atom_site_occupancy
  Li  Li0  1  0.32407891  0.82286755  0.07281805  1
  Li  Li1  1  0.17452394  0.17331274  0.42856869  1
  Li  Li2  1  0.82547606  0.82668726  0.57143131  1
  Li  Li3  1  0.67592109  0.17713245  0.92718195  1
  Mn  Mn4  1  0.50000000  0.50000000  0.50000000  1
  Mn  Mn5  1  0.50000000  0.00000000  0.50000000  1
  V  V6  1  0.00000000  0.50000000  0.00000000  1
  V  V7  1  0.00000000  0.00000000  0.00000000  1
  P  P8  1  0.15614528  0.76632317  0.47842608  1
  P  P9  1  0.34152723  0.23206393  0.02260317  1
  P  P10  1  0.65847277  0.76793607  0.97739683  1
  P  P11  1  0.84385472  0.23367683  0.52157392  1
  H  H12  1  0.15198121  0.66054627  0.78914290  1
  H  H13  1  0.64819949  0.66987903  0.28987374  1
  H  H14  1  0.35180051  0.33012097  0.71012626  1
  H  H15  1  0.84801879  0.33945373  0.21085710  1
  O  O16  1  0.01779840  0.65661456  0.32418444  1
  O  O17  1  0.22629068  0.12016724  0.11395330  1
  O  O18  1  0.26724736  0.87550432  0.38178609  1
  O  O19  1  0.05740256  0.92722901  0.68778370  1
  O  O20  1  0.55630398  0.92527970  0.18196892  1
  O  O21  1  0.25867535  0.61844658  0.53566866  1
  O  O22  1  0.47897078  0.34259824  0.18329211  1
  O  O23  1  0.76071604  0.61890839  0.03180768  1
  O  O24  1  0.10395177  0.72452035  0.94200452  1
  O  O25  1  0.60490923  0.73707816  0.44423162  1
  O  O26  1  0.39509077  0.26292184  0.55576838  1
  O  O27  1  0.89604823  0.27547965  0.05799548  1
  O  O28  1  0.23928396  0.38109161  0.96819232  1
  O  O29  1  0.52102922  0.65740176  0.81670789  1
  O  O30  1  0.74132465  0.38155342  0.46433134  1
  O  O31  1  0.44369602  0.07472030  0.81803108  1
  O  O32  1  0.94259744  0.07277099  0.31221630  1
  O  O33  1  0.73275264  0.12449568  0.61821391  1
  O  O34  1  0.77370932  0.87983276  0.88604670  1
  O  O35  1  0.98220160  0.34338544  0.67581556  1
