# generated using pymatgen
data_Li7Mn8(BO3)8
_symmetry_space_group_name_H-M   'P 1'
_cell_length_a   5.24560620
_cell_length_b   9.14256797
_cell_length_c   10.46356591
_cell_angle_alpha   91.98811987
_cell_angle_beta   91.13603630
_cell_angle_gamma   89.88602732
_symmetry_Int_Tables_number   1
_chemical_formula_structural   Li7Mn8(BO3)8
_chemical_formula_sum   'Li7 Mn8 B8 O24'
_cell_volume   501.41387604
_cell_formula_units_Z   1
loop_
 _symmetry_equiv_pos_site_id
 _symmetry_equiv_pos_as_xyz
  1  'x, y, z'
loop_
 _atom_site_type_symbol
 _atom_site_label
 _atom_site_symmetry_multiplicity
 _atom_site_fract_x
 _atom_site_fract_y
 _atom_site_fract_z
 _atom_site_occupancy
  Li  Li0  1  0.08227579  0.08227256  0.60056388  1
  Li  Li1  1  0.39971945  0.42979963  0.83580536  1
  Li  Li2  1  0.43992855  0.41043851  0.32933676  1
  Li  Li3  1  0.58377845  0.58010650  0.58327915  1
  Li  Li4  1  0.57177068  0.58426928  0.08486770  1
  Li  Li5  1  0.90943186  0.92868897  0.83846106  1
  Li  Li6  1  0.93778472  0.91003497  0.33677472  1
  Mn  Mn7  1  0.07846975  0.75018520  0.61759240  1
  Mn  Mn8  1  0.07785619  0.40232796  0.11486717  1
  Mn  Mn9  1  0.42161447  0.09145476  0.86785159  1
  Mn  Mn10  1  0.42996662  0.74893028  0.36493527  1
  Mn  Mn11  1  0.57646245  0.25509231  0.61622955  1
  Mn  Mn12  1  0.58233617  0.92406006  0.12131481  1
  Mn  Mn13  1  0.91251741  0.59278470  0.87092965  1
  Mn  Mn14  1  0.92619517  0.24323025  0.36670282  1
  B  B15  1  0.07512738  0.42209836  0.62727580  1
  B  B16  1  0.08301310  0.73975224  0.13036145  1
  B  B17  1  0.40810853  0.75639715  0.87492665  1
  B  B18  1  0.41589336  0.07968984  0.38141878  1
  B  B19  1  0.57986292  0.91871988  0.63324072  1
  B  B20  1  0.59530057  0.25142631  0.11393664  1
  B  B21  1  0.91909720  0.25381128  0.86385230  1
  B  B22  1  0.92595915  0.57582071  0.37601409  1
  O  O23  1  0.04021685  0.12146040  0.85548107  1
  O  O24  1  0.05255230  0.37938962  0.90306202  1
  O  O25  1  0.04430960  0.70946511  0.40972379  1
  O  O26  1  0.07213195  0.45682905  0.33291413  1
  O  O27  1  0.15592614  0.77029121  0.83421820  1
  O  O28  1  0.15978071  0.06235386  0.40426266  1
  O  O29  1  0.33729443  0.43498508  0.64280235  1
  O  O30  1  0.34787953  0.73352425  0.15696404  1
  O  O31  1  0.42804382  0.04192966  0.67464735  1
  O  O32  1  0.46353408  0.79245321  0.58477826  1
  O  O33  1  0.46981088  0.38311359  0.13127761  1
  O  O34  1  0.47439962  0.12891962  0.05252914  1
  O  O35  1  0.51877290  0.62086083  0.89059966  1
  O  O36  1  0.53234161  0.21565768  0.41064764  1
  O  O37  1  0.55502962  0.88305625  0.90311510  1
  O  O38  1  0.56435845  0.96473048  0.33324166  1
  O  O39  1  0.65665615  0.26572709  0.83197014  1
  O  O40  1  0.66405192  0.56428554  0.38989489  1
  O  O41  1  0.83957303  0.93079395  0.64265166  1
  O  O42  1  0.83914841  0.23249382  0.16209731  1
  O  O43  1  0.91992067  0.54272723  0.65830690  1
  O  O44  1  0.96504411  0.29019619  0.58477135  1
  O  O45  1  0.95149054  0.86525721  0.15551487  1
  O  O46  1  0.95593575  0.61493734  0.07996191  1
