# generated using pymatgen
data_Li7Mn8(BO3)8
_symmetry_space_group_name_H-M   'P 1'
_cell_length_a   5.28533091
_cell_length_b   9.10165178
_cell_length_c   10.46373069
_cell_angle_alpha   89.59258666
_cell_angle_beta   91.72067656
_cell_angle_gamma   90.49625742
_symmetry_Int_Tables_number   1
_chemical_formula_structural   Li7Mn8(BO3)8
_chemical_formula_sum   'Li7 Mn8 B8 O24'
_cell_volume   503.10263226
_cell_formula_units_Z   1
loop_
 _symmetry_equiv_pos_site_id
 _symmetry_equiv_pos_as_xyz
  1  'x, y, z'
loop_
 _atom_site_type_symbol
 _atom_site_label
 _atom_site_symmetry_multiplicity
 _atom_site_fract_x
 _atom_site_fract_y
 _atom_site_fract_z
 _atom_site_occupancy
  Li  Li0  1  0.16564474  0.98487557  0.67589525  1
  Li  Li1  1  0.15626644  0.01917021  0.16013968  1
  Li  Li2  1  0.33931679  0.49971120  0.40968514  1
  Li  Li3  1  0.65999243  0.48314771  0.66258452  1
  Li  Li4  1  0.66024673  0.51525476  0.16977398  1
  Li  Li5  1  0.84646095  0.99584749  0.91609250  1
  Li  Li6  1  0.84194826  0.99146567  0.41341790  1
  Mn  Mn7  1  0.16509366  0.66307392  0.63854717  1
  Mn  Mn8  1  0.16135446  0.35187630  0.12560074  1
  Mn  Mn9  1  0.34837303  0.18537328  0.88015326  1
  Mn  Mn10  1  0.33445672  0.83730958  0.38267665  1
  Mn  Mn11  1  0.65716432  0.15070400  0.62664968  1
  Mn  Mn12  1  0.65235818  0.83615430  0.12964208  1
  Mn  Mn13  1  0.82722147  0.65416401  0.88508404  1
  Mn  Mn14  1  0.84120364  0.33122712  0.38088177  1
  B  B15  1  0.16726997  0.33021926  0.62850365  1
  B  B16  1  0.16142032  0.67700452  0.13130562  1
  B  B17  1  0.33106653  0.83619796  0.87630285  1
  B  B18  1  0.33139744  0.17115939  0.37069382  1
  B  B19  1  0.67139651  0.82603822  0.62323831  1
  B  B20  1  0.67318765  0.17694452  0.11822405  1
  B  B21  1  0.82831420  0.31515423  0.87012322  1
  B  B22  1  0.83466377  0.66916130  0.37746876  1
  O  O23  1  0.06975583  0.31002767  0.92601906  1
  O  O24  1  0.08640281  0.66500065  0.42010785  1
  O  O25  1  0.20464540  0.96980205  0.86767358  1
  O  O26  1  0.20399327  0.70948684  0.83919412  1
  O  O27  1  0.18216096  0.04720624  0.35513854  1
  O  O28  1  0.23238045  0.30817976  0.33659761  1
  O  O29  1  0.27750796  0.20193750  0.68546233  1
  O  O30  1  0.26114860  0.81519850  0.16447611  1
  O  O31  1  0.31311904  0.45176729  0.60628553  1
  O  O32  1  0.31269760  0.55638976  0.13648560  1
  O  O33  1  0.41168534  0.84378369  0.59527402  1
  O  O34  1  0.41593214  0.17908647  0.07407707  1
  O  O35  1  0.58560590  0.83313999  0.91778423  1
  O  O36  1  0.58047811  0.15919221  0.41831673  1
  O  O37  1  0.70482756  0.44158378  0.84775884  1
  O  O38  1  0.71331846  0.17731522  0.83884390  1
  O  O39  1  0.69454720  0.54132240  0.36438874  1
  O  O40  1  0.72208957  0.80414202  0.34367678  1
  O  O41  1  0.76604773  0.69084255  0.66119583  1
  O  O42  1  0.77688117  0.30608931  0.16725258  1
  O  O43  1  0.82977989  0.94755064  0.60850468  1
  O  O44  1  0.80786099  0.04950569  0.10931971  1
  O  O45  1  0.91189415  0.32563863  0.59219669  1
  O  O46  1  0.90384369  0.66265362  0.09531021  1
