# generated using pymatgen
data_B3H3SeO9
_symmetry_space_group_name_H-M   'P 1'
_cell_length_a   11.92775397
_cell_length_b   8.95957660
_cell_length_c   14.27075260
_cell_angle_alpha   90.00000000
_cell_angle_beta   90.00000000
_cell_angle_gamma   90.00000000
_symmetry_Int_Tables_number   1
_chemical_formula_structural   B3H3SeO9
_chemical_formula_sum   'B24 H24 Se8 O72'
_cell_volume   1525.08144246
_cell_formula_units_Z   8
loop_
 _symmetry_equiv_pos_site_id
 _symmetry_equiv_pos_as_xyz
  1  'x, y, z'
loop_
 _atom_site_type_symbol
 _atom_site_label
 _atom_site_symmetry_multiplicity
 _atom_site_fract_x
 _atom_site_fract_y
 _atom_site_fract_z
 _atom_site_occupancy
  B  B0  1  0.14881534  0.96716172  0.58153772  1
  B  B1  1  0.14881534  0.03283828  0.08153772  1
  B  B2  1  0.14644440  0.53667234  0.07336463  1
  B  B3  1  0.14644440  0.46332766  0.57336463  1
  B  B4  1  0.24510923  0.91414596  0.94820789  1
  B  B5  1  0.24510923  0.08585404  0.44820789  1
  B  B6  1  0.25489077  0.41414596  0.94820789  1
  B  B7  1  0.25489077  0.58585404  0.44820789  1
  B  B8  1  0.35355560  0.03667234  0.07336463  1
  B  B9  1  0.35355560  0.96332766  0.57336463  1
  B  B10  1  0.35118466  0.53283828  0.08153772  1
  B  B11  1  0.35118466  0.46716172  0.58153772  1
  B  B12  1  0.64881534  0.46716172  0.91846228  1
  B  B13  1  0.64881534  0.53283828  0.41846228  1
  B  B14  1  0.64644440  0.03667234  0.42663537  1
  B  B15  1  0.64644440  0.96332766  0.92663537  1
  B  B16  1  0.74510923  0.41414596  0.55179211  1
  B  B17  1  0.74510923  0.58585404  0.05179211  1
  B  B18  1  0.75489077  0.08585404  0.05179211  1
  B  B19  1  0.75489077  0.91414596  0.55179211  1
  B  B20  1  0.85355560  0.46332766  0.92663537  1
  B  B21  1  0.85355560  0.53667234  0.42663537  1
  B  B22  1  0.85118466  0.03283828  0.41846228  1
  B  B23  1  0.85118466  0.96716172  0.91846228  1
  H  H24  1  0.98580922  0.06252539  0.08837308  1
  H  H25  1  0.98580922  0.93747461  0.58837308  1
  H  H26  1  0.01914413  0.56163267  0.42101565  1
  H  H27  1  0.01914413  0.43836733  0.92101565  1
  H  H28  1  0.20243607  0.29410259  0.70266928  1
  H  H29  1  0.20243607  0.70589741  0.20266928  1
  H  H30  1  0.29756393  0.20589741  0.20266928  1
  H  H31  1  0.29756393  0.79410259  0.70266928  1
  H  H32  1  0.48085587  0.06163267  0.42101565  1
  H  H33  1  0.48085587  0.93836733  0.92101565  1
  H  H34  1  0.51419078  0.56252539  0.08837308  1
  H  H35  1  0.51419078  0.43747461  0.58837308  1
  H  H36  1  0.48580922  0.43747461  0.91162692  1
  H  H37  1  0.48580922  0.56252539  0.41162692  1
  H  H38  1  0.51914413  0.06163267  0.07898435  1
  H  H39  1  0.51914413  0.93836733  0.57898435  1
  H  H40  1  0.70243607  0.79410259  0.79733072  1
  H  H41  1  0.70243607  0.20589741  0.29733072  1
  H  H42  1  0.79756393  0.29410259  0.79733072  1
  H  H43  1  0.79756393  0.70589741  0.29733072  1
  H  H44  1  0.98085587  0.43836733  0.57898435  1
  H  H45  1  0.98085587  0.56163267  0.07898435  1
  H  H46  1  0.01419078  0.06252539  0.41162692  1
  H  H47  1  0.01419078  0.93747461  0.91162692  1
  Se  Se48  1  0.22592485  0.34047039  0.32341633  1
  Se  Se49  1  0.22592485  0.65952961  0.82341633  1
  Se  Se50  1  0.27407515  0.15952961  0.82341633  1
  Se  Se51  1  0.27407515  0.84047039  0.32341633  1
  Se  Se52  1  0.72592485  0.15952961  0.67658367  1
  Se  Se53  1  0.72592485  0.84047039  0.17658367  1
  Se  Se54  1  0.77407515  0.34047039  0.17658367  1
  Se  Se55  1  0.77407515  0.65952961  0.67658367  1
  O  O56  1  0.05077281  0.41339402  0.61227985  1
  O  O57  1  0.05077281  0.58660598  0.11227985  1
  O  O58  1  0.05535184  0.08636960  0.12211330  1
  O  O59  1  0.05535184  0.91363040  0.62211330  1
  O  O60  1  0.10028242  0.32710283  0.28435768  1
  O  O61  1  0.10028242  0.67289717  0.78435768  1
  O  O62  1  0.14717663  0.94286774  0.00251746  1
  O  O63  1  0.14717663  0.05713226  0.50251746  1
  O  O64  1  0.15025037  0.54178371  0.48963299  1
  O  O65  1  0.15025037  0.45821629  0.98963299  1
  O  O66  1  0.17124038  0.78964037  0.24344381  1
  O  O67  1  0.17124038  0.21035963  0.74344381  1
  O  O68  1  0.22926110  0.01717862  0.34886718  1
  O  O69  1  0.22926110  0.98282138  0.84886718  1
  O  O70  1  0.25412379  0.25297633  0.42807069  1
  O  O71  1  0.25412379  0.74702367  0.92807069  1
  O  O72  1  0.24623036  0.42758972  0.62073579  1
  O  O73  1  0.24623036  0.57241028  0.12073579  1
  O  O74  1  0.25376964  0.07241028  0.12073579  1
  O  O75  1  0.25376964  0.92758972  0.62073579  1
  O  O76  1  0.24587621  0.75297633  0.42807069  1
  O  O77  1  0.24587621  0.24702367  0.92807069  1
  O  O78  1  0.27073890  0.48282138  0.84886718  1
  O  O79  1  0.27073890  0.51717862  0.34886718  1
  O  O80  1  0.32875962  0.28964037  0.24344381  1
  O  O81  1  0.32875962  0.71035963  0.74344381  1
  O  O82  1  0.34974963  0.04178371  0.48963299  1
  O  O83  1  0.34974963  0.95821629  0.98963299  1
  O  O84  1  0.35282337  0.55713226  0.50251746  1
  O  O85  1  0.35282337  0.44286774  0.00251746  1
  O  O86  1  0.39971758  0.82710283  0.28435768  1
  O  O87  1  0.39971758  0.17289717  0.78435768  1
  O  O88  1  0.44464816  0.58636960  0.12211330  1
  O  O89  1  0.44464816  0.41363040  0.62211330  1
  O  O90  1  0.44922719  0.08660598  0.11227985  1
  O  O91  1  0.44922719  0.91339402  0.61227985  1
  O  O92  1  0.55077281  0.08660598  0.38772015  1
  O  O93  1  0.55077281  0.91339402  0.88772015  1
  O  O94  1  0.55535184  0.58636960  0.37788670  1
  O  O95  1  0.55535184  0.41363040  0.87788670  1
  O  O96  1  0.60028242  0.82710283  0.21564232  1
  O  O97  1  0.60028242  0.17289717  0.71564232  1
  O  O98  1  0.64717663  0.44286774  0.49748254  1
  O  O99  1  0.64717663  0.55713226  0.99748254  1
  O  O100  1  0.65025037  0.04178371  0.01036701  1
  O  O101  1  0.65025037  0.95821629  0.51036701  1
  O  O102  1  0.67124038  0.28964037  0.25655619  1
  O  O103  1  0.67124038  0.71035963  0.75655619  1
  O  O104  1  0.72926110  0.48282138  0.65113282  1
  O  O105  1  0.72926110  0.51717862  0.15113282  1
  O  O106  1  0.75412379  0.24702367  0.57192931  1
  O  O107  1  0.75412379  0.75297633  0.07192931  1
  O  O108  1  0.74623036  0.92758972  0.87926421  1
  O  O109  1  0.74623036  0.07241028  0.37926421  1
  O  O110  1  0.75376964  0.42758972  0.87926421  1
  O  O111  1  0.75376964  0.57241028  0.37926421  1
  O  O112  1  0.74587621  0.25297633  0.07192931  1
  O  O113  1  0.74587621  0.74702367  0.57192931  1
  O  O114  1  0.77073890  0.01717862  0.15113282  1
  O  O115  1  0.77073890  0.98282138  0.65113282  1
  O  O116  1  0.82875962  0.21035963  0.75655619  1
  O  O117  1  0.82875962  0.78964037  0.25655619  1
  O  O118  1  0.84974963  0.45821629  0.51036701  1
  O  O119  1  0.84974963  0.54178371  0.01036701  1
  O  O120  1  0.85282337  0.05713226  0.99748254  1
  O  O121  1  0.85282337  0.94286774  0.49748254  1
  O  O122  1  0.89971758  0.32710283  0.21564232  1
  O  O123  1  0.89971758  0.67289717  0.71564232  1
  O  O124  1  0.94464816  0.08636960  0.37788670  1
  O  O125  1  0.94464816  0.91363040  0.87788670  1
  O  O126  1  0.94922719  0.41339402  0.88772015  1
  O  O127  1  0.94922719  0.58660598  0.38772015  1
