# generated using pymatgen
data_Cs3NO4
_symmetry_space_group_name_H-M   'P 1'
_cell_length_a   10.88634967
_cell_length_b   11.93213728
_cell_length_c   11.05329364
_cell_angle_alpha   90.00000000
_cell_angle_beta   90.00000000
_cell_angle_gamma   90.00000000
_symmetry_Int_Tables_number   1
_chemical_formula_structural   Cs3NO4
_chemical_formula_sum   'Cs24 N8 O32'
_cell_volume   1435.79431242
_cell_formula_units_Z   8
loop_
 _symmetry_equiv_pos_site_id
 _symmetry_equiv_pos_as_xyz
  1  'x, y, z'
loop_
 _atom_site_type_symbol
 _atom_site_label
 _atom_site_symmetry_multiplicity
 _atom_site_fract_x
 _atom_site_fract_y
 _atom_site_fract_z
 _atom_site_occupancy
  Cs  Cs0  1  0.04919540  0.89183447  0.12094316  1
  Cs  Cs1  1  0.04919540  0.60816553  0.62094316  1
  Cs  Cs2  1  0.11664397  0.14961662  0.54027845  1
  Cs  Cs3  1  0.11664397  0.35038338  0.04027845  1
  Cs  Cs4  1  0.19169386  0.61281518  0.24117351  1
  Cs  Cs5  1  0.19169386  0.88718482  0.74117351  1
  Cs  Cs6  1  0.30830614  0.11281518  0.24117351  1
  Cs  Cs7  1  0.30830614  0.38718482  0.74117351  1
  Cs  Cs8  1  0.38335603  0.85038338  0.04027845  1
  Cs  Cs9  1  0.38335603  0.64961662  0.54027845  1
  Cs  Cs10  1  0.45080460  0.10816553  0.62094316  1
  Cs  Cs11  1  0.45080460  0.39183447  0.12094316  1
  Cs  Cs12  1  0.54919540  0.60816553  0.87905684  1
  Cs  Cs13  1  0.54919540  0.89183447  0.37905684  1
  Cs  Cs14  1  0.61664397  0.35038338  0.45972155  1
  Cs  Cs15  1  0.61664397  0.14961662  0.95972155  1
  Cs  Cs16  1  0.69169386  0.61281518  0.25882749  1
  Cs  Cs17  1  0.69169386  0.88718482  0.75882649  1
  Cs  Cs18  1  0.80830614  0.11281518  0.25882749  1
  Cs  Cs19  1  0.80830614  0.38718482  0.75882649  1
  Cs  Cs20  1  0.88335603  0.64961662  0.95972155  1
  Cs  Cs21  1  0.88335603  0.85038338  0.45972155  1
  Cs  Cs22  1  0.95080460  0.10816553  0.87905684  1
  Cs  Cs23  1  0.95080460  0.39183447  0.37905684  1
  N  N24  1  0.21170305  0.61901276  0.90183080  1
  N  N25  1  0.21170305  0.88098724  0.40183080  1
  N  N26  1  0.28829695  0.11901276  0.90183080  1
  N  N27  1  0.28829695  0.38098724  0.40183080  1
  N  N28  1  0.71170305  0.61901276  0.59816920  1
  N  N29  1  0.71170305  0.88098724  0.09816920  1
  N  N30  1  0.78829695  0.11901276  0.59816920  1
  N  N31  1  0.78829695  0.38098724  0.09816920  1
  O  O32  1  0.12391921  0.95976790  0.36523075  1
  O  O33  1  0.12391921  0.54023210  0.86523075  1
  O  O34  1  0.15263474  0.71216872  0.95280951  1
  O  O35  1  0.15263474  0.78783128  0.45280951  1
  O  O36  1  0.20841817  0.06979875  0.98671803  1
  O  O37  1  0.20841817  0.43020125  0.48671803  1
  O  O38  1  0.21876716  0.15358190  0.80002616  1
  O  O39  1  0.21876716  0.34641810  0.30002616  1
  O  O40  1  0.28123284  0.84641810  0.30002616  1
  O  O41  1  0.28123284  0.65358190  0.80002616  1
  O  O42  1  0.29158183  0.56979875  0.98671803  1
  O  O43  1  0.29158183  0.93020125  0.48671803  1
  O  O44  1  0.34736526  0.21216872  0.95280951  1
  O  O45  1  0.34736526  0.28783128  0.45280951  1
  O  O46  1  0.37608079  0.45976790  0.36523075  1
  O  O47  1  0.37608079  0.04023210  0.86523075  1
  O  O48  1  0.62391921  0.54023210  0.63476925  1
  O  O49  1  0.62391921  0.95976790  0.13476925  1
  O  O50  1  0.65263474  0.71216872  0.54719049  1
  O  O51  1  0.65263474  0.78783128  0.04719049  1
  O  O52  1  0.70841817  0.06979875  0.51328197  1
  O  O53  1  0.70841817  0.43020125  0.01328197  1
  O  O54  1  0.71876716  0.34641810  0.19997384  1
  O  O55  1  0.71876716  0.15358190  0.69997384  1
  O  O56  1  0.78123284  0.84641810  0.19997384  1
  O  O57  1  0.78123284  0.65358190  0.69997384  1
  O  O58  1  0.79158183  0.56979875  0.51328197  1
  O  O59  1  0.79158183  0.93020125  0.01328197  1
  O  O60  1  0.84736526  0.21216872  0.54719049  1
  O  O61  1  0.84736526  0.28783128  0.04719049  1
  O  O62  1  0.87608079  0.04023210  0.63476925  1
  O  O63  1  0.87608079  0.45976790  0.13476925  1
