# generated using pymatgen
data_Li2P8W3O29
_symmetry_space_group_name_H-M   'P 1'
_cell_length_a   9.96726378
_cell_length_b   9.96736129
_cell_length_c   14.53886844
_cell_angle_alpha   89.12888671
_cell_angle_beta   89.14275277
_cell_angle_gamma   60.15738342
_symmetry_Int_Tables_number   1
_chemical_formula_structural   Li2P8W3O29
_chemical_formula_sum   'Li4 P16 W6 O58'
_cell_volume   1252.67372614
_cell_formula_units_Z   2
loop_
 _symmetry_equiv_pos_site_id
 _symmetry_equiv_pos_as_xyz
  1  'x, y, z'
loop_
 _atom_site_type_symbol
 _atom_site_label
 _atom_site_symmetry_multiplicity
 _atom_site_fract_x
 _atom_site_fract_y
 _atom_site_fract_z
 _atom_site_occupancy
  Li  Li0  1  0.06241881  0.97875550  0.49874029  1
  Li  Li1  1  0.97905007  0.06229888  0.99876514  1
  Li  Li2  1  0.09041939  0.68241232  0.05262371  1
  Li  Li3  1  0.68266433  0.09027764  0.55267103  1
  P  P4  1  0.08056781  0.21452812  0.34291484  1
  P  P5  1  0.21466835  0.08059490  0.84283537  1
  P  P6  1  0.08353555  0.68473896  0.84224286  1
  P  P7  1  0.33030698  0.34251261  0.12777536  1
  P  P8  1  0.34243255  0.33045806  0.62776181  1
  P  P9  1  0.22186286  0.69673166  0.34461989  1
  P  P10  1  0.30245590  0.77737278  0.15885401  1
  P  P11  1  0.68479648  0.08345145  0.34230146  1
  P  P12  1  0.30626013  0.91721286  0.66056661  1
  P  P13  1  0.69671120  0.22186251  0.84453373  1
  P  P14  1  0.77731140  0.30253944  0.65884216  1
  P  P15  1  0.67184861  0.65680407  0.86996528  1
  P  P16  1  0.65683147  0.67166947  0.36998017  1
  P  P17  1  0.91714366  0.30625822  0.16055366  1
  P  P18  1  0.78602969  0.91767340  0.16109928  1
  P  P19  1  0.91763578  0.78609287  0.66108770  1
  W  W20  1  0.00078512  0.43315311  0.74172190  1
  W  W21  1  -0.00014619  0.56124907  0.25528043  1
  W  W22  1  0.43313144  0.00078388  0.24169539  1
  W  W23  1  0.56133684  -0.00006700  0.75525821  1
  W  W24  1  0.43709048  0.56287697  0.75122088  1
  W  W25  1  0.56282005  0.43706386  0.25119937  1
  O  O26  1  0.99235285  0.20612666  0.25231328  1
  O  O27  1  0.98743735  0.21608706  0.07730072  1
  O  O28  1  0.09044602  0.25436226  0.82159410  1
  O  O29  1  0.20619950  0.99233059  0.75231552  1
  O  O30  1  0.21608049  0.98752790  0.57727791  1
  O  O31  1  0.25443412  0.09044413  0.32155991  1
  O  O32  1  0.07250613  0.37461876  0.33835334  1
  O  O33  1  0.19547845  0.33035611  0.66435841  1
  O  O34  1  0.09343685  0.52824473  0.82406751  1
  O  O35  1  0.00006084  0.80728854  0.58271951  1
  O  O36  1  0.98702127  0.79934513  0.75924702  1
  O  O37  1  0.09638434  0.64932080  0.33266747  1
  O  O38  1  0.33023603  0.19553254  0.16431966  1
  O  O39  1  0.37466099  0.07244723  0.83831029  1
  O  O40  1  0.18679784  0.48624410  0.17501460  1
  O  O41  1  0.33092896  0.36357585  0.02694662  1
  O  O42  1  0.36308625  0.33144446  0.52689743  1
  O  O43  1  0.34165751  0.47317092  0.67860018  1
  O  O44  1  0.52823304  0.09331389  0.32408976  1
  O  O45  1  0.48632317  0.18694117  0.67482915  1
  O  O46  1  0.25382218  0.65605537  0.82740521  1
  O  O47  1  0.20833120  0.79793995  0.25377558  1
  O  O48  1  0.20983938  0.77693396  0.08057141  1
  O  O49  1  0.20573906  0.78564681  0.42755790  1
  O  O50  1  0.37990614  0.54055601  0.33096364  1
  O  O51  1  0.47304232  0.34168172  0.17856070  1
  O  O52  1  0.35377685  0.74060271  0.67128676  1
  O  O53  1  0.54059942  0.37980361  0.83100656  1
  O  O54  1  0.64931719  0.09630843  0.83265259  1
  O  O55  1  0.17533470  0.01906457  0.92510574  1
  O  O56  1  0.80705283  0.00025696  0.08268767  1
  O  O57  1  0.79926689  0.98709348  0.25922809  1
  O  O58  1  0.34217763  0.90869404  0.15736149  1
  O  O59  1  0.45985212  0.62118388  0.17296139  1
  O  O60  1  0.65591396  0.25383137  0.32741953  1
  O  O61  1  0.52393183  0.65829721  0.82500565  1
  O  O62  1  0.62117703  0.45992212  0.67302583  1
  O  O63  1  0.77678212  0.21006462  0.58051793  1
  O  O64  1  0.78590491  0.20544405  0.92758209  1
  O  O65  1  0.79785184  0.20820939  0.75374102  1
  O  O66  1  0.74055809  0.35363754  0.17131605  1
  O  O67  1  0.51876273  0.80844885  0.31906634  1
  O  O68  1  0.46009125  0.91923114  0.67240039  1
  O  O69  1  0.65838889  0.52380945  0.32493970  1
  O  O70  1  0.66822117  0.65687240  0.97082865  1
  O  O71  1  0.65707222  0.66797465  0.47073061  1
  O  O72  1  0.80852776  0.51864018  0.81912776  1
  O  O73  1  0.62535140  0.92191340  0.16958324  1
  O  O74  1  0.66368314  0.80516150  0.82290721  1
  O  O75  1  0.90868295  0.34215048  0.65742210  1
  O  O76  1  0.01920526  0.17521663  0.42504526  1
  O  O77  1  0.91902453  0.46012064  0.17232782  1
  O  O78  1  0.80534141  0.66343518  0.32286220  1
  O  O79  1  0.92182706  0.62545512  0.66958263  1
  O  O80  1  0.74273787  0.91393628  0.66467581  1
  O  O81  1  0.75927904  0.02077172  0.43143485  1
  O  O82  1  0.91377474  0.74284926  0.16470282  1
  O  O83  1  0.02083210  0.75924786  0.93146587  1
