# generated using pymatgen
data_Li9Mn2Co5O16
_symmetry_space_group_name_H-M   'P 1'
_cell_length_a   2.90277524
_cell_length_b   8.44690903
_cell_length_c   11.79686346
_cell_angle_alpha   89.81897545
_cell_angle_beta   90.00000000
_cell_angle_gamma   90.00000000
_symmetry_Int_Tables_number   1
_chemical_formula_structural   Li9Mn2Co5O16
_chemical_formula_sum   'Li9 Mn2 Co5 O16'
_cell_volume   289.25149511
_cell_formula_units_Z   1
loop_
 _symmetry_equiv_pos_site_id
 _symmetry_equiv_pos_as_xyz
  1  'x, y, z'
loop_
 _atom_site_type_symbol
 _atom_site_label
 _atom_site_symmetry_multiplicity
 _atom_site_fract_x
 _atom_site_fract_y
 _atom_site_fract_z
 _atom_site_occupancy
  Li  Li0  1  0.50000000  0.25005265  0.13031990  1
  Li  Li1  1  0.50000000  0.75758421  0.37992322  1
  Li  Li2  1  0.50000000  0.23552392  0.61588338  1
  Li  Li3  1  0.00000000  0.50123625  0.00528044  1
  Li  Li4  1  -0.00000000  0.00374005  0.25438097  1
  Li  Li5  1  -0.00000000  0.50115534  0.49616469  1
  Li  Li6  1  0.50000000  0.74900369  0.87273037  1
  Li  Li7  1  -0.00000000  0.00053695  0.74788900  1
  Li  Li8  1  -0.00000000  0.00483600  0.49858252  1
  Mn  Mn9  1  0.00000000  -0.00157320  0.00000349  1
  Mn  Mn10  1  0.00000000  0.50368587  0.74737651  1
  Co  Co11  1  0.00000000  0.49418619  0.25240903  1
  Co  Co12  1  0.50000000  0.25635437  0.87543983  1
  Co  Co13  1  0.50000000  0.74250113  0.12708926  1
  Co  Co14  1  0.50000000  0.23537274  0.37916315  1
  Co  Co15  1  0.50000000  0.77747517  0.61680746  1
  O  O16  1  0.50000000  -0.00302749  0.11313899  1
  O  O17  1  0.50000000  0.48093442  0.36717036  1
  O  O18  1  0.50000000  0.98984809  0.63037588  1
  O  O19  1  -0.00000000  0.25675699  0.98461091  1
  O  O20  1  -0.00000000  0.74376799  0.24463962  1
  O  O21  1  -0.00000000  0.25473567  0.49095046  1
  O  O22  1  0.50000000  0.50539683  0.85867214  1
  O  O23  1  -0.00000000  0.72860414  0.73952338  1
  O  O24  1  0.50000000  0.50155201  0.13424702  1
  O  O25  1  0.50000000  0.02621479  0.37337552  1
  O  O26  1  0.50000000  0.49247243  0.63990751  1
  O  O27  1  0.00000000  0.74172463  0.01154463  1
  O  O28  1  -0.00000000  0.25583612  0.25524562  1
  O  O29  1  0.00000000  0.74674398  0.50664207  1
  O  O30  1  0.50000000  0.00014192  0.88588087  1
  O  O31  1  -0.00000000  0.26662615  0.76463181  1
