# generated using pymatgen
data_Li2V3CrO8
_symmetry_space_group_name_H-M   'P 1'
_cell_length_a   5.90930216
_cell_length_b   5.88339438
_cell_length_c   9.62214555
_cell_angle_alpha   90.65605655
_cell_angle_beta   89.67341555
_cell_angle_gamma   119.85506641
_symmetry_Int_Tables_number   1
_chemical_formula_structural   Li2V3CrO8
_chemical_formula_sum   'Li4 V6 Cr2 O16'
_cell_volume   290.11531443
_cell_formula_units_Z   2
loop_
 _symmetry_equiv_pos_site_id
 _symmetry_equiv_pos_as_xyz
  1  'x, y, z'
loop_
 _atom_site_type_symbol
 _atom_site_label
 _atom_site_symmetry_multiplicity
 _atom_site_fract_x
 _atom_site_fract_y
 _atom_site_fract_z
 _atom_site_occupancy
  Li  Li0  1  0.33407451  0.66810204  0.89495300  1
  Li  Li1  1  0.99753640  0.00036860  0.99628266  1
  Li  Li2  1  0.00246360  0.00283220  0.49628266  1
  Li  Li3  1  0.66592549  0.33402754  0.39495300  1
  V  V4  1  0.17049288  0.83035733  0.20879474  1
  V  V5  1  0.16575269  0.34190651  0.21502326  1
  V  V6  1  0.65978700  0.83416992  0.21442428  1
  V  V7  1  0.34021300  0.17438293  0.71442428  1
  V  V8  1  0.82950712  0.65986445  0.70879474  1
  V  V9  1  0.83424731  0.17615381  0.71502326  1
  Cr  Cr10  1  0.33731355  0.66800645  0.48542423  1
  Cr  Cr11  1  0.66268645  0.33069290  0.98542423  1
  O  O12  1  0.17072971  0.84411322  0.60396706  1
  O  O13  1  0.04039684  0.51236540  0.33913961  1
  O  O14  1  0.34293860  0.65371653  0.09955868  1
  O  O15  1  0.99555667  0.00649097  0.31147745  1
  O  O16  1  0.00444333  0.01093430  0.81147745  1
  O  O17  1  0.16657837  0.33177593  0.60461883  1
  O  O18  1  0.49014474  0.96038170  0.33726329  1
  O  O19  1  0.48079165  0.51916894  0.33926886  1
  O  O20  1  0.32500787  0.16777719  0.10372504  1
  O  O21  1  0.67499213  0.84276832  0.60372504  1
  O  O22  1  0.50985526  0.47023696  0.83726329  1
  O  O23  1  0.51920835  0.03837829  0.83926886  1
  O  O24  1  0.65706140  0.31077793  0.59955868  1
  O  O25  1  0.82927029  0.67338351  0.10396706  1
  O  O26  1  0.95960216  0.47196757  0.83913961  1
  O  O27  1  0.83342163  0.16519656  0.10461883  1
