# generated using pymatgen
data_Li7Mn8(BO3)8
_symmetry_space_group_name_H-M   'P 1'
_cell_length_a   5.24928785
_cell_length_b   9.14671756
_cell_length_c   11.53834746
_cell_angle_alpha   68.51936995
_cell_angle_beta   77.81948348
_cell_angle_gamma   89.90015313
_symmetry_Int_Tables_number   1
_chemical_formula_structural   Li7Mn8(BO3)8
_chemical_formula_sum   'Li7 Mn8 B8 O24'
_cell_volume   502.17400373
_cell_formula_units_Z   1
loop_
 _symmetry_equiv_pos_site_id
 _symmetry_equiv_pos_as_xyz
  1  'x, y, z'
loop_
 _atom_site_type_symbol
 _atom_site_label
 _atom_site_symmetry_multiplicity
 _atom_site_fract_x
 _atom_site_fract_y
 _atom_site_fract_z
 _atom_site_occupancy
  Li  Li0  1  0.02959775  0.04248913  0.08439985  1
  Li  Li1  1  0.26927238  0.24298073  0.33536076  1
  Li  Li2  1  0.29079135  0.28789123  0.58691179  1
  Li  Li3  1  0.48763209  0.50889011  0.83936365  1
  Li  Li4  1  0.77363479  0.74436713  0.33146434  1
  Li  Li5  1  0.78449500  0.78254387  0.59788174  1
  Li  Li6  1  0.98280318  0.01164323  0.83553162  1
  Mn  Mn7  1  0.01857317  0.36295997  0.12189419  1
  Mn  Mn8  1  0.24055607  0.56376994  0.36412446  1
  Mn  Mn9  1  0.27321563  0.94520411  0.61628734  1
  Mn  Mn10  1  0.52278670  0.84550399  0.11396468  1
  Mn  Mn11  1  0.47746646  0.15709667  0.87059008  1
  Mn  Mn12  1  0.74987351  0.06316815  0.36670361  1
  Mn  Mn13  1  0.76708674  0.44282253  0.61772488  1
  Mn  Mn14  1  0.98589156  0.65767386  0.86848101  1
  B  B15  1  0.03866841  0.69537562  0.11348041  1
  B  B16  1  0.23769674  0.88585403  0.37800610  1
  B  B17  1  0.26053789  0.60249034  0.63355847  1
  B  B18  1  0.51654357  0.17366201  0.13059671  1
  B  B19  1  0.48695986  0.82135209  0.86435077  1
  B  B20  1  0.72548686  0.39137250  0.37894056  1
  B  B21  1  0.76641008  0.10810873  0.62682701  1
  B  B22  1  0.96974324  0.31905863  0.87515536  1
  O  O23  1  0.02011540  0.11212944  0.64240754  1
  O  O24  1  0.25997949  0.65366319  0.16001002  1
  O  O25  1  0.08894557  0.70509353  0.67461443  1
  O  O26  1  0.16703815  0.49974157  0.58628234  1
  O  O27  1  0.37064885  0.28573501  0.15530496  1
  O  O28  1  0.41715027  0.07449114  0.07934416  1
  O  O29  1  0.07421948  0.17637761  0.88985543  1
  O  O30  1  0.10061801  0.43122913  0.90407553  1
  O  O31  1  0.33924843  0.00183987  0.41296466  1
  O  O32  1  0.40658064  0.79167862  0.33217428  1
  O  O33  1  0.24167159  0.84965309  0.83175279  1
  O  O34  1  0.45796377  0.36660244  0.39796989  1
  O  O35  1  0.51558957  0.60997408  0.64296600  1
  O  O36  1  0.76709227  0.15411951  0.15834650  1
  O  O37  1  0.59634892  0.21338242  0.65799715  1
  O  O38  1  0.67797634  0.99833448  0.58351468  1
  O  O39  1  0.90484740  0.81824370  0.13103369  1
  O  O40  1  0.94742465  0.60270773  0.05329711  1
  O  O41  1  0.61073542  0.69269165  0.85716943  1
  O  O42  1  0.82862074  0.51226003  0.40750961  1
  O  O43  1  0.60146744  0.92794450  0.90271431  1
  O  O44  1  0.89559536  0.29692130  0.33370628  1
  O  O45  1  0.73762958  0.35271731  0.83483115  1
  O  O46  1  0.96945560  0.86503103  0.39452867  1
