# generated using pymatgen
data_Li7Mn8(BO3)8
_symmetry_space_group_name_H-M   'P 1'
_cell_length_a   5.29670406
_cell_length_b   9.03783294
_cell_length_c   10.45833386
_cell_angle_alpha   90.20930808
_cell_angle_beta   92.42545693
_cell_angle_gamma   90.08826391
_symmetry_Int_Tables_number   1
_chemical_formula_structural   Li7Mn8(BO3)8
_chemical_formula_sum   'Li7 Mn8 B8 O24'
_cell_volume   500.19546337
_cell_formula_units_Z   1
loop_
 _symmetry_equiv_pos_site_id
 _symmetry_equiv_pos_as_xyz
  1  'x, y, z'
loop_
 _atom_site_type_symbol
 _atom_site_label
 _atom_site_symmetry_multiplicity
 _atom_site_fract_x
 _atom_site_fract_y
 _atom_site_fract_z
 _atom_site_occupancy
  Li  Li0  1  0.15230989  0.97449253  0.66655245  1
  Li  Li1  1  0.16330925  0.01332335  0.16585942  1
  Li  Li2  1  0.33330396  0.50206094  0.91772052  1
  Li  Li3  1  0.35053090  0.49561641  0.41965526  1
  Li  Li4  1  0.66206883  0.51614935  0.15838521  1
  Li  Li5  1  0.83395149  0.00193748  0.90495437  1
  Li  Li6  1  0.84543382  0.00020237  0.42415738  1
  Mn  Mn7  1  0.17028123  0.64763594  0.63488633  1
  Mn  Mn8  1  0.15886613  0.34047246  0.13004144  1
  Mn  Mn9  1  0.33524275  0.15942363  0.88357120  1
  Mn  Mn10  1  0.34010338  0.83154198  0.38464649  1
  Mn  Mn11  1  0.64709884  0.18434490  0.62950216  1
  Mn  Mn12  1  0.66187983  0.84169415  0.12982343  1
  Mn  Mn13  1  0.81948940  0.66205786  0.87074681  1
  Mn  Mn14  1  0.83742365  0.34293993  0.37988546  1
  B  B15  1  0.17948534  0.31330531  0.62073983  1
  B  B16  1  0.16575108  0.67395521  0.12441604  1
  B  B17  1  0.32521655  0.82626613  0.87479191  1
  B  B18  1  0.32672921  0.17514628  0.37859790  1
  B  B19  1  0.66950368  0.83749981  0.62670929  1
  B  B20  1  0.67063447  0.17345014  0.12348829  1
  B  B21  1  0.82690622  0.33123677  0.87331478  1
  B  B22  1  0.83508642  0.67357786  0.37463899  1
  O  O23  1  0.08115389  0.33188550  0.91319498  1
  O  O24  1  0.08674820  0.65774011  0.41722633  1
  O  O25  1  0.17495205  0.95073057  0.85980826  1
  O  O26  1  0.22338777  0.68684671  0.84568968  1
  O  O27  1  0.19077169  0.04668182  0.36107784  1
  O  O28  1  0.22629278  0.31064595  0.33970989  1
  O  O29  1  0.28643722  0.17906812  0.66592544  1
  O  O30  1  0.27584379  0.80704000  0.16759275  1
  O  O31  1  0.32016383  0.43703121  0.60712250  1
  O  O32  1  0.31364100  0.54938561  0.10936159  1
  O  O33  1  0.40773910  0.83294886  0.59553095  1
  O  O34  1  0.41111588  0.16325009  0.09179277  1
  O  O35  1  0.57817853  0.84088854  0.91602078  1
  O  O36  1  0.57605281  0.17364685  0.43391947  1
  O  O37  1  0.67461961  0.44978344  0.88641813  1
  O  O38  1  0.68209554  0.55051221  0.35646460  1
  O  O39  1  0.72188334  0.19537050  0.82145767  1
  O  O40  1  0.73394640  0.81394192  0.34580842  1
  O  O41  1  0.79547927  0.71248232  0.66960354  1
  O  O42  1  0.80012600  0.96948292  0.61105447  1
  O  O43  1  0.77188467  0.30544510  0.17233283  1
  O  O44  1  0.82359925  0.05282602  0.10234146  1
  O  O45  1  0.92552759  0.31006976  0.58233862  1
  O  O46  1  0.90697547  0.66627607  0.09414706  1
