# generated using pymatgen
data_Li9Mn2Co5O16
_symmetry_space_group_name_H-M   'P 1'
_cell_length_a   2.90287985
_cell_length_b   9.80567321
_cell_length_c   10.40226639
_cell_angle_alpha   98.90309332
_cell_angle_beta   90.00000000
_cell_angle_gamma   90.00000000
_symmetry_Int_Tables_number   1
_chemical_formula_structural   Li9Mn2Co5O16
_chemical_formula_sum   'Li9 Mn2 Co5 O16'
_cell_volume   292.52977546
_cell_formula_units_Z   1
loop_
 _symmetry_equiv_pos_site_id
 _symmetry_equiv_pos_as_xyz
  1  'x, y, z'
loop_
 _atom_site_type_symbol
 _atom_site_label
 _atom_site_symmetry_multiplicity
 _atom_site_fract_x
 _atom_site_fract_y
 _atom_site_fract_z
 _atom_site_occupancy
  Li  Li0  1  0.50000000  0.99616819  0.25656757  1
  Li  Li1  1  0.50000000  0.99473198  0.73471161  1
  Li  Li2  1  0.00000000  0.25364057  0.37950900  1
  Li  Li3  1  0.00000000  0.25437742  0.87073883  1
  Li  Li4  1  0.50000000  0.50299928  0.50576341  1
  Li  Li5  1  0.50000000  0.50985966  0.00442341  1
  Li  Li6  1  0.00000000  0.74944633  0.13811727  1
  Li  Li7  1  0.00000000  0.74439460  0.61318003  1
  Li  Li8  1  0.50000000  0.75046250  0.37534115  1
  Mn  Mn9  1  0.00000000  0.99711724  0.99942846  1
  Mn  Mn10  1  0.50000000  0.25689325  0.12884920  1
  Co  Co11  1  -0.00000000  0.98415516  0.48157468  1
  Co  Co12  1  0.50000000  0.24353367  0.62771275  1
  Co  Co13  1  0.00000000  0.52162145  0.26957416  1
  Co  Co14  1  0.00000000  0.49656752  0.74825372  1
  Co  Co15  1  0.50000000  0.74633779  0.86718198  1
  O  O16  1  0.50000000  0.88373329  0.05386267  1
  O  O17  1  0.50000000  0.88804527  0.55393641  1
  O  O18  1  -0.00000000  0.14698159  0.18662047  1
  O  O19  1  -0.00000000  0.13355682  0.68780718  1
  O  O20  1  0.50000000  0.37570407  0.29199338  1
  O  O21  1  0.50000000  0.38134184  0.80604224  1
  O  O22  1  0.00000000  0.63088205  0.92646249  1
  O  O23  1  0.00000000  0.61415543  0.43114429  1
  O  O24  1  0.50000000  0.11526120  0.45029664  1
  O  O25  1  0.50000000  0.12269600  0.95960417  1
  O  O26  1  0.00000000  0.36509457  0.57070157  1
  O  O27  1  0.00000000  0.35851522  0.06493848  1
  O  O28  1  0.50000000  0.61658184  0.69308716  1
  O  O29  1  0.50000000  0.61455840  0.19018417  1
  O  O30  1  -0.00000000  0.88566587  0.31926563  1
  O  O31  1  0.00000000  0.86491993  0.81312581  1
