# generated using pymatgen
data_Li7Mn8(BO3)8
_symmetry_space_group_name_H-M   'P 1'
_cell_length_a   5.24330677
_cell_length_b   9.12870354
_cell_length_c   11.54530055
_cell_angle_alpha   68.89833776
_cell_angle_beta   77.67245355
_cell_angle_gamma   89.29851270
_symmetry_Int_Tables_number   1
_chemical_formula_structural   Li7Mn8(BO3)8
_chemical_formula_sum   'Li7 Mn8 B8 O24'
_cell_volume   502.40001636
_cell_formula_units_Z   1
loop_
 _symmetry_equiv_pos_site_id
 _symmetry_equiv_pos_as_xyz
  1  'x, y, z'
loop_
 _atom_site_type_symbol
 _atom_site_label
 _atom_site_symmetry_multiplicity
 _atom_site_fract_x
 _atom_site_fract_y
 _atom_site_fract_z
 _atom_site_occupancy
  Li  Li0  1  0.03179382  0.03329265  0.09058399  1
  Li  Li1  1  0.27458201  0.24426309  0.33185909  1
  Li  Li2  1  0.52273847  0.54106199  0.06754853  1
  Li  Li3  1  0.29801638  0.28773751  0.58314515  1
  Li  Li4  1  0.76102199  0.73583234  0.34791323  1
  Li  Li5  1  0.80097352  0.78891038  0.58666448  1
  Li  Li6  1  0.97919332  0.00703262  0.83776806  1
  Mn  Mn7  1  0.24993627  0.56566392  0.36724863  1
  Mn  Mn8  1  0.27589071  0.93926176  0.62216817  1
  Mn  Mn9  1  0.53037105  0.85395594  0.11545370  1
  Mn  Mn10  1  0.47230427  0.16289496  0.86804714  1
  Mn  Mn11  1  0.74078520  0.06065794  0.37301556  1
  Mn  Mn12  1  0.99928163  0.35366881  0.12497556  1
  Mn  Mn13  1  0.77153528  0.44651219  0.62769505  1
  Mn  Mn14  1  0.98624914  0.64907663  0.86300794  1
  B  B15  1  0.03142356  0.68187045  0.12930319  1
  B  B16  1  0.23836413  0.89342100  0.37373529  1
  B  B17  1  0.51684031  0.18625986  0.12697782  1
  B  B18  1  0.27996717  0.61376401  0.61389288  1
  B  B19  1  0.47600733  0.81908653  0.87378150  1
  B  B20  1  0.73919923  0.39490675  0.36861379  1
  B  B21  1  0.76881931  0.11197459  0.62629329  1
  B  B22  1  0.95132958  0.30080285  0.89082110  1
  O  O23  1  0.02306810  0.11347707  0.64159520  1
  O  O24  1  0.27839446  0.65167390  0.15632437  1
  O  O25  1  0.10391952  0.71102498  0.65714785  1
  O  O26  1  0.40800182  0.08319000  0.08516370  1
  O  O27  1  0.38857199  0.31391617  0.14100307  1
  O  O28  1  0.17956590  0.49766625  0.57935703  1
  O  O29  1  0.03785458  0.40616006  0.94195407  1
  O  O30  1  0.06853767  0.16144292  0.90386742  1
  O  O31  1  0.33501026  0.01313693  0.40578241  1
  O  O32  1  0.40809170  0.79592139  0.33067529  1
  O  O33  1  0.23895346  0.84904858  0.83363411  1
  O  O34  1  0.47294879  0.36734759  0.38878701  1
  O  O35  1  0.54175160  0.63522859  0.60418550  1
  O  O36  1  0.76438599  0.15753908  0.15962217  1
  O  O37  1  0.59734294  0.21805468  0.65697457  1
  O  O38  1  0.68113292  0.00398932  0.57993811  1
  O  O39  1  0.90691369  0.57769888  0.09061616  1
  O  O40  1  0.90914576  0.81156369  0.14151423  1
  O  O41  1  0.58950478  0.68037567  0.88705589  1
  O  O42  1  0.59461482  0.93377545  0.90498192  1
  O  O43  1  0.84564321  0.50795333  0.40098001  1
  O  O44  1  0.90989807  0.29890089  0.31651352  1
  O  O45  1  0.74909697  0.34293416  0.83031772  1
  O  O46  1  0.97139632  0.87182168  0.38846750  1
