# generated using pymatgen
data_Ca3WO6
_symmetry_space_group_name_H-M   'P 1'
_cell_length_a   5.60329067
_cell_length_b   5.87336068
_cell_length_c   8.13002270
_cell_angle_alpha   90.00000000
_cell_angle_beta   90.47697012
_cell_angle_gamma   90.00000000
_symmetry_Int_Tables_number   1
_chemical_formula_structural   Ca3WO6
_chemical_formula_sum   'Ca6 W2 O12'
_cell_volume   267.55097181
_cell_formula_units_Z   2
loop_
 _symmetry_equiv_pos_site_id
 _symmetry_equiv_pos_as_xyz
  1  'x, y, z'
loop_
 _atom_site_type_symbol
 _atom_site_label
 _atom_site_symmetry_multiplicity
 _atom_site_fract_x
 _atom_site_fract_y
 _atom_site_fract_z
 _atom_site_occupancy
  Ca  Ca0  1  0.00000000  0.50000000  0.50000000  1
  Ca  Ca1  1  0.01583227  0.94461084  0.74159655  1
  Ca  Ca2  1  0.48416773  0.44461084  0.75840345  1
  Ca  Ca3  1  0.50000000  0.00000000  0.00000000  1
  Ca  Ca4  1  0.51583227  0.55538916  0.24159655  1
  Ca  Ca5  1  0.98416773  0.05538916  0.25840345  1
  W  W6  1  0.00000000  0.50000000  0.00000000  1
  W  W7  1  0.50000000  0.00000000  0.50000000  1
  O  O8  1  0.11712802  0.44154255  0.22496478  1
  O  O9  1  0.16903241  0.22494769  0.92533569  1
  O  O10  1  0.21503152  0.17601696  0.55001267  1
  O  O11  1  0.28496848  0.67601696  0.94998733  1
  O  O12  1  0.33096759  0.72494769  0.57466431  1
  O  O13  1  0.38287198  0.94154255  0.27503522  1
  O  O14  1  0.61712802  0.05845745  0.72496478  1
  O  O15  1  0.66903241  0.27505231  0.42533569  1
  O  O16  1  0.71503152  0.32398304  0.05001267  1
  O  O17  1  0.78496848  0.82398304  0.44998733  1
  O  O18  1  0.83096759  0.77505231  0.07466431  1
  O  O19  1  0.88287198  0.55845745  0.77503522  1
