# generated using pymatgen
data_Ho2P4O13
_symmetry_space_group_name_H-M   'P 1'
_cell_length_a   8.73913786
_cell_length_b   9.73593188
_cell_length_c   14.08219162
_cell_angle_alpha   90.00000000
_cell_angle_beta   105.33700451
_cell_angle_gamma   90.00000000
_symmetry_Int_Tables_number   1
_chemical_formula_structural   Ho2P4O13
_chemical_formula_sum   'Ho8 P16 O52'
_cell_volume   1155.49380543
_cell_formula_units_Z   4
loop_
 _symmetry_equiv_pos_site_id
 _symmetry_equiv_pos_as_xyz
  1  'x, y, z'
loop_
 _atom_site_type_symbol
 _atom_site_label
 _atom_site_symmetry_multiplicity
 _atom_site_fract_x
 _atom_site_fract_y
 _atom_site_fract_z
 _atom_site_occupancy
  Ho  Ho0  1  0.28441868  0.00081552  0.99051973  1
  Ho  Ho1  1  0.21331011  0.00423123  0.51211653  1
  Ho  Ho2  1  0.28441868  0.49918448  0.49051973  1
  Ho  Ho3  1  0.21331011  0.49576877  0.01211653  1
  Ho  Ho4  1  0.78668989  0.50423123  0.98788347  1
  Ho  Ho5  1  0.71558132  0.50081552  0.50948027  1
  Ho  Ho6  1  0.78668989  0.99576877  0.48788347  1
  Ho  Ho7  1  0.71558132  0.99918448  0.00948027  1
  P  P8  1  0.03007567  0.28043749  0.59515382  1
  P  P9  1  0.11329880  0.24503343  0.81371632  1
  P  P10  1  0.23574176  0.73200450  0.68481226  1
  P  P11  1  0.03007567  0.21956251  0.09515382  1
  P  P12  1  0.11329880  0.25496657  0.31371632  1
  P  P13  1  0.45933968  0.71918150  0.90169845  1
  P  P14  1  0.23574176  0.76799550  0.18481226  1
  P  P15  1  0.54066032  0.21918150  0.59830155  1
  P  P16  1  0.45933968  0.78081850  0.40169845  1
  P  P17  1  0.76425824  0.23200450  0.81518774  1
  P  P18  1  0.54066032  0.28081850  0.09830155  1
  P  P19  1  0.88670120  0.74503343  0.68628368  1
  P  P20  1  0.96992433  0.78043749  0.90484618  1
  P  P21  1  0.76425824  0.26799550  0.31518774  1
  P  P22  1  0.88670120  0.75496657  0.18628368  1
  P  P23  1  0.96992433  0.71956251  0.40484618  1
  O  O24  1  0.06884425  0.69123333  0.70741731  1
  O  O25  1  0.12571294  0.84727976  0.90271152  1
  O  O26  1  0.01160464  0.12876381  0.55972621  1
  O  O27  1  0.13777521  0.37537358  0.87288149  1
  O  O28  1  0.13783864  0.27734426  0.70788703  1
  O  O29  1  0.12347886  0.36217648  0.53804860  1
  O  O30  1  0.22321227  0.12762739  0.85472621  1
  O  O31  1  0.06884425  0.80876667  0.20741731  1
  O  O32  1  0.12571294  0.65272024  0.40271152  1
  O  O33  1  0.01160464  0.37123619  0.05972621  1
  O  O34  1  0.36432223  0.63223032  0.95515510  1
  O  O35  1  0.22720634  0.87480268  0.64360078  1
  O  O36  1  0.13777521  0.12462642  0.37288149  1
  O  O37  1  0.13783864  0.22265574  0.20788703  1
  O  O38  1  0.27936412  0.61910617  0.62364842  1
  O  O39  1  0.36171188  0.73028768  0.78813009  1
  O  O40  1  0.12347886  0.13782352  0.03804860  1
  O  O41  1  0.38299594  0.15362666  0.59770477  1
  O  O42  1  0.48121230  0.87025502  0.94111560  1
  O  O43  1  0.22321227  0.37237261  0.35472621  1
  O  O44  1  0.36432223  0.86776968  0.45515510  1
  O  O45  1  0.22720634  0.62519732  0.14360078  1
  O  O46  1  0.27936412  0.88089383  0.12364842  1
  O  O47  1  0.36171188  0.76971232  0.28813009  1
  O  O48  1  0.51878770  0.37025502  0.55888440  1
  O  O49  1  0.61700406  0.65362666  0.90229523  1
  O  O50  1  0.38299594  0.34637334  0.09770477  1
  O  O51  1  0.48121230  0.62974498  0.44111560  1
  O  O52  1  0.63828812  0.23028768  0.71186991  1
  O  O53  1  0.72063588  0.11910617  0.87635158  1
  O  O54  1  0.77279366  0.37480268  0.85639922  1
  O  O55  1  0.63567777  0.13223032  0.54484490  1
  O  O56  1  0.77678773  0.62762739  0.64527379  1
  O  O57  1  0.51878770  0.12974498  0.05888440  1
  O  O58  1  0.61700406  0.84637334  0.40229523  1
  O  O59  1  0.87652114  0.86217648  0.96195140  1
  O  O60  1  0.63828812  0.26971232  0.21186991  1
  O  O61  1  0.72063588  0.38089383  0.37635158  1
  O  O62  1  0.86216136  0.77734426  0.79211297  1
  O  O63  1  0.86222479  0.87537358  0.62711851  1
  O  O64  1  0.77279366  0.12519732  0.35639922  1
  O  O65  1  0.63567777  0.36776968  0.04484490  1
  O  O66  1  0.98839536  0.62876381  0.94027379  1
  O  O67  1  0.87428706  0.34727976  0.59728848  1
  O  O68  1  0.93115575  0.19123333  0.79258269  1
  O  O69  1  0.77678773  0.87237261  0.14527379  1
  O  O70  1  0.87652114  0.63782352  0.46195140  1
  O  O71  1  0.86216136  0.72265574  0.29211297  1
  O  O72  1  0.86222479  0.62462642  0.12711851  1
  O  O73  1  0.98839536  0.87123619  0.44027379  1
  O  O74  1  0.87428706  0.15272024  0.09728848  1
  O  O75  1  0.93115575  0.30876667  0.29258269  1
