# generated using pymatgen
data_Li7Mn8(BO3)8
_symmetry_space_group_name_H-M   'P 1'
_cell_length_a   5.27275681
_cell_length_b   9.07944378
_cell_length_c   10.45344470
_cell_angle_alpha   91.34893564
_cell_angle_beta   91.36445503
_cell_angle_gamma   89.55787660
_symmetry_Int_Tables_number   1
_chemical_formula_structural   Li7Mn8(BO3)8
_chemical_formula_sum   'Li7 Mn8 B8 O24'
_cell_volume   500.15169610
_cell_formula_units_Z   1
loop_
 _symmetry_equiv_pos_site_id
 _symmetry_equiv_pos_as_xyz
  1  'x, y, z'
loop_
 _atom_site_type_symbol
 _atom_site_label
 _atom_site_symmetry_multiplicity
 _atom_site_fract_x
 _atom_site_fract_y
 _atom_site_fract_z
 _atom_site_occupancy
  Li  Li0  1  0.07619474  0.08387248  0.09477749  1
  Li  Li1  1  0.39112774  0.42298847  0.82604691  1
  Li  Li2  1  0.44629498  0.41079158  0.33884633  1
  Li  Li3  1  0.56890002  0.58042081  0.08335411  1
  Li  Li4  1  0.59214144  0.57137871  0.58651282  1
  Li  Li5  1  0.89229288  0.92773995  0.83571318  1
  Li  Li6  1  0.95020729  0.91494635  0.33226177  1
  Mn  Mn7  1  0.08086074  0.76949769  0.61614026  1
  Mn  Mn8  1  0.07947857  0.41483667  0.12004119  1
  Mn  Mn9  1  0.39400211  0.08243477  0.86609093  1
  Mn  Mn10  1  0.43437428  0.74751368  0.36822948  1
  Mn  Mn11  1  0.59896518  0.22574608  0.62006764  1
  Mn  Mn12  1  0.58555836  0.91436223  0.11774508  1
  Mn  Mn13  1  0.90644500  0.59595708  0.86731655  1
  Mn  Mn14  1  0.94375076  0.24935160  0.37758763  1
  B  B15  1  0.07573877  0.42789743  0.62513955  1
  B  B16  1  0.08776034  0.74814426  0.12493847  1
  B  B17  1  0.40615082  0.75132691  0.87683884  1
  B  B18  1  0.43645493  0.07589246  0.37366935  1
  B  B19  1  0.57209269  0.91822999  0.62724688  1
  B  B20  1  0.58785821  0.24899425  0.12677432  1
  B  B21  1  0.90408338  0.24941758  0.87077981  1
  B  B22  1  0.93161562  0.58172701  0.37705824  1
  O  O23  1  0.00879783  0.11458809  0.89704745  1
  O  O24  1  0.03553979  0.37784326  0.90339499  1
  O  O25  1  0.04383081  0.71857556  0.40484863  1
  O  O26  1  0.08190447  0.46299501  0.33647792  1
  O  O27  1  0.15549959  0.77327008  0.83776762  1
  O  O28  1  0.18054898  0.07312212  0.36017392  1
  O  O29  1  0.33656106  0.41773899  0.63553434  1
  O  O30  1  0.34681265  0.73119904  0.15641508  1
  O  O31  1  0.41349399  0.04149670  0.65476991  1
  O  O32  1  0.46360125  0.78722340  0.58105610  1
  O  O33  1  0.45262680  0.12825295  0.07753273  1
  O  O34  1  0.46982350  0.38446146  0.14292544  1
  O  O35  1  0.51029282  0.61136991  0.88854307  1
  O  O36  1  0.55669393  0.87449371  0.90738085  1
  O  O37  1  0.55824797  0.20462857  0.42569175  1
  O  O38  1  0.58738601  0.95780679  0.33376040  1
  O  O39  1  0.65500888  0.25817853  0.81471459  1
  O  O40  1  0.67309441  0.56518115  0.39222365  1
  O  O41  1  0.82509525  0.93242379  0.64934426  1
  O  O42  1  0.84362938  0.23439778  0.16354912  1
  O  O43  1  0.93190792  0.30855872  0.57885980  1
  O  O44  1  0.94235557  0.55594964  0.66005905  1
  O  O45  1  0.94427236  0.62673129  0.08265627  1
  O  O46  1  0.97553297  0.88479340  0.13806820  1
