# generated using pymatgen
data_Li6MnV3(PO4)6
_symmetry_space_group_name_H-M   'P 1'
_cell_length_a   9.03342470
_cell_length_b   8.50118124
_cell_length_c   8.50118056
_cell_angle_alpha   119.99999957
_cell_angle_beta   89.99999946
_cell_angle_gamma   61.93062333
_symmetry_Int_Tables_number   1
_chemical_formula_structural   Li6MnV3(PO4)6
_chemical_formula_sum   'Li6 Mn1 V3 P6 O24'
_cell_volume   474.64745009
_cell_formula_units_Z   1
loop_
 _symmetry_equiv_pos_site_id
 _symmetry_equiv_pos_as_xyz
  1  'x, y, z'
loop_
 _atom_site_type_symbol
 _atom_site_label
 _atom_site_symmetry_multiplicity
 _atom_site_fract_x
 _atom_site_fract_y
 _atom_site_fract_z
 _atom_site_occupancy
  Li  Li0  1  0.14958849  0.18878071  0.92040479  1
  Li  Li1  1  0.14958849  0.58203560  0.66163081  1
  Li  Li2  1  0.14958849  0.93000673  0.26837592  1
  Li  Li3  1  0.85348438  0.06423896  0.73364618  1
  Li  Li4  1  0.85348438  0.41286944  0.33059278  1
  Li  Li5  1  0.85348438  0.81592284  0.08227666  1
  Mn  Mn6  1  0.95240050  0.69839967  0.34919983  1
  V  V7  1  0.04893819  0.30070787  0.65035394  1
  V  V8  1  0.55999770  0.29333453  0.14666777  1
  V  V9  1  0.44226087  0.70515942  0.85257971  1
  P  P10  1  0.25106089  0.20359775  0.24588513  1
  P  P11  1  0.25106089  0.50305398  0.95771362  1
  P  P12  1  0.25106089  0.79122549  0.54534036  1
  P  P13  1  0.74893870  0.21548136  0.46285574  1
  P  P14  1  0.74893870  0.49843668  0.03557994  1
  P  P15  1  0.74893870  0.78820556  0.75262562  1
  O  O16  1  0.09611871  0.34720570  0.20176009  1
  O  O17  1  0.19684568  0.29276990  0.46100335  1
  O  O18  1  0.19684568  0.34215097  0.83176654  1
  O  O19  1  0.09611871  0.70212021  0.14544562  1
  O  O20  1  0.09611871  0.75843568  0.55667559  1
  O  O21  1  0.41802695  0.19465242  0.19576240  1
  O  O22  1  0.27910974  0.59913126  0.85301903  1
  O  O23  1  0.41802695  0.38621165  0.99889002  1
  O  O24  1  0.19684568  0.97138778  0.51038443  1
  O  O25  1  0.27910974  0.86787023  0.74611223  1
  O  O26  1  0.41802695  0.58308303  0.38732063  1
  O  O27  1  0.27910974  0.97477803  0.12175800  1
  O  O28  1  0.72937889  0.01057506  0.87993492  1
  O  O29  1  0.57720474  0.43200449  0.61174908  1
  O  O30  1  0.72937889  0.13998097  0.26004605  1
  O  O31  1  0.79477060  0.04622018  0.50459560  1
  O  O32  1  0.57720474  0.60253986  0.99079078  1
  O  O33  1  0.72937889  0.39068619  0.13064014  1
  O  O34  1  0.57720474  0.81104618  0.82025541  1
  O  O35  1  0.90427348  0.25407112  0.46194583  1
  O  O36  1  0.90427348  0.30360123  0.84165540  1
  O  O37  1  0.79477060  0.66360382  0.15900922  1
  O  O38  1  0.79477060  0.70063380  0.54162458  1
  O  O39  1  0.90427348  0.63378069  0.79212529  1
