# generated using pymatgen
data_Na4Bi2C4SO16
_symmetry_space_group_name_H-M   'P 1'
_cell_length_a   10.52422449
_cell_length_b   10.19810648
_cell_length_c   10.52422427
_cell_angle_alpha   61.58215260
_cell_angle_beta   94.45621639
_cell_angle_gamma   61.58215187
_symmetry_Int_Tables_number   1
_chemical_formula_structural   Na4Bi2C4SO16
_chemical_formula_sum   'Na8 Bi4 C8 S2 O32'
_cell_volume   803.33005991
_cell_formula_units_Z   2
loop_
 _symmetry_equiv_pos_site_id
 _symmetry_equiv_pos_as_xyz
  1  'x, y, z'
loop_
 _atom_site_type_symbol
 _atom_site_label
 _atom_site_symmetry_multiplicity
 _atom_site_fract_x
 _atom_site_fract_y
 _atom_site_fract_z
 _atom_site_occupancy
  Na  Na0  1  0.07523879  0.84952341  0.82523879  1
  Na  Na1  1  0.07670842  0.25000000  0.82670842  1
  Na  Na2  1  0.32670842  0.75000000  0.57670842  1
  Na  Na3  1  0.32523879  0.34952341  0.57523879  1
  Na  Na4  1  0.67476121  0.65047659  0.42476121  1
  Na  Na5  1  0.67329158  0.25000000  0.42329158  1
  Na  Na6  1  0.92329158  0.75000000  0.17329158  1
  Na  Na7  1  0.92476121  0.15047659  0.17476121  1
  Bi  Bi8  1  0.00000000  0.50000000  0.00000000  1
  Bi  Bi9  1  0.50000000  0.00000000  0.50000000  1
  Bi  Bi10  1  0.50000000  0.50000000  0.00000000  1
  Bi  Bi11  1  0.50000000  0.00000000  0.00000000  1
  C  C12  1  0.33791600  0.94428159  0.76862266  1
  C  C13  1  0.26862266  0.44428159  0.83791600  1
  C  C14  1  0.71780141  0.94428159  0.78709576  1
  C  C15  1  0.71290424  0.55571841  0.78219859  1
  C  C16  1  0.28709576  0.44428159  0.21780141  1
  C  C17  1  0.28219859  0.05571841  0.21290424  1
  C  C18  1  0.73137734  0.55571841  0.16208400  1
  C  C19  1  0.66208400  0.05571841  0.23137734  1
  S  S20  1  0.12500000  0.75000000  0.37500000  1
  S  S21  1  0.87500000  0.25000000  0.62500000  1
  O  O22  1  0.33031676  0.82114617  0.88190247  1
  O  O23  1  0.07166280  0.87104634  0.43008276  1
  O  O24  1  0.35038453  0.94192360  0.64817468  1
  O  O25  1  0.14817468  0.44192360  0.85038453  1
  O  O26  1  0.70769187  0.94192360  0.90990272  1
  O  O27  1  0.27722460  0.57065174  0.83224784  1
  O  O28  1  0.05729086  0.87104634  0.19887091  1
  O  O29  1  0.06991724  0.62895366  0.42833720  1
  O  O30  1  0.40290058  0.92934826  0.34787634  1
  O  O31  1  0.59009728  0.55807640  0.79230813  1
  O  O32  1  0.38190247  0.32114617  0.83031676  1
  O  O33  1  0.30112909  0.62895366  0.44270914  1
  O  O34  1  0.84853808  0.82114617  0.79695137  1
  O  O35  1  0.70304863  0.67885383  0.65146192  1
  O  O36  1  0.33224784  0.07065174  0.77722460  1
  O  O37  1  0.15212366  0.57065174  0.09709942  1
  O  O38  1  0.84787634  0.42934826  0.90290058  1
  O  O39  1  0.66775216  0.92934826  0.22277540  1
  O  O40  1  0.29695137  0.32114617  0.34853808  1
  O  O41  1  0.15146192  0.17885383  0.20304863  1
  O  O42  1  0.69887091  0.37104634  0.55729086  1
  O  O43  1  0.61809753  0.67885383  0.16968324  1
  O  O44  1  0.40990272  0.44192360  0.20769187  1
  O  O45  1  0.59709942  0.07065174  0.65212366  1
  O  O46  1  0.93008276  0.37104634  0.57166280  1
  O  O47  1  0.94270914  0.12895366  0.80112909  1
  O  O48  1  0.72277540  0.42934826  0.16775116  1
  O  O49  1  0.29230813  0.05807640  0.09009728  1
  O  O50  1  0.85182532  0.55807640  0.14961547  1
  O  O51  1  0.64961547  0.05807640  0.35182532  1
  O  O52  1  0.92833720  0.12895366  0.56991724  1
  O  O53  1  0.66968324  0.17885383  0.11809753  1
