# generated using pymatgen
data_LiMnF3
_symmetry_space_group_name_H-M   'P 1'
_cell_length_a   5.46586250
_cell_length_b   9.03598870
_cell_length_c   10.05294797
_cell_angle_alpha   90.00000000
_cell_angle_beta   90.00000000
_cell_angle_gamma   90.00000000
_symmetry_Int_Tables_number   1
_chemical_formula_structural   LiMnF3
_chemical_formula_sum   'Li8 Mn8 F24'
_cell_volume   496.50979013
_cell_formula_units_Z   8
loop_
 _symmetry_equiv_pos_site_id
 _symmetry_equiv_pos_as_xyz
  1  'x, y, z'
loop_
 _atom_site_type_symbol
 _atom_site_label
 _atom_site_symmetry_multiplicity
 _atom_site_fract_x
 _atom_site_fract_y
 _atom_site_fract_z
 _atom_site_occupancy
  Li  Li0  1  0.18300587  0.16536564  0.00479276  1
  Li  Li1  1  0.15171726  0.82755966  0.78196187  1
  Li  Li2  1  0.34828274  0.32755966  0.28196187  1
  Li  Li3  1  0.31699413  0.66536564  0.50479276  1
  Li  Li4  1  0.68300587  0.33463436  0.00479276  1
  Li  Li5  1  0.65171726  0.67244034  0.78196187  1
  Li  Li6  1  0.84828274  0.17244034  0.28196187  1
  Li  Li7  1  0.81699413  0.83463436  0.50479276  1
  Mn  Mn8  1  0.15639189  0.47744982  0.80720323  1
  Mn  Mn9  1  0.16149415  0.14329786  0.57207324  1
  Mn  Mn10  1  0.33850585  0.64329786  0.07207324  1
  Mn  Mn11  1  0.34360811  0.97744982  0.30720323  1
  Mn  Mn12  1  0.65639189  0.02255018  0.80720323  1
  Mn  Mn13  1  0.66149415  0.35670214  0.57207324  1
  Mn  Mn14  1  0.83850585  0.85670214  0.07207324  1
  Mn  Mn15  1  0.84360811  0.52255018  0.30720323  1
  F  F16  1  0.00766014  0.33234213  0.94223196  1
  F  F17  1  0.01373117  0.99841843  0.43157166  1
  F  F18  1  0.04163373  0.68148543  0.93201699  1
  F  F19  1  0.17654127  0.82535278  0.17231657  1
  F  F20  1  0.17218936  0.15640512  0.19902333  1
  F  F21  1  0.17405795  0.49212088  0.20119838  1
  F  F22  1  0.32594205  0.99212088  0.70119838  1
  F  F23  1  0.32781064  0.65640512  0.69902333  1
  F  F24  1  0.32345873  0.32535278  0.67231657  1
  F  F25  1  0.45836627  0.18148543  0.43201699  1
  F  F26  1  0.48626883  0.49841843  0.93157166  1
  F  F27  1  0.49233986  0.83234213  0.44223196  1
  F  F28  1  0.50766014  0.16765787  0.94223196  1
  F  F29  1  0.51373117  0.50158157  0.43157166  1
  F  F30  1  0.54163373  0.81851457  0.93201699  1
  F  F31  1  0.67654127  0.67464722  0.17231657  1
  F  F32  1  0.67218936  0.34359488  0.19902333  1
  F  F33  1  0.67405795  0.00787912  0.20119838  1
  F  F34  1  0.82594205  0.50787912  0.70119838  1
  F  F35  1  0.82781064  0.84359488  0.69902333  1
  F  F36  1  0.82345873  0.17464722  0.67231657  1
  F  F37  1  0.95836627  0.31851457  0.43201699  1
  F  F38  1  0.98626883  0.00158157  0.93157166  1
  F  F39  1  0.99233986  0.66765787  0.44223196  1
