# generated using pymatgen
data_V6O5F19
_symmetry_space_group_name_H-M   'P 1'
_cell_length_a   5.62311408
_cell_length_b   5.37837679
_cell_length_c   14.83136265
_cell_angle_alpha   89.58446990
_cell_angle_beta   100.38171778
_cell_angle_gamma   93.35485410
_symmetry_Int_Tables_number   1
_chemical_formula_structural   V6O5F19
_chemical_formula_sum   'V6 O5 F19'
_cell_volume   440.44648921
_cell_formula_units_Z   1
loop_
 _symmetry_equiv_pos_site_id
 _symmetry_equiv_pos_as_xyz
  1  'x, y, z'
loop_
 _atom_site_type_symbol
 _atom_site_label
 _atom_site_symmetry_multiplicity
 _atom_site_fract_x
 _atom_site_fract_y
 _atom_site_fract_z
 _atom_site_occupancy
  V  V0  1  0.05829513  0.95961131  0.00412848  1
  V  V1  1  0.20051713  0.45643129  0.32938139  1
  V  V2  1  0.26486998  0.03218086  0.66281727  1
  V  V3  1  0.51428523  0.48995766  0.99879724  1
  V  V4  1  0.71184854  0.96533851  0.33730193  1
  V  V5  1  0.77577664  0.48466906  0.66537653  1
  O  O6  1  0.02992296  0.20557988  0.64172358  1
  O  O7  1  0.36036753  0.22883057  0.31076829  1
  O  O8  1  0.53054994  0.29390133  0.64396187  1
  O  O9  1  0.29462719  0.78930726  0.02316587  1
  O  O10  1  0.94358975  0.79625278  0.35594026  1
  F  F11  1  0.20828900  0.27318002  0.97711842  1
  F  F12  1  0.13583480  0.72778399  0.69037415  1
  F  F13  1  0.02928767  0.08438018  0.11115397  1
  F  F14  1  0.19124098  0.43706374  0.44795067  1
  F  F15  1  0.39613156  0.08738473  0.77897846  1
  F  F16  1  0.11842724  0.59712854  0.22064950  1
  F  F17  1  0.31175533  0.92886963  0.55443908  1
  F  F18  1  0.44522623  0.60044407  0.88499491  1
  F  F19  1  0.67668223  0.22151044  0.97529147  1
  F  F20  1  0.46391900  0.71257429  0.36017736  1
  F  F21  1  0.65044534  0.76573582  0.69324384  1
  F  F22  1  0.53091618  0.44110105  0.11795700  1
  F  F23  1  0.70401461  0.09683714  0.44592448  1
  F  F24  1  0.90571613  0.41188324  0.77927136  1
  F  F25  1  0.59508468  0.92930049  0.21882908  1
  F  F26  1  0.81485905  0.57416418  0.55369578  1
  F  F27  1  0.93973109  0.92962868  0.88640314  1
  F  F28  1  0.88126758  0.27516873  0.30682722  1
  F  F29  1  0.81652128  0.70379952  0.02335742  1
