# generated using pymatgen
data_NbNO
_symmetry_space_group_name_H-M   'P 1'
_cell_length_a   5.26313920
_cell_length_b   5.03671532
_cell_length_c   10.23434765
_cell_angle_alpha   90.02310669
_cell_angle_beta   89.76035825
_cell_angle_gamma   99.87317459
_symmetry_Int_Tables_number   1
_chemical_formula_structural   NbNO
_chemical_formula_sum   'Nb8 N8 O8'
_cell_volume   267.28123867
_cell_formula_units_Z   8
loop_
 _symmetry_equiv_pos_site_id
 _symmetry_equiv_pos_as_xyz
  1  'x, y, z'
loop_
 _atom_site_type_symbol
 _atom_site_label
 _atom_site_symmetry_multiplicity
 _atom_site_fract_x
 _atom_site_fract_y
 _atom_site_fract_z
 _atom_site_occupancy
  Nb  Nb0  1  0.96682554  0.79528614  0.49171694  1
  Nb  Nb1  1  0.03500611  0.20121832  0.24301500  1
  Nb  Nb2  1  0.02617991  0.21082160  0.73647043  1
  Nb  Nb3  1  0.96023498  0.78911620  0.99112783  1
  Nb  Nb4  1  0.54068704  0.21515081  0.04138313  1
  Nb  Nb5  1  0.52694248  0.20154192  0.53940676  1
  Nb  Nb6  1  0.46946360  0.79290639  0.28988471  1
  Nb  Nb7  1  0.47531846  0.78173298  0.79513586  1
  N  N8  1  0.27190443  0.05667223  0.39235868  1
  N  N9  1  0.23259794  0.94348495  0.13324035  1
  N  N10  1  0.22161898  0.94658188  0.63710092  1
  N  N11  1  0.59090032  0.56084728  0.93124043  1
  N  N12  1  0.77211014  0.05857498  0.38882735  1
  N  N13  1  0.77806392  0.06459511  0.88742331  1
  N  N14  1  0.73253882  0.94005754  0.14582457  1
  N  N15  1  0.72522739  0.94162117  0.64333677  1
  O  O16  1  0.09124050  0.56324209  0.35074478  1
  O  O17  1  0.90907737  0.43535633  0.10357146  1
  O  O18  1  0.09244926  0.57048345  0.84975327  1
  O  O19  1  0.90238407  0.43715634  0.60096656  1
  O  O20  1  0.27344757  0.06002311  0.89193407  1
  O  O21  1  0.41086596  0.43464210  0.18393142  1
  O  O22  1  0.40471118  0.43443965  0.68009664  1
  O  O23  1  0.59020602  0.56444744  0.43160976  1
