# generated using pymatgen
data_Li4VP2(O4F)2
_symmetry_space_group_name_H-M   'P 1'
_cell_length_a   6.46183848
_cell_length_b   10.94536940
_cell_length_c   10.58411810
_cell_angle_alpha   90.00000000
_cell_angle_beta   90.18439119
_cell_angle_gamma   90.00000000
_symmetry_Int_Tables_number   1
_chemical_formula_structural   Li4VP2(O4F)2
_chemical_formula_sum   'Li16 V4 P8 O32 F8'
_cell_volume   748.58125760
_cell_formula_units_Z   4
loop_
 _symmetry_equiv_pos_site_id
 _symmetry_equiv_pos_as_xyz
  1  'x, y, z'
loop_
 _atom_site_type_symbol
 _atom_site_label
 _atom_site_symmetry_multiplicity
 _atom_site_fract_x
 _atom_site_fract_y
 _atom_site_fract_z
 _atom_site_occupancy
  Li  Li0  1  0.25119175  0.77407367  0.96069312  1
  Li  Li1  1  0.25119175  0.72592633  0.46069312  1
  Li  Li2  1  0.27117510  0.09620720  0.72707552  1
  Li  Li3  1  0.27117510  0.40379280  0.22707552  1
  Li  Li4  1  0.50038767  0.00466973  0.49516286  1
  Li  Li5  1  0.49872270  0.49470962  0.51018157  1
  Li  Li6  1  0.49872270  0.00529038  0.01018157  1
  Li  Li7  1  0.50038767  0.49533027  0.99516286  1
  Li  Li8  1  0.50565730  0.83117132  0.76713109  1
  Li  Li9  1  0.50565730  0.66882868  0.26713109  1
  Li  Li10  1  0.73456152  0.58830567  0.77446048  1
  Li  Li11  1  0.73456152  0.91169433  0.27446048  1
  Li  Li12  1  0.73032000  0.27168643  0.53837289  1
  Li  Li13  1  0.73032000  0.22831357  0.03837289  1
  Li  Li14  1  0.96898245  0.33264664  0.75479025  1
  Li  Li15  1  0.96898245  0.16735336  0.25479025  1
  V  V16  1  0.00743600  0.99670476  0.50266204  1
  V  V17  1  0.00724955  0.50134322  0.50247902  1
  V  V18  1  0.00724955  0.99865678  0.00247902  1
  V  V19  1  0.00743600  0.50329524  0.00266204  1
  P  P20  1  0.24536934  0.24280159  0.96698195  1
  P  P21  1  0.24536934  0.25719841  0.46698195  1
  P  P22  1  0.26556893  0.58268352  0.76049662  1
  P  P23  1  0.26556893  0.91731648  0.26049662  1
  P  P24  1  0.74620557  0.07861817  0.74245143  1
  P  P25  1  0.74620557  0.42138183  0.24245143  1
  P  P26  1  0.73574781  0.74152411  0.52949107  1
  P  P27  1  0.73574781  0.75847589  0.02949107  1
  O  O28  1  0.06330510  0.33255303  0.53656520  1
  O  O29  1  0.06330510  0.16744697  0.03656520  1
  O  O30  1  0.06685073  0.51957967  0.82645884  1
  O  O31  1  0.06685073  0.98042033  0.32645884  1
  O  O32  1  0.23796103  0.55022483  0.61600508  1
  O  O33  1  0.23796103  0.94977517  0.11600508  1
  O  O34  1  0.23008526  0.12371194  0.52464919  1
  O  O35  1  0.23008526  0.37628806  0.02464919  1
  O  O36  1  0.19862772  0.24328591  0.82615227  1
  O  O37  1  0.19862772  0.25671409  0.32615227  1
  O  O38  1  0.25623773  0.71982423  0.78080477  1
  O  O39  1  0.25623773  0.78017577  0.28080477  1
  O  O40  1  0.44968219  0.31394754  0.50455801  1
  O  O41  1  0.44968219  0.18605246  0.00455801  1
  O  O42  1  0.45985783  0.52176578  0.81117287  1
  O  O43  1  0.45985783  0.97823422  0.31117287  1
  O  O44  1  0.54797851  0.01530861  0.69676243  1
  O  O45  1  0.54797851  0.48469139  0.19676243  1
  O  O46  1  0.55374551  0.81719284  0.95878456  1
  O  O47  1  0.55374551  0.68280716  0.45878456  1
  O  O48  1  0.75406042  0.21454461  0.71577306  1
  O  O49  1  0.75406042  0.28545539  0.21577306  1
  O  O50  1  0.71395484  0.73948882  0.67196611  1
  O  O51  1  0.71395484  0.76051118  0.17196611  1
  O  O52  1  0.77480778  0.62540838  0.97768863  1
  O  O53  1  0.77480778  0.87459162  0.47768863  1
  O  O54  1  0.78346412  0.04859249  0.88529611  1
  O  O55  1  0.78346412  0.45140751  0.38529611  1
  O  O56  1  0.93784540  0.01744885  0.66991376  1
  O  O57  1  0.93784540  0.48255115  0.16991376  1
  O  O58  1  0.93886803  0.83283624  0.99028247  1
  O  O59  1  0.93886803  0.66716376  0.49028247  1
  F  F60  1  0.22551926  0.88427294  0.53866171  1
  F  F61  1  0.22551926  0.61572706  0.03866171  1
  F  F62  1  0.21951864  0.98539598  0.87841597  1
  F  F63  1  0.21951864  0.51460402  0.37841597  1
  F  F64  1  0.79116680  0.47828603  0.62814629  1
  F  F65  1  0.79116680  0.02171397  0.12814629  1
  F  F66  1  0.80302342  0.38326479  0.95116774  1
  F  F67  1  0.80302342  0.11673521  0.45116774  1
