# generated using pymatgen
data_Li5Mn6(BO3)6
_symmetry_space_group_name_H-M   'P 1'
_cell_length_a   7.86907801
_cell_length_b   9.16771162
_cell_length_c   6.22687497
_cell_angle_alpha   102.93812365
_cell_angle_beta   78.70280726
_cell_angle_gamma   66.45743964
_symmetry_Int_Tables_number   1
_chemical_formula_structural   Li5Mn6(BO3)6
_chemical_formula_sum   'Li5 Mn6 B6 O18'
_cell_volume   380.35330788
_cell_formula_units_Z   1
loop_
 _symmetry_equiv_pos_site_id
 _symmetry_equiv_pos_as_xyz
  1  'x, y, z'
loop_
 _atom_site_type_symbol
 _atom_site_label
 _atom_site_symmetry_multiplicity
 _atom_site_fract_x
 _atom_site_fract_y
 _atom_site_fract_z
 _atom_site_occupancy
  Li  Li0  1  0.95150008  0.71337350  0.72985443  1
  Li  Li1  1  0.38337791  0.61495420  0.93206844  1
  Li  Li2  1  0.71288825  0.95439518  0.61106990  1
  Li  Li3  1  0.61911953  0.37981972  0.06212721  1
  Li  Li4  1  0.06582862  0.27982342  0.28105142  1
  Mn  Mn5  1  0.99921746  0.37243522  0.77087323  1
  Mn  Mn6  1  0.68368614  0.28175269  0.55705168  1
  Mn  Mn7  1  0.63402649  0.05605195  0.11978591  1
  Mn  Mn8  1  0.34232737  0.94152746  0.90720538  1
  Mn  Mn9  1  0.31746835  0.73339964  0.43625913  1
  Mn  Mn10  1  0.01836416  0.61607254  0.22507242  1
  B  B11  1  0.97533432  0.05023490  0.78442873  1
  B  B12  1  0.35350372  0.28085932  0.90881399  1
  B  B13  1  0.69305188  0.61751848  0.57292073  1
  B  B14  1  0.31356947  0.39365534  0.42915681  1
  B  B15  1  0.64762455  0.70758216  0.06729455  1
  B  B16  1  0.01563260  0.95202222  0.23368110  1
  O  O17  1  0.86731031  0.21899721  0.81142921  1
  O  O18  1  0.84956589  0.63892009  0.97702174  1
  O  O19  1  0.88560206  0.95208368  0.81992410  1
  O  O20  1  0.81536769  0.02085948  0.35190870  1
  O  O21  1  0.46213534  0.10774772  0.86054782  1
  O  O22  1  0.80303191  0.44541590  0.52493463  1
  O  O23  1  0.44113337  0.37859784  0.85763692  1
  O  O24  1  0.77654167  0.71677815  0.52167653  1
  O  O25  1  0.48915605  0.69402400  0.68640152  1
  O  O26  1  0.51681428  0.31588063  0.31414421  1
  O  O27  1  0.22908650  0.29605482  0.47943717  1
  O  O28  1  0.55993331  0.61512017  0.13398570  1
  O  O29  1  0.20323878  0.56712574  0.47770639  1
  O  O30  1  0.53268713  0.87566850  0.08239052  1
  O  O31  1  0.18252024  0.97395170  0.69814677  1
  O  O32  1  0.09104980  0.05478889  0.17329146  1
  O  O33  1  0.15264001  0.35714406  0.02494259  1
  O  O34  1  0.13780574  0.78129646  0.18509896  1
