# generated using pymatgen
data_Nb4N5
_symmetry_space_group_name_H-M   'P 1'
_cell_length_a   4.32242748
_cell_length_b   5.35971869
_cell_length_c   5.35971868
_cell_angle_alpha   80.64235581
_cell_angle_beta   66.21957479
_cell_angle_gamma   66.21957473
_symmetry_Int_Tables_number   1
_chemical_formula_structural   Nb4N5
_chemical_formula_sum   'Nb4 N5'
_cell_volume   103.97918961
_cell_formula_units_Z   1
loop_
 _symmetry_equiv_pos_site_id
 _symmetry_equiv_pos_as_xyz
  1  'x, y, z'
loop_
 _atom_site_type_symbol
 _atom_site_label
 _atom_site_symmetry_multiplicity
 _atom_site_fract_x
 _atom_site_fract_y
 _atom_site_fract_z
 _atom_site_occupancy
  N  N0  1  0.50000000  0.00000000  0.00000000  1
  N  N1  1  0.90771646  0.78617240  0.39839468  1
  N  N2  1  0.30611114  0.60160532  0.78617240  1
  N  N3  1  0.69388886  0.39839468  0.21382760  1
  N  N4  1  0.09228354  0.21382760  0.60160532  1
  Nb  Nb5  1  0.60490436  0.17939707  0.61079422  1
  Nb  Nb6  1  0.21569857  0.38920578  0.17939707  1
  Nb  Nb7  1  0.78430143  0.61079422  0.82060293  1
  Nb  Nb8  1  0.39509564  0.82060293  0.38920578  1
