# generated using pymatgen
data_Lu2P4O13
_symmetry_space_group_name_H-M   'P 1'
_cell_length_a   8.59448856
_cell_length_b   9.65963533
_cell_length_c   13.94710712
_cell_angle_alpha   90.00000000
_cell_angle_beta   104.83151279
_cell_angle_gamma   90.00000000
_symmetry_Int_Tables_number   1
_chemical_formula_structural   Lu2P4O13
_chemical_formula_sum   'Lu8 P16 O52'
_cell_volume   1119.30610716
_cell_formula_units_Z   4
loop_
 _symmetry_equiv_pos_site_id
 _symmetry_equiv_pos_as_xyz
  1  'x, y, z'
loop_
 _atom_site_type_symbol
 _atom_site_label
 _atom_site_symmetry_multiplicity
 _atom_site_fract_x
 _atom_site_fract_y
 _atom_site_fract_z
 _atom_site_occupancy
  Lu  Lu0  1  0.28506245  0.00071888  0.98815277  1
  Lu  Lu1  1  0.21161512  0.00323231  0.51200874  1
  Lu  Lu2  1  0.28506245  0.49928112  0.48815277  1
  Lu  Lu3  1  0.21161512  0.49676769  0.01200874  1
  Lu  Lu4  1  0.78838488  0.50323231  0.98799126  1
  Lu  Lu5  1  0.71493755  0.50071888  0.51184723  1
  Lu  Lu6  1  0.78838488  0.99676769  0.48799126  1
  Lu  Lu7  1  0.71493755  0.99928112  0.01184723  1
  P  P8  1  0.03104870  0.28159662  0.59494961  1
  P  P9  1  0.11628789  0.24516082  0.81507129  1
  P  P10  1  0.23774364  0.73065493  0.68267779  1
  P  P11  1  0.03104870  0.21840338  0.09494961  1
  P  P12  1  0.11628789  0.25483918  0.31507129  1
  P  P13  1  0.46008557  0.71820417  0.90151735  1
  P  P14  1  0.23774364  0.76934507  0.18267779  1
  P  P15  1  0.53991443  0.21820417  0.59848265  1
  P  P16  1  0.46008557  0.78179583  0.40151735  1
  P  P17  1  0.76225636  0.23065493  0.81732221  1
  P  P18  1  0.53991443  0.28179583  0.09848265  1
  P  P19  1  0.88371211  0.74516082  0.68492871  1
  P  P20  1  0.96895130  0.78159662  0.90505039  1
  P  P21  1  0.76225636  0.26934507  0.31732221  1
  P  P22  1  0.88371211  0.75483918  0.18492871  1
  P  P23  1  0.96895130  0.71840338  0.40505039  1
  O  O24  1  0.06769400  0.68942922  0.70525147  1
  O  O25  1  0.12671518  0.84928970  0.90200295  1
  O  O26  1  0.01076823  0.12904427  0.55822992  1
  O  O27  1  0.14073514  0.37600913  0.87504348  1
  O  O28  1  0.14014260  0.27769182  0.70800558  1
  O  O29  1  0.12702625  0.36367926  0.53753556  1
  O  O30  1  0.22857404  0.12710424  0.85533077  1
  O  O31  1  0.06769400  0.81057078  0.20525147  1
  O  O32  1  0.12671518  0.65071030  0.40200295  1
  O  O33  1  0.01076823  0.37095573  0.05822992  1
  O  O34  1  0.36002493  0.63167050  0.95406070  1
  O  O35  1  0.22854273  0.87478329  0.64153629  1
  O  O36  1  0.14073514  0.12399087  0.37504348  1
  O  O37  1  0.14014260  0.22230818  0.20800558  1
  O  O38  1  0.28382486  0.61806892  0.62053709  1
  O  O39  1  0.36346465  0.72871289  0.78688912  1
  O  O40  1  0.12702625  0.13632074  0.03753556  1
  O  O41  1  0.37957994  0.15129245  0.59636854  1
  O  O42  1  0.48264565  0.87073760  0.94129000  1
  O  O43  1  0.22857404  0.37289576  0.35533077  1
  O  O44  1  0.36002493  0.86832950  0.45406070  1
  O  O45  1  0.22854273  0.62521671  0.14153629  1
  O  O46  1  0.28382486  0.88193108  0.12053709  1
  O  O47  1  0.36346465  0.77128711  0.28688912  1
  O  O48  1  0.51735435  0.37073760  0.55871000  1
  O  O49  1  0.62042006  0.65129245  0.90363146  1
  O  O50  1  0.37957994  0.34870755  0.09636854  1
  O  O51  1  0.48264565  0.62926240  0.44129000  1
  O  O52  1  0.63653535  0.22871289  0.71311088  1
  O  O53  1  0.71617514  0.11806892  0.87946291  1
  O  O54  1  0.77145727  0.37478329  0.85846371  1
  O  O55  1  0.63997507  0.13167050  0.54593930  1
  O  O56  1  0.77142596  0.62710424  0.64466923  1
  O  O57  1  0.51735435  0.12926240  0.05871000  1
  O  O58  1  0.62042006  0.84870755  0.40363146  1
  O  O59  1  0.87297375  0.86367926  0.96246444  1
  O  O60  1  0.63653535  0.27128711  0.21311088  1
  O  O61  1  0.71617514  0.38193108  0.37946291  1
  O  O62  1  0.85985740  0.77769182  0.79199442  1
  O  O63  1  0.85926486  0.87600913  0.62495652  1
  O  O64  1  0.77145727  0.12521671  0.35846371  1
  O  O65  1  0.63997507  0.36832950  0.04593930  1
  O  O66  1  0.98923177  0.62904427  0.94177008  1
  O  O67  1  0.87328482  0.34928970  0.59799705  1
  O  O68  1  0.93230600  0.18942922  0.79474853  1
  O  O69  1  0.77142596  0.87289576  0.14466923  1
  O  O70  1  0.87297375  0.63632074  0.46246444  1
  O  O71  1  0.85985740  0.72230818  0.29199442  1
  O  O72  1  0.85926486  0.62399087  0.12495652  1
  O  O73  1  0.98923177  0.87095573  0.44177008  1
  O  O74  1  0.87328482  0.15071030  0.09799705  1
  O  O75  1  0.93230600  0.31057078  0.29474853  1
