# generated using pymatgen
data_Li7Mn8(BO3)8
_symmetry_space_group_name_H-M   'P 1'
_cell_length_a   5.22784407
_cell_length_b   9.11563239
_cell_length_c   11.53350335
_cell_angle_alpha   68.60300172
_cell_angle_beta   77.79748147
_cell_angle_gamma   89.28174962
_symmetry_Int_Tables_number   1
_chemical_formula_structural   Li7Mn8(BO3)8
_chemical_formula_sum   'Li7 Mn8 B8 O24'
_cell_volume   498.92397545
_cell_formula_units_Z   1
loop_
 _symmetry_equiv_pos_site_id
 _symmetry_equiv_pos_as_xyz
  1  'x, y, z'
loop_
 _atom_site_type_symbol
 _atom_site_label
 _atom_site_symmetry_multiplicity
 _atom_site_fract_x
 _atom_site_fract_y
 _atom_site_fract_z
 _atom_site_occupancy
  Li  Li0  1  0.97974812  0.00708744  0.83758017  1
  Li  Li1  1  0.79308945  0.78039391  0.58087812  1
  Li  Li2  1  0.47612986  0.50884131  0.83692818  1
  Li  Li3  1  0.52992927  0.53725634  0.09793602  1
  Li  Li4  1  0.29143213  0.29210039  0.57383710  1
  Li  Li5  1  0.27303402  0.24994088  0.33438346  1
  Li  Li6  1  0.04017332  0.04481930  0.07821626  1
  Mn  Mn7  1  0.96930207  0.65718903  0.87336562  1
  Mn  Mn8  1  0.76489697  0.43614783  0.61845347  1
  Mn  Mn9  1  0.74930170  0.04770345  0.36302104  1
  Mn  Mn10  1  0.47674492  0.15436245  0.86669313  1
  Mn  Mn11  1  0.54247684  0.86079601  0.12406725  1
  Mn  Mn12  1  0.27022770  0.94412543  0.61830138  1
  Mn  Mn13  1  0.21711351  0.59153060  0.36983643  1
  Mn  Mn14  1  0.02466762  0.35242004  0.11950099  1
  B  B15  1  0.96941214  0.31739121  0.87316208  1
  B  B16  1  0.76010367  0.10486628  0.62440870  1
  B  B17  1  0.74044026  0.38153449  0.37524039  1
  B  B18  1  0.46583738  0.81281272  0.87927950  1
  B  B19  1  0.52834280  0.18719485  0.12421863  1
  B  B20  1  0.26412355  0.61423323  0.62245431  1
  B  B21  1  0.23633859  0.88942610  0.37803824  1
  B  B22  1  0.03011194  0.69061148  0.12817458  1
  O  O23  1  0.97390276  0.85698544  0.39732622  1
  O  O24  1  0.73977665  0.35349331  0.82753882  1
  O  O25  1  0.89371913  0.27937540  0.32990946  1
  O  O26  1  0.59827363  0.92277328  0.90834510  1
  O  O27  1  0.86874466  0.47979976  0.41781209  1
  O  O28  1  0.55999128  0.66417241  0.90184913  1
  O  O29  1  0.93561325  0.83334794  0.11482932  1
  O  O30  1  0.67616299  0.99140080  0.58360665  1
  O  O31  1  0.91606487  0.58377788  0.08964766  1
  O  O32  1  0.58278877  0.20914757  0.65600681  1
  O  O33  1  0.77387053  0.15087645  0.15300401  1
  O  O34  1  0.51299337  0.60551897  0.64427031  1
  O  O35  1  0.47282020  0.38532791  0.38589797  1
  O  O36  1  0.23858198  0.85067003  0.83254111  1
  O  O37  1  0.41260796  0.79219751  0.33470240  1
  O  O38  1  0.09349523  0.42619743  0.90688562  1
  O  O39  1  0.33805014  0.01209315  0.40452238  1
  O  O40  1  0.07315340  0.17385067  0.88668063  1
  O  O41  1  0.41132744  0.31705272  0.14075563  1
  O  O42  1  0.17449418  0.51671365  0.56531341  1
  O  O43  1  0.40416770  0.08928152  0.08110839  1
  O  O44  1  0.09261923  0.71508540  0.65947624  1
  O  O45  1  0.26178928  0.65064450  0.17881990  1
  O  O46  1  0.01545156  0.11549053  0.63814469  1
