# generated using pymatgen
data_LiFe(SO4)2
_symmetry_space_group_name_H-M   'P 1'
_cell_length_a   9.24197344
_cell_length_b   9.07578001
_cell_length_c   13.77898502
_cell_angle_alpha   90.00000000
_cell_angle_beta   90.31853309
_cell_angle_gamma   90.00000000
_symmetry_Int_Tables_number   1
_chemical_formula_structural   LiFe(SO4)2
_chemical_formula_sum   'Li8 Fe8 S16 O64'
_cell_volume   1155.73746821
_cell_formula_units_Z   8
loop_
 _symmetry_equiv_pos_site_id
 _symmetry_equiv_pos_as_xyz
  1  'x, y, z'
loop_
 _atom_site_type_symbol
 _atom_site_label
 _atom_site_symmetry_multiplicity
 _atom_site_fract_x
 _atom_site_fract_y
 _atom_site_fract_z
 _atom_site_occupancy
  Li  Li0  1  0.05444247  0.20693297  0.37833702  1
  Li  Li1  1  0.05444247  0.29306703  0.87833702  1
  Li  Li2  1  0.44393544  0.71349701  0.37199435  1
  Li  Li3  1  0.44393544  0.78650299  0.87199435  1
  Li  Li4  1  0.76905687  0.44750204  0.12664116  1
  Li  Li5  1  0.76905687  0.05249796  0.62664116  1
  Li  Li6  1  0.95837528  0.77192986  0.62641441  1
  Li  Li7  1  0.95837528  0.72807014  0.12641441  1
  Fe  Fe8  1  0.14705508  0.10231238  0.12501799  1
  Fe  Fe9  1  0.14705508  0.39768762  0.62501799  1
  Fe  Fe10  1  0.35976703  0.60383219  0.12523972  1
  Fe  Fe11  1  0.35976703  0.89616781  0.62523972  1
  Fe  Fe12  1  0.63570002  0.10648659  0.37264835  1
  Fe  Fe13  1  0.63570002  0.39351341  0.87264835  1
  Fe  Fe14  1  0.86020929  0.60372893  0.37569978  1
  Fe  Fe15  1  0.86020929  0.89627107  0.87569978  1
  S  S16  1  0.07577525  0.06437367  0.72527282  1
  S  S17  1  0.07577525  0.43562633  0.22527282  1
  S  S18  1  0.16184428  0.68514826  0.48871987  1
  S  S19  1  0.16184428  0.81485174  0.98871987  1
  S  S20  1  0.34081923  0.18436806  0.49037241  1
  S  S21  1  0.34081923  0.31563194  0.99037241  1
  S  S22  1  0.42579489  0.93352845  0.22125576  1
  S  S23  1  0.42579489  0.56647155  0.72125576  1
  S  S24  1  0.57391588  0.43561463  0.27720619  1
  S  S25  1  0.57391588  0.06438537  0.77720619  1
  S  S26  1  0.66203135  0.68606122  0.01096498  1
  S  S27  1  0.66203135  0.81393878  0.51096498  1
  S  S28  1  0.84124871  0.18514432  0.00938473  1
  S  S29  1  0.84124871  0.31485568  0.50938473  1
  S  S30  1  0.92240723  0.56361274  0.77672545  1
  S  S31  1  0.92240723  0.93638726  0.27672545  1
  O  O32  1  0.00058204  0.70025436  0.47311614  1
  O  O33  1  0.00058204  0.79974564  0.97311614  1
  O  O34  1  0.01572593  0.99619575  0.35199068  1
  O  O35  1  0.01572593  0.50380425  0.85199068  1
  O  O36  1  0.01979734  0.47072088  0.32523181  1
  O  O37  1  0.01979734  0.02927912  0.82523181  1
  O  O38  1  0.07964622  0.22982902  0.72209760  1
  O  O39  1  0.07964622  0.27017098  0.22209760  1
  O  O40  1  0.18706906  0.72491692  0.07989476  1
  O  O41  1  0.18706906  0.77508308  0.57989476  1
  O  O42  1  0.19737172  0.97048905  0.01286417  1
  O  O43  1  0.19737172  0.52951095  0.51286417  1
  O  O44  1  0.22395206  0.00373213  0.71775337  1
  O  O45  1  0.22395206  0.49626787  0.21775337  1
  O  O46  1  0.24350865  0.73484857  0.40647777  1
  O  O47  1  0.24350865  0.76515143  0.90647777  1
  O  O48  1  0.25473005  0.22849773  0.40702874  1
  O  O49  1  0.25473005  0.27150227  0.90702874  1
  O  O50  1  0.27364893  0.99276340  0.21726378  1
  O  O51  1  0.27364893  0.50723660  0.71726378  1
  O  O52  1  0.30612823  0.02746855  0.51636592  1
  O  O53  1  0.30612823  0.47253145  0.01636592  1
  O  O54  1  0.30945034  0.22542634  0.07914641  1
  O  O55  1  0.30945034  0.27457366  0.57914641  1
  O  O56  1  0.41376031  0.76504404  0.22284971  1
  O  O57  1  0.41376031  0.73495596  0.72284971  1
  O  O58  1  0.48112906  0.53439762  0.82348854  1
  O  O59  1  0.48112906  0.96560238  0.32348854  1
  O  O60  1  0.48711014  0.50201926  0.35194051  1
  O  O61  1  0.48711014  0.99798074  0.85194051  1
  O  O62  1  0.49864428  0.19720710  0.47077254  1
  O  O63  1  0.49864428  0.30279290  0.97077254  1
  O  O64  1  0.50305012  0.70230552  0.02615164  1
  O  O65  1  0.50305012  0.79769448  0.52615164  1
  O  O66  1  0.51679192  0.51184648  0.64590047  1
  O  O67  1  0.51679192  0.98815352  0.14590047  1
  O  O68  1  0.52285662  0.47379930  0.17569211  1
  O  O69  1  0.52285662  0.02620070  0.67569211  1
  O  O70  1  0.57914810  0.27197182  0.28139370  1
  O  O71  1  0.57914810  0.22802818  0.78139370  1
  O  O72  1  0.69137755  0.72651274  0.42053724  1
  O  O73  1  0.69137755  0.77348726  0.92053724  1
  O  O74  1  0.69773698  0.52738676  0.98934152  1
  O  O75  1  0.69773698  0.97261324  0.48934152  1
  O  O76  1  0.72922053  0.49253838  0.27837220  1
  O  O77  1  0.72922053  0.00746262  0.77837220  1
  O  O78  1  0.74802036  0.72947766  0.09487229  1
  O  O79  1  0.74802036  0.77052234  0.59487229  1
  O  O80  1  0.76374638  0.23889576  0.09306105  1
  O  O81  1  0.76374638  0.26110424  0.59306105  1
  O  O82  1  0.77191389  0.50624119  0.78305152  1
  O  O83  1  0.77191389  0.99375881  0.28305152  1
  O  O84  1  0.80156301  0.47021274  0.48595367  1
  O  O85  1  0.80156301  0.02978726  0.98595367  1
  O  O86  1  0.81237106  0.22433631  0.41882369  1
  O  O87  1  0.81237106  0.27566369  0.91882369  1
  O  O88  1  0.91688597  0.73127577  0.77868347  1
  O  O89  1  0.91688597  0.76872423  0.27868347  1
  O  O90  1  0.97904527  0.53190416  0.67589969  1
  O  O91  1  0.97904527  0.96809584  0.17589969  1
  O  O92  1  0.97959233  0.00224025  0.65019546  1
  O  O93  1  0.97959233  0.49775975  0.15019546  1
  O  O94  1  0.00294727  0.19633011  0.02297385  1
  O  O95  1  0.00294727  0.30366989  0.52297385  1
