# generated using pymatgen
data_Li9Mn2Co5O16
_symmetry_space_group_name_H-M   'P 1'
_cell_length_a   2.90082696
_cell_length_b   9.82535303
_cell_length_c   10.40916706
_cell_angle_alpha   99.19926229
_cell_angle_beta   90.00000000
_cell_angle_gamma   90.00000000
_symmetry_Int_Tables_number   1
_chemical_formula_structural   Li9Mn2Co5O16
_chemical_formula_sum   'Li9 Mn2 Co5 O16'
_cell_volume   292.86264376
_cell_formula_units_Z   1
loop_
 _symmetry_equiv_pos_site_id
 _symmetry_equiv_pos_as_xyz
  1  'x, y, z'
loop_
 _atom_site_type_symbol
 _atom_site_label
 _atom_site_symmetry_multiplicity
 _atom_site_fract_x
 _atom_site_fract_y
 _atom_site_fract_z
 _atom_site_occupancy
  Li  Li0  1  0.50000000  0.99790855  0.26964907  1
  Li  Li1  1  0.50000000  0.99314372  0.72557623  1
  Li  Li2  1  -0.00000000  0.25153943  0.38062066  1
  Li  Li3  1  -0.00000000  0.25330237  0.86345310  1
  Li  Li4  1  0.50000000  0.50194828  0.50468198  1
  Li  Li5  1  0.50000000  0.50444594  0.99820014  1
  Li  Li6  1  -0.00000000  0.75020429  0.13399159  1
  Li  Li7  1  0.00000000  0.74646479  0.62364816  1
  Li  Li8  1  -0.00000000  -0.00010951  0.49924375  1
  Mn  Mn9  1  -0.00000000  0.99822645  0.00158596  1
  Mn  Mn10  1  0.50000000  0.25656824  0.13034717  1
  Co  Co11  1  0.50000000  0.23204376  0.60763509  1
  Co  Co12  1  -0.00000000  0.51712349  0.25806645  1
  Co  Co13  1  -0.00000000  0.49262194  0.74734158  1
  Co  Co14  1  0.50000000  0.76998701  0.39180926  1
  Co  Co15  1  0.50000000  0.74600328  0.86889122  1
  O  O16  1  0.50000000  0.88930814  0.05825581  1
  O  O17  1  0.50000000  0.86290533  0.55551306  1
  O  O18  1  -0.00000000  0.14487019  0.18471040  1
  O  O19  1  -0.00000000  0.13546600  0.68488117  1
  O  O20  1  0.50000000  0.37591172  0.29336814  1
  O  O21  1  0.50000000  0.38476900  0.81173167  1
  O  O22  1  -0.00000000  0.63613982  0.92351316  1
  O  O23  1  -0.00000000  0.62046505  0.42456143  1
  O  O24  1  0.50000000  0.13344541  0.44594588  1
  O  O25  1  0.50000000  0.12395773  0.95914983  1
  O  O26  1  0.00000000  0.36407288  0.57258758  1
  O  O27  1  -0.00000000  0.36246987  0.07064180  1
  O  O28  1  0.50000000  0.61013187  0.69040971  1
  O  O29  1  0.50000000  0.61661741  0.18417504  1
  O  O30  1  -0.00000000  0.86660290  0.31559058  1
  O  O31  1  -0.00000000  0.86144465  0.82022334  1
