# generated using pymatgen
data_LiVCoO4
_symmetry_space_group_name_H-M   'P 1'
_cell_length_a   6.07035091
_cell_length_b   10.56002989
_cell_length_c   4.94942775
_cell_angle_alpha   89.99938023
_cell_angle_beta   89.99934070
_cell_angle_gamma   90.00300825
_symmetry_Int_Tables_number   1
_chemical_formula_structural   LiVCoO4
_chemical_formula_sum   'Li4 V4 Co4 O16'
_cell_volume   317.27359768
_cell_formula_units_Z   4
loop_
 _symmetry_equiv_pos_site_id
 _symmetry_equiv_pos_as_xyz
  1  'x, y, z'
loop_
 _atom_site_type_symbol
 _atom_site_label
 _atom_site_symmetry_multiplicity
 _atom_site_fract_x
 _atom_site_fract_y
 _atom_site_fract_z
 _atom_site_occupancy
  Li  Li0  1  0.00004455  0.99978889  0.99998689  1
  Li  Li1  1  0.99990195  0.50019232  0.50000673  1
  Li  Li2  1  0.49995110  0.99980442  0.99999298  1
  Li  Li3  1  0.50009815  0.50020281  0.50000653  1
  V  V4  1  0.24998970  0.09427143  0.43117185  1
  V  V5  1  0.25000317  0.59432398  0.06890693  1
  V  V6  1  0.75001490  0.40572629  0.93123438  1
  V  V7  1  0.75001586  0.90566941  0.56885437  1
  Co  Co8  1  0.25003060  0.26975734  0.98876737  1
  Co  Co9  1  0.25004117  0.76964445  0.51095278  1
  Co  Co10  1  0.75000005  0.23025457  0.48870549  1
  Co  Co11  1  0.75002836  0.73033063  0.01103606  1
  O  O12  1  0.02265994  0.17043937  0.27787489  1
  O  O13  1  0.02260251  0.67037194  0.22220941  1
  O  O14  1  0.24998409  0.44296188  0.20474567  1
  O  O15  1  0.25003302  0.09423741  0.78206486  1
  O  O16  1  0.25002409  0.59428513  0.71788912  1
  O  O17  1  0.24997084  0.94289144  0.29521876  1
  O  O18  1  0.47734627  0.17034856  0.27784357  1
  O  O19  1  0.47735534  0.67030565  0.22228238  1
  O  O20  1  0.52253181  0.82958863  0.72222846  1
  O  O21  1  0.52266747  0.32968551  0.77790535  1
  O  O22  1  0.75001829  0.55719140  0.79517511  1
  O  O23  1  0.75001681  0.05697158  0.70476591  1
  O  O24  1  0.74998091  0.40581412  0.28206011  1
  O  O25  1  0.75000784  0.90569634  0.21794920  1
  O  O26  1  0.97727609  0.32963828  0.77785770  1
  O  O27  1  0.97740517  0.82960622  0.72230715  1
