# generated using pymatgen
data_V6O7F5
_symmetry_space_group_name_H-M   'P 1'
_cell_length_a   7.36335505
_cell_length_b   5.61223673
_cell_length_c   5.61919221
_cell_angle_alpha   71.72972843
_cell_angle_beta   72.36632612
_cell_angle_gamma   72.78913717
_symmetry_Int_Tables_number   1
_chemical_formula_structural   V6O7F5
_chemical_formula_sum   'V6 O7 F5'
_cell_volume   204.90055688
_cell_formula_units_Z   1
loop_
 _symmetry_equiv_pos_site_id
 _symmetry_equiv_pos_as_xyz
  1  'x, y, z'
loop_
 _atom_site_type_symbol
 _atom_site_label
 _atom_site_symmetry_multiplicity
 _atom_site_fract_x
 _atom_site_fract_y
 _atom_site_fract_z
 _atom_site_occupancy
  V  V0  1  0.84481954  0.67385225  0.70672574  1
  V  V1  1  0.66918333  0.32339626  0.34575018  1
  V  V2  1  0.32501946  0.66893281  0.62744741  1
  V  V3  1  0.16290533  0.31897929  0.34444896  1
  V  V4  1  0.50310266  0.98130706  -0.00011068  1
  V  V5  1  0.99840444  0.02979322  0.98856609  1
  O  O6  1  0.66840785  0.01872780  0.65164109  1
  O  O7  1  0.96229223  0.23176237  0.23261344  1
  O  O8  1  0.03074617  0.77586824  0.77225736  1
  O  O9  1  0.37105223  0.43112719  0.42509655  1
  O  O10  1  0.98952531  0.31975681  0.69806134  1
  O  O11  1  0.67551301  0.62366902  0.03171830  1
  O  O12  1  0.33612253  0.97059208  0.34989663  1
  F  F13  1  0.33557626  0.36722442  0.95612724  1
  F  F14  1  0.63408932  0.57215692  0.56992998  1
  F  F15  1  0.30090222  0.89225832  0.89030005  1
  F  F16  1  0.69853293  0.09442652  0.10414248  1
  F  F17  1  0.99380517  0.70616842  0.30538886  1
