# generated using pymatgen
data_Al11AgO17
_symmetry_space_group_name_H-M   'P 1'
_cell_length_a   5.65715980
_cell_length_b   5.65471261
_cell_length_c   22.75298561
_cell_angle_alpha   90.00043087
_cell_angle_beta   89.99984515
_cell_angle_gamma   120.01437735
_symmetry_Int_Tables_number   1
_chemical_formula_structural   Al11AgO17
_chemical_formula_sum   'Al22 Ag2 O34'
_cell_volume   630.25321728
_cell_formula_units_Z   2
loop_
 _symmetry_equiv_pos_site_id
 _symmetry_equiv_pos_as_xyz
  1  'x, y, z'
loop_
 _atom_site_type_symbol
 _atom_site_label
 _atom_site_symmetry_multiplicity
 _atom_site_fract_x
 _atom_site_fract_y
 _atom_site_fract_z
 _atom_site_occupancy
  Al  Al0  1  0.16698738  0.83231163  0.60752710  1
  Al  Al1  1  0.16698805  0.83231324  0.89247263  1
  Al  Al2  1  0.33414610  0.66578581  0.17580741  1
  Al  Al3  1  0.33345574  0.66674055  0.02487068  1
  Al  Al4  1  0.00032613  0.00000347  -0.00000051  1
  Al  Al5  1  0.00032332  0.99999775  0.50000029  1
  Al  Al6  1  0.16694385  0.33471383  0.60752288  1
  Al  Al7  1  0.33414441  0.66576422  0.32419311  1
  Al  Al8  1  0.16694403  0.33471411  0.89247664  1
  Al  Al9  1  0.33345230  0.66672705  0.47512878  1
  Al  Al10  1  0.66586680  0.83299660  0.60688218  1
  Al  Al11  1  0.66586672  0.83299715  0.89311760  1
  Al  Al12  1  0.33467557  0.16768139  0.39247315  1
  Al  Al13  1  0.33468044  0.16770049  0.10752696  1
  Al  Al14  1  0.83222046  0.66528166  0.39247682  1
  Al  Al15  1  0.66838899  0.33424337  0.82419276  1
  Al  Al16  1  0.83222158  0.66529045  0.10752347  1
  Al  Al17  1  0.66838867  0.33424412  0.67580709  1
  Al  Al18  1  0.66672437  0.33327142  0.97512830  1
  Al  Al19  1  0.66672333  0.33326981  0.52487165  1
  Al  Al20  1  0.83287962  0.16701574  0.10688199  1
  Al  Al21  1  0.83287662  0.16700717  0.39311825  1
  Ag  Ag22  1  0.40956465  0.70478422  0.74999989  1
  Ag  Ag23  1  0.70477554  0.29520477  0.25000021  1
  O  O24  1  0.15739731  0.84271280  0.05009963  1
  O  O25  1  0.15740020  0.84270881  0.44990023  1
  O  O26  1  0.00577917  0.50288937  0.64569886  1
  O  O27  1  0.00578007  0.50288707  0.85430097  1
  O  O28  1  0.33127564  0.66869573  0.24999985  1
  O  O29  1  0.15693321  0.31437483  0.45011933  1
  O  O30  1  0.49728305  0.99304758  0.64639585  1
  O  O31  1  0.49728347  0.99304872  0.85360408  1
  O  O32  1  0.99984637  0.00022402  0.14184624  1
  O  O33  1  0.99984288  0.00021084  0.35815302  1
  O  O34  1  0.99962605  0.99978420  0.64184686  1
  O  O35  1  0.99962716  0.99978302  0.85815316  1
  O  O36  1  0.33371944  0.66685596  0.55550731  1
  O  O37  1  0.33372058  0.66686265  0.94449316  1
  O  O38  1  0.15694778  0.31438821  0.04987956  1
  O  O39  1  0.31468779  0.15730457  0.55009865  1
  O  O40  1  0.31469074  0.15730377  0.94990097  1
  O  O41  1  0.49728836  0.50423559  0.85360991  1
  O  O42  1  0.49728844  0.50423477  0.64639028  1
  O  O43  1  0.50288087  0.49710476  0.35429882  1
  O  O44  1  0.50288218  0.49712467  0.14570053  1
  O  O45  1  0.68568415  0.84312773  0.04992205  1
  O  O46  1  0.68568058  0.84312731  0.45007845  1
  O  O47  1  0.66686208  0.33314440  0.44449247  1
  O  O48  1  0.66268290  0.33141234  0.75000005  1
  O  O49  1  0.50424056  0.00695162  0.35360639  1
  O  O50  1  0.50424590  0.00697349  0.14639420  1
  O  O51  1  0.84256768  0.68562164  0.95012113  1
  O  O52  1  0.84256873  0.68562208  0.54987999  1
  O  O53  1  0.66686796  0.33313361  0.05550875  1
  O  O54  1  0.99305375  0.49577814  0.14638998  1
  O  O55  1  0.99305208  0.49576526  0.35360955  1
  O  O56  1  0.84253712  0.15685595  0.95007983  1
  O  O57  1  0.84253612  0.15685447  0.54992052  1
