# generated using pymatgen
data_V3(O2F)2
_symmetry_space_group_name_H-M   'P 1'
_cell_length_a   7.54967431
_cell_length_b   5.60694478
_cell_length_c   5.60694478
_cell_angle_alpha   69.76866812
_cell_angle_beta   70.01634497
_cell_angle_gamma   70.01634497
_symmetry_Int_Tables_number   1
_chemical_formula_structural   V3(O2F)2
_chemical_formula_sum   'V6 O8 F4'
_cell_volume   202.45480851
_cell_formula_units_Z   2
loop_
 _symmetry_equiv_pos_site_id
 _symmetry_equiv_pos_as_xyz
  1  'x, y, z'
loop_
 _atom_site_type_symbol
 _atom_site_label
 _atom_site_symmetry_multiplicity
 _atom_site_fract_x
 _atom_site_fract_y
 _atom_site_fract_z
 _atom_site_occupancy
  V  V0  1  0.85555835  0.67890020  0.67890020  1
  V  V1  1  0.66315341  0.33367932  0.33367932  1
  V  V2  1  0.32289596  0.66206335  0.66206335  1
  V  V3  1  0.19206597  0.34473411  0.34473411  1
  V  V4  1  0.49605356  0.99800448  0.99800448  1
  V  V5  1  0.99626615  0.99504395  0.99504395  1
  O  O6  1  0.66834951  0.02571304  0.63308372  1
  O  O7  1  0.32862451  0.36501475  0.97383177  1
  O  O8  1  0.02879868  0.76781481  0.76781481  1
  O  O9  1  0.36693010  0.43133366  0.43133366  1
  O  O10  1  0.99882429  0.30653782  0.69273115  1
  O  O11  1  0.66834951  0.63308372  0.02571304  1
  O  O12  1  0.32862451  0.97383177  0.36501475  1
  O  O13  1  0.99882429  0.69273115  0.30653782  1
  F  F14  1  0.96361858  0.22927886  0.22927886  1
  F  F15  1  0.62866552  0.56647534  0.56647534  1
  F  F16  1  0.29456855  0.89637023  0.89637023  1
  F  F17  1  0.69982853  0.09939145  0.09939145  1
