# generated using pymatgen
data_Li7Mn8(BO3)8
_symmetry_space_group_name_H-M   'P 1'
_cell_length_a   5.28573154
_cell_length_b   9.10311573
_cell_length_c   11.65780193
_cell_angle_alpha   66.81668836
_cell_angle_beta   78.73138376
_cell_angle_gamma   90.47015152
_symmetry_Int_Tables_number   1
_chemical_formula_structural   Li7Mn8(BO3)8
_chemical_formula_sum   'Li7 Mn8 B8 O24'
_cell_volume   503.43832393
_cell_formula_units_Z   1
loop_
 _symmetry_equiv_pos_site_id
 _symmetry_equiv_pos_as_xyz
  1  'x, y, z'
loop_
 _atom_site_type_symbol
 _atom_site_label
 _atom_site_symmetry_multiplicity
 _atom_site_fract_x
 _atom_site_fract_y
 _atom_site_fract_z
 _atom_site_occupancy
  Li  Li0  1  0.13130906  0.28795364  0.41477468  1
  Li  Li1  1  0.32817410  0.15089265  0.66530545  1
  Li  Li2  1  0.57288127  0.43612904  0.16299568  1
  Li  Li3  1  0.07441266  0.93098188  0.16730005  1
  Li  Li4  1  0.39092267  0.53914024  0.91505557  1
  Li  Li5  1  0.63811317  0.79196352  0.40693552  1
  Li  Li6  1  0.82927773  0.64847131  0.67366719  1
  Mn  Mn7  1  0.08786609  0.27345066  0.12812881  1
  Mn  Mn8  1  0.64525622  0.14550700  0.38026178  1
  Mn  Mn9  1  0.38514968  0.21246654  0.88488914  1
  Mn  Mn10  1  0.14661747  0.64090239  0.38305016  1
  Mn  Mn11  1  0.84564040  0.34320824  0.63906175  1
  Mn  Mn12  1  0.59731278  0.78543173  0.12775912  1
  Mn  Mn13  1  0.34690164  0.83812029  0.62666552  1
  Mn  Mn14  1  0.90873765  0.74577948  0.88003651  1
  B  B15  1  0.59388167  0.11021131  0.13129444  1
  B  B16  1  0.85312536  0.01664382  0.62984689  1
  B  B17  1  0.11462503  0.61829064  0.11785058  1
  B  B18  1  0.64793444  0.48279398  0.37333831  1
  B  B19  1  0.36065416  0.51426487  0.62279910  1
  B  B20  1  0.89443147  0.39986760  0.87555435  1
  B  B21  1  0.14328972  0.98260252  0.37471490  1
  B  B22  1  0.39328505  0.87980463  0.87056301  1
  O  O23  1  0.35407197  0.11435632  0.09521820  1
  O  O24  1  0.05374999  0.13524099  0.34206259  1
  O  O25  1  0.01350600  0.14839899  0.60727451  1
  O  O26  1  0.67782782  0.23181406  0.16478729  1
  O  O27  1  0.61511059  0.03206799  0.59438290  1
  O  O28  1  0.25558701  0.49583007  0.10914980  1
  O  O29  1  0.27924224  0.01694489  0.84956995  1
  O  O30  1  0.50638725  0.36629340  0.35717724  1
  O  O31  1  0.19088636  0.72369190  0.16669813  1
  O  O32  1  0.43626758  0.35950856  0.66122672  1
  O  O33  1  0.87936663  0.64123749  0.07256723  1
  O  O34  1  0.11504831  0.54533615  0.59363666  1
  O  O35  1  0.87697311  0.45044863  0.41695435  1
  O  O36  1  0.12846484  0.37701211  0.91719372  1
  O  O37  1  0.56052263  0.63654821  0.33900734  1
  O  O38  1  0.78580179  0.28970458  0.83979177  1
  O  O39  1  0.00745150  0.86223611  0.36201127  1
  O  O40  1  0.52550454  0.64315459  0.60843695  1
  O  O41  1  0.74174623  0.98613106  0.13735929  1
  O  O42  1  0.77195765  0.53845988  0.86534942  1
  O  O43  1  0.37192976  0.95221756  0.42074270  1
  O  O44  1  0.29288762  0.75772848  0.83934933  1
  O  O45  1  0.93383021  0.85922357  0.68687637  1
  O  O46  1  0.60848686  0.84760044  0.92535574  1
