# generated using pymatgen
data_Li9Mn2Co5O16
_symmetry_space_group_name_H-M   'P 1'
_cell_length_a   2.90534835
_cell_length_b   8.44261756
_cell_length_c   11.85497402
_cell_angle_alpha   89.79125414
_cell_angle_beta   90.00000000
_cell_angle_gamma   90.00000000
_symmetry_Int_Tables_number   1
_chemical_formula_structural   Li9Mn2Co5O16
_chemical_formula_sum   'Li9 Mn2 Co5 O16'
_cell_volume   290.78570487
_cell_formula_units_Z   1
loop_
 _symmetry_equiv_pos_site_id
 _symmetry_equiv_pos_as_xyz
  1  'x, y, z'
loop_
 _atom_site_type_symbol
 _atom_site_label
 _atom_site_symmetry_multiplicity
 _atom_site_fract_x
 _atom_site_fract_y
 _atom_site_fract_z
 _atom_site_occupancy
  Li  Li0  1  0.50000000  0.25427069  0.13285775  1
  Li  Li1  1  0.50000000  0.74676985  0.37910091  1
  Li  Li2  1  0.50000000  0.25152547  0.61747189  1
  Li  Li3  1  -0.00000000  0.50021652  0.00166591  1
  Li  Li4  1  -0.00000000  0.00160348  0.25586313  1
  Li  Li5  1  -0.00000000  0.50894052  0.50226550  1
  Li  Li6  1  0.50000000  0.74509716  0.87352501  1
  Li  Li7  1  -0.00000000  0.98694897  0.74018455  1
  Li  Li8  1  0.50000000  0.75129775  0.62217305  1
  Mn  Mn9  1  -0.00000000  -0.00022506  0.00248997  1
  Mn  Mn10  1  0.50000000  0.25601049  0.87117771  1
  Co  Co11  1  -0.00000000  0.49635992  0.25232671  1
  Co  Co12  1  -0.00000000  0.97740847  0.50258076  1
  Co  Co13  1  -0.00000000  0.52854448  0.74226497  1
  Co  Co14  1  0.50000000  0.73993870  0.12541433  1
  Co  Co15  1  0.50000000  0.24853638  0.38072533  1
  O  O16  1  0.50000000  -0.00023512  0.11458920  1
  O  O17  1  0.50000000  0.49537852  0.36498395  1
  O  O18  1  0.50000000  0.00299398  0.61229472  1
  O  O19  1  -0.00000000  0.25868739  0.98268829  1
  O  O20  1  -0.00000000  0.74418193  0.23944476  1
  O  O21  1  0.00000000  0.25122527  0.49353558  1
  O  O22  1  0.50000000  0.48023150  0.86301517  1
  O  O23  1  -0.00000000  0.73929904  0.75608017  1
  O  O24  1  0.50000000  0.49979158  0.13334806  1
  O  O25  1  0.50000000  0.00973389  0.38572816  1
  O  O26  1  0.50000000  0.49910729  0.63560887  1
  O  O27  1  -0.00000000  0.74560868  0.00880558  1
  O  O28  1  -0.00000000  0.25371676  0.25754307  1
  O  O29  1  -0.00000000  0.76452192  0.49748706  1
  O  O30  1  0.50000000  0.01809325  0.88825848  1
  O  O31  1  -0.00000000  0.24442033  0.76450141  1
