# generated using pymatgen
data_LiTlO2
_symmetry_space_group_name_H-M   'P 1'
_cell_length_a   4.63586803
_cell_length_b   4.63586803
_cell_length_c   5.69121006
_cell_angle_alpha   114.03428101
_cell_angle_beta   114.03428107
_cell_angle_gamma   90.00000003
_symmetry_Int_Tables_number   1
_chemical_formula_structural   LiTlO2
_chemical_formula_sum   'Li2 Tl2 O4'
_cell_volume   99.98463291
_cell_formula_units_Z   2
loop_
 _symmetry_equiv_pos_site_id
 _symmetry_equiv_pos_as_xyz
  1  'x, y, z'
loop_
 _atom_site_type_symbol
 _atom_site_label
 _atom_site_symmetry_multiplicity
 _atom_site_fract_x
 _atom_site_fract_y
 _atom_site_fract_z
 _atom_site_occupancy
  Li  Li0  1  0.87500000  0.12500000  0.75000000  1
  Li  Li1  1  0.12500000  0.87500000  0.25000000  1
  O  O2  1  0.61843725  0.86843725  0.23687451  1
  O  O3  1  0.13156275  0.38156275  0.26312549  1
  O  O4  1  0.86843725  0.61843725  0.73687451  1
  O  O5  1  0.38156275  0.13156275  0.76312549  1
  Tl  Tl6  1  0.37500000  0.62500000  0.75000000  1
  Tl  Tl7  1  0.62500000  0.37500000  0.25000000  1
