# generated using pymatgen
data_VF4
_symmetry_space_group_name_H-M   'P 1'
_cell_length_a   7.54859467
_cell_length_b   5.08069540
_cell_length_c   7.53105687
_cell_angle_alpha   90.00000000
_cell_angle_beta   103.53885380
_cell_angle_gamma   90.00000000
_symmetry_Int_Tables_number   1
_chemical_formula_structural   VF4
_chemical_formula_sum   'V4 F16'
_cell_volume   280.80568601
_cell_formula_units_Z   4
loop_
 _symmetry_equiv_pos_site_id
 _symmetry_equiv_pos_as_xyz
  1  'x, y, z'
loop_
 _atom_site_type_symbol
 _atom_site_label
 _atom_site_symmetry_multiplicity
 _atom_site_fract_x
 _atom_site_fract_y
 _atom_site_fract_z
 _atom_site_occupancy
  V  V0  1  0.19899387  0.25388035  0.81017790  1
  V  V1  1  0.19899387  0.24611965  0.31017790  1
  V  V2  1  0.80100613  0.75388035  0.68982210  1
  V  V3  1  0.80100613  0.74611965  0.18982210  1
  F  F4  1  0.03465259  0.94803232  0.71624693  1
  F  F5  1  0.03465259  0.55196768  0.21624693  1
  F  F6  1  0.18446521  0.35757470  0.55508887  1
  F  F7  1  0.30484741  0.55137142  0.89853906  1
  F  F8  1  0.18446521  0.14242530  0.05508887  1
  F  F9  1  0.30484741  0.94862858  0.39853906  1
  F  F10  1  0.38581243  0.04945379  0.80790956  1
  F  F11  1  0.38581243  0.45054621  0.30790956  1
  F  F12  1  0.61418757  0.54945379  0.69209044  1
  F  F13  1  0.61418757  0.95054621  0.19209044  1
  F  F14  1  0.69515259  0.05137142  0.60146094  1
  F  F15  1  0.81553479  0.85757470  0.94491113  1
  F  F16  1  0.69515259  0.44862858  0.10146094  1
  F  F17  1  0.81553479  0.64242530  0.44491113  1
  F  F18  1  0.96534741  0.44803232  0.78375307  1
  F  F19  1  0.96534741  0.05196768  0.28375307  1
