# generated using pymatgen
data_V6O5F19
_symmetry_space_group_name_H-M   'P 1'
_cell_length_a   5.61174548
_cell_length_b   5.37689433
_cell_length_c   14.80702398
_cell_angle_alpha   89.63201717
_cell_angle_beta   100.36633385
_cell_angle_gamma   93.10652259
_symmetry_Int_Tables_number   1
_chemical_formula_structural   V6O5F19
_chemical_formula_sum   'V6 O5 F19'
_cell_volume   438.84259136
_cell_formula_units_Z   1
loop_
 _symmetry_equiv_pos_site_id
 _symmetry_equiv_pos_as_xyz
  1  'x, y, z'
loop_
 _atom_site_type_symbol
 _atom_site_label
 _atom_site_symmetry_multiplicity
 _atom_site_fract_x
 _atom_site_fract_y
 _atom_site_fract_z
 _atom_site_occupancy
  V  V0  1  0.04450787  0.96530296  0.00375704  1
  V  V1  1  0.18122873  0.48790466  0.33174370  1
  V  V2  1  0.26593703  0.03119365  0.66318476  1
  V  V3  1  0.53339396  0.45703495  0.99627790  1
  V  V4  1  0.72263270  0.96128667  0.33738640  1
  V  V5  1  0.77563751  0.48375452  0.66524270  1
  O  O6  1  0.03028099  0.20551090  0.64150300  1
  O  O7  1  0.53060976  0.29354027  0.64355386  1
  O  O8  1  0.69651663  0.22979582  0.97890482  1
  O  O9  1  0.27577420  0.79401637  0.02147691  1
  O  O10  1  0.96053933  0.79203264  0.35746680  1
  F  F11  1  0.21484522  0.27487065  0.97367692  1
  F  F12  1  0.13715614  0.72826651  0.69145612  1
  F  F13  1  0.03888735  0.09579928  0.11300584  1
  F  F14  1  0.19943209  0.43701357  0.45087598  1
  F  F15  1  0.39522583  0.08819602  0.77966694  1
  F  F16  1  0.11025180  0.60275370  0.21842993  1
  F  F17  1  0.31128247  0.92567126  0.55466897  1
  F  F18  1  0.45398801  0.59398758  0.88657608  1
  F  F19  1  0.34496034  0.21943407  0.30767497  1
  F  F20  1  0.48279497  0.70353088  0.35681649  1
  F  F21  1  0.65044115  0.76596837  0.69298632  1
  F  F22  1  0.52325120  0.43975472  0.11505016  1
  F  F23  1  0.69587730  0.08741587  0.44466097  1
  F  F24  1  0.90457917  0.41120754  0.77947789  1
  F  F25  1  0.60745706  0.92967265  0.21923484  1
  F  F26  1  0.81580774  0.57493117  0.55371105  1
  F  F27  1  0.92796027  0.93025176  0.88505288  1
  F  F28  1  0.87378085  0.27470923  0.30990157  1
  F  F29  1  0.79496132  0.71518976  0.02657919  1
