# generated using pymatgen
data_Na3MnO3
_symmetry_space_group_name_H-M   'P 1'
_cell_length_a   9.67582469
_cell_length_b   9.67648617
_cell_length_c   4.37908043
_cell_angle_alpha   90.00000000
_cell_angle_beta   90.00000000
_cell_angle_gamma   90.00051758
_symmetry_Int_Tables_number   1
_chemical_formula_structural   Na3MnO3
_chemical_formula_sum   'Na12 Mn4 O12'
_cell_volume   410.00447153
_cell_formula_units_Z   4
loop_
 _symmetry_equiv_pos_site_id
 _symmetry_equiv_pos_as_xyz
  1  'x, y, z'
loop_
 _atom_site_type_symbol
 _atom_site_label
 _atom_site_symmetry_multiplicity
 _atom_site_fract_x
 _atom_site_fract_y
 _atom_site_fract_z
 _atom_site_occupancy
  Na  Na0  1  0.11954560  0.63362052  0.00000000  1
  Na  Na1  1  0.13359318  0.38048712  0.50000000  1
  Na  Na2  1  0.15840696  0.84164138  0.50000000  1
  Na  Na3  1  0.34160040  0.34163053  0.00000000  1
  Na  Na4  1  0.36643088  0.88048729  0.00000000  1
  Na  Na5  1  0.38045694  0.13359893  0.50000000  1
  Na  Na6  1  0.61954933  0.86637929  0.50000000  1
  Na  Na7  1  0.63357722  0.11951889  0.00000000  1
  Na  Na8  1  0.65840504  0.65835471  0.00000000  1
  Na  Na9  1  0.84158555  0.15836525  0.50000000  1
  Na  Na10  1  0.86641643  0.61950954  0.50000000  1
  Na  Na11  1  0.88046137  0.36637682  0.00000000  1
  Mn  Mn12  1  0.11004929  0.11006745  0.00000000  1
  Mn  Mn13  1  0.38995628  0.61007353  0.50000000  1
  Mn  Mn14  1  0.61003371  0.38994290  0.50000000  1
  Mn  Mn15  1  0.88996266  0.88993245  0.00000000  1
  O  O16  1  0.09482495  0.90520459  0.00000000  1
  O  O17  1  0.10482156  0.30496951  0.00000000  1
  O  O18  1  0.19503793  0.60486102  0.50000000  1
  O  O19  1  0.30496724  0.10484835  0.00000000  1
  O  O20  1  0.39518815  0.80497890  0.50000000  1
  O  O21  1  0.40517460  0.40521394  0.50000000  1
  O  O22  1  0.59481816  0.59480730  0.50000000  1
  O  O23  1  0.60480453  0.19504052  0.50000000  1
  O  O24  1  0.69504422  0.89515005  0.00000000  1
  O  O25  1  0.80495178  0.39515107  0.50000000  1
  O  O26  1  0.89518874  0.69503267  0.00000000  1
  O  O27  1  0.90518631  0.09479948  0.00000000  1
