# generated using pymatgen
data_V6O11F
_symmetry_space_group_name_H-M   'P 1'
_cell_length_a   7.23141331
_cell_length_b   5.47920469
_cell_length_c   5.47920469
_cell_angle_alpha   71.54262661
_cell_angle_beta   71.74157306
_cell_angle_gamma   71.74157306
_symmetry_Int_Tables_number   1
_chemical_formula_structural   V6O11F
_chemical_formula_sum   'V6 O11 F1'
_cell_volume   189.95883213
_cell_formula_units_Z   1
loop_
 _symmetry_equiv_pos_site_id
 _symmetry_equiv_pos_as_xyz
  1  'x, y, z'
loop_
 _atom_site_type_symbol
 _atom_site_label
 _atom_site_symmetry_multiplicity
 _atom_site_fract_x
 _atom_site_fract_y
 _atom_site_fract_z
 _atom_site_occupancy
  V  V0  1  0.83048424  0.67326874  0.67326874  1
  V  V1  1  0.66831051  0.33937621  0.33937621  1
  V  V2  1  0.33025691  0.65115163  0.65115163  1
  V  V3  1  0.15818812  0.33077093  0.33077093  1
  V  V4  1  0.51073566  0.00449402  0.00449402  1
  V  V5  1  0.98555473  0.00166562  0.00166562  1
  O  O6  1  0.67411387  0.02494677  0.62713824  1
  O  O7  1  0.32827416  0.37630189  0.96583449  1
  O  O8  1  0.96807260  0.23726475  0.23726475  1
  O  O9  1  0.63497212  0.55906314  0.55906314  1
  O  O10  1  0.70316783  0.10699505  0.10699505  1
  O  O11  1  0.03336929  0.76913441  0.76913441  1
  O  O12  1  0.36838409  0.42746193  0.42746193  1
  O  O13  1  0.00176449  0.29976930  0.70644230  1
  O  O14  1  0.67411387  0.62713824  0.02494677  1
  O  O15  1  0.32827416  0.96583449  0.37630189  1
  O  O16  1  0.00176449  0.70644230  0.29976930  1
  F  F17  1  0.30020086  0.89891959  0.89891959  1
