# generated using pymatgen
data_V6O5F19
_symmetry_space_group_name_H-M   'P 1'
_cell_length_a   5.46272552
_cell_length_b   5.32094978
_cell_length_c   14.73463898
_cell_angle_alpha   89.84436839
_cell_angle_beta   100.49378498
_cell_angle_gamma   90.57693136
_symmetry_Int_Tables_number   1
_chemical_formula_structural   V6O5F19
_chemical_formula_sum   'V6 O5 F19'
_cell_volume   421.10529122
_cell_formula_units_Z   1
loop_
 _symmetry_equiv_pos_site_id
 _symmetry_equiv_pos_as_xyz
  1  'x, y, z'
loop_
 _atom_site_type_symbol
 _atom_site_label
 _atom_site_symmetry_multiplicity
 _atom_site_fract_x
 _atom_site_fract_y
 _atom_site_fract_z
 _atom_site_occupancy
  V  V0  1  0.01795877  0.05274930  0.99466566  1
  V  V1  1  0.19334528  0.45490766  0.32947591  1
  V  V2  1  0.27642804  0.02286713  0.66363484  1
  V  V3  1  0.47993940  0.55427649  0.00551577  1
  V  V4  1  0.67701110  0.98640729  0.33489284  1
  V  V5  1  0.77846494  0.48081228  0.66423055  1
  O  O6  1  0.03148357  0.20731932  0.64214861  1
  O  O7  1  0.20877946  0.28414882  0.97798595  1
  O  O8  1  0.36218251  0.21473497  0.30996316  1
  O  O9  1  0.53181837  0.29327435  0.64317780  1
  O  O10  1  0.29225253  0.78384759  0.02200204  1
  F  F11  1  0.14303569  0.72243408  0.69107070  1
  F  F12  1  0.04152129  0.06165720  0.11596347  1
  F  F13  1  0.19728630  0.42930295  0.44918209  1
  F  F14  1  0.39792904  0.07967699  0.78162767  1
  F  F15  1  0.11783524  0.59858765  0.21990203  1
  F  F16  1  0.31064914  0.91776005  0.55269569  1
  F  F17  1  0.46056827  0.55929667  0.88444062  1
  F  F18  1  0.71578149  0.20387580  0.97577299  1
  F  F19  1  0.47228214  0.69230402  0.35936773  1
  F  F20  1  0.64533115  0.77593896  0.69194972  1
  F  F21  1  0.54992627  0.40345842  0.11479588  1
  F  F22  1  0.70097422  0.09213924  0.45009733  1
  F  F23  1  0.90227265  0.41728400  0.78157212  1
  F  F24  1  0.61001657  0.91822573  0.21571954  1
  F  F25  1  0.80870098  0.58487613  0.55249117  1
  F  F26  1  0.95006719  0.90340312  0.88529245  1
  F  F27  1  0.86995033  0.29441975  0.30793629  1
  F  F28  1  0.78657819  0.70560810  0.02459696  1
  F  F29  1  0.96963189  0.80440292  0.35782941  1
