# generated using pymatgen
data_Mn6OF11
_symmetry_space_group_name_H-M   'P 1'
_cell_length_a   10.97221641
_cell_length_b   7.06944958
_cell_length_c   3.29100637
_cell_angle_alpha   90.00000000
_cell_angle_beta   90.00000000
_cell_angle_gamma   108.81598976
_symmetry_Int_Tables_number   1
_chemical_formula_structural   Mn6OF11
_chemical_formula_sum   'Mn6 O1 F11'
_cell_volume   241.63314702
_cell_formula_units_Z   1
loop_
 _symmetry_equiv_pos_site_id
 _symmetry_equiv_pos_as_xyz
  1  'x, y, z'
loop_
 _atom_site_type_symbol
 _atom_site_label
 _atom_site_symmetry_multiplicity
 _atom_site_fract_x
 _atom_site_fract_y
 _atom_site_fract_z
 _atom_site_occupancy
  Mn  Mn0  1  0.00216463  0.00122808  0.00000000  1
  Mn  Mn1  1  0.34217717  0.17104402  0.50000000  1
  Mn  Mn2  1  0.98714839  0.49367837  0.50000000  1
  Mn  Mn3  1  0.68651176  0.34312811  0.00000000  1
  Mn  Mn4  1  0.32495994  0.66240129  0.00000000  1
  Mn  Mn5  1  0.66380677  0.83171785  0.50000000  1
  O  O6  1  0.80118864  0.40061759  0.50000000  1
  F  F7  1  0.13463384  0.06767385  0.50000000  1
  F  F8  1  0.00036762  0.30612858  0.00000000  1
  F  F9  1  0.33410688  0.36298582  0.00000000  1
  F  F10  1  0.00033419  0.69451720  0.00000000  1
  F  F11  1  0.66233817  0.02497353  0.00000000  1
  F  F12  1  0.54900520  0.27446117  0.50000000  1
  F  F13  1  0.18836322  0.59412590  0.50000000  1
  F  F14  1  0.45555661  0.72779738  0.50000000  1
  F  F15  1  0.66237581  0.63701344  0.00000000  1
  F  F16  1  0.33404282  0.97097716  0.00000000  1
  F  F17  1  0.87091733  0.93553165  0.50000000  1
