# generated using pymatgen
data_Li2VO3
_symmetry_space_group_name_H-M   'P 1'
_cell_length_a   15.24537015
_cell_length_b   9.81905201
_cell_length_c   9.81905207
_cell_angle_alpha   17.38834962
_cell_angle_beta   16.68275681
_cell_angle_gamma   16.68275699
_symmetry_Int_Tables_number   1
_chemical_formula_structural   Li2VO3
_chemical_formula_sum   'Li4 V2 O6'
_cell_volume   108.44911544
_cell_formula_units_Z   2
loop_
 _symmetry_equiv_pos_site_id
 _symmetry_equiv_pos_as_xyz
  1  'x, y, z'
loop_
 _atom_site_type_symbol
 _atom_site_label
 _atom_site_symmetry_multiplicity
 _atom_site_fract_x
 _atom_site_fract_y
 _atom_site_fract_z
 _atom_site_occupancy
  Li  Li0  1  0.66666700  0.00000000  0.00000000  1
  Li  Li1  1  0.16666700  0.50000000  0.50000000  1
  Li  Li2  1  0.50152785  0.50110530  0.50110530  1
  Li  Li3  1  0.83180615  0.49889470  0.49889470  1
  V  V4  1  0.03272147  0.97747814  0.97747814  1
  V  V5  1  0.30061153  0.02252186  0.02252186  1
  O  O6  1  0.22050344  0.27760117  0.27760117  1
  O  O7  1  0.57977810  0.26105059  0.26105059  1
  O  O8  1  0.11282956  0.72239883  0.72239883  1
  O  O9  1  0.95044444  0.22836415  0.22836415  1
  O  O10  1  0.38288856  0.77163585  0.77163585  1
  O  O11  1  0.75355490  0.73894941  0.73894941  1
