# generated using pymatgen
data_Li9Mn2Co5O16
_symmetry_space_group_name_H-M   'P 1'
_cell_length_a   2.88861299
_cell_length_b   5.12521064
_cell_length_c   20.76990250
_cell_angle_alpha   98.06109041
_cell_angle_beta   89.99999955
_cell_angle_gamma   73.63208502
_symmetry_Int_Tables_number   1
_chemical_formula_structural   Li9Mn2Co5O16
_chemical_formula_sum   'Li9 Mn2 Co5 O16'
_cell_volume   291.86310181
_cell_formula_units_Z   1
loop_
 _symmetry_equiv_pos_site_id
 _symmetry_equiv_pos_as_xyz
  1  'x, y, z'
loop_
 _atom_site_type_symbol
 _atom_site_label
 _atom_site_symmetry_multiplicity
 _atom_site_fract_x
 _atom_site_fract_y
 _atom_site_fract_z
 _atom_site_occupancy
  Li  Li0  1  0.25088843  0.49822313  0.06316473  1
  Li  Li1  1  0.74771465  0.50457071  0.18623200  1
  Li  Li2  1  0.24837731  0.50324539  0.31868694  1
  Li  Li3  1  0.73591175  0.52817651  0.44548629  1
  Li  Li4  1  0.25956993  0.48086015  0.55638343  1
  Li  Li5  1  0.75743111  0.48513778  0.68706440  1
  Li  Li6  1  0.24987628  0.50024743  0.81075811  1
  Li  Li7  1  0.75269820  0.49460361  0.93240996  1
  Li  Li8  1  0.99969503  0.00060994  0.49993317  1
  Mn  Mn9  1  0.99937011  0.00125979  0.99990939  1
  Mn  Mn10  1  0.00363834  0.99272333  0.25141388  1
  Co  Co11  1  0.49398179  0.01203642  0.12605327  1
  Co  Co12  1  0.48815992  0.02368015  0.38745076  1
  Co  Co13  1  0.51274906  0.97450188  0.61532979  1
  Co  Co14  1  0.99399934  0.01200133  0.74841310  1
  Co  Co15  1  0.50626019  0.98747961  0.87114899  1
  O  O16  1  0.38812235  0.22375531  0.96903946  1
  O  O17  1  0.87372965  0.25254070  0.09799411  1
  O  O18  1  0.39116049  0.21767902  0.22271100  1
  O  O19  1  0.89677232  0.20645535  0.33666170  1
  O  O20  1  0.37565440  0.24869119  0.46359020  1
  O  O21  1  0.89324138  0.21351723  0.59841721  1
  O  O22  1  0.38114672  0.23770656  0.72137392  1
  O  O23  1  0.88752675  0.22494650  0.84362016  1
  O  O24  1  0.10907880  0.78184240  0.16213469  1
  O  O25  1  0.61618390  0.76763220  0.27567194  1
  O  O26  1  0.11358503  0.77282993  0.40264386  1
  O  O27  1  0.62338149  0.75323702  0.53754555  1
  O  O28  1  0.10683238  0.78633524  0.65540365  1
  O  O29  1  0.61313763  0.77372473  0.77909549  1
  O  O30  1  0.12030582  0.75938835  0.90181883  1
  O  O31  1  0.60981945  0.78036110  0.03244003  1
