# generated using pymatgen
data_Mg17Al11Pd
_symmetry_space_group_name_H-M   'P 1'
_cell_length_a   9.11846516
_cell_length_b   8.97777034
_cell_length_c   9.07796781
_cell_angle_alpha   109.26417152
_cell_angle_beta   109.90980738
_cell_angle_gamma   109.08734353
_symmetry_Int_Tables_number   1
_chemical_formula_structural   Mg17Al11Pd
_chemical_formula_sum   'Mg17 Al11 Pd1'
_cell_volume   573.12871704
_cell_formula_units_Z   1
loop_
 _symmetry_equiv_pos_site_id
 _symmetry_equiv_pos_as_xyz
  1  'x, y, z'
loop_
 _atom_site_type_symbol
 _atom_site_label
 _atom_site_symmetry_multiplicity
 _atom_site_fract_x
 _atom_site_fract_y
 _atom_site_fract_z
 _atom_site_occupancy
  Mg  Mg0  1  0.31522974  0.60594709  0.00003444  1
  Mg  Mg1  1  0.60920249  0.32453279  0.00001017  1
  Mg  Mg2  1  0.99869358  0.34772344  -0.00000227  1
  Mg  Mg3  1  0.99813535  0.99432087  -0.00001384  1
  Mg  Mg4  1  0.34749668  0.00266671  0.99998340  1
  Mg  Mg5  1  0.68386528  0.68244439  0.27874326  1
  Mg  Mg6  1  0.99496562  0.60388776  0.31038474  1
  Mg  Mg7  1  0.60014159  0.99974546  0.31623487  1
  Mg  Mg8  1  0.99737251  0.99310021  0.33851822  1
  Mg  Mg9  1  0.71448171  0.39861794  0.39731616  1
  Mg  Mg10  1  0.39933531  0.71462174  0.39865432  1
  Mg  Mg11  1  0.00067181  0.31600459  0.60134300  1
  Mg  Mg12  1  0.31717009  0.00127528  0.60270681  1
  Mg  Mg13  1  0.65883697  0.65459205  0.66149089  1
  Mg  Mg14  1  0.28392767  0.68349752  0.68375843  1
  Mg  Mg15  1  0.68458962  0.29350575  0.68961308  1
  Mg  Mg16  1  0.40514374  0.40374995  0.72126145  1
  Al  Al17  1  0.63807877  0.80652341  0.99996074  1
  Al  Al18  1  0.36645119  0.36773360  0.18111153  1
  Al  Al19  1  0.17585087  0.81387779  0.18155157  1
  Al  Al20  1  0.81721571  0.18209957  0.18378853  1
  Al  Al21  1  0.17997518  0.36403736  0.36473051  1
  Al  Al22  1  0.36683920  0.17874887  0.36524240  1
  Al  Al23  1  0.00157554  0.81346330  0.63472488  1
  Al  Al24  1  0.81517064  0.99934384  0.63522879  1
  Al  Al25  1  0.63338757  0.99828800  0.81622475  1
  Al  Al26  1  0.99431842  0.63238154  0.81849024  1
  Al  Al27  1  0.18535941  0.18655609  0.81888992  1
  Pd  Pd28  1  0.81652175  0.63671711  0.00002000  1
