# generated using pymatgen
data_V4O5F7
_symmetry_space_group_name_H-M   'P 1'
_cell_length_a   5.24810990
_cell_length_b   7.48378529
_cell_length_c   5.38496864
_cell_angle_alpha   91.91191169
_cell_angle_beta   88.92295148
_cell_angle_gamma   89.96362935
_symmetry_Int_Tables_number   1
_chemical_formula_structural   V4O5F7
_chemical_formula_sum   'V4 O5 F7'
_cell_volume   211.34330617
_cell_formula_units_Z   1
loop_
 _symmetry_equiv_pos_site_id
 _symmetry_equiv_pos_as_xyz
  1  'x, y, z'
loop_
 _atom_site_type_symbol
 _atom_site_label
 _atom_site_symmetry_multiplicity
 _atom_site_fract_x
 _atom_site_fract_y
 _atom_site_fract_z
 _atom_site_occupancy
  V  V0  1  0.54271453  0.48573328  0.47439443  1
  V  V1  1  0.47437264  0.00796609  0.53577114  1
  V  V2  1  0.02762037  0.49552235  0.96592397  1
  V  V3  1  0.96479460  0.99368385  0.02786430  1
  O  O4  1  0.78158078  0.53471533  0.28045544  1
  O  O5  1  0.71484359  0.96262488  0.21601933  1
  O  O6  1  0.57632226  0.26224510  0.50462817  1
  O  O7  1  0.28194219  0.03639003  0.78377305  1
  O  O8  1  0.21409341  0.46967341  0.71590539  1
  F  F9  1  0.90060116  0.25033809  0.98283372  1
  F  F10  1  0.79052143  0.94932277  0.71026313  1
  F  F11  1  0.70963965  0.55266728  0.78369881  1
  F  F12  1  0.42173144  0.74510940  0.49231095  1
  F  F13  1  0.28652372  0.45077626  0.21951662  1
  F  F14  1  0.21215591  0.05338777  0.28633930  1
  F  F15  1  0.10054131  0.74984512  0.02030324  1
