# generated using pymatgen
data_Li9Mn2Co5O16
_symmetry_space_group_name_H-M   'P 1'
_cell_length_a   2.87819783
_cell_length_b   5.12138273
_cell_length_c   20.84645575
_cell_angle_alpha   97.89348653
_cell_angle_beta   89.99999955
_cell_angle_gamma   73.68022209
_symmetry_Int_Tables_number   1
_chemical_formula_structural   Li9Mn2Co5O16
_chemical_formula_sum   'Li9 Mn2 Co5 O16'
_cell_volume   291.86815576
_cell_formula_units_Z   1
loop_
 _symmetry_equiv_pos_site_id
 _symmetry_equiv_pos_as_xyz
  1  'x, y, z'
loop_
 _atom_site_type_symbol
 _atom_site_label
 _atom_site_symmetry_multiplicity
 _atom_site_fract_x
 _atom_site_fract_y
 _atom_site_fract_z
 _atom_site_occupancy
  Li  Li0  1  0.24760584  0.50478833  0.06428077  1
  Li  Li1  1  0.74725257  0.50549486  0.19510272  1
  Li  Li2  1  0.23530752  0.52938497  0.32129501  1
  Li  Li3  1  0.75832450  0.48335099  0.43212957  1
  Li  Li4  1  0.25627361  0.48745279  0.56256662  1
  Li  Li5  1  0.74927118  0.50145765  0.68498908  1
  Li  Li6  1  0.25445864  0.49108272  0.80875895  1
  Li  Li7  1  0.75632708  0.48734583  0.92844895  1
  Li  Li8  1  0.50032563  0.99934874  0.37640938  1
  Mn  Mn9  1  0.99871000  0.00258000  0.99834589  1
  Mn  Mn10  1  0.49684078  0.00631845  0.12860937  1
  Co  Co11  1  0.98793690  0.02412620  0.26484214  1
  Co  Co12  1  0.01169195  0.97661610  0.49139379  1
  Co  Co13  1  0.49381776  0.01236448  0.62392147  1
  Co  Co14  1  0.00092449  0.99815102  0.74659300  1
  Co  Co15  1  0.50939719  0.98120561  0.86962138  1
  O  O16  1  0.38377631  0.23244737  0.97081237  1
  O  O17  1  0.88339580  0.23320840  0.10048159  1
  O  O18  1  0.39553176  0.20893649  0.21271707  1
  O  O19  1  0.87560494  0.24879012  0.33983021  1
  O  O20  1  0.39265770  0.21468460  0.47378719  1
  O  O21  1  0.87854660  0.24290679  0.59509741  1
  O  O22  1  0.38236070  0.23527860  0.71750960  1
  O  O23  1  0.89070271  0.21859458  0.84329580  1
  O  O24  1  0.11297271  0.77405459  0.15000826  1
  O  O25  1  0.61566386  0.76867228  0.27854667  1
  O  O26  1  0.12258554  0.75482893  0.41416319  1
  O  O27  1  0.60546429  0.78907141  0.53143506  1
  O  O28  1  0.11324195  0.77351610  0.65552123  1
  O  O29  1  0.61811373  0.76377255  0.78057705  1
  O  O30  1  0.12170491  0.75659019  0.90343154  1
  O  O31  1  0.60321086  0.79357828  0.03547766  1
