# generated using pymatgen
data_Li3H3N2
_symmetry_space_group_name_H-M   'P 1'
_cell_length_a   3.46047893
_cell_length_b   3.72946305
_cell_length_c   5.14346096
_cell_angle_alpha   88.17387791
_cell_angle_beta   89.99999980
_cell_angle_gamma   89.99998727
_symmetry_Int_Tables_number   1
_chemical_formula_structural   Li3H3N2
_chemical_formula_sum   'Li3 H3 N2'
_cell_volume   66.34639774
_cell_formula_units_Z   1
loop_
 _symmetry_equiv_pos_site_id
 _symmetry_equiv_pos_as_xyz
  1  'x, y, z'
loop_
 _atom_site_type_symbol
 _atom_site_label
 _atom_site_symmetry_multiplicity
 _atom_site_fract_x
 _atom_site_fract_y
 _atom_site_fract_z
 _atom_site_occupancy
  Li  Li0  1  0.00000100  0.54176260  0.76126345  1
  Li  Li1  1  0.50000200  0.03740116  0.68343757  1
  Li  Li2  1  1.00000000  0.39127032  0.31970783  1
  H  H3  1  0.77072230  0.96082209  0.09287429  1
  H  H4  1  0.50000000  0.69857689  0.36723846  1
  H  H5  1  0.22928170  0.96082109  0.09287429  1
  N  N6  1  0.00000100  0.05073090  0.97969242  1
  N  N7  1  0.49999900  0.52061394  0.52691370  1
