# generated using pymatgen
data_UTeP
_symmetry_space_group_name_H-M   'P 1'
_cell_length_a   4.15639325
_cell_length_b   4.15421260
_cell_length_c   11.04817488
_cell_angle_alpha   79.15365454
_cell_angle_beta   93.29146377
_cell_angle_gamma   107.73412185
_symmetry_Int_Tables_number   1
_chemical_formula_structural   UTeP
_chemical_formula_sum   'U2 Te2 P2'
_cell_volume   178.45273674
_cell_formula_units_Z   2
loop_
 _symmetry_equiv_pos_site_id
 _symmetry_equiv_pos_as_xyz
  1  'x, y, z'
loop_
 _atom_site_type_symbol
 _atom_site_label
 _atom_site_symmetry_multiplicity
 _atom_site_fract_x
 _atom_site_fract_y
 _atom_site_fract_z
 _atom_site_occupancy
  U  U0  1  0.84762209  0.88205939  0.16898638  1
  U  U1  1  0.84883028  0.04788713  0.83129538  1
  Te  Te2  1  0.23118014  0.74129988  0.67551939  1
  Te  Te3  1  0.23429152  0.41576673  0.32385388  1
  P  P4  1  0.36422486  0.00118116  0.00021055  1
  P  P5  1  0.85285110  0.46580571  0.00013441  1
