# generated using pymatgen
data_Li2Mg
_symmetry_space_group_name_H-M   'P 1'
_cell_length_a   3.11179947
_cell_length_b   8.05849649
_cell_length_c   5.03672879
_cell_angle_alpha   90.00000000
_cell_angle_beta   90.00000000
_cell_angle_gamma   78.86766758
_symmetry_Int_Tables_number   1
_chemical_formula_structural   Li2Mg
_chemical_formula_sum   'Li4 Mg2'
_cell_volume   123.92661524
_cell_formula_units_Z   2
loop_
 _symmetry_equiv_pos_site_id
 _symmetry_equiv_pos_as_xyz
  1  'x, y, z'
loop_
 _atom_site_type_symbol
 _atom_site_label
 _atom_site_symmetry_multiplicity
 _atom_site_fract_x
 _atom_site_fract_y
 _atom_site_fract_z
 _atom_site_occupancy
  Li  Li0  1  0.00061870  0.99876260  0.00000000  1
  Li  Li1  1  0.66423621  0.67152658  0.00000000  1
  Li  Li2  1  0.44687479  0.10625042  0.50000100  1
  Li  Li3  1  0.11049230  0.77901440  0.50000100  1
  Mg  Mg4  1  0.33531812  0.32936475  0.00000000  1
  Mg  Mg5  1  0.77579388  0.44841325  0.50000100  1
