# generated using pymatgen
data_PmY
_symmetry_space_group_name_H-M   'P 1'
_cell_length_a   3.66601581
_cell_length_b   3.66600190
_cell_length_c   5.82570810
_cell_angle_alpha   89.99804705
_cell_angle_beta   90.00202635
_cell_angle_gamma   120.00124613
_symmetry_Int_Tables_number   1
_chemical_formula_structural   PmY
_chemical_formula_sum   'Pm1 Y1'
_cell_volume   67.80487459
_cell_formula_units_Z   1
loop_
 _symmetry_equiv_pos_site_id
 _symmetry_equiv_pos_as_xyz
  1  'x, y, z'
loop_
 _atom_site_type_symbol
 _atom_site_label
 _atom_site_symmetry_multiplicity
 _atom_site_fract_x
 _atom_site_fract_y
 _atom_site_fract_z
 _atom_site_occupancy
  Pm  Pm0  1  0.66665497  0.33334485  0.74999994  1
  Y  Y1  1  0.33334603  0.66665515  0.25000106  1
