# generated using pymatgen
data_Li9Mn2Co5O16
_symmetry_space_group_name_H-M   'P 1'
_cell_length_a   2.87593798
_cell_length_b   5.12736894
_cell_length_c   20.73503636
_cell_angle_alpha   98.22327591
_cell_angle_beta   89.99999952
_cell_angle_gamma   73.71296175
_symmetry_Int_Tables_number   1
_chemical_formula_structural   Li9Mn2Co5O16
_chemical_formula_sum   'Li9 Mn2 Co5 O16'
_cell_volume   290.21162780
_cell_formula_units_Z   1
loop_
 _symmetry_equiv_pos_site_id
 _symmetry_equiv_pos_as_xyz
  1  'x, y, z'
loop_
 _atom_site_type_symbol
 _atom_site_label
 _atom_site_symmetry_multiplicity
 _atom_site_fract_x
 _atom_site_fract_y
 _atom_site_fract_z
 _atom_site_occupancy
  Li  Li0  1  0.24793122  0.50413757  0.06963003  1
  Li  Li1  1  0.75822345  0.48355310  0.18329272  1
  Li  Li2  1  0.25853880  0.48292239  0.31322650  1
  Li  Li3  1  0.74781053  0.50437895  0.43302484  1
  Li  Li4  1  0.25370027  0.49259945  0.56320278  1
  Li  Li5  1  0.75239180  0.49521640  0.68251858  1
  Li  Li6  1  0.24856329  0.50287342  0.81637406  1
  Li  Li7  1  0.74223960  0.51552081  0.93984432  1
  Li  Li8  1  0.49829828  0.00340345  0.12366843  1
  Mn  Mn9  1  0.99337293  0.01325413  0.00634062  1
  Mn  Mn10  1  0.00057173  0.99885653  0.75005724  1
  Co  Co11  1  0.01317321  0.97365358  0.23980741  1
  Co  Co12  1  0.49904946  0.00190108  0.37307788  1
  Co  Co13  1  0.00080568  0.99838865  0.49814907  1
  Co  Co14  1  0.50282436  0.99435127  0.62196156  1
  Co  Co15  1  0.49224618  0.01550765  0.87861450  1
  O  O16  1  0.38594190  0.22811620  0.97226083  1
  O  O17  1  0.88333975  0.23332049  0.08589879  1
  O  O18  1  0.39386423  0.21227154  0.22263565  1
  O  O19  1  0.88158417  0.23683165  0.34537307  1
  O  O20  1  0.39211508  0.21576984  0.46930797  1
  O  O21  1  0.88224138  0.23551725  0.59426354  1
  O  O22  1  0.38943797  0.22112406  0.71939781  1
  O  O23  1  0.87608072  0.24783856  0.84995487  1
  O  O24  1  0.12540603  0.74918795  0.16252890  1
  O  O25  1  0.60638983  0.78722033  0.27997115  1
  O  O26  1  0.11886762  0.76226477  0.40292029  1
  O  O27  1  0.60909259  0.78181481  0.52816397  1
  O  O28  1  0.12229822  0.75540356  0.65173505  1
  O  O29  1  0.61014160  0.77971680  0.78312468  1
  O  O30  1  0.10538550  0.78922900  0.91128693  1
  O  O31  1  0.60807261  0.78385477  0.02838595  1
