# generated using pymatgen
data_NaCaPb2
_symmetry_space_group_name_H-M   'P 1'
_cell_length_a   5.53065391
_cell_length_b   5.53065646
_cell_length_c   5.53065989
_cell_angle_alpha   59.99989532
_cell_angle_beta   59.99986250
_cell_angle_gamma   59.99978862
_symmetry_Int_Tables_number   1
_chemical_formula_structural   NaCaPb2
_chemical_formula_sum   'Na1 Ca1 Pb2'
_cell_volume   119.62270829
_cell_formula_units_Z   1
loop_
 _symmetry_equiv_pos_site_id
 _symmetry_equiv_pos_as_xyz
  1  'x, y, z'
loop_
 _atom_site_type_symbol
 _atom_site_label
 _atom_site_symmetry_multiplicity
 _atom_site_fract_x
 _atom_site_fract_y
 _atom_site_fract_z
 _atom_site_occupancy
  Na  Na0  1  0.74999994  0.74999994  0.75000012  1
  Ca  Ca1  1  0.24999995  0.25000005  0.25000001  1
  Pb  Pb2  1  0.00000006  -0.00000019  0.00000012  1
  Pb  Pb3  1  0.50000006  0.50000020  0.49999976  1
