# generated using pymatgen
data_Al(HO)3
_symmetry_space_group_name_H-M   'P 1'
_cell_length_a   5.13568567
_cell_length_b   7.25055225
_cell_length_c   5.07803054
_cell_angle_alpha   90.00000000
_cell_angle_beta   90.00000000
_cell_angle_gamma   90.00000000
_symmetry_Int_Tables_number   1
_chemical_formula_structural   Al(HO)3
_chemical_formula_sum   'Al4 H12 O12'
_cell_volume   189.08837512
_cell_formula_units_Z   4
loop_
 _symmetry_equiv_pos_site_id
 _symmetry_equiv_pos_as_xyz
  1  'x, y, z'
loop_
 _atom_site_type_symbol
 _atom_site_label
 _atom_site_symmetry_multiplicity
 _atom_site_fract_x
 _atom_site_fract_y
 _atom_site_fract_z
 _atom_site_occupancy
  Al  Al0  1  0.00003212  0.49966024  0.24783905  1
  Al  Al1  1  0.99996888  0.99966024  0.25216195  1
  Al  Al2  1  0.49996688  0.50033976  0.74783705  1
  Al  Al3  1  0.50003312  0.00033976  0.75216295  1
  H  H4  1  0.20493197  0.75297791  0.02963534  1
  H  H5  1  0.33284305  0.29513534  0.08189101  1
  H  H6  1  0.46099176  0.02069281  0.21612642  1
  H  H7  1  0.53900624  0.52069181  0.28387258  1
  H  H8  1  0.66715795  0.79513634  0.41810999  1
  H  H9  1  0.79506903  0.25297891  0.47036366  1
  H  H10  1  0.29506703  0.24702209  0.52963534  1
  H  H11  1  0.16715795  0.70486366  0.58189101  1
  H  H12  1  0.03900724  0.97930819  0.71612642  1
  H  H13  1  0.96099376  0.47930719  0.78387358  1
  H  H14  1  0.83284205  0.20486366  0.91810899  1
  H  H15  1  0.70493097  0.74702209  0.97036466  1
  O  O16  1  0.31995553  0.43301778  0.07391684  1
  O  O17  1  0.32366421  0.06040916  0.08761053  1
  O  O18  1  0.03796782  0.75014044  0.12926537  1
  O  O19  1  0.96203218  0.25014044  0.37073463  1
  O  O20  1  0.67633479  0.56040916  0.41238847  1
  O  O21  1  0.68004447  0.93301678  0.42608316  1
  O  O22  1  0.18004547  0.56698322  0.57391784  1
  O  O23  1  0.17633479  0.93959084  0.58761153  1
  O  O24  1  0.46203318  0.24986056  0.62926637  1
  O  O25  1  0.53796782  0.74985956  0.87073363  1
  O  O26  1  0.82366621  0.43959184  0.91238947  1
  O  O27  1  0.81995553  0.06698322  0.92608216  1
