# generated using pymatgen
data_NpAl3
_symmetry_space_group_name_H-M   'P 1'
_cell_length_a   6.17274982
_cell_length_b   6.17274921
_cell_length_c   4.70062438
_cell_angle_alpha   90.00000000
_cell_angle_beta   90.00000000
_cell_angle_gamma   120.00000864
_symmetry_Int_Tables_number   1
_chemical_formula_structural   NpAl3
_chemical_formula_sum   'Np2 Al6'
_cell_volume   155.11130458
_cell_formula_units_Z   2
loop_
 _symmetry_equiv_pos_site_id
 _symmetry_equiv_pos_as_xyz
  1  'x, y, z'
loop_
 _atom_site_type_symbol
 _atom_site_label
 _atom_site_symmetry_multiplicity
 _atom_site_fract_x
 _atom_site_fract_y
 _atom_site_fract_z
 _atom_site_occupancy
  Np  Np0  1  0.33333400  0.66666700  0.75000100  1
  Np  Np1  1  0.66666800  0.33333400  0.25000100  1
  Al  Al2  1  0.15372338  0.30744776  0.25000100  1
  Al  Al3  1  0.69255224  0.84627562  0.25000100  1
  Al  Al4  1  0.15372338  0.84627562  0.25000100  1
  Al  Al5  1  0.84627662  0.69255224  0.75000100  1
  Al  Al6  1  0.30744676  0.15372338  0.75000100  1
  Al  Al7  1  0.84627562  0.15372338  0.75000100  1
