# generated using pymatgen
data_RbCaBr3
_symmetry_space_group_name_H-M   'P 1'
_cell_length_a   5.74042617
_cell_length_b   5.74289887
_cell_length_c   5.74324301
_cell_angle_alpha   90.02606682
_cell_angle_beta   90.11462907
_cell_angle_gamma   90.00997952
_symmetry_Int_Tables_number   1
_chemical_formula_structural   RbCaBr3
_chemical_formula_sum   'Rb1 Ca1 Br3'
_cell_volume   189.33529323
_cell_formula_units_Z   1
loop_
 _symmetry_equiv_pos_site_id
 _symmetry_equiv_pos_as_xyz
  1  'x, y, z'
loop_
 _atom_site_type_symbol
 _atom_site_label
 _atom_site_symmetry_multiplicity
 _atom_site_fract_x
 _atom_site_fract_y
 _atom_site_fract_z
 _atom_site_occupancy
  Rb  Rb0  1  0.99810196  0.99866256  0.99836429  1
  Ca  Ca1  1  0.48301338  0.49789082  0.49270314  1
  Br  Br2  1  0.48581931  0.99875958  0.49560475  1
  Br  Br3  1  0.98395716  0.50679304  0.50890725  1
  Br  Br4  1  0.48910918  0.49789600  0.99441756  1
