# generated using pymatgen
data_Li9Mn2Co5O16
_symmetry_space_group_name_H-M   'P 1'
_cell_length_a   2.88234002
_cell_length_b   5.10263731
_cell_length_c   20.75856288
_cell_angle_alpha   98.04848468
_cell_angle_beta   89.99999955
_cell_angle_gamma   73.59434190
_symmetry_Int_Tables_number   1
_chemical_formula_structural   Li9Mn2Co5O16
_chemical_formula_sum   'Li9 Mn2 Co5 O16'
_cell_volume   289.74076800
_cell_formula_units_Z   1
loop_
 _symmetry_equiv_pos_site_id
 _symmetry_equiv_pos_as_xyz
  1  'x, y, z'
loop_
 _atom_site_type_symbol
 _atom_site_label
 _atom_site_symmetry_multiplicity
 _atom_site_fract_x
 _atom_site_fract_y
 _atom_site_fract_z
 _atom_site_occupancy
  Li  Li0  1  0.24334081  0.51331837  0.06780287  1
  Li  Li1  1  0.74836460  0.50327081  0.19448815  1
  Li  Li2  1  0.25768079  0.48463841  0.30842367  1
  Li  Li3  1  0.75753957  0.48492085  0.43766932  1
  Li  Li4  1  0.24963692  0.50072616  0.56126077  1
  Li  Li5  1  0.74999132  0.50001736  0.68392706  1
  Li  Li6  1  0.25421075  0.49157849  0.81346694  1
  Li  Li7  1  0.75207469  0.49585062  0.93285999  1
  Li  Li8  1  0.99751985  0.00496030  0.24927624  1
  Mn  Mn9  1  0.99851730  0.00296539  0.00097996  1
  Mn  Mn10  1  0.48908680  0.02182640  0.13278648  1
  Co  Co11  1  0.51317388  0.97365223  0.36503873  1
  Co  Co12  1  0.99412505  0.01174990  0.49952503  1
  Co  Co13  1  0.50471669  0.99056661  0.62353662  1
  Co  Co14  1  0.00022980  0.99954039  0.74808716  1
  Co  Co15  1  0.50205482  0.99589035  0.87277834  1
  O  O16  1  0.38560415  0.22879170  0.97022192  1
  O  O17  1  0.88069428  0.23861143  0.09972693  1
  O  O18  1  0.38229588  0.23540824  0.21270618  1
  O  O19  1  0.89311033  0.21377934  0.34815493  1
  O  O20  1  0.38097022  0.23805955  0.47162289  1
  O  O21  1  0.88538097  0.22923806  0.59409989  1
  O  O22  1  0.39114910  0.21770179  0.71865335  1
  O  O23  1  0.88346528  0.23306944  0.84526302  1
  O  O24  1  0.10665711  0.78668577  0.15335875  1
  O  O25  1  0.62486823  0.75026354  0.28791289  1
  O  O26  1  0.10709749  0.78580502  0.40527048  1
  O  O27  1  0.61233962  0.77532076  0.53035926  1
  O  O28  1  0.12182452  0.75635097  0.65440040  1
  O  O29  1  0.60812383  0.78375235  0.77898775  1
  O  O30  1  0.11917777  0.76164445  0.90204540  1
  O  O31  1  0.60497754  0.79004493  0.03530862  1
