# generated using pymatgen
data_La7YAl8O24
_symmetry_space_group_name_H-M   'P 1'
_cell_length_a   7.60201925
_cell_length_b   7.60201925
_cell_length_c   7.60201925
_cell_angle_alpha   90.00000000
_cell_angle_beta   90.00000000
_cell_angle_gamma   90.00000000
_symmetry_Int_Tables_number   1
_chemical_formula_structural   La7YAl8O24
_chemical_formula_sum   'La7 Y1 Al8 O24'
_cell_volume   439.32598861
_cell_formula_units_Z   1
loop_
 _symmetry_equiv_pos_site_id
 _symmetry_equiv_pos_as_xyz
  1  'x, y, z'
loop_
 _atom_site_type_symbol
 _atom_site_label
 _atom_site_symmetry_multiplicity
 _atom_site_fract_x
 _atom_site_fract_y
 _atom_site_fract_z
 _atom_site_occupancy
  La  La0  1  0.25000000  0.25000000  0.75000000  1
  La  La1  1  0.25000000  0.75000000  0.25000000  1
  La  La2  1  0.25000000  0.75000000  0.75000000  1
  La  La3  1  0.75000000  0.25000000  0.25000000  1
  La  La4  1  0.75000000  0.25000000  0.75000000  1
  La  La5  1  0.75000000  0.75000000  0.25000000  1
  La  La6  1  0.75000000  0.75000000  0.75000000  1
  Y  Y7  1  0.25000000  0.25000000  0.25000000  1
  Al  Al8  1  0.00110799  0.00110799  0.00110799  1
  Al  Al9  1  0.00110799  0.00110799  0.49889201  1
  Al  Al10  1  0.00110799  0.49889201  0.00110799  1
  Al  Al11  1  0.00110799  0.49889201  0.49889201  1
  Al  Al12  1  0.49889201  0.00110799  0.00110799  1
  Al  Al13  1  0.49889201  0.00110799  0.49889201  1
  Al  Al14  1  0.49889201  0.49889201  0.00110799  1
  Al  Al15  1  0.49889201  0.49889201  0.49889201  1
  O  O16  1  0.00244798  0.25000000  0.00244798  1
  O  O17  1  0.00244798  0.25000000  0.49755202  1
  O  O18  1  0.00034142  0.75000000  0.00034142  1
  O  O19  1  0.00034142  0.75000000  0.49965858  1
  O  O20  1  0.49755202  0.25000000  0.00244798  1
  O  O21  1  0.49755202  0.25000000  0.49755202  1
  O  O22  1  0.49965858  0.75000000  0.00034142  1
  O  O23  1  0.49965858  0.75000000  0.49965858  1
  O  O24  1  0.00244798  0.00244798  0.25000000  1
  O  O25  1  0.00034142  0.00034142  0.75000000  1
  O  O26  1  0.00244798  0.49755202  0.25000000  1
  O  O27  1  0.00034142  0.49965858  0.75000000  1
  O  O28  1  0.49755202  0.00244798  0.25000000  1
  O  O29  1  0.49965858  0.00034142  0.75000000  1
  O  O30  1  0.49755202  0.49755202  0.25000000  1
  O  O31  1  0.49965858  0.49965858  0.75000000  1
  O  O32  1  0.25000000  0.00244798  0.00244798  1
  O  O33  1  0.25000000  0.00244798  0.49755202  1
  O  O34  1  0.25000000  0.49755202  0.00244798  1
  O  O35  1  0.25000000  0.49755202  0.49755202  1
  O  O36  1  0.75000000  0.00034142  0.00034142  1
  O  O37  1  0.75000000  0.00034142  0.49965858  1
  O  O38  1  0.75000000  0.49965858  0.00034142  1
  O  O39  1  0.75000000  0.49965858  0.49965858  1
