# generated using pymatgen
data_CsInI3
_symmetry_space_group_name_H-M   'P 1'
_cell_length_a   6.17685183
_cell_length_b   6.18011755
_cell_length_c   6.18701842
_cell_angle_alpha   89.96640499
_cell_angle_beta   90.00426175
_cell_angle_gamma   89.98312265
_symmetry_Int_Tables_number   1
_chemical_formula_structural   CsInI3
_chemical_formula_sum   'Cs1 In1 I3'
_cell_volume   236.18115051
_cell_formula_units_Z   1
loop_
 _symmetry_equiv_pos_site_id
 _symmetry_equiv_pos_as_xyz
  1  'x, y, z'
loop_
 _atom_site_type_symbol
 _atom_site_label
 _atom_site_symmetry_multiplicity
 _atom_site_fract_x
 _atom_site_fract_y
 _atom_site_fract_z
 _atom_site_occupancy
  Cs  Cs0  1  0.99971060  0.00287384  0.99988069  1
  In  In1  1  0.50274509  0.52099933  0.51034928  1
  I  I2  1  0.00076564  0.51106184  0.50314144  1
  I  I3  1  0.49524745  0.01594639  0.49226846  1
  I  I4  1  0.50153022  0.50912160  0.00435814  1
