# generated using pymatgen
data_Mg(MnS2)4
_symmetry_space_group_name_H-M   'P 1'
_cell_length_a   7.28855864
_cell_length_b   7.28855838
_cell_length_c   7.28855957
_cell_angle_alpha   55.26671630
_cell_angle_beta   55.26671099
_cell_angle_gamma   55.26671733
_symmetry_Int_Tables_number   1
_chemical_formula_structural   Mg(MnS2)4
_chemical_formula_sum   'Mg1 Mn4 S8'
_cell_volume   243.66679126
_cell_formula_units_Z   1
loop_
 _symmetry_equiv_pos_site_id
 _symmetry_equiv_pos_as_xyz
  1  'x, y, z'
loop_
 _atom_site_type_symbol
 _atom_site_label
 _atom_site_symmetry_multiplicity
 _atom_site_fract_x
 _atom_site_fract_y
 _atom_site_fract_z
 _atom_site_occupancy
  Mg  Mg0  1  0.50000000  0.50000100  0.49999900  1
  Mn  Mn1  1  0.50000100  0.99999900  0.50000100  1
  Mn  Mn2  1  0.99999900  0.50000000  0.50000100  1
  Mn  Mn3  1  0.50000000  0.50000000  0.00000000  1
  Mn  Mn4  1  0.00000000  0.00000000  0.00000000  1
  S  S5  1  0.75670239  0.26858322  0.75670239  1
  S  S6  1  0.24329661  0.24329761  0.73141678  1
  S  S7  1  0.24329661  0.73141778  0.24329661  1
  S  S8  1  0.73141578  0.24329761  0.24329761  1
  S  S9  1  0.26243466  0.26243566  0.26243466  1
  S  S10  1  0.73756534  0.73756534  0.73756534  1
  S  S11  1  0.26858422  0.75670339  0.75670239  1
  S  S12  1  0.75670339  0.75670339  0.26858322  1
