# generated using pymatgen
data_Ca3Ni2(GeO4)3
_symmetry_space_group_name_H-M   'P 1'
_cell_length_a   10.73262083
_cell_length_b   10.73262026
_cell_length_c   10.73262040
_cell_angle_alpha   109.47122087
_cell_angle_beta   109.47121980
_cell_angle_gamma   109.47121989
_symmetry_Int_Tables_number   1
_chemical_formula_structural   Ca3Ni2(GeO4)3
_chemical_formula_sum   'Ca12 Ni8 Ge12 O48'
_cell_volume   951.68984627
_cell_formula_units_Z   4
loop_
 _symmetry_equiv_pos_site_id
 _symmetry_equiv_pos_as_xyz
  1  'x, y, z'
loop_
 _atom_site_type_symbol
 _atom_site_label
 _atom_site_symmetry_multiplicity
 _atom_site_fract_x
 _atom_site_fract_y
 _atom_site_fract_z
 _atom_site_occupancy
  Ca  Ca0  1  0.62500000  0.25000000  0.87500000  1
  Ca  Ca1  1  0.87500000  0.75000000  0.62500000  1
  Ca  Ca2  1  0.75000000  0.62500000  0.87500000  1
  Ca  Ca3  1  0.25000000  0.87500000  0.62500000  1
  Ca  Ca4  1  0.87500000  0.62500000  0.25000000  1
  Ca  Ca5  1  0.62500000  0.87500000  0.75000000  1
  Ca  Ca6  1  0.37500000  0.75000000  0.12500000  1
  Ca  Ca7  1  0.12500000  0.25000000  0.37500000  1
  Ca  Ca8  1  0.25000000  0.37500000  0.12500000  1
  Ca  Ca9  1  0.75000000  0.12500000  0.37500000  1
  Ca  Ca10  1  0.12500000  0.37500000  0.75000000  1
  Ca  Ca11  1  0.37500000  0.12500000  0.25000000  1
  Ni  Ni12  1  0.50000000  0.50000000  0.50000000  1
  Ni  Ni13  1  0.50000000  0.50000000  0.00000000  1
  Ni  Ni14  1  0.50000000  0.00000000  0.50000000  1
  Ni  Ni15  1  0.00000000  0.50000000  0.50000000  1
  Ni  Ni16  1  0.50000000  0.00000000  0.00000000  1
  Ni  Ni17  1  0.00000000  0.00000000  0.50000000  1
  Ni  Ni18  1  0.00000000  0.50000000  0.00000000  1
  Ni  Ni19  1  0.00000000  0.00000000  0.00000000  1
  Ge  Ge20  1  0.87500000  0.12500000  0.75000000  1
  Ge  Ge21  1  0.12500000  0.87500000  0.25000000  1
  Ge  Ge22  1  0.25000000  0.62500000  0.37500000  1
  Ge  Ge23  1  0.12500000  0.75000000  0.87500000  1
  Ge  Ge24  1  0.75000000  0.87500000  0.12500000  1
  Ge  Ge25  1  0.37500000  0.25000000  0.62500000  1
  Ge  Ge26  1  0.62500000  0.75000000  0.37500000  1
  Ge  Ge27  1  0.87500000  0.25000000  0.12500000  1
  Ge  Ge28  1  0.25000000  0.12500000  0.87500000  1
  Ge  Ge29  1  0.75000000  0.37500000  0.62500000  1
  Ge  Ge30  1  0.37500000  0.62500000  0.75000000  1
  Ge  Ge31  1  0.62500000  0.37500000  0.25000000  1
  O  O32  1  0.79657426  0.41597056  0.81514008  1
  O  O33  1  0.08402944  0.88060369  0.39916952  1
  O  O34  1  0.68485992  0.10083048  0.98143317  1
  O  O35  1  0.70342574  0.51856683  0.61939631  1
  O  O36  1  0.70342574  0.68485992  0.08402944  1
  O  O37  1  0.51856683  0.61939631  0.70342574  1
  O  O38  1  0.10083048  0.61939631  0.41597056  1
  O  O39  1  0.61939631  0.70342574  0.51856683  1
  O  O40  1  0.39916952  0.81514008  0.51856683  1
  O  O41  1  0.88060369  0.98143317  0.79657426  1
  O  O42  1  0.98143317  0.79657426  0.88060369  1
  O  O43  1  0.08402944  0.70342574  0.68485992  1
  O  O44  1  0.61939631  0.41597056  0.10083048  1
  O  O45  1  0.51856683  0.39916952  0.81514008  1
  O  O46  1  0.68485992  0.08402944  0.70342574  1
  O  O47  1  0.41597056  0.10083048  0.61939631  1
  O  O48  1  0.81514008  0.51856683  0.39916952  1
  O  O49  1  0.39916952  0.08402944  0.88060369  1
  O  O50  1  0.10083048  0.98143317  0.68485992  1
  O  O51  1  0.60083048  0.18485992  0.48143317  1
  O  O52  1  0.98143317  0.68485992  0.10083048  1
  O  O53  1  0.81514008  0.79657426  0.41597056  1
  O  O54  1  0.88060369  0.39916952  0.08402944  1
  O  O55  1  0.79657426  0.88060369  0.98143317  1
  O  O56  1  0.20342574  0.58402944  0.18485992  1
  O  O57  1  0.91597056  0.11939631  0.60083048  1
  O  O58  1  0.31514008  0.89916952  0.01856683  1
  O  O59  1  0.29657426  0.48143317  0.38060369  1
  O  O60  1  0.29657426  0.31514008  0.91597056  1
  O  O61  1  0.48143317  0.38060369  0.29657426  1
  O  O62  1  0.89916952  0.38060369  0.58402944  1
  O  O63  1  0.38060369  0.29657426  0.48143317  1
  O  O64  1  0.20342574  0.11939631  0.01856683  1
  O  O65  1  0.11939631  0.60083048  0.91597056  1
  O  O66  1  0.18485992  0.20342574  0.58402944  1
  O  O67  1  0.58402944  0.18485992  0.20342574  1
  O  O68  1  0.01856683  0.31514008  0.89916952  1
  O  O69  1  0.89916952  0.01856683  0.31514008  1
  O  O70  1  0.60083048  0.91597056  0.11939631  1
  O  O71  1  0.18485992  0.48143317  0.60083048  1
  O  O72  1  0.58402944  0.89916952  0.38060369  1
  O  O73  1  0.31514008  0.91597056  0.29657426  1
  O  O74  1  0.48143317  0.60083048  0.18485992  1
  O  O75  1  0.38060369  0.58402944  0.89916952  1
  O  O76  1  0.91597056  0.29657426  0.31514008  1
  O  O77  1  0.01856683  0.20342574  0.11939631  1
  O  O78  1  0.11939631  0.01856683  0.20342574  1
  O  O79  1  0.41597056  0.81514008  0.79657426  1
