# generated using pymatgen
data_Mg2CuIrO6
_symmetry_space_group_name_H-M   'P 1'
_cell_length_a   5.07294821
_cell_length_b   5.30347802
_cell_length_c   7.71843830
_cell_angle_alpha   90.00000000
_cell_angle_beta   90.95313600
_cell_angle_gamma   90.00000000
_symmetry_Int_Tables_number   1
_chemical_formula_structural   Mg2CuIrO6
_chemical_formula_sum   'Mg4 Cu2 Ir2 O12'
_cell_volume   207.63021008
_cell_formula_units_Z   2
loop_
 _symmetry_equiv_pos_site_id
 _symmetry_equiv_pos_as_xyz
  1  'x, y, z'
loop_
 _atom_site_type_symbol
 _atom_site_label
 _atom_site_symmetry_multiplicity
 _atom_site_fract_x
 _atom_site_fract_y
 _atom_site_fract_z
 _atom_site_occupancy
  Mg  Mg0  1  0.01554087  0.93075100  0.24708125  1
  Mg  Mg1  1  0.48445913  0.43075100  0.25291875  1
  Mg  Mg2  1  0.51554087  0.56924900  0.74708125  1
  Mg  Mg3  1  0.98445913  0.06924900  0.75291875  1
  Cu  Cu4  1  0.00000000  0.50000000  0.00000000  1
  Cu  Cu5  1  0.50000000  0.00000000  0.50000000  1
  Ir  Ir6  1  0.00000000  0.50000000  0.50000000  1
  Ir  Ir7  1  0.50000000  0.00000000  0.00000000  1
  O  O8  1  0.14353944  0.42656607  0.73503731  1
  O  O9  1  0.18431095  0.18247174  0.07201660  1
  O  O10  1  0.17127736  0.18925594  0.42097076  1
  O  O11  1  0.32872264  0.68925594  0.07902924  1
  O  O12  1  0.31568905  0.68247174  0.42798340  1
  O  O13  1  0.35646056  0.92656607  0.76496269  1
  O  O14  1  0.64353944  0.07343393  0.23503731  1
  O  O15  1  0.68431095  0.31752826  0.57201660  1
  O  O16  1  0.67127736  0.31074406  0.92097076  1
  O  O17  1  0.81568905  0.81752826  0.92798340  1
  O  O18  1  0.82872264  0.81074406  0.57902924  1
  O  O19  1  0.85646056  0.57343393  0.26496269  1
