# generated using pymatgen
data_CrSe2
_symmetry_space_group_name_H-M   'P 1'
_cell_length_a   7.11392801
_cell_length_b   7.09218414
_cell_length_c   7.13704783
_cell_angle_alpha   59.77823773
_cell_angle_beta   59.86369269
_cell_angle_gamma   59.97699094
_symmetry_Int_Tables_number   1
_chemical_formula_structural   CrSe2
_chemical_formula_sum   'Cr4 Se8'
_cell_volume   253.88489641
_cell_formula_units_Z   4
loop_
 _symmetry_equiv_pos_site_id
 _symmetry_equiv_pos_as_xyz
  1  'x, y, z'
loop_
 _atom_site_type_symbol
 _atom_site_label
 _atom_site_symmetry_multiplicity
 _atom_site_fract_x
 _atom_site_fract_y
 _atom_site_fract_z
 _atom_site_occupancy
  Cr  Cr0  1  0.49852350  0.00308479  0.49919269  1
  Cr  Cr1  1  0.00217565  0.49860523  0.49958838  1
  Cr  Cr2  1  0.49991639  0.49933660  0.49949131  1
  Cr  Cr3  1  0.49981557  0.49944992  0.00137132  1
  Se  Se4  1  0.24947130  0.25255936  0.25285677  1
  Se  Se5  1  0.74912561  0.74707044  0.25925084  1
  Se  Se6  1  0.25526124  0.74528198  0.74980633  1
  Se  Se7  1  0.74746670  0.25445237  0.74914929  1
  Se  Se8  1  0.74702356  0.25456780  0.24910690  1
  Se  Se9  1  0.25265477  0.74565356  0.25087651  1
  Se  Se10  1  0.24951117  0.25275062  0.74462216  1
  Se  Se11  1  0.74905454  0.74718733  0.74468751  1
