# generated using pymatgen
data_CaMnO2
_symmetry_space_group_name_H-M   'P 1'
_cell_length_a   3.29105135
_cell_length_b   4.73774371
_cell_length_c   6.54302244
_cell_angle_alpha   90.00001931
_cell_angle_beta   90.02831148
_cell_angle_gamma   90.00030469
_symmetry_Int_Tables_number   1
_chemical_formula_structural   CaMnO2
_chemical_formula_sum   'Ca2 Mn2 O4'
_cell_volume   102.01982599
_cell_formula_units_Z   2
loop_
 _symmetry_equiv_pos_site_id
 _symmetry_equiv_pos_as_xyz
  1  'x, y, z'
loop_
 _atom_site_type_symbol
 _atom_site_label
 _atom_site_symmetry_multiplicity
 _atom_site_fract_x
 _atom_site_fract_y
 _atom_site_fract_z
 _atom_site_occupancy
  Ca  Ca0  1  0.56239563  0.50118671  0.88448345  1
  Ca  Ca1  1  0.06247786  0.00118765  0.61551768  1
  Mn  Mn2  1  0.56255252  0.50544958  0.37254893  1
  Mn  Mn3  1  0.06231892  0.00544536  0.12745661  1
  O  O4  1  0.06256225  0.49345947  0.14065315  1
  O  O5  1  0.56258922  0.99990878  0.88382527  1
  O  O6  1  0.06226527  0.49990986  0.61618009  1
  O  O7  1  0.56229332  0.99345757  0.35934982  1
