# generated using pymatgen
data_MnO2
_symmetry_space_group_name_H-M   'P 1'
_cell_length_a   8.75102169
_cell_length_b   9.10832700
_cell_length_c   10.38883393
_cell_angle_alpha   90.00000000
_cell_angle_beta   90.00000000
_cell_angle_gamma   108.70011201
_symmetry_Int_Tables_number   1
_chemical_formula_structural   MnO2
_chemical_formula_sum   'Mn24 O48'
_cell_volume   784.35070754
_cell_formula_units_Z   24
loop_
 _symmetry_equiv_pos_site_id
 _symmetry_equiv_pos_as_xyz
  1  'x, y, z'
loop_
 _atom_site_type_symbol
 _atom_site_label
 _atom_site_symmetry_multiplicity
 _atom_site_fract_x
 _atom_site_fract_y
 _atom_site_fract_z
 _atom_site_occupancy
  Mn  Mn0  1  0.06495134  0.94477598  0.88538046  1
  Mn  Mn1  1  0.23144934  0.44463338  0.61495355  1
  Mn  Mn2  1  0.93504866  0.05522402  0.11461954  1
  Mn  Mn3  1  0.43504866  0.55522402  0.38538046  1
  Mn  Mn4  1  0.38876705  0.91611727  0.39868653  1
  Mn  Mn5  1  0.26855066  0.05536662  0.11495355  1
  Mn  Mn6  1  0.11123295  0.58388273  0.89868653  1
  Mn  Mn7  1  0.76855066  0.55536662  0.38504645  1
  Mn  Mn8  1  0.89809321  0.44415979  0.61454379  1
  Mn  Mn9  1  0.88876705  0.41611727  0.10131347  1
  Mn  Mn10  1  0.73144934  0.94463338  0.88504645  1
  Mn  Mn11  1  0.10190679  0.55584021  0.38545621  1
  Mn  Mn12  1  0.39809321  0.94415979  0.88545621  1
  Mn  Mn13  1  0.56495134  0.44477598  0.61461954  1
  Mn  Mn14  1  0.60190679  0.05584021  0.11454379  1
  Mn  Mn15  1  0.61123295  0.08388273  0.60131347  1
  Mn  Mn16  1  0.44458223  0.58364022  0.89864821  1
  Mn  Mn17  1  0.22193178  0.41616353  0.10149743  1
  Mn  Mn18  1  0.72193178  0.91616353  0.39850257  1
  Mn  Mn19  1  0.94458223  0.08364022  0.60135179  1
  Mn  Mn20  1  0.05541777  0.91635978  0.39864821  1
  Mn  Mn21  1  0.77806822  0.58383647  0.89850257  1
  Mn  Mn22  1  0.27806822  0.08383647  0.60149743  1
  Mn  Mn23  1  0.55541777  0.41635978  0.10135179  1
  O  O24  1  0.45569938  0.11719189  0.48092024  1
  O  O25  1  0.11100037  0.58348344  0.57071052  1
  O  O26  1  0.81558102  0.19596185  0.14891234  1
  O  O27  1  0.35147243  0.30425489  0.64892451  1
  O  O28  1  0.54430062  0.88280811  0.51907976  1
  O  O29  1  0.73938807  0.46811199  0.21249427  1
  O  O30  1  0.18441898  0.80403815  0.85108766  1
  O  O31  1  0.38899963  0.91651656  0.07071052  1
  O  O32  1  0.95569938  0.61719189  0.01907976  1
  O  O33  1  0.26061193  0.53188801  0.78750573  1
  O  O34  1  0.72187332  0.91658098  0.07006028  1
  O  O35  1  0.90584132  0.96778798  0.28717388  1
  O  O36  1  0.71083715  0.38278558  0.98081975  1
  O  O37  1  0.09415868  0.03221202  0.71282612  1
  O  O38  1  0.28916285  0.61721442  0.01918025  1
  O  O39  1  0.48200164  0.19625099  0.14882155  1
  O  O40  1  0.04430062  0.38280811  0.98092024  1
  O  O41  1  0.59415868  0.53221202  0.78717388  1
  O  O42  1  0.14852757  0.19574511  0.14892451  1
  O  O43  1  0.44461709  0.58380456  0.57037679  1
  O  O44  1  0.92719933  0.53170481  0.78730673  1
  O  O45  1  0.23938807  0.96811199  0.28750573  1
  O  O46  1  0.78916285  0.11721442  0.48081975  1
  O  O47  1  0.88899963  0.41651656  0.42928948  1
  O  O48  1  0.94461709  0.08380456  0.92962321  1
  O  O49  1  0.85147243  0.80425489  0.85107549  1
  O  O50  1  0.12256121  0.11733952  0.48100976  1
  O  O51  1  0.61100037  0.08348344  0.92928948  1
  O  O52  1  0.51799836  0.80374901  0.85117845  1
  O  O53  1  0.22187332  0.41658098  0.42993972  1
  O  O54  1  0.62256121  0.61733952  0.01899024  1
  O  O55  1  0.01799836  0.30374901  0.64882155  1
  O  O56  1  0.76061193  0.03188801  0.71249427  1
  O  O57  1  0.55538291  0.41619544  0.42962321  1
  O  O58  1  0.31558102  0.69596185  0.35108766  1
  O  O59  1  0.98200164  0.69625099  0.35117845  1
  O  O60  1  0.77812668  0.58341902  0.57006028  1
  O  O61  1  0.57280067  0.96829519  0.28730673  1
  O  O62  1  0.37743879  0.38266048  0.98100976  1
  O  O63  1  0.87743879  0.88266048  0.51899024  1
  O  O64  1  0.21083715  0.88278558  0.51918025  1
  O  O65  1  0.05538291  0.91619544  0.07037679  1
  O  O66  1  0.64852757  0.69574511  0.35107549  1
  O  O67  1  0.68441898  0.30403815  0.64891234  1
  O  O68  1  0.27812668  0.08341902  0.92993972  1
  O  O69  1  0.07280067  0.46829519  0.21269327  1
  O  O70  1  0.40584132  0.46778798  0.21282612  1
  O  O71  1  0.42719933  0.03170481  0.71269327  1
