# generated using pymatgen
data_Li9Mn2Co5O16
_symmetry_space_group_name_H-M   'P 1'
_cell_length_a   2.89416910
_cell_length_b   13.11723553
_cell_length_c   7.76837072
_cell_angle_alpha   87.00015262
_cell_angle_beta   79.26428958
_cell_angle_gamma   89.99999854
_symmetry_Int_Tables_number   1
_chemical_formula_structural   Li9Mn2Co5O16
_chemical_formula_sum   'Li9 Mn2 Co5 O16'
_cell_volume   289.34126322
_cell_formula_units_Z   1
loop_
 _symmetry_equiv_pos_site_id
 _symmetry_equiv_pos_as_xyz
  1  'x, y, z'
loop_
 _atom_site_type_symbol
 _atom_site_label
 _atom_site_symmetry_multiplicity
 _atom_site_fract_x
 _atom_site_fract_y
 _atom_site_fract_z
 _atom_site_occupancy
  Li  Li0  1  0.56703878  0.20202846  0.86592244  1
  Li  Li1  1  0.68871421  0.55296707  0.62257158  1
  Li  Li2  1  0.80861468  0.93386912  0.38277063  1
  Li  Li3  1  0.93862397  0.31810653  0.12275206  1
  Li  Li4  1  0.06288918  0.68181181  0.87422164  1
  Li  Li5  1  0.18611253  0.06947290  0.62777495  1
  Li  Li6  1  0.31080525  0.44149374  0.37838949  1
  Li  Li7  1  0.43923312  0.80293452  0.12153377  1
  Li  Li8  1  0.12243423  0.37906276  0.75513154  1
  Mn  Mn9  1  0.00227896  -0.00011876  0.99544208  1
  Mn  Mn10  1  0.37179394  0.12934079  0.25641211  1
  Co  Co11  1  0.25242713  0.74586592  0.49514574  1
  Co  Co12  1  0.50536648  0.48942271  0.98926704  1
  Co  Co13  1  0.62633575  0.86710915  0.74732850  1
  Co  Co14  1  0.73974932  0.26882333  0.52050135  1
  Co  Co15  1  0.87814360  0.62245518  0.24371281  1
  O  O16  1  0.58720850  0.02608780  0.82558301  1
  O  O17  1  0.72324789  0.40168312  0.55350423  1
  O  O18  1  0.84034533  0.77661114  0.31930933  1
  O  O19  1  0.95507700  0.15927534  0.08984600  1
  O  O20  1  0.08446808  0.53030835  0.83106384  1
  O  O21  1  0.21337015  0.89900134  0.57325969  1
  O  O22  1  0.33528872  0.26601976  0.32942256  1
  O  O23  1  0.46309766  0.64917644  0.07380467  1
  O  O24  1  0.52699787  0.35518274  0.94600427  1
  O  O25  1  0.66437623  0.72106484  0.67124753  1
  O  O26  1  0.79165206  0.09233649  0.41669587  1
  O  O27  1  0.91409922  0.47516328  0.17180155  1
  O  O28  1  0.03837730  0.84196872  0.92324541  1
  O  O29  1  0.16049702  0.21985573  0.67900596  1
  O  O30  1  0.28776613  0.59799713  0.42446774  1
  O  O31  1  0.41356971  0.98362254  0.17286058  1
