# generated using pymatgen
data_Mg3Cu3(AsO4)4
_symmetry_space_group_name_H-M   'P 1'
_cell_length_a   5.08606814
_cell_length_b   8.72399870
_cell_length_c   14.67676517
_cell_angle_alpha   99.81603050
_cell_angle_beta   90.00000000
_cell_angle_gamma   90.00000000
_symmetry_Int_Tables_number   1
_chemical_formula_structural   Mg3Cu3(AsO4)4
_chemical_formula_sum   'Mg6 Cu6 As8 O32'
_cell_volume   641.68685881
_cell_formula_units_Z   2
loop_
 _symmetry_equiv_pos_site_id
 _symmetry_equiv_pos_as_xyz
  1  'x, y, z'
loop_
 _atom_site_type_symbol
 _atom_site_label
 _atom_site_symmetry_multiplicity
 _atom_site_fract_x
 _atom_site_fract_y
 _atom_site_fract_z
 _atom_site_occupancy
  Mg  Mg0  1  0.97458871  0.01816753  0.72280831  1
  Mg  Mg1  1  0.47458871  0.48183247  0.77719169  1
  Mg  Mg2  1  0.02541129  0.98183247  0.27719169  1
  Mg  Mg3  1  0.52541129  0.51816753  0.22280831  1
  Mg  Mg4  1  0.00000000  0.00000000  0.00000000  1
  Mg  Mg5  1  0.50000000  0.50000000  0.50000000  1
  Cu  Cu6  1  0.01022039  0.32961671  0.12141518  1
  Cu  Cu7  1  0.98977961  0.67038329  0.87858482  1
  Cu  Cu8  1  0.51022039  0.17038329  0.37858482  1
  Cu  Cu9  1  0.48977961  0.82961671  0.62141518  1
  Cu  Cu10  1  0.50000000  0.50000000  0.00000000  1
  Cu  Cu11  1  0.00000000  0.00000000  0.50000000  1
  As  As12  1  0.50403194  0.88998484  0.84849505  1
  As  As13  1  0.99638840  0.32078553  0.89925513  1
  As  As14  1  0.49638840  0.17921447  0.60074487  1
  As  As15  1  0.50361160  0.82078553  0.39925513  1
  As  As16  1  0.49596806  0.11001516  0.15150495  1
  As  As17  1  0.00361160  0.67921447  0.10074487  1
  As  As18  1  0.99596806  0.38998484  0.34849505  1
  As  As19  1  0.00403194  0.61001516  0.65150495  1
  O  O20  1  0.09613019  0.56241599  0.75863901  1
  O  O21  1  0.56096103  0.26715897  0.50634615  1
  O  O22  1  0.09685210  0.21338686  0.80039108  1
  O  O23  1  0.09916312  0.80310211  0.65369123  1
  O  O24  1  0.90314790  0.78661314  0.19960892  1
  O  O25  1  0.40386981  0.06241599  0.25863901  1
  O  O26  1  0.59685210  0.28661314  0.69960892  1
  O  O27  1  0.82092198  0.89235457  0.39180054  1
  O  O28  1  0.82410400  0.51725001  0.42472729  1
  O  O29  1  0.90386981  0.43758401  0.24136099  1
  O  O30  1  0.40083688  0.30310211  0.15369123  1
  O  O31  1  0.17907802  0.10764543  0.60819946  1
  O  O32  1  0.19483765  0.49202346  0.91882320  1
  O  O33  1  0.17589600  0.48274999  0.57527271  1
  O  O34  1  0.83301670  0.09517483  0.13871953  1
  O  O35  1  0.33301670  0.40482517  0.36128047  1
  O  O36  1  0.69483765  0.00797654  0.58117680  1
  O  O37  1  0.40314790  0.71338686  0.30039108  1
  O  O38  1  0.32410400  0.98274999  0.07527271  1
  O  O39  1  0.32092198  0.60764543  0.10819946  1
  O  O40  1  0.66698330  0.59517483  0.63871953  1
  O  O41  1  0.16698330  0.90482517  0.86128047  1
  O  O42  1  0.43903897  0.73284103  0.49365385  1
  O  O43  1  0.06096103  0.23284103  0.99365385  1
  O  O44  1  0.80516235  0.50797654  0.08117680  1
  O  O45  1  0.59613019  0.93758401  0.74136099  1
  O  O46  1  0.90083688  0.19689789  0.34630877  1
  O  O47  1  0.67589600  0.01725001  0.92472729  1
  O  O48  1  0.93903897  0.76715897  0.00634615  1
  O  O49  1  0.67907802  0.39235457  0.89180054  1
  O  O50  1  0.30516235  0.99202346  0.41882320  1
  O  O51  1  0.59916312  0.69689789  0.84630877  1
