# generated using pymatgen
data_Ca2FeSbO6
_symmetry_space_group_name_H-M   'P 1'
_cell_length_a   5.50292230
_cell_length_b   5.65099049
_cell_length_c   7.80565371
_cell_angle_alpha   90.00000000
_cell_angle_beta   90.00000000
_cell_angle_gamma   90.18208795
_symmetry_Int_Tables_number   1
_chemical_formula_structural   Ca2FeSbO6
_chemical_formula_sum   'Ca4 Fe2 Sb2 O12'
_cell_volume   242.73088787
_cell_formula_units_Z   2
loop_
 _symmetry_equiv_pos_site_id
 _symmetry_equiv_pos_as_xyz
  1  'x, y, z'
loop_
 _atom_site_type_symbol
 _atom_site_label
 _atom_site_symmetry_multiplicity
 _atom_site_fract_x
 _atom_site_fract_y
 _atom_site_fract_z
 _atom_site_occupancy
  Ca  Ca0  1  0.51907399  0.56465022  0.75000000  1
  Ca  Ca1  1  0.48092601  0.43534978  0.25000000  1
  Ca  Ca2  1  0.00086115  0.04122171  0.75000000  1
  Ca  Ca3  1  0.99913885  0.95877829  0.25000000  1
  Fe  Fe4  1  0.50000000  0.00000000  0.50000000  1
  Fe  Fe5  1  0.50000000  0.00000000  0.00000000  1
  Sb  Sb6  1  0.00000000  0.50000000  0.50000000  1
  Sb  Sb7  1  0.00000000  0.50000000  0.00000000  1
  O  O8  1  0.29332652  0.69673888  0.45138482  1
  O  O9  1  0.19283507  0.20893913  0.04982246  1
  O  O10  1  0.70667348  0.30326112  0.95138482  1
  O  O11  1  0.80716493  0.79106087  0.54982246  1
  O  O12  1  0.19283507  0.20893913  0.45017754  1
  O  O13  1  0.80716493  0.79106087  0.95017754  1
  O  O14  1  0.89615903  0.53518616  0.25000000  1
  O  O15  1  0.29332652  0.69673888  0.04861518  1
  O  O16  1  0.41794115  0.97082810  0.75000000  1
  O  O17  1  0.70667348  0.30326112  0.54861518  1
  O  O18  1  0.10384097  0.46481384  0.75000000  1
  O  O19  1  0.58205885  0.02917190  0.25000000  1
