# generated using pymatgen
data_BaAl4O7
_symmetry_space_group_name_H-M   'P 1'
_cell_length_a   13.14671463
_cell_length_b   10.41318672
_cell_length_c   4.98027546
_cell_angle_alpha   90.00000000
_cell_angle_beta   90.00000000
_cell_angle_gamma   90.00000000
_symmetry_Int_Tables_number   1
_chemical_formula_structural   BaAl4O7
_chemical_formula_sum   'Ba4 Al16 O28'
_cell_volume   681.79569735
_cell_formula_units_Z   4
loop_
 _symmetry_equiv_pos_site_id
 _symmetry_equiv_pos_as_xyz
  1  'x, y, z'
loop_
 _atom_site_type_symbol
 _atom_site_label
 _atom_site_symmetry_multiplicity
 _atom_site_fract_x
 _atom_site_fract_y
 _atom_site_fract_z
 _atom_site_occupancy
  Ba  Ba0  1  -0.00000000  0.75969199  0.95745401  1
  Ba  Ba1  1  0.00000000  0.25969199  0.04254599  1
  Ba  Ba2  1  0.50000000  0.40659926  0.54691445  1
  Ba  Ba3  1  0.50000000  0.90659926  0.45308555  1
  Al  Al4  1  0.25175171  0.92437952  0.04463573  1
  Al  Al5  1  0.74824829  0.92437952  0.04463573  1
  Al  Al6  1  0.74824829  0.42437952  0.95536427  1
  Al  Al7  1  0.25175171  0.42437952  0.95536427  1
  Al  Al8  1  0.24848523  0.73997723  0.54433455  1
  Al  Al9  1  0.75151477  0.73997723  0.54433455  1
  Al  Al10  1  0.75151477  0.23997723  0.45566545  1
  Al  Al11  1  0.24848523  0.23997723  0.45566545  1
  Al  Al12  1  0.38138139  0.67402232  0.03624857  1
  Al  Al13  1  0.61861861  0.67402232  0.03624857  1
  Al  Al14  1  0.61861861  0.17402232  0.96375143  1
  Al  Al15  1  0.38138139  0.17402232  0.96375143  1
  Al  Al16  1  0.11878616  0.99046773  0.53718269  1
  Al  Al17  1  0.88121384  0.99046773  0.53718269  1
  Al  Al18  1  0.88121384  0.49046773  0.46281731  1
  Al  Al19  1  0.11878616  0.49046773  0.46281731  1
  O  O20  1  -0.00000000  0.92392456  0.46042365  1
  O  O21  1  -0.00000000  0.42392456  0.53957635  1
  O  O22  1  0.50000000  0.73971679  0.95563639  1
  O  O23  1  0.50000000  0.23971679  0.04436361  1
  O  O24  1  0.13876278  0.96936002  0.88515114  1
  O  O25  1  0.86123722  0.96936002  0.88515114  1
  O  O26  1  0.86123722  0.46936002  0.11484886  1
  O  O27  1  0.13876278  0.46936002  0.11484886  1
  O  O28  1  0.21438690  0.88892021  0.38323586  1
  O  O29  1  0.78561310  0.88892021  0.38323586  1
  O  O30  1  0.78561310  0.38892021  0.61676414  1
  O  O31  1  0.21438690  0.38892021  0.61676414  1
  O  O32  1  0.36177017  0.69612542  0.38414272  1
  O  O33  1  0.63822983  0.69612542  0.38414272  1
  O  O34  1  0.63822983  0.19612542  0.61585728  1
  O  O35  1  0.36177017  0.19612542  0.61585728  1
  O  O36  1  0.36391925  0.01389349  0.06143159  1
  O  O37  1  0.63608075  0.01389349  0.06143159  1
  O  O38  1  0.63608075  0.51389349  0.93856841  1
  O  O39  1  0.36391925  0.51389349  0.93856841  1
  O  O40  1  0.13652423  0.65021329  0.56188021  1
  O  O41  1  0.86347577  0.65021329  0.56188021  1
  O  O42  1  0.86347577  0.15021329  0.43811979  1
  O  O43  1  0.13652423  0.15021329  0.43811979  1
  O  O44  1  0.28530409  0.77521548  0.88349225  1
  O  O45  1  0.71469591  0.77521548  0.88349225  1
  O  O46  1  0.71469591  0.27521548  0.11650775  1
  O  O47  1  0.28530409  0.27521548  0.11650775  1
