# generated using pymatgen
data_LiMn3P3O13
_symmetry_space_group_name_H-M   'P 1'
_cell_length_a   6.22127079
_cell_length_b   7.50928250
_cell_length_c   10.57570141
_cell_angle_alpha   99.37319974
_cell_angle_beta   90.00000000
_cell_angle_gamma   90.00000000
_symmetry_Int_Tables_number   1
_chemical_formula_structural   LiMn3P3O13
_chemical_formula_sum   'Li2 Mn6 P6 O26'
_cell_volume   487.47142897
_cell_formula_units_Z   2
loop_
 _symmetry_equiv_pos_site_id
 _symmetry_equiv_pos_as_xyz
  1  'x, y, z'
loop_
 _atom_site_type_symbol
 _atom_site_label
 _atom_site_symmetry_multiplicity
 _atom_site_fract_x
 _atom_site_fract_y
 _atom_site_fract_z
 _atom_site_occupancy
  Li  Li0  1  0.75000000  0.63351800  0.13042059  1
  Li  Li1  1  0.25000000  0.36648200  0.86957941  1
  Mn  Mn2  1  0.25000000  0.36541762  0.19794034  1
  Mn  Mn3  1  0.75000000  0.63458238  0.80205966  1
  Mn  Mn4  1  0.25000000  0.76451254  0.45060210  1
  Mn  Mn5  1  0.50000000  0.00000000  0.00000000  1
  Mn  Mn6  1  0.75000000  0.23548746  0.54939790  1
  Mn  Mn7  1  0.00000000  0.00000000  0.00000000  1
  P  P8  1  0.25000000  0.20993246  0.47251834  1
  P  P9  1  0.75000000  0.79006754  0.52748166  1
  P  P10  1  0.25000000  0.72945106  0.76971554  1
  P  P11  1  0.75000000  0.27054894  0.23028446  1
  P  P12  1  0.75000000  0.30583161  0.87637608  1
  P  P13  1  0.25000000  0.69416839  0.12362392  1
  O  O14  1  0.75000000  0.35410249  0.73805083  1
  O  O15  1  0.55464521  0.73842693  0.43736955  1
  O  O16  1  0.25000000  0.78073218  0.63712874  1
  O  O17  1  0.54190288  0.20621428  0.90163991  1
  O  O18  1  0.75000000  0.65968506  0.62872484  1
  O  O19  1  0.75000000  0.87054323  0.90711233  1
  O  O20  1  0.25000000  0.34031494  0.37127516  1
  O  O21  1  0.04190288  0.79378572  0.09836009  1
  O  O22  1  0.25000000  0.01527918  0.40506380  1
  O  O23  1  0.75000000  0.98472082  0.59493620  1
  O  O24  1  0.05843747  0.61079231  0.80015660  1
  O  O25  1  0.25000000  0.12945677  0.09288767  1
  O  O26  1  0.55843747  0.38920769  0.19984340  1
  O  O27  1  0.75000000  0.50356961  0.95239047  1
  O  O28  1  0.75000000  0.21926782  0.36287126  1
  O  O29  1  0.45809712  0.79378572  0.09836009  1
  O  O30  1  0.94535479  0.73842693  0.43736955  1
  O  O31  1  0.44535479  0.26157307  0.56263045  1
  O  O32  1  0.44156253  0.61079231  0.80015660  1
  O  O33  1  0.25000000  0.64589751  0.26194917  1
  O  O34  1  0.75000000  0.09378714  0.12790085  1
  O  O35  1  0.25000000  0.90621286  0.87209915  1
  O  O36  1  0.94156253  0.38920769  0.19984340  1
  O  O37  1  0.95809712  0.20621428  0.90163991  1
  O  O38  1  0.05464521  0.26157307  0.56263045  1
  O  O39  1  0.25000000  0.49643039  0.04760953  1
