# generated using pymatgen
data_Li9Mn2Co5O16
_symmetry_space_group_name_H-M   'P 1'
_cell_length_a   2.88256358
_cell_length_b   5.10018026
_cell_length_c   20.73436436
_cell_angle_alpha   98.08895411
_cell_angle_beta   89.99999954
_cell_angle_gamma   73.58490576
_symmetry_Int_Tables_number   1
_chemical_formula_structural   Li9Mn2Co5O16
_chemical_formula_sum   'Li9 Mn2 Co5 O16'
_cell_volume   289.24022557
_cell_formula_units_Z   1
loop_
 _symmetry_equiv_pos_site_id
 _symmetry_equiv_pos_as_xyz
  1  'x, y, z'
loop_
 _atom_site_type_symbol
 _atom_site_label
 _atom_site_symmetry_multiplicity
 _atom_site_fract_x
 _atom_site_fract_y
 _atom_site_fract_z
 _atom_site_occupancy
  Li  Li0  1  0.24730953  0.50538093  0.06994558  1
  Li  Li1  1  0.75646640  0.48706720  0.18389102  1
  Li  Li2  1  0.25777776  0.48444448  0.31004983  1
  Li  Li3  1  0.75506207  0.48987586  0.43419110  1
  Li  Li4  1  0.25381404  0.49237192  0.55713007  1
  Li  Li5  1  0.74604902  0.50790196  0.68807622  1
  Li  Li6  1  0.24975115  0.50049770  0.81663424  1
  Li  Li7  1  0.74204175  0.51591651  0.94079805  1
  Li  Li8  1  0.49576694  0.00846613  0.12448025  1
  Mn  Mn9  1  0.99279697  0.01440607  0.00644327  1
  Mn  Mn10  1  0.50280981  0.99438039  0.62415846  1
  Co  Co11  1  0.01230430  0.97539140  0.23972125  1
  Co  Co12  1  0.49882443  0.00235115  0.37133868  1
  Co  Co13  1  0.00917365  0.98165270  0.49500260  1
  Co  Co14  1  0.99354186  0.01291627  0.75375505  1
  Co  Co15  1  0.49382398  0.01235205  0.87847393  1
  O  O16  1  0.38516803  0.22966393  0.97200702  1
  O  O17  1  0.88211410  0.23577180  0.08574779  1
  O  O18  1  0.39213934  0.21572131  0.22184652  1
  O  O19  1  0.88321852  0.23356297  0.34233508  1
  O  O20  1  0.39110277  0.21779446  0.46642982  1
  O  O21  1  0.88915776  0.22168448  0.59433950  1
  O  O22  1  0.38364742  0.23270517  0.72524433  1
  O  O23  1  0.87724149  0.24551703  0.84962712  1
  O  O24  1  0.12455161  0.75089678  0.16247242  1
  O  O25  1  0.60961799  0.78076403  0.27927795  1
  O  O26  1  0.11826740  0.76346521  0.40317192  1
  O  O27  1  0.62287780  0.75424440  0.52571768  1
  O  O28  1  0.11509879  0.76980243  0.65482721  1
  O  O29  1  0.60429669  0.79140662  0.78293991  1
  O  O30  1  0.10632440  0.78735121  0.91128116  1
  O  O31  1  0.60786227  0.78427546  0.02864494  1
