# generated using pymatgen
data_Lu(BRh)4
_symmetry_space_group_name_H-M   'P 1'
_cell_length_a   9.15016212
_cell_length_b   9.15006964
_cell_length_c   9.15015756
_cell_angle_alpha   131.49702581
_cell_angle_beta   131.49644360
_cell_angle_gamma   71.02558234
_symmetry_Int_Tables_number   1
_chemical_formula_structural   Lu(BRh)4
_chemical_formula_sum   'Lu4 B16 Rh16'
_cell_volume   420.82625697
_cell_formula_units_Z   4
loop_
 _symmetry_equiv_pos_site_id
 _symmetry_equiv_pos_as_xyz
  1  'x, y, z'
loop_
 _atom_site_type_symbol
 _atom_site_label
 _atom_site_symmetry_multiplicity
 _atom_site_fract_x
 _atom_site_fract_y
 _atom_site_fract_z
 _atom_site_occupancy
  Lu  Lu0  1  0.37499755  0.12499973  0.24999962  1
  Lu  Lu1  1  0.12500001  0.37500003  0.75000228  1
  Lu  Lu2  1  0.62500216  0.87500064  0.75000260  1
  Lu  Lu3  1  0.87499813  0.62499701  0.25000037  1
  B  B4  1  0.37264248  0.42982762  0.21705096  1
  B  B5  1  0.71277892  0.15558956  0.28294783  1
  B  B6  1  0.12735778  0.34440917  0.05718413  1
  B  B7  1  0.78722452  0.07017297  0.44281476  1
  B  B8  1  0.07017178  0.12735709  0.28294515  1
  B  B9  1  0.34441052  0.78722320  0.21705044  1
  B  B10  1  0.15558811  0.37263893  0.44280947  1
  B  B11  1  0.42982933  0.71277605  0.05718689  1
  B  B12  1  0.62736126  0.57017100  0.78294886  1
  B  B13  1  0.28722401  0.84441187  0.71705318  1
  B  B14  1  0.87263779  0.65558806  0.94281122  1
  B  B15  1  0.21277495  0.92982710  0.55718619  1
  B  B16  1  0.92982492  0.87263919  0.71704972  1
  B  B17  1  0.65559317  0.21277658  0.78294970  1
  B  B18  1  0.84441114  0.62736484  0.55718936  1
  B  B19  1  0.57017126  0.28722401  0.94281568  1
  Rh  Rh20  1  0.32178294  0.53407462  0.47926964  1
  Rh  Rh21  1  0.55480802  0.84251409  0.02072919  1
  Rh  Rh22  1  0.17821926  0.65748228  0.21229155  1
  Rh  Rh23  1  0.94518937  0.96592656  0.28770464  1
  Rh  Rh24  1  0.96592577  0.17821480  0.02073401  1
  Rh  Rh25  1  0.65748873  0.94519005  0.47927106  1
  Rh  Rh26  1  0.84251089  0.32178069  0.28770304  1
  Rh  Rh27  1  0.53407812  0.55480659  0.21229511  1
  Rh  Rh28  1  0.67821862  0.46592598  0.52073296  1
  Rh  Rh29  1  0.44519439  0.15748902  0.97927338  1
  Rh  Rh30  1  0.82177888  0.34251202  0.78770101  1
  Rh  Rh31  1  0.05481191  0.03408083  0.71230278  1
  Rh  Rh32  1  0.03407394  0.82178601  0.97926174  1
  Rh  Rh33  1  0.34251439  0.05480790  0.52073246  1
  Rh  Rh34  1  0.15748586  0.67821781  0.71229409  1
  Rh  Rh35  1  0.46592911  0.44519411  0.78771193  1
