# generated using pymatgen
data_Ca3ZnGe5O14
_symmetry_space_group_name_H-M   'P 1'
_cell_length_a   5.14415788
_cell_length_b   8.06198071
_cell_length_c   8.12582115
_cell_angle_alpha   119.74044793
_cell_angle_beta   90.35259709
_cell_angle_gamma   90.00000000
_symmetry_Int_Tables_number   1
_chemical_formula_structural   Ca3ZnGe5O14
_chemical_formula_sum   'Ca3 Zn1 Ge5 O14'
_cell_volume   292.59908077
_cell_formula_units_Z   1
loop_
 _symmetry_equiv_pos_site_id
 _symmetry_equiv_pos_as_xyz
  1  'x, y, z'
loop_
 _atom_site_type_symbol
 _atom_site_label
 _atom_site_symmetry_multiplicity
 _atom_site_fract_x
 _atom_site_fract_y
 _atom_site_fract_z
 _atom_site_occupancy
  Ca  Ca0  1  0.00000000  0.73176356  0.00000000  1
  Ca  Ca1  1  0.99992031  0.90184112  0.58828727  1
  Ca  Ca2  1  0.00007969  0.31355384  0.41171273  1
  Zn  Zn3  1  0.00000000  0.31652360  0.00000000  1
  Ge  Ge4  1  0.49406755  0.55418909  0.24260765  1
  Ge  Ge5  1  0.50593245  0.31158144  0.75739235  1
  Ge  Ge6  1  0.47798260  0.64753612  0.66740657  1
  Ge  Ge7  1  0.52201740  0.98012954  0.33259343  1
  Ge  Ge8  1  0.50000000  0.07846132  0.00000000  1
  O  O9  1  0.73245541  0.39256085  0.22714663  1
  O  O10  1  0.26754459  0.16541422  0.77285337  1
  O  O11  1  0.68321855  0.77713601  0.32323254  1
  O  O12  1  0.31678145  0.45390348  0.67676746  1
  O  O13  1  0.31707077  0.84993555  0.85629228  1
  O  O14  1  0.68292923  0.99364328  0.14370772  1
  O  O15  1  0.74713969  0.08135841  0.85389296  1
  O  O16  1  0.25286031  0.22746545  0.14610704  1
  O  O17  1  0.81280643  0.64711821  0.66353540  1
  O  O18  1  0.18719357  0.98358281  0.33646460  1
  O  O19  1  0.25547378  0.55001547  0.08709186  1
  O  O20  1  0.74452622  0.46292361  0.91290814  1
  O  O21  1  0.31050357  0.63294621  0.46463939  1
  O  O22  1  0.68949643  0.16830681  0.53536061  1
