# generated using pymatgen
data_La2B8O15
_symmetry_space_group_name_H-M   'P 1'
_cell_length_a   9.26559794
_cell_length_b   4.25583302
_cell_length_c   12.61622042
_cell_angle_alpha   90.00000000
_cell_angle_beta   116.65115592
_cell_angle_gamma   90.00000000
_symmetry_Int_Tables_number   1
_chemical_formula_structural   La2B8O15
_chemical_formula_sum   'La4 B16 O30'
_cell_volume   444.63674247
_cell_formula_units_Z   2
loop_
 _symmetry_equiv_pos_site_id
 _symmetry_equiv_pos_as_xyz
  1  'x, y, z'
loop_
 _atom_site_type_symbol
 _atom_site_label
 _atom_site_symmetry_multiplicity
 _atom_site_fract_x
 _atom_site_fract_y
 _atom_site_fract_z
 _atom_site_occupancy
  La  La0  1  0.14365980  0.73517161  0.94813718  1
  La  La1  1  0.85634020  0.73517161  0.55186282  1
  La  La2  1  0.85634020  0.26482839  0.05186282  1
  La  La3  1  0.14365980  0.26482839  0.44813718  1
  B  B4  1  0.10723798  0.78566608  0.20437931  1
  B  B5  1  0.89276202  0.78566608  0.29562069  1
  B  B6  1  0.89276202  0.21433392  0.79562069  1
  B  B7  1  0.10723798  0.21433392  0.70437931  1
  B  B8  1  0.28402829  0.26909342  0.23452392  1
  B  B9  1  0.71597171  0.26909342  0.26547608  1
  B  B10  1  0.71597171  0.73090658  0.76547608  1
  B  B11  1  0.28402829  0.73090658  0.73452392  1
  B  B12  1  0.59517847  0.78220629  0.12667135  1
  B  B13  1  0.40482153  0.78220629  0.37332865  1
  B  B14  1  0.40482153  0.21779371  0.87332865  1
  B  B15  1  0.59517847  0.21779371  0.62667135  1
  B  B16  1  0.41540515  0.29224499  0.08668169  1
  B  B17  1  0.58459485  0.29224499  0.41331831  1
  B  B18  1  0.58459485  0.70775501  0.91331831  1
  B  B19  1  0.41540515  0.70775501  0.58668169  1
  O  O20  1  0.02900141  0.74086265  0.07889894  1
  O  O21  1  0.97099859  0.74086265  0.42110106  1
  O  O22  1  0.97099859  0.25913735  0.92110106  1
  O  O23  1  0.02900141  0.25913735  0.57889894  1
  O  O24  1  0.14160814  0.12097354  0.23522520  1
  O  O25  1  0.85839186  0.12097354  0.26477480  1
  O  O26  1  0.85839186  0.87902646  0.76477480  1
  O  O27  1  0.14160814  0.87902646  0.73522520  1
  O  O28  1  0.27552983  0.38164096  0.76423575  1
  O  O29  1  0.72447017  0.38164096  0.73576425  1
  O  O30  1  0.72447017  0.61835904  0.23576425  1
  O  O31  1  0.27552983  0.61835904  0.26423575  1
  O  O32  1  0.28880580  0.22713846  0.12290825  1
  O  O33  1  0.71119420  0.22713846  0.37709175  1
  O  O34  1  0.71119420  0.77286154  0.87709175  1
  O  O35  1  0.28880580  0.77286154  0.62290825  1
  O  O36  1  0.34005295  0.19168680  0.96048603  1
  O  O37  1  0.65994705  0.19168680  0.53951397  1
  O  O38  1  0.65994705  0.80831320  0.03951397  1
  O  O39  1  0.34005295  0.80831320  0.46048603  1
  O  O40  1  0.57336318  0.12205461  0.16104766  1
  O  O41  1  0.42663682  0.12205461  0.33895234  1
  O  O42  1  0.42663682  0.87794539  0.83895234  1
  O  O43  1  0.57336318  0.87794539  0.66104766  1
  O  O44  1  0.44504813  0.62787472  0.09147796  1
  O  O45  1  0.55495187  0.62787472  0.40852204  1
  O  O46  1  0.55495187  0.37212528  0.90852204  1
  O  O47  1  0.44504813  0.37212528  0.59147796  1
  O  O48  1  -0.00000000  0.65273283  0.25000000  1
  O  O49  1  -0.00000000  0.34726717  0.75000000  1
