# generated using pymatgen
data_NaMn2O4
_symmetry_space_group_name_H-M   'P 1'
_cell_length_a   6.26313704
_cell_length_b   6.26292111
_cell_length_c   8.43026198
_cell_angle_alpha   90.00090580
_cell_angle_beta   90.00084605
_cell_angle_gamma   85.22228826
_symmetry_Int_Tables_number   1
_chemical_formula_structural   NaMn2O4
_chemical_formula_sum   'Na4 Mn8 O16'
_cell_volume   329.53251339
_cell_formula_units_Z   4
loop_
 _symmetry_equiv_pos_site_id
 _symmetry_equiv_pos_as_xyz
  1  'x, y, z'
loop_
 _atom_site_type_symbol
 _atom_site_label
 _atom_site_symmetry_multiplicity
 _atom_site_fract_x
 _atom_site_fract_y
 _atom_site_fract_z
 _atom_site_occupancy
  Na  Na0  1  0.00525845  0.00537271  1.00002091  1
  Na  Na1  1  0.97713029  0.52284358  0.25003350  1
  Na  Na2  1  0.49473181  0.49464236  0.50001060  1
  Na  Na3  1  0.52289058  0.97709251  0.75001891  1
  Mn  Mn4  1  0.75924356  0.01389855  0.37257609  1
  Mn  Mn5  1  0.25911515  0.01155370  0.37752301  1
  Mn  Mn6  1  0.01403179  0.75927975  0.62743880  1
  Mn  Mn7  1  0.01163474  0.25926311  0.62246715  1
  Mn  Mn8  1  0.24088226  0.48844603  0.87756138  1
  Mn  Mn9  1  0.74071549  0.48607200  0.87255781  1
  Mn  Mn10  1  0.48840898  0.24075156  0.12249682  1
  Mn  Mn11  1  0.48596289  0.74074953  0.12742692  1
  O  O12  1  0.01016302  0.29322361  0.85660559  1
  O  O13  1  0.47417809  0.26375190  0.89670003  1
  O  O14  1  0.71488554  0.01017301  0.14324563  1
  O  O15  1  0.29305875  0.01013281  0.14338153  1
  O  O16  1  0.47265421  0.68609483  0.89019707  1
  O  O17  1  0.01032441  0.71495661  0.85674212  1
  O  O18  1  0.68600196  0.47268598  0.10977295  1
  O  O19  1  0.26375138  0.47416817  0.10329881  1
  O  O20  1  0.48964565  0.78507336  0.35674536  1
  O  O21  1  0.02732171  0.81390048  0.39020534  1
  O  O22  1  0.20695285  0.48989827  0.64336117  1
  O  O23  1  0.78512700  0.48978568  0.64322468  1
  O  O24  1  0.02577671  0.23625344  0.39667763  1
  O  O25  1  0.48982899  0.20678474  0.35663485  1
  O  O26  1  0.23627574  0.02583332  0.60330038  1
  O  O27  1  0.81404699  0.02731642  0.60977597  1
