# generated using pymatgen
data_Li9Mn2Co5O16
_symmetry_space_group_name_H-M   'P 1'
_cell_length_a   2.89264068
_cell_length_b   15.29289964
_cell_length_c   6.71069461
_cell_angle_alpha   93.03145338
_cell_angle_beta   77.55367938
_cell_angle_gamma   90.00000056
_symmetry_Int_Tables_number   1
_chemical_formula_structural   Li9Mn2Co5O16
_chemical_formula_sum   'Li9 Mn2 Co5 O16'
_cell_volume   289.45796043
_cell_formula_units_Z   1
loop_
 _symmetry_equiv_pos_site_id
 _symmetry_equiv_pos_as_xyz
  1  'x, y, z'
loop_
 _atom_site_type_symbol
 _atom_site_label
 _atom_site_symmetry_multiplicity
 _atom_site_fract_x
 _atom_site_fract_y
 _atom_site_fract_z
 _atom_site_occupancy
  Li  Li0  1  0.30723561  0.06639838  0.38552877  1
  Li  Li1  1  0.93605858  0.18784759  0.12788283  1
  Li  Li2  1  0.56691866  0.31009735  0.86616269  1
  Li  Li3  1  0.68466197  0.94079101  0.63067607  1
  Li  Li4  1  0.06522743  0.81398653  0.86954514  1
  Li  Li5  1  0.43560719  0.68676468  0.12878562  1
  Li  Li6  1  0.18750187  0.43548768  0.62499625  1
  Li  Li7  1  0.81385285  0.56057862  0.37229431  1
  Li  Li8  1  0.62751214  0.12427427  0.74497571  1
  Mn  Mn9  1  0.00839962  0.00332297  0.98320076  1
  Mn  Mn10  1  0.12650081  0.62429077  0.74699839  1
  Co  Co11  1  0.24067890  0.24411659  0.51864221  1
  Co  Co12  1  0.87034693  0.37176049  0.25930614  1
  Co  Co13  1  0.49463110  0.49792749  0.01073781  1
  Co  Co14  1  0.75312932  0.75229379  0.49374135  1
  Co  Co15  1  0.37602884  0.87746945  0.24794233  1
  O  O16  1  0.47089639  0.08321482  0.05820722  1
  O  O17  1  0.10787587  0.22458046  0.78424826  1
  O  O18  1  0.72425375  0.33845010  0.55149250  1
  O  O19  1  0.85708274  0.96200786  0.28583451  1
  O  O20  1  0.22201917  0.83718288  0.55596166  1
  O  O21  1  0.59700181  0.71111566  0.80599637  1
  O  O22  1  0.34443963  0.46085812  0.31112074  1
  O  O23  1  0.97086296  0.58209743  0.05827408  1
  O  O24  1  0.14351066  0.02840423  0.71297868  1
  O  O25  1  0.78114470  0.16295057  0.43771060  1
  O  O26  1  0.39731651  0.28476828  0.20536697  1
  O  O27  1  0.52903124  0.91567565  0.94193752  1
  O  O28  1  0.90165833  0.79232606  0.19668333  1
  O  O29  1  0.28291455  0.66458581  0.43417090  1
  O  O30  1  0.02225514  0.41494919  0.95548973  1
  O  O31  1  0.65344473  0.53942522  0.69311055  1
