# generated using pymatgen
data_Te8MoW3
_symmetry_space_group_name_H-M   'P 1'
_cell_length_a   3.55517810
_cell_length_b   3.55475430
_cell_length_c   40.12675741
_cell_angle_alpha   89.99980662
_cell_angle_beta   90.00000000
_cell_angle_gamma   120.00394385
_symmetry_Int_Tables_number   1
_chemical_formula_structural   Te8MoW3
_chemical_formula_sum   'Te8 Mo1 W3'
_cell_volume   439.15556242
_cell_formula_units_Z   1
loop_
 _symmetry_equiv_pos_site_id
 _symmetry_equiv_pos_as_xyz
  1  'x, y, z'
loop_
 _atom_site_type_symbol
 _atom_site_label
 _atom_site_symmetry_multiplicity
 _atom_site_fract_x
 _atom_site_fract_y
 _atom_site_fract_z
 _atom_site_occupancy
  Te  Te0  1  0.33334687  0.66669473  0.32699934  1
  Te  Te1  1  0.33334512  0.66669124  0.70278448  1
  Te  Te2  1  0.66665021  0.33329943  0.04866615  1
  Te  Te3  1  0.66665576  0.33331051  0.42439926  1
  Te  Te4  1  0.66665646  0.33331192  0.13920637  1
  Te  Te5  1  0.66665651  0.33331201  0.51492929  1
  Te  Te6  1  0.33334321  0.66668742  0.23660713  1
  Te  Te7  1  0.33334493  0.66669087  0.61225811  1
  Mo  Mo8  1  0.66671170  0.33342340  0.28178982  1
  W  W9  1  0.33328921  0.66657842  0.09392105  1
  W  W10  1  0.33329014  0.66658029  0.46965032  1
  W  W11  1  0.66670988  0.33341975  0.65753667  1
