# generated using pymatgen
data_TeMoWSe3
_symmetry_space_group_name_H-M   'P 1'
_cell_length_a   3.37935733
_cell_length_b   3.37932645
_cell_length_c   38.49260983
_cell_angle_alpha   90.00047516
_cell_angle_beta   90.00000000
_cell_angle_gamma   120.00030235
_symmetry_Int_Tables_number   1
_chemical_formula_structural   TeMoWSe3
_chemical_formula_sum   'Te2 Mo2 W2 Se6'
_cell_volume   380.68952783
_cell_formula_units_Z   2
loop_
 _symmetry_equiv_pos_site_id
 _symmetry_equiv_pos_as_xyz
  1  'x, y, z'
loop_
 _atom_site_type_symbol
 _atom_site_label
 _atom_site_symmetry_multiplicity
 _atom_site_fract_x
 _atom_site_fract_y
 _atom_site_fract_z
 _atom_site_occupancy
  Te  Te0  1  0.66664791  0.33329481  0.42081479  1
  Te  Te1  1  0.66664921  0.33329743  0.51850018  1
  Mo  Mo2  1  0.33330782  0.66661564  0.09392047  1
  Mo  Mo3  1  0.33331048  0.66662096  0.46967039  1
  W  W4  1  0.66668619  0.33337238  0.28178107  1
  W  W5  1  0.66669358  0.33338715  0.65756332  1
  Se  Se6  1  0.33335411  0.66670922  0.32497030  1
  Se  Se7  1  0.33336422  0.66672943  0.70072973  1
  Se  Se8  1  0.66663446  0.33326792  0.05088738  1
  Se  Se9  1  0.66664648  0.33329195  0.13695679  1
  Se  Se10  1  0.33335383  0.66670867  0.23859736  1
  Se  Se11  1  0.33335172  0.66670444  0.61435622  1
