# generated using pymatgen
data_TeMoWSe3
_symmetry_space_group_name_H-M   'P 1'
_cell_length_a   3.37900195
_cell_length_b   3.37899444
_cell_length_c   38.43970391
_cell_angle_alpha   90.00018656
_cell_angle_beta   90.00000000
_cell_angle_gamma   120.00007365
_symmetry_Int_Tables_number   1
_chemical_formula_structural   TeMoWSe3
_chemical_formula_sum   'Te2 Mo2 W2 Se6'
_cell_volume   380.08984131
_cell_formula_units_Z   2
loop_
 _symmetry_equiv_pos_site_id
 _symmetry_equiv_pos_as_xyz
  1  'x, y, z'
loop_
 _atom_site_type_symbol
 _atom_site_label
 _atom_site_symmetry_multiplicity
 _atom_site_fract_x
 _atom_site_fract_y
 _atom_site_fract_z
 _atom_site_occupancy
  Te  Te0  1  0.66663849  0.33327598  0.04504040  1
  Te  Te1  1  0.66664680  0.33329260  0.14278677  1
  Mo  Mo2  1  0.33330960  0.66661920  0.09388544  1
  Mo  Mo3  1  0.33331069  0.66662138  0.46966566  1
  W  W4  1  0.66668713  0.33337426  0.28180402  1
  W  W5  1  0.66669503  0.33339006  0.65755139  1
  Se  Se6  1  0.33335635  0.66671369  0.32500441  1
  Se  Se7  1  0.33335783  0.66671667  0.70071607  1
  Se  Se8  1  0.66664634  0.33329169  0.42664381  1
  Se  Se9  1  0.66665069  0.33330037  0.51267497  1
  Se  Se10  1  0.33334894  0.66669887  0.23862745  1
  Se  Se11  1  0.33335211  0.66670522  0.61434760  1
