# generated using pymatgen
data_Te2Mo(WSe2)3
_symmetry_space_group_name_H-M   'P 1'
_cell_length_a   3.37850978
_cell_length_b   3.37850715
_cell_length_c   38.53096034
_cell_angle_alpha   89.99960510
_cell_angle_beta   90.00000000
_cell_angle_gamma   120.00002575
_symmetry_Int_Tables_number   1
_chemical_formula_structural   Te2Mo(WSe2)3
_chemical_formula_sum   'Te2 Mo1 W3 Se6'
_cell_volume   380.88193543
_cell_formula_units_Z   1
loop_
 _symmetry_equiv_pos_site_id
 _symmetry_equiv_pos_as_xyz
  1  'x, y, z'
loop_
 _atom_site_type_symbol
 _atom_site_label
 _atom_site_symmetry_multiplicity
 _atom_site_fract_x
 _atom_site_fract_y
 _atom_site_fract_z
 _atom_site_occupancy
  Te  Te0  1  0.33336166  0.66672433  0.33059249  1
  Te  Te1  1  0.33335701  0.66671502  0.23302253  1
  Mo  Mo2  1  0.66669119  0.33338238  0.28179491  1
  W  W3  1  0.33330830  0.66661660  0.09389624  1
  W  W4  1  0.33331197  0.66662394  0.46968073  1
  W  W5  1  0.66668975  0.33337951  0.65752905  1
  Se  Se6  1  0.33335358  0.66670817  0.70067236  1
  Se  Se7  1  0.66663773  0.33327445  0.05077124  1
  Se  Se8  1  0.66663906  0.33327711  0.42654868  1
  Se  Se9  1  0.66664850  0.33329600  0.13705043  1
  Se  Se10  1  0.66665034  0.33329968  0.51280150  1
  Se  Se11  1  0.33335090  0.66670280  0.61438784  1
