# generated using pymatgen
data_Co(NiSe2)2
_symmetry_space_group_name_H-M   'P 1'
_cell_length_a   3.63475854
_cell_length_b   6.16496891
_cell_length_c   6.18899451
_cell_angle_alpha   117.71407478
_cell_angle_beta   107.07641942
_cell_angle_gamma   90.00000000
_symmetry_Int_Tables_number   1
_chemical_formula_structural   Co(NiSe2)2
_chemical_formula_sum   'Co1 Ni2 Se4'
_cell_volume   115.82328867
_cell_formula_units_Z   1
loop_
 _symmetry_equiv_pos_site_id
 _symmetry_equiv_pos_as_xyz
  1  'x, y, z'
loop_
 _atom_site_type_symbol
 _atom_site_label
 _atom_site_symmetry_multiplicity
 _atom_site_fract_x
 _atom_site_fract_y
 _atom_site_fract_z
 _atom_site_occupancy
  Co  Co0  1  -0.00000000  0.00000000  -0.00000000  1
  Ni  Ni1  1  0.26407361  0.28964273  0.52814722  1
  Ni  Ni2  1  0.73592639  0.71035727  0.47185278  1
  Se  Se3  1  0.11421598  0.45107516  0.22843197  1
  Se  Se4  1  0.88578402  0.54892484  0.77156803  1
  Se  Se5  1  0.36726042  0.02055703  0.73452084  1
  Se  Se6  1  0.63273958  0.97944297  0.26547916  1
