# generated using pymatgen
data_Te6Mo3WSe2
_symmetry_space_group_name_H-M   'P 1'
_cell_length_a   3.49678409
_cell_length_b   3.49675090
_cell_length_c   39.64073215
_cell_angle_alpha   90.00020857
_cell_angle_beta   90.00000000
_cell_angle_gamma   120.00031404
_symmetry_Int_Tables_number   1
_chemical_formula_structural   Te6Mo3WSe2
_chemical_formula_sum   'Te6 Mo3 W1 Se2'
_cell_volume   419.76327324
_cell_formula_units_Z   1
loop_
 _symmetry_equiv_pos_site_id
 _symmetry_equiv_pos_as_xyz
  1  'x, y, z'
loop_
 _atom_site_type_symbol
 _atom_site_label
 _atom_site_symmetry_multiplicity
 _atom_site_fract_x
 _atom_site_fract_y
 _atom_site_fract_z
 _atom_site_occupancy
  Te  Te0  1  0.33335704  0.66671508  0.32807780  1
  Te  Te1  1  0.66663726  0.33327353  0.04764159  1
  Te  Te2  1  0.66664195  0.33328290  0.42339071  1
  Te  Te3  1  0.66664316  0.33328532  0.14020624  1
  Te  Te4  1  0.66664857  0.33329613  0.51594246  1
  Te  Te5  1  0.33335442  0.66670984  0.23552063  1
  Mo  Mo6  1  0.33330977  0.66661954  0.09390325  1
  Mo  Mo7  1  0.33331007  0.66662014  0.46968552  1
  Mo  Mo8  1  0.66669455  0.33338910  0.28180141  1
  W  W9  1  0.66669027  0.33338054  0.65753851  1
  Se  Se10  1  0.33335660  0.66671419  0.69847170  1
  Se  Se11  1  0.33335635  0.66671369  0.61656819  1
