# generated using pymatgen
data_CsCa2Ta3O10
_symmetry_space_group_name_H-M   'P 1'
_cell_length_a   3.95063400
_cell_length_b   3.95063400
_cell_length_c   15.51355158
_cell_angle_alpha   90.00000000
_cell_angle_beta   90.00000000
_cell_angle_gamma   90.00000000
_symmetry_Int_Tables_number   1
_chemical_formula_structural   CsCa2Ta3O10
_chemical_formula_sum   'Cs1 Ca2 Ta3 O10'
_cell_volume   242.12789594
_cell_formula_units_Z   1
loop_
 _symmetry_equiv_pos_site_id
 _symmetry_equiv_pos_as_xyz
  1  'x, y, z'
loop_
 _atom_site_type_symbol
 _atom_site_label
 _atom_site_symmetry_multiplicity
 _atom_site_fract_x
 _atom_site_fract_y
 _atom_site_fract_z
 _atom_site_occupancy
  O  O0  1  0.00000000  0.00000000  0.60863501  1
  O  O1  1  0.00000000  0.00000000  0.39136499  1
  O  O2  1  0.50000000  0.00000000  0.75124812  1
  O  O3  1  0.00000000  0.50000000  0.75124812  1
  O  O4  1  0.50000000  0.00000000  0.24875188  1
  O  O5  1  0.00000000  0.50000000  0.24875188  1
  O  O6  1  0.00000000  0.50000000  0.00000000  1
  O  O7  1  0.50000000  0.00000000  0.00000000  1
  O  O8  1  0.00000000  0.00000000  0.12695752  1
  O  O9  1  0.00000000  0.00000000  0.87304248  1
  Ca  Ca10  1  0.50000000  0.50000000  0.85189288  1
  Ca  Ca11  1  0.50000000  0.50000000  0.14810712  1
  Cs  Cs12  1  0.50000000  0.50000000  0.50000000  1
  Ta  Ta13  1  0.00000000  0.00000000  0.00000000  1
  Ta  Ta14  1  0.00000000  0.00000000  0.27543826  1
  Ta  Ta15  1  0.00000000  0.00000000  0.72456174  1
