# generated using pymatgen
data_Te8MoW3
_symmetry_space_group_name_H-M   'P 1'
_cell_length_a   3.55905764
_cell_length_b   3.55891131
_cell_length_c   40.14818746
_cell_angle_alpha   90.00030914
_cell_angle_beta   90.00000000
_cell_angle_gamma   120.00136014
_symmetry_Int_Tables_number   1
_chemical_formula_structural   Te8MoW3
_chemical_formula_sum   'Te8 Mo1 W3'
_cell_volume   440.39543569
_cell_formula_units_Z   1
loop_
 _symmetry_equiv_pos_site_id
 _symmetry_equiv_pos_as_xyz
  1  'x, y, z'
loop_
 _atom_site_type_symbol
 _atom_site_label
 _atom_site_symmetry_multiplicity
 _atom_site_fract_x
 _atom_site_fract_y
 _atom_site_fract_z
 _atom_site_occupancy
  Te  Te0  1  0.33335455  0.66671010  0.32707480  1
  Te  Te1  1  0.33335090  0.66670280  0.70277950  1
  Te  Te2  1  0.66664708  0.33329316  0.04881819  1
  Te  Te3  1  0.66664997  0.33329893  0.42438719  1
  Te  Te4  1  0.66665140  0.33330179  0.13904135  1
  Te  Te5  1  0.66664877  0.33329654  0.51492135  1
  Te  Te6  1  0.33334902  0.66669905  0.23651187  1
  Te  Te7  1  0.33335034  0.66670167  0.61226168  1
  Mo  Mo8  1  0.33330594  0.66661188  0.09391778  1
  W  W9  1  0.33330806  0.66661612  0.46967488  1
  W  W10  1  0.66669196  0.33338392  0.28181528  1
  W  W11  1  0.66669202  0.33338403  0.65754413  1
