# generated using pymatgen
data_Te2Mo(WSe2)3
_symmetry_space_group_name_H-M   'P 1'
_cell_length_a   3.37795113
_cell_length_b   3.37790065
_cell_length_c   38.52153754
_cell_angle_alpha   89.99995275
_cell_angle_beta   90.00000000
_cell_angle_gamma   120.00049429
_symmetry_Int_Tables_number   1
_chemical_formula_structural   Te2Mo(WSe2)3
_chemical_formula_sum   'Te2 Mo1 W3 Se6'
_cell_volume   380.65568072
_cell_formula_units_Z   1
loop_
 _symmetry_equiv_pos_site_id
 _symmetry_equiv_pos_as_xyz
  1  'x, y, z'
loop_
 _atom_site_type_symbol
 _atom_site_label
 _atom_site_symmetry_multiplicity
 _atom_site_fract_x
 _atom_site_fract_y
 _atom_site_fract_z
 _atom_site_occupancy
  Te  Te0  1  0.66664579  0.33329058  0.04505118  1
  Te  Te1  1  0.66664540  0.33328979  0.14278830  1
  Mo  Mo2  1  0.33330499  0.66660999  0.09391326  1
  W  W3  1  0.33331055  0.66662110  0.46966666  1
  W  W4  1  0.66668751  0.33337503  0.28181417  1
  W  W5  1  0.66668870  0.33337740  0.65753332  1
  Se  Se6  1  0.33336296  0.66672691  0.32501333  1
  Se  Se7  1  0.33335408  0.66670916  0.70073693  1
  Se  Se8  1  0.66664654  0.33329208  0.42646436  1
  Se  Se9  1  0.66664515  0.33328930  0.51286378  1
  Se  Se10  1  0.33335253  0.66670607  0.23858740  1
  Se  Se11  1  0.33335580  0.66671259  0.61431531  1
