# generated using pymatgen
data_Li9Mn2Co5O16
_symmetry_space_group_name_H-M   'P 1'
_cell_length_a   2.92614739
_cell_length_b   15.41892265
_cell_length_c   6.60674604
_cell_angle_alpha   91.89844160
_cell_angle_beta   77.20569085
_cell_angle_gamma   90.00000028
_symmetry_Int_Tables_number   1
_chemical_formula_structural   Li9Mn2Co5O16
_chemical_formula_sum   'Li9 Mn2 Co5 O16'
_cell_volume   290.51464495
_cell_formula_units_Z   1
loop_
 _symmetry_equiv_pos_site_id
 _symmetry_equiv_pos_as_xyz
  1  'x, y, z'
loop_
 _atom_site_type_symbol
 _atom_site_label
 _atom_site_symmetry_multiplicity
 _atom_site_fract_x
 _atom_site_fract_y
 _atom_site_fract_z
 _atom_site_occupancy
  Li  Li0  1  0.30975373  0.06759072  0.38049254  1
  Li  Li1  1  0.93157568  0.19575703  0.13684865  1
  Li  Li2  1  0.56484204  0.31811315  0.87031592  1
  Li  Li3  1  0.69106827  0.93526078  0.61786346  1
  Li  Li4  1  0.06267183  0.80847460  0.87465634  1
  Li  Li5  1  0.43774451  0.68347408  0.12451098  1
  Li  Li6  1  0.18802425  0.43463629  0.62395149  1
  Li  Li7  1  0.81313682  0.55973601  0.37372636  1
  Li  Li8  1  0.25312178  0.25039097  0.49375643  1
  Mn  Mn9  1  0.99991520  0.00039631  0.00016960  1
  Mn  Mn10  1  0.63354202  0.12886467  0.73291596  1
  Co  Co11  1  0.86543499  0.36865268  0.26913002  1
  Co  Co12  1  0.49525627  0.49657363  0.00948747  1
  Co  Co13  1  0.12141541  0.62323766  0.75716917  1
  Co  Co14  1  0.74874344  0.74809809  0.50251313  1
  Co  Co15  1  0.37188501  0.87301946  0.25622998  1
  O  O16  1  0.47909755  0.08493618  0.04180489  1
  O  O17  1  0.09748973  0.20531970  0.80502053  1
  O  O18  1  0.72942060  0.34796249  0.54115880  1
  O  O19  1  0.84802801  0.96184091  0.30394398  1
  O  O20  1  0.22251534  0.83878313  0.55496932  1
  O  O21  1  0.59783929  0.71521317  0.80432141  1
  O  O22  1  0.35313587  0.46672941  0.29372826  1
  O  O23  1  0.97330550  0.59003189  0.05338900  1
  O  O24  1  0.15174087  0.04036803  0.69651826  1
  O  O25  1  0.77087422  0.15190029  0.45825156  1
  O  O26  1  0.40733356  0.28808314  0.18533288  1
  O  O27  1  0.52758681  0.91619684  0.94482638  1
  O  O28  1  0.90229099  0.78872178  0.19541802  1
  O  O29  1  0.27535351  0.66368345  0.44929297  1
  O  O30  1  0.02707315  0.41122857  0.94585370  1
  O  O31  1  0.64878373  0.53672489  0.70243254  1
