# generated using pymatgen
data_TeMoWSe3
_symmetry_space_group_name_H-M   'P 1'
_cell_length_a   3.38079466
_cell_length_b   3.38073055
_cell_length_c   38.51732573
_cell_angle_alpha   90.00064353
_cell_angle_beta   90.00000000
_cell_angle_gamma   120.00062733
_symmetry_Int_Tables_number   1
_chemical_formula_structural   TeMoWSe3
_chemical_formula_sum   'Te2 Mo2 W2 Se6'
_cell_volume   381.25308293
_cell_formula_units_Z   2
loop_
 _symmetry_equiv_pos_site_id
 _symmetry_equiv_pos_as_xyz
  1  'x, y, z'
loop_
 _atom_site_type_symbol
 _atom_site_label
 _atom_site_symmetry_multiplicity
 _atom_site_fract_x
 _atom_site_fract_y
 _atom_site_fract_z
 _atom_site_occupancy
  Te  Te0  1  0.33335018  0.66670137  0.33066752  1
  Te  Te1  1  0.33335273  0.66670646  0.23292128  1
  Mo  Mo2  1  0.33330417  0.66660835  0.09392519  1
  Mo  Mo3  1  0.66669539  0.33339078  0.28180236  1
  W  W4  1  0.33331486  0.66662972  0.46967465  1
  W  W5  1  0.66669406  0.33338813  0.65752977  1
  Se  Se6  1  0.33335719  0.66671538  0.70069252  1
  Se  Se7  1  0.66663934  0.33327768  0.05090369  1
  Se  Se8  1  0.66665603  0.33331105  0.42650584  1
  Se  Se9  1  0.66663387  0.33326675  0.13694847  1
  Se  Se10  1  0.66665007  0.33329913  0.51282482  1
  Se  Se11  1  0.33335211  0.66670521  0.61435187  1
