# generated using pymatgen
data_Te6Mo3WSe2
_symmetry_space_group_name_H-M   'P 1'
_cell_length_a   3.49645433
_cell_length_b   3.49645217
_cell_length_c   39.60687044
_cell_angle_alpha   90.00029421
_cell_angle_beta   90.00000000
_cell_angle_gamma   120.00002035
_symmetry_Int_Tables_number   1
_chemical_formula_structural   Te6Mo3WSe2
_chemical_formula_sum   'Te6 Mo3 W1 Se2'
_cell_volume   419.33056739
_cell_formula_units_Z   1
loop_
 _symmetry_equiv_pos_site_id
 _symmetry_equiv_pos_as_xyz
  1  'x, y, z'
loop_
 _atom_site_type_symbol
 _atom_site_label
 _atom_site_symmetry_multiplicity
 _atom_site_fract_x
 _atom_site_fract_y
 _atom_site_fract_z
 _atom_site_occupancy
  Te  Te0  1  0.33335567  0.66671234  0.32809979  1
  Te  Te1  1  0.33335387  0.66670874  0.70382249  1
  Te  Te2  1  0.66663704  0.33327307  0.04762889  1
  Te  Te3  1  0.66664909  0.33329717  0.14022424  1
  Te  Te4  1  0.33335248  0.66670597  0.23550320  1
  Te  Te5  1  0.33335519  0.66671138  0.61122478  1
  Mo  Mo6  1  0.33330896  0.66661793  0.09390581  1
  Mo  Mo7  1  0.66669221  0.33338443  0.28182095  1
  Mo  Mo8  1  0.66669033  0.33338067  0.65753358  1
  W  W9  1  0.33331296  0.66662592  0.46966284  1
  Se  Se10  1  0.66664491  0.33328883  0.42866357  1
  Se  Se11  1  0.66664728  0.33329355  0.51065786  1
