# generated using pymatgen
data_SrZnFe(PO4)2
_symmetry_space_group_name_H-M   'P 1'
_cell_length_a   5.52889017
_cell_length_b   6.95250116
_cell_length_c   9.51890171
_cell_angle_alpha   110.33719821
_cell_angle_beta   102.13582981
_cell_angle_gamma   98.08322582
_symmetry_Int_Tables_number   1
_chemical_formula_structural   SrZnFe(PO4)2
_chemical_formula_sum   'Sr2 Zn2 Fe2 P4 O16'
_cell_volume   326.18706953
_cell_formula_units_Z   2
loop_
 _symmetry_equiv_pos_site_id
 _symmetry_equiv_pos_as_xyz
  1  'x, y, z'
loop_
 _atom_site_type_symbol
 _atom_site_label
 _atom_site_symmetry_multiplicity
 _atom_site_fract_x
 _atom_site_fract_y
 _atom_site_fract_z
 _atom_site_occupancy
  Sr  Sr0  1  0.25069018  0.79761439  0.05011823  1
  Sr  Sr1  1  0.74930982  0.20238561  0.94988177  1
  Zn  Zn2  1  0.99645582  0.38019837  0.64147926  1
  Zn  Zn3  1  0.00354418  0.61980163  0.35852074  1
  Fe  Fe4  1  0.62603906  0.84286933  0.55509956  1
  Fe  Fe5  1  0.37396094  0.15713067  0.44490044  1
  P  P6  1  0.39074317  0.41982152  0.22964793  1
  P  P7  1  0.60925683  0.58017848  0.77035207  1
  P  P8  1  0.84402594  0.02254850  0.30007084  1
  P  P9  1  0.15597406  0.97745150  0.69992916  1
  O  O10  1  0.80682901  0.56158583  0.90235639  1
  O  O11  1  0.66465337  0.47468714  0.21387866  1
  O  O12  1  0.66227066  0.80148755  0.76573918  1
  O  O13  1  0.95091872  0.11439318  0.69301602  1
  O  O14  1  0.33534663  0.52531286  0.78612134  1
  O  O15  1  0.00422870  0.74781341  0.58235797  1
  O  O16  1  0.99577130  0.25218659  0.41764203  1
  O  O17  1  0.25586878  0.99630190  0.86697666  1
  O  O18  1  0.33772934  0.19851245  0.23426082  1
  O  O19  1  0.74413122  0.00369810  0.13302334  1
  O  O20  1  0.19317099  0.43841417  0.09764361  1
  O  O21  1  0.36292881  0.58496865  0.38663228  1
  O  O22  1  0.63707119  0.41503135  0.61336772  1
  O  O23  1  0.62143515  0.94786435  0.36110512  1
  O  O24  1  0.04908128  0.88560682  0.30698398  1
  O  O25  1  0.37856485  0.05213565  0.63889488  1
