# generated using pymatgen
data_Ba2ZnCr2CuF14
_symmetry_space_group_name_H-M   'P 1'
_cell_length_a   5.31427117
_cell_length_b   7.57030995
_cell_length_c   14.73557357
_cell_angle_alpha   91.43121800
_cell_angle_beta   90.04079506
_cell_angle_gamma   110.50822067
_symmetry_Int_Tables_number   1
_chemical_formula_structural   Ba2ZnCr2CuF14
_chemical_formula_sum   'Ba4 Zn2 Cr4 Cu2 F28'
_cell_volume   555.04865524
_cell_formula_units_Z   2
loop_
 _symmetry_equiv_pos_site_id
 _symmetry_equiv_pos_as_xyz
  1  'x, y, z'
loop_
 _atom_site_type_symbol
 _atom_site_label
 _atom_site_symmetry_multiplicity
 _atom_site_fract_x
 _atom_site_fract_y
 _atom_site_fract_z
 _atom_site_occupancy
  Ba  Ba0  1  0.11374041  0.37280221  0.62436419  1
  Ba  Ba1  1  0.25843496  0.37340593  0.12450152  1
  Ba  Ba2  1  0.88664271  0.62654044  0.37795204  1
  Ba  Ba3  1  0.73837950  0.62657824  0.87783562  1
  Zn  Zn4  1  0.43266722  0.00064557  0.75058639  1
  Zn  Zn5  1  0.56610279  0.99958984  0.25033445  1
  Cr  Cr6  1  0.10078529  0.23918542  0.87417112  1
  Cr  Cr7  1  0.89657793  0.76028245  0.12747550  1
  Cr  Cr8  1  0.13720558  0.23886701  0.37384922  1
  Cr  Cr9  1  0.86219276  0.75940486  0.62781093  1
  Cu  Cu10  1  0.49793223  0.00055157  0.00075444  1
  Cu  Cu11  1  0.50094976  0.99973311  0.50045719  1
  F  F12  1  0.89467986  0.98818454  0.33971297  1
  F  F13  1  0.87013534  0.27529050  0.45545807  1
  F  F14  1  0.13120824  0.72414946  0.54692604  1
  F  F15  1  0.65297933  0.50086091  0.59675755  1
  F  F16  1  0.60792648  0.09552302  0.62262629  1
  F  F17  1  0.50906096  0.90433064  0.87786681  1
  F  F18  1  0.40365376  0.27514071  0.95584131  1
  F  F19  1  0.90378586  0.01059541  0.16231955  1
  F  F20  1  0.35842757  0.32688097  0.77780360  1
  F  F21  1  0.34691870  0.49854964  0.40431593  1
  F  F22  1  0.80680417  0.22582299  0.78991532  1
  F  F23  1  0.15164281  0.49908051  0.90393745  1
  F  F24  1  0.41721818  0.22527998  0.28996413  1
  F  F25  1  0.19324489  0.77288796  0.21045379  1
  F  F26  1  0.48677528  0.09620092  0.12290783  1
  F  F27  1  0.64180736  0.66907102  0.22430218  1
  F  F28  1  0.12212905  0.83778310  0.01808501  1
  F  F29  1  0.10623245  0.01052829  0.66283516  1
  F  F30  1  0.87291968  0.16334118  0.98319939  1
  F  F31  1  0.71429240  0.83716523  0.51814967  1
  F  F32  1  0.59176518  0.72440958  0.04671307  1
  F  F33  1  0.57977792  0.77311609  0.71101906  1
  F  F34  1  0.96861674  0.32898354  0.27765631  1
  F  F35  1  0.28734189  0.16162598  0.48295670  1
  F  F36  1  0.39269530  0.90286402  0.37773674  1
  F  F37  1  0.08970582  0.98760054  0.84040681  1
  F  F38  1  0.02709431  0.66886322  0.72445190  1
  F  F39  1  0.84707733  0.50081941  0.09623271  1
