# generated using pymatgen
data_V2ZnCuO7
_symmetry_space_group_name_H-M   'P 1'
_cell_length_a   8.32924487
_cell_length_b   10.85172178
_cell_length_c   10.19738211
_cell_angle_alpha   93.71191923
_cell_angle_beta   90.00000000
_cell_angle_gamma   90.00000000
_symmetry_Int_Tables_number   1
_chemical_formula_structural   V2ZnCuO7
_chemical_formula_sum   'V12 Zn6 Cu6 O42'
_cell_volume   919.77360365
_cell_formula_units_Z   6
loop_
 _symmetry_equiv_pos_site_id
 _symmetry_equiv_pos_as_xyz
  1  'x, y, z'
loop_
 _atom_site_type_symbol
 _atom_site_label
 _atom_site_symmetry_multiplicity
 _atom_site_fract_x
 _atom_site_fract_y
 _atom_site_fract_z
 _atom_site_occupancy
  V  V0  1  0.22224619  0.15935506  0.28264255  1
  V  V1  1  0.73723584  0.16943374  0.38038449  1
  V  V2  1  0.26276416  0.16943374  0.88038449  1
  V  V3  1  0.77775381  0.15935506  0.78264255  1
  V  V4  1  0.27952735  0.47364808  0.95579830  1
  V  V5  1  0.73723584  0.83056626  0.11961551  1
  V  V6  1  0.72047265  0.47364808  0.45579830  1
  V  V7  1  0.26276416  0.83056626  0.61961551  1
  V  V8  1  0.27952735  0.52635192  0.54420170  1
  V  V9  1  0.72047265  0.52635192  0.04420170  1
  V  V10  1  0.77775381  0.84064494  0.71735745  1
  V  V11  1  0.22224619  0.84064494  0.21735745  1
  Zn  Zn12  1  0.43067358  0.12666342  0.57486237  1
  Zn  Zn13  1  0.93284872  0.50000000  0.75000000  1
  Zn  Zn14  1  0.43067358  0.87333658  0.92513763  1
  Zn  Zn15  1  0.06715128  0.50000000  0.25000000  1
  Zn  Zn16  1  0.56932642  0.87333658  0.42513763  1
  Zn  Zn17  1  0.56932642  0.12666342  0.07486237  1
  Cu  Cu18  1  0.92694643  0.80408424  0.41392204  1
  Cu  Cu19  1  0.07305357  0.19591576  0.58607796  1
  Cu  Cu20  1  0.43201969  0.50000000  0.25000000  1
  Cu  Cu21  1  0.92694643  0.19591576  0.08607796  1
  Cu  Cu22  1  0.56798031  0.50000000  0.75000000  1
  Cu  Cu23  1  0.07305357  0.80408424  0.91392204  1
  O  O24  1  0.74923335  0.18722173  0.95587410  1
  O  O25  1  0.75844791  0.83530116  0.29176478  1
  O  O26  1  0.83582031  0.00000000  0.75000000  1
  O  O27  1  0.90106273  0.50940263  0.11391210  1
  O  O28  1  0.40180827  0.93869811  0.57296866  1
  O  O29  1  0.92171496  0.25519397  0.71971524  1
  O  O30  1  0.34414067  0.31473390  0.93352980  1
  O  O31  1  0.09893727  0.50940263  0.61391210  1
  O  O32  1  0.74215634  0.48699649  0.87322901  1
  O  O33  1  0.40180827  0.06130189  0.92703134  1
  O  O34  1  0.74215634  0.51300351  0.62677099  1
  O  O35  1  0.41961733  0.56077186  0.88099203  1
  O  O36  1  0.91603512  0.84816194  0.04329452  1
  O  O37  1  0.07828504  0.25519397  0.21971524  1
  O  O38  1  0.65585933  0.68526610  0.06647020  1
  O  O39  1  0.34414067  0.68526610  0.56647020  1
  O  O40  1  0.92171496  0.74480603  0.78028476  1
  O  O41  1  0.59819173  0.06130189  0.42703134  1
  O  O42  1  0.25076665  0.18722173  0.45587410  1
  O  O43  1  0.58038267  0.43922814  0.11900797  1
  O  O44  1  0.39787449  0.82036864  0.29635724  1
  O  O45  1  0.25784366  0.51300351  0.12677099  1
  O  O46  1  0.08396488  0.84816194  0.54329452  1
  O  O47  1  0.25784366  0.48699649  0.37322901  1
  O  O48  1  0.90106273  0.49059737  0.38608790  1
  O  O49  1  0.58038267  0.56077186  0.38099203  1
  O  O50  1  0.09893727  0.49059737  0.88608790  1
  O  O51  1  0.60212551  0.82036864  0.79635724  1
  O  O52  1  0.60212551  0.17963136  0.70364276  1
  O  O53  1  0.08396488  0.15183806  0.95670548  1
  O  O54  1  0.07828504  0.74480603  0.28028476  1
  O  O55  1  0.74923335  0.81277827  0.54412590  1
  O  O56  1  0.16417969  0.00000000  0.25000000  1
  O  O57  1  0.24155209  0.83530116  0.79176478  1
  O  O58  1  0.59819173  0.93869811  0.07296866  1
  O  O59  1  0.91603512  0.15183806  0.45670548  1
  O  O60  1  0.25076665  0.81277827  0.04412590  1
  O  O61  1  0.75844791  0.16469884  0.20823522  1
  O  O62  1  0.41961733  0.43922814  0.61900797  1
  O  O63  1  0.65585933  0.31473390  0.43352980  1
  O  O64  1  0.24155209  0.16469884  0.70823522  1
  O  O65  1  0.39787449  0.17963136  0.20364276  1
