# generated using pymatgen
data_Ca2Al2O5
_symmetry_space_group_name_H-M   'P 1'
_cell_length_a   5.28545452
_cell_length_b   5.46463549
_cell_length_c   8.18269327
_cell_angle_alpha   109.50771916
_cell_angle_beta   108.84235826
_cell_angle_gamma   89.99999999
_symmetry_Int_Tables_number   1
_chemical_formula_structural   Ca2Al2O5
_chemical_formula_sum   'Ca4 Al4 O10'
_cell_volume   209.28982047
_cell_formula_units_Z   2
loop_
 _symmetry_equiv_pos_site_id
 _symmetry_equiv_pos_as_xyz
  1  'x, y, z'
loop_
 _atom_site_type_symbol
 _atom_site_label
 _atom_site_symmetry_multiplicity
 _atom_site_fract_x
 _atom_site_fract_y
 _atom_site_fract_z
 _atom_site_occupancy
  O  O0  1  0.73749997  0.24182417  0.97877836  1
  O  O1  1  0.75872161  0.75817583  0.02122164  1
  O  O2  1  0.23751315  0.23695716  0.97879712  1
  O  O3  1  0.25871603  0.76304284  0.02120288  1
  O  O4  1  0.13154745  0.88695352  0.49998597  1
  O  O5  1  0.63156148  0.11304648  0.50001403  1
  O  O6  1  0.62301863  0.58403819  0.28304454  1
  O  O7  1  0.33997409  0.41596181  0.71695546  1
  O  O8  1  0.84000512  0.80095295  0.71694835  1
  O  O9  1  0.12305677  0.19904705  0.28305165  1
  Al  Al10  1  0.99708011  0.00000000  0.00000000  1
  Al  Al11  1  0.49708326  0.50000000  0.00000000  1
  Al  Al12  1  0.79553689  0.82484207  0.49999961  1
  Al  Al13  1  0.29553727  0.17515793  0.50000039  1
  Ca  Ca14  1  0.11157715  0.58205573  0.21525942  1
  Ca  Ca15  1  0.89631773  0.41794427  0.78474058  1
  Ca  Ca16  1  0.61155685  0.13321965  0.21526041  1
  Ca  Ca17  1  0.39629644  0.86678035  0.78473959  1
