# generated using pymatgen
data_Nb2Zn2CoO8
_symmetry_space_group_name_H-M   'P 1'
_cell_length_a   5.28515252
_cell_length_b   5.96180179
_cell_length_c   10.14245460
_cell_angle_alpha   107.16211625
_cell_angle_beta   89.72125790
_cell_angle_gamma   89.97343821
_symmetry_Int_Tables_number   1
_chemical_formula_structural   Nb2Zn2CoO8
_chemical_formula_sum   'Nb4 Zn4 Co2 O16'
_cell_volume   305.34503268
_cell_formula_units_Z   2
loop_
 _symmetry_equiv_pos_site_id
 _symmetry_equiv_pos_as_xyz
  1  'x, y, z'
loop_
 _atom_site_type_symbol
 _atom_site_label
 _atom_site_symmetry_multiplicity
 _atom_site_fract_x
 _atom_site_fract_y
 _atom_site_fract_z
 _atom_site_occupancy
  Nb  Nb0  1  0.73583025  0.27775224  0.22873690  1
  Nb  Nb1  1  0.76567856  0.04812326  0.77263283  1
  Nb  Nb2  1  0.26610864  0.72305377  0.77230507  1
  Nb  Nb3  1  0.23631318  0.95387627  0.22947344  1
  Zn  Zn4  1  0.76527323  0.43252161  0.55956995  1
  Zn  Zn5  1  0.73627178  0.87498046  0.44132780  1
  Zn  Zn6  1  0.23514793  0.56784208  0.44161385  1
  Zn  Zn7  1  0.26501531  0.12551523  0.56078536  1
  Co  Co8  1  0.75214593  0.64579473  0.00061628  1
  Co  Co9  1  0.25163681  0.35638307  0.00046219  1
  O  O10  1  0.07611337  0.18859890  0.14005321  1
  O  O11  1  0.42582556  0.04813633  0.86157529  1
  O  O12  1  0.92644156  0.81421296  0.86202006  1
  O  O13  1  0.57635128  0.95406184  0.13982478  1
  O  O14  1  0.58879642  0.43391627  0.11461317  1
  O  O15  1  0.91486045  0.31796411  0.88648321  1
  O  O16  1  0.41532912  0.56856067  0.88676623  1
  O  O17  1  0.08908853  0.68401837  0.11440486  1
  O  O18  1  0.43932182  0.28465667  0.35841317  1
  O  O19  1  0.06150087  0.92341646  0.64235992  1
  O  O20  1  0.36668176  0.84018391  0.38720591  1
  O  O21  1  0.13468214  0.45211261  0.61466278  1
  O  O22  1  0.63473373  0.16060967  0.61439155  1
  O  O23  1  0.86614922  0.54826556  0.38755979  1
  O  O24  1  0.93957843  0.07643863  0.35887255  1
  O  O25  1  0.56219210  0.71668533  0.64326488  1
