# generated using pymatgen
data_CaSn(PO3)4
_symmetry_space_group_name_H-M   'P 1'
_cell_length_a   7.89458805
_cell_length_b   7.90822072
_cell_length_c   10.60410130
_cell_angle_alpha   100.47785259
_cell_angle_beta   107.63218405
_cell_angle_gamma   110.43999502
_symmetry_Int_Tables_number   1
_chemical_formula_structural   CaSn(PO3)4
_chemical_formula_sum   'Ca2 Sn2 P8 O24'
_cell_volume   559.70259940
_cell_formula_units_Z   2
loop_
 _symmetry_equiv_pos_site_id
 _symmetry_equiv_pos_as_xyz
  1  'x, y, z'
loop_
 _atom_site_type_symbol
 _atom_site_label
 _atom_site_symmetry_multiplicity
 _atom_site_fract_x
 _atom_site_fract_y
 _atom_site_fract_z
 _atom_site_occupancy
  Ca  Ca0  1  0.72645048  0.97813945  0.75013383  1
  Ca  Ca1  1  0.27160861  0.02232285  0.24948245  1
  Sn  Sn2  1  0.49994465  0.50110046  0.50072787  1
  Sn  Sn3  1  0.49972442  0.00017034  0.99942770  1
  P  P4  1  0.50610220  0.32107839  0.81353985  1
  P  P5  1  0.00644030  0.69490629  0.68584540  1
  P  P6  1  0.49323421  0.68026803  0.18609432  1
  P  P7  1  0.99396356  0.30736897  0.31466342  1
  P  P8  1  0.75410319  0.71604034  0.01444230  1
  P  P9  1  0.20000859  0.74008829  0.48419324  1
  P  P10  1  0.24448868  0.28395025  0.98444972  1
  P  P11  1  0.79939080  0.26263424  0.51685203  1
  O  O12  1  0.33331844  0.31191425  0.86669298  1
  O  O13  1  0.94379307  0.46914619  0.63459754  1
  O  O14  1  0.66565708  0.68970771  0.13248306  1
  O  O15  1  0.05767123  0.53326090  0.36640598  1
  O  O16  1  0.69998545  0.49860190  0.93472280  1
  O  O17  1  0.06026935  0.76414123  0.56284147  1
  O  O18  1  0.29975567  0.50082425  0.06611442  1
  O  O19  1  0.93636614  0.23704866  0.43622935  1
  O  O20  1  0.45414001  0.35643125  0.67703591  1
  O  O21  1  0.17981703  0.78093137  0.82157738  1
  O  O22  1  0.54703967  0.64773322  0.32351635  1
  O  O23  1  0.82269651  0.22223333  0.17784176  1
  O  O24  1  0.54711192  0.14794262  0.81988165  1
  O  O25  1  0.82712674  0.72998682  0.68026549  1
  O  O26  1  0.44979058  0.85189622  0.17788239  1
  O  O27  1  0.17361563  0.27151197  0.32234902  1
  O  O28  1  0.64803873  0.79731288  0.91503334  1
  O  O29  1  0.38149005  0.73546197  0.58442002  1
  O  O30  1  0.34916807  0.20009208  0.08244515  1
  O  O31  1  0.61723886  0.26816724  0.41799532  1
  O  O32  1  0.97187038  0.81757580  0.08758220  1
  O  O33  1  0.22718937  0.88367174  0.41039045  1
  O  O34  1  0.02672151  0.18376094  0.91116154  1
  O  O35  1  0.77253382  0.11893059  0.59051232  1
