# generated using pymatgen
data_Ta2Zn2FeO8
_symmetry_space_group_name_H-M   'P 1'
_cell_length_a   5.31511895
_cell_length_b   5.94795316
_cell_length_c   10.19180378
_cell_angle_alpha   106.95022759
_cell_angle_beta   89.68273817
_cell_angle_gamma   89.93361150
_symmetry_Int_Tables_number   1
_chemical_formula_structural   Ta2Zn2FeO8
_chemical_formula_sum   'Ta4 Zn4 Fe2 O16'
_cell_volume   308.20137907
_cell_formula_units_Z   2
loop_
 _symmetry_equiv_pos_site_id
 _symmetry_equiv_pos_as_xyz
  1  'x, y, z'
loop_
 _atom_site_type_symbol
 _atom_site_label
 _atom_site_symmetry_multiplicity
 _atom_site_fract_x
 _atom_site_fract_y
 _atom_site_fract_z
 _atom_site_occupancy
  Ta  Ta0  1  0.73385223  0.27161044  0.23107584  1
  Ta  Ta1  1  0.76703622  0.03827585  0.76821920  1
  Ta  Ta2  1  0.26579025  0.72725273  0.76891232  1
  Ta  Ta3  1  0.23234639  0.96020112  0.23073349  1
  Zn  Zn4  1  0.76987230  0.43471078  0.56355928  1
  Zn  Zn5  1  0.72857393  0.87032336  0.43492976  1
  Zn  Zn6  1  0.22928897  0.56365608  0.43606862  1
  Zn  Zn7  1  0.27075115  0.12830667  0.56374444  1
  Fe  Fe8  1  0.74944146  0.64442215  0.99938936  1
  Fe  Fe9  1  0.24841157  0.35513254  0.00006341  1
  O  O10  1  0.07213308  0.18633249  0.13981448  1
  O  O11  1  0.42912634  0.04100311  0.85866557  1
  O  O12  1  0.93023082  0.81687593  0.85897070  1
  O  O13  1  0.57097301  0.95639462  0.14015418  1
  O  O14  1  0.59424768  0.42984324  0.11836427  1
  O  O15  1  0.90339538  0.31409104  0.87949037  1
  O  O16  1  0.40143158  0.56493592  0.88165993  1
  O  O17  1  0.09227880  0.68906128  0.11883164  1
  O  O18  1  0.43033954  0.28227560  0.35430965  1
  O  O19  1  0.06960772  0.92559227  0.64482400  1
  O  O20  1  0.35719794  0.84348956  0.38702635  1
  O  O21  1  0.14128627  0.45565152  0.61250550  1
  O  O22  1  0.64214544  0.15321847  0.61106279  1
  O  O23  1  0.85808431  0.54366096  0.38705463  1
  O  O24  1  0.93070650  0.07350036  0.35427723  1
  O  O25  1  0.56919613  0.71636692  0.64516496  1
