# generated using pymatgen
data_SrCaNi(PO4)2
_symmetry_space_group_name_H-M   'P 1'
_cell_length_a   5.72020412
_cell_length_b   6.92796955
_cell_length_c   9.44796269
_cell_angle_alpha   109.40931450
_cell_angle_beta   101.90166766
_cell_angle_gamma   98.52377187
_symmetry_Int_Tables_number   1
_chemical_formula_structural   SrCaNi(PO4)2
_chemical_formula_sum   'Sr2 Ca2 Ni2 P4 O16'
_cell_volume   335.88153250
_cell_formula_units_Z   2
loop_
 _symmetry_equiv_pos_site_id
 _symmetry_equiv_pos_as_xyz
  1  'x, y, z'
loop_
 _atom_site_type_symbol
 _atom_site_label
 _atom_site_symmetry_multiplicity
 _atom_site_fract_x
 _atom_site_fract_y
 _atom_site_fract_z
 _atom_site_occupancy
  Sr  Sr0  1  0.26328545  0.80828016  0.06018623  1
  Sr  Sr1  1  0.73671455  0.19171984  0.93981377  1
  Ca  Ca2  1  0.99558296  0.41928723  0.66106384  1
  Ca  Ca3  1  0.00441704  0.58071277  0.33893616  1
  Ni  Ni4  1  0.65274918  0.85036946  0.55954364  1
  Ni  Ni5  1  0.34725082  0.14963054  0.44045636  1
  P  P6  1  0.39609796  0.41725142  0.22800790  1
  P  P7  1  0.60390204  0.58274858  0.77199210  1
  P  P8  1  0.84105892  0.03076988  0.29957772  1
  P  P9  1  0.15894108  0.96923012  0.70042228  1
  O  O10  1  0.83754612  0.55985941  0.87913812  1
  O  O11  1  0.62380785  0.45091447  0.16798123  1
  O  O12  1  0.65199597  0.80113341  0.75857689  1
  O  O13  1  0.95934611  0.10339627  0.69628116  1
  O  O14  1  0.37619215  0.54908553  0.83201877  1
  O  O15  1  0.00726115  0.73814175  0.59402044  1
  O  O16  1  0.99273885  0.26185825  0.40597956  1
  O  O17  1  0.27393507  0.99723582  0.86888601  1
  O  O18  1  0.34800403  0.19886659  0.24142311  1
  O  O19  1  0.72606493  0.00276418  0.13111399  1
  O  O20  1  0.16245388  0.44014059  0.12086188  1
  O  O21  1  0.42618190  0.59035353  0.39158775  1
  O  O22  1  0.57381810  0.40964647  0.60841225  1
  O  O23  1  0.63843453  0.96667360  0.37633442  1
  O  O24  1  0.04065389  0.89660373  0.30371884  1
  O  O25  1  0.36156547  0.03332640  0.62366558  1
