# generated using pymatgen
data_VZnBiO5
_symmetry_space_group_name_H-M   'P 1'
_cell_length_a   5.38190284
_cell_length_b   7.75716597
_cell_length_c   11.79108715
_cell_angle_alpha   90.00000000
_cell_angle_beta   90.00000000
_cell_angle_gamma   107.29570666
_symmetry_Int_Tables_number   1
_chemical_formula_structural   VZnBiO5
_chemical_formula_sum   'V4 Zn4 Bi4 O20'
_cell_volume   469.99961259
_cell_formula_units_Z   4
loop_
 _symmetry_equiv_pos_site_id
 _symmetry_equiv_pos_as_xyz
  1  'x, y, z'
loop_
 _atom_site_type_symbol
 _atom_site_label
 _atom_site_symmetry_multiplicity
 _atom_site_fract_x
 _atom_site_fract_y
 _atom_site_fract_z
 _atom_site_occupancy
  V  V0  1  0.78688398  0.96788038  0.64799013  1
  V  V1  1  0.21311602  0.03211962  0.35200987  1
  V  V2  1  0.71311602  0.53211962  0.14799013  1
  V  V3  1  0.28688398  0.46788038  0.85200987  1
  Zn  Zn4  1  0.62502298  0.17316037  0.91920089  1
  Zn  Zn5  1  0.37497702  0.82683963  0.08079911  1
  Zn  Zn6  1  0.87497702  0.32683963  0.41920089  1
  Zn  Zn7  1  0.12502298  0.67316037  0.58079911  1
  Bi  Bi8  1  0.11954465  0.17677190  0.09573085  1
  Bi  Bi9  1  0.88045535  0.82322810  0.90426915  1
  Bi  Bi10  1  0.61954465  0.67677190  0.40426915  1
  Bi  Bi11  1  0.38045535  0.32322810  0.59573085  1
  O  O12  1  0.57028324  0.33188053  0.07411485  1
  O  O13  1  0.03203787  0.32632471  0.93305749  1
  O  O14  1  0.48410812  0.64219132  0.17454920  1
  O  O15  1  0.75596808  0.51351978  0.52563897  1
  O  O16  1  0.80581558  0.48846183  0.28499003  1
  O  O17  1  0.30581558  0.98846183  0.21500997  1
  O  O18  1  0.53203787  0.82632471  0.56694251  1
  O  O19  1  0.46796213  0.17367529  0.43305749  1
  O  O20  1  0.24403192  0.48648022  0.47436103  1
  O  O21  1  0.92971676  0.16811947  0.57411485  1
  O  O22  1  0.19418442  0.51153817  0.71500997  1
  O  O23  1  0.42971676  0.66811947  0.92588515  1
  O  O24  1  0.07028324  0.83188053  0.42588515  1
  O  O25  1  0.69418442  0.01153817  0.78499003  1
  O  O26  1  0.74403192  0.98648022  0.02563897  1
  O  O27  1  0.25596808  0.01351978  0.97436103  1
  O  O28  1  0.51589188  0.35780868  0.82545080  1
  O  O29  1  0.96796213  0.67367529  0.06694251  1
  O  O30  1  0.01589188  0.85780868  0.67454920  1
  O  O31  1  0.98410812  0.14219132  0.32545080  1
