# generated using pymatgen
data_Li9Mn2Co5O16
_symmetry_space_group_name_H-M   'P 1'
_cell_length_a   2.89233506
_cell_length_b   13.13118934
_cell_length_c   7.77417267
_cell_angle_alpha   86.77487324
_cell_angle_beta   79.27927521
_cell_angle_gamma   89.99999851
_symmetry_Int_Tables_number   1
_chemical_formula_structural   Li9Mn2Co5O16
_chemical_formula_sum   'Li9 Mn2 Co5 O16'
_cell_volume   289.63193820
_cell_formula_units_Z   1
loop_
 _symmetry_equiv_pos_site_id
 _symmetry_equiv_pos_as_xyz
  1  'x, y, z'
loop_
 _atom_site_type_symbol
 _atom_site_label
 _atom_site_symmetry_multiplicity
 _atom_site_fract_x
 _atom_site_fract_y
 _atom_site_fract_z
 _atom_site_occupancy
  Li  Li0  1  0.56368373  0.19402207  0.87263254  1
  Li  Li1  1  0.68584752  0.56999287  0.62830497  1
  Li  Li2  1  0.81386119  0.92737158  0.37227761  1
  Li  Li3  1  0.93588439  0.31549718  0.12823123  1
  Li  Li4  1  0.06824394  0.68758707  0.86351211  1
  Li  Li5  1  0.18870628  0.06158345  0.62258744  1
  Li  Li6  1  0.31340173  0.44072546  0.37319654  1
  Li  Li7  1  0.43493200  0.80541493  0.13013599  1
  Li  Li8  1  0.24920303  0.74720159  0.50159394  1
  Mn  Mn9  1  0.99964544  0.99718115  0.00070911  1
  Mn  Mn10  1  0.62981163  0.86492389  0.74037673  1
  Co  Co11  1  0.12411019  0.37830915  0.75177961  1
  Co  Co12  1  0.37442434  0.12876431  0.25115132  1
  Co  Co13  1  0.49699761  0.50033286  0.00600479  1
  Co  Co14  1  0.74923173  0.25371728  0.50153655  1
  Co  Co15  1  0.86933026  0.63686050  0.26133947  1
  O  O16  1  0.58797161  0.01833692  0.82405677  1
  O  O17  1  0.71214357  0.40248475  0.57571285  1
  O  O18  1  0.84795419  0.77159176  0.30409162  1
  O  O19  1  0.95861227  0.15357132  0.08277545  1
  O  O20  1  0.08880295  0.52829285  0.82239410  1
  O  O21  1  0.21015456  0.90409315  0.57969089  1
  O  O22  1  0.33572592  0.28069661  0.32854815  1
  O  O23  1  0.45698547  0.64840407  0.08602907  1
  O  O24  1  0.53625959  0.34945697  0.92748083  1
  O  O25  1  0.65448667  0.73003722  0.69102667  1
  O  O26  1  0.79072412  0.10131716  0.41855177  1
  O  O27  1  0.91295963  0.47281186  0.17408074  1
  O  O28  1  0.04372170  0.84270085  0.91255660  1
  O  O29  1  0.16019993  0.22262591  0.67960014  1
  O  O30  1  0.29140996  0.59544216  0.41718008  1
  O  O31  1  0.41457284  0.96865109  0.17085432  1
