# generated using pymatgen
data_CaMnP2O7
_symmetry_space_group_name_H-M   'P 1'
_cell_length_a   7.46074504
_cell_length_b   8.97770770
_cell_length_c   9.09831622
_cell_angle_alpha   90.00000000
_cell_angle_beta   112.12850832
_cell_angle_gamma   90.00000000
_symmetry_Int_Tables_number   1
_chemical_formula_structural   CaMnP2O7
_chemical_formula_sum   'Ca4 Mn4 P8 O28'
_cell_volume   564.52050865
_cell_formula_units_Z   4
loop_
 _symmetry_equiv_pos_site_id
 _symmetry_equiv_pos_as_xyz
  1  'x, y, z'
loop_
 _atom_site_type_symbol
 _atom_site_label
 _atom_site_symmetry_multiplicity
 _atom_site_fract_x
 _atom_site_fract_y
 _atom_site_fract_z
 _atom_site_occupancy
  Ca  Ca0  1  0.13476582  0.94704088  0.84785970  1
  Ca  Ca1  1  0.36523418  0.44704088  0.65214030  1
  Ca  Ca2  1  0.63476582  0.55295912  0.34785970  1
  Ca  Ca3  1  0.86523418  0.05295912  0.15214030  1
  Mn  Mn4  1  0.38560894  0.06926087  0.61378544  1
  Mn  Mn5  1  0.61439106  0.93073913  0.38621456  1
  Mn  Mn6  1  0.11439106  0.56926087  0.88621456  1
  Mn  Mn7  1  0.88560894  0.43073913  0.11378544  1
  P  P8  1  0.18370777  0.72775960  0.24139458  1
  P  P9  1  0.43441087  0.23882904  0.96978448  1
  P  P10  1  0.68370777  0.77224040  0.74139458  1
  P  P11  1  0.93441087  0.26117096  0.46978448  1
  P  P12  1  0.31629223  0.22775960  0.25860542  1
  P  P13  1  0.06558913  0.73882904  0.53021552  1
  P  P14  1  0.56558913  0.76117096  0.03021552  1
  P  P15  1  0.81629223  0.27224040  0.75860542  1
  O  O16  1  0.36041763  0.17557529  0.10388708  1
  O  O17  1  0.58076569  0.62703250  0.67609451  1
  O  O18  1  0.08076569  0.87296750  0.17609451  1
  O  O19  1  0.33348668  0.38640081  0.90107248  1
  O  O20  1  0.63958237  0.82442471  0.89611292  1
  O  O21  1  0.39351673  0.09534140  0.37374153  1
  O  O22  1  0.66651332  0.61359919  0.09892752  1
  O  O23  1  0.37413779  0.10969604  0.84992610  1
  O  O24  1  0.15526648  0.24535389  0.54830818  1
  O  O25  1  0.60648327  0.90465860  0.62625847  1
  O  O26  1  0.89351673  0.40465860  0.87374153  1
  O  O27  1  0.90530549  0.76075826  0.80396007  1
  O  O28  1  0.59469451  0.26075826  0.69603993  1
  O  O29  1  0.86041763  0.32442471  0.60388708  1
  O  O30  1  0.10648327  0.59534140  0.12625847  1
  O  O31  1  0.91923431  0.12703250  0.82390549  1
  O  O32  1  0.09469451  0.23924174  0.19603993  1
  O  O33  1  0.62586221  0.89030396  0.15007390  1
  O  O34  1  0.65526648  0.25464611  0.04830818  1
  O  O35  1  0.34473352  0.74535389  0.95169182  1
  O  O36  1  0.16651332  0.88640081  0.59892752  1
  O  O37  1  0.87413779  0.39030396  0.34992610  1
  O  O38  1  0.12586221  0.60969604  0.65007390  1
  O  O39  1  0.41923431  0.37296750  0.32390549  1
  O  O40  1  0.40530549  0.73924174  0.30396007  1
  O  O41  1  0.83348668  0.11359919  0.40107248  1
  O  O42  1  0.84473352  0.75464611  0.45169182  1
  O  O43  1  0.13958237  0.67557529  0.39611292  1
