# generated using pymatgen
data_BaCaMoF7
_symmetry_space_group_name_H-M   'P 1'
_cell_length_a   5.93274943
_cell_length_b   10.25929013
_cell_length_c   10.67442828
_cell_angle_alpha   90.00000000
_cell_angle_beta   90.00000000
_cell_angle_gamma   91.35025753
_symmetry_Int_Tables_number   1
_chemical_formula_structural   BaCaMoF7
_chemical_formula_sum   'Ba4 Ca4 Mo4 F28'
_cell_volume   649.52718403
_cell_formula_units_Z   4
loop_
 _symmetry_equiv_pos_site_id
 _symmetry_equiv_pos_as_xyz
  1  'x, y, z'
loop_
 _atom_site_type_symbol
 _atom_site_label
 _atom_site_symmetry_multiplicity
 _atom_site_fract_x
 _atom_site_fract_y
 _atom_site_fract_z
 _atom_site_occupancy
  Ba  Ba0  1  0.26845378  0.50101769  0.33624633  1
  Ba  Ba1  1  0.73154622  0.99898231  0.83624633  1
  Ba  Ba2  1  0.73154622  0.49898231  0.66375367  1
  Ba  Ba3  1  0.26845378  0.00101769  0.16375367  1
  Ca  Ca4  1  0.69745984  0.82006427  0.40680234  1
  Ca  Ca5  1  0.30254016  0.67993573  0.90680234  1
  Ca  Ca6  1  0.69745984  0.32006427  0.09319766  1
  Ca  Ca7  1  0.30254016  0.17993673  0.59319766  1
  Mo  Mo8  1  0.18832155  0.80910030  0.62080689  1
  Mo  Mo9  1  0.81167845  0.19089970  0.37919311  1
  Mo  Mo10  1  0.18832155  0.30910030  0.87919311  1
  Mo  Mo11  1  0.81167845  0.69089970  0.12080689  1
  F  F12  1  0.11849302  0.10610629  0.42302586  1
  F  F13  1  0.34744616  0.37532870  0.04360824  1
  F  F14  1  0.48018199  0.73273288  0.70819046  1
  F  F15  1  0.51981801  0.26726712  0.29180954  1
  F  F16  1  0.92844876  0.36406306  0.46362911  1
  F  F17  1  0.28901294  0.48769217  0.79369920  1
  F  F18  1  0.01101215  0.74591662  0.78195200  1
  F  F19  1  0.07155124  0.13593694  0.96362911  1
  F  F20  1  0.34744616  0.87532870  0.45639176  1
  F  F21  1  0.51981801  0.76726712  0.20819046  1
  F  F22  1  0.11849302  0.60610629  0.07697414  1
  F  F23  1  0.88150698  0.89389371  0.57697414  1
  F  F24  1  0.98898785  0.75408338  0.28195200  1
  F  F25  1  0.41293664  0.87797850  0.96054793  1
  F  F26  1  0.07155124  0.63593694  0.53637089  1
  F  F27  1  0.92844876  0.86406306  0.03637089  1
  F  F28  1  0.98898785  0.25408338  0.21804800  1
  F  F29  1  0.88150698  0.39389371  0.92302586  1
  F  F30  1  0.58706336  0.62202150  0.46054793  1
  F  F31  1  0.65255384  0.62467130  0.95639176  1
  F  F32  1  0.58706336  0.12202150  0.03945207  1
  F  F33  1  0.01101215  0.24591662  0.71804800  1
  F  F34  1  0.41293664  0.37797850  0.53945207  1
  F  F35  1  0.71098706  0.01230783  0.29369920  1
  F  F36  1  0.71098706  0.51230783  0.20630080  1
  F  F37  1  0.28901294  0.98769217  0.70630080  1
  F  F38  1  0.65255384  0.12467130  0.54360824  1
  F  F39  1  0.48018199  0.23273288  0.79180954  1
