# generated using pymatgen
data_CaCoP2O7
_symmetry_space_group_name_H-M   'P 1'
_cell_length_a   7.37834817
_cell_length_b   8.77875319
_cell_length_c   8.82743786
_cell_angle_alpha   90.00000000
_cell_angle_beta   111.53199069
_cell_angle_gamma   90.00000000
_symmetry_Int_Tables_number   1
_chemical_formula_structural   CaCoP2O7
_chemical_formula_sum   'Ca4 Co4 P8 O28'
_cell_volume   531.87424321
_cell_formula_units_Z   4
loop_
 _symmetry_equiv_pos_site_id
 _symmetry_equiv_pos_as_xyz
  1  'x, y, z'
loop_
 _atom_site_type_symbol
 _atom_site_label
 _atom_site_symmetry_multiplicity
 _atom_site_fract_x
 _atom_site_fract_y
 _atom_site_fract_z
 _atom_site_occupancy
  Ca  Ca0  1  0.14685928  0.94909859  0.87638972  1
  Ca  Ca1  1  0.35314072  0.44909859  0.62361028  1
  Ca  Ca2  1  0.64685928  0.55090141  0.37638972  1
  Ca  Ca3  1  0.85314072  0.05090141  0.12361028  1
  Co  Co4  1  0.38450052  0.06723470  0.61424337  1
  Co  Co5  1  0.61549948  0.93276530  0.38575663  1
  Co  Co6  1  0.11549948  0.56723470  0.88575663  1
  Co  Co7  1  0.88450052  0.43276530  0.11424337  1
  P  P8  1  0.18895726  0.72649819  0.23627874  1
  P  P9  1  0.43521811  0.24713160  0.96469157  1
  P  P10  1  0.68895726  0.77350181  0.73627874  1
  P  P11  1  0.93521811  0.25286840  0.46469157  1
  P  P12  1  0.31104274  0.22649819  0.26372126  1
  P  P13  1  0.06478189  0.74713160  0.53530843  1
  P  P14  1  0.56478189  0.75286840  0.03530843  1
  P  P15  1  0.81104274  0.27350181  0.76372126  1
  O  O16  1  0.36209741  0.18168809  0.10488806  1
  O  O17  1  0.58676947  0.62778285  0.65572028  1
  O  O18  1  0.08676947  0.87221715  0.15572028  1
  O  O19  1  0.32598939  0.39310224  0.89017412  1
  O  O20  1  0.63790259  0.81831191  0.89511194  1
  O  O21  1  0.38697890  0.08506093  0.37402352  1
  O  O22  1  0.67401061  0.60689776  0.10982588  1
  O  O23  1  0.38102843  0.10933323  0.84834525  1
  O  O24  1  0.15607576  0.23297787  0.54425670  1
  O  O25  1  0.61302110  0.91493907  0.62597648  1
  O  O26  1  0.88697890  0.41493907  0.87402352  1
  O  O27  1  0.91124079  0.76082907  0.80464010  1
  O  O28  1  0.58875921  0.26082907  0.69535990  1
  O  O29  1  0.86209741  0.31831191  0.60488806  1
  O  O30  1  0.11302110  0.58506093  0.12597648  1
  O  O31  1  0.91323053  0.12778285  0.84427972  1
  O  O32  1  0.08875921  0.23917093  0.19535990  1
  O  O33  1  0.61897157  0.89066677  0.15165475  1
  O  O34  1  0.65607576  0.26702213  0.04425670  1
  O  O35  1  0.34392424  0.73297787  0.95574330  1
  O  O36  1  0.17401061  0.89310224  0.60982588  1
  O  O37  1  0.88102843  0.39066677  0.34834525  1
  O  O38  1  0.11897157  0.60933323  0.65165475  1
  O  O39  1  0.41323053  0.37221715  0.34427972  1
  O  O40  1  0.41124079  0.73917093  0.30464010  1
  O  O41  1  0.82598939  0.10689776  0.39017412  1
  O  O42  1  0.84392424  0.76702213  0.45574330  1
  O  O43  1  0.13790259  0.68168809  0.39511194  1
