# generated using pymatgen
data_Zn2NiIrO6
_symmetry_space_group_name_H-M   'P 1'
_cell_length_a   5.22669389
_cell_length_b   5.20817789
_cell_length_c   7.72657943
_cell_angle_alpha   90.00000000
_cell_angle_beta   89.03506637
_cell_angle_gamma   90.00000000
_symmetry_Int_Tables_number   1
_chemical_formula_structural   Zn2NiIrO6
_chemical_formula_sum   'Zn4 Ni2 Ir2 O12'
_cell_volume   210.29965355
_cell_formula_units_Z   2
loop_
 _symmetry_equiv_pos_site_id
 _symmetry_equiv_pos_as_xyz
  1  'x, y, z'
loop_
 _atom_site_type_symbol
 _atom_site_label
 _atom_site_symmetry_multiplicity
 _atom_site_fract_x
 _atom_site_fract_y
 _atom_site_fract_z
 _atom_site_occupancy
  Zn  Zn0  1  0.98502949  0.96775175  0.24346584  1
  Zn  Zn1  1  0.51497051  0.46775175  0.25653416  1
  Zn  Zn2  1  0.48502949  0.53224825  0.74346584  1
  Zn  Zn3  1  0.01497051  0.03224825  0.75653416  1
  Ni  Ni4  1  -0.00000000  0.50000000  0.00000000  1
  Ni  Ni5  1  0.50000000  0.00000000  0.50000000  1
  Ir  Ir6  1  -0.00000000  0.50000000  0.50000000  1
  Ir  Ir7  1  0.50000000  0.00000000  0.00000000  1
  O  O8  1  0.11353419  0.41076136  0.73875740  1
  O  O9  1  0.17632501  0.16435944  0.05643642  1
  O  O10  1  0.15638871  0.17935210  0.42619563  1
  O  O11  1  0.34361129  0.67935210  0.07380437  1
  O  O12  1  0.32367499  0.66435944  0.44356358  1
  O  O13  1  0.38646581  0.91076136  0.76124260  1
  O  O14  1  0.61353419  0.08923864  0.23875740  1
  O  O15  1  0.67632501  0.33564056  0.55643642  1
  O  O16  1  0.65638871  0.32064790  0.92619563  1
  O  O17  1  0.82367499  0.83564056  0.94356358  1
  O  O18  1  0.84361129  0.82064790  0.57380437  1
  O  O19  1  0.88646581  0.58923864  0.26124260  1
