# generated using pymatgen
data_Li9Mn2Co5O16
_symmetry_space_group_name_H-M   'P 1'
_cell_length_a   2.87554401
_cell_length_b   17.11276100
_cell_length_c   5.88491576
_cell_angle_alpha   89.84993925
_cell_angle_beta   90.00000000
_cell_angle_gamma   90.00000000
_symmetry_Int_Tables_number   1
_chemical_formula_structural   Li9Mn2Co5O16
_chemical_formula_sum   'Li9 Mn2 Co5 O16'
_cell_volume   289.58686839
_cell_formula_units_Z   1
loop_
 _symmetry_equiv_pos_site_id
 _symmetry_equiv_pos_as_xyz
  1  'x, y, z'
loop_
 _atom_site_type_symbol
 _atom_site_label
 _atom_site_symmetry_multiplicity
 _atom_site_fract_x
 _atom_site_fract_y
 _atom_site_fract_z
 _atom_site_occupancy
  Li  Li0  1  0.50000000  0.12978844  0.24974027  1
  Li  Li1  1  0.50000000  0.38228063  0.75290737  1
  Li  Li2  1  0.50000000  0.61653678  0.24367253  1
  Li  Li3  1  -0.00000000  0.25382159  0.00600391  1
  Li  Li4  1  0.00000000  0.49600749  0.49979821  1
  Li  Li5  1  -0.00000000  0.74293169  0.99790663  1
  Li  Li6  1  0.50000000  0.87432383  0.75435507  1
  Li  Li7  1  -0.00000000  0.00575904  0.49810195  1
  Li  Li8  1  -0.00000000  0.50007288  0.00072116  1
  Mn  Mn9  1  -0.00000000  0.00123038  0.00116824  1
  Mn  Mn10  1  0.00000000  0.74704165  0.50341113  1
  Co  Co11  1  0.00000000  0.25260854  0.48910921  1
  Co  Co12  1  0.50000000  0.38840966  0.24181593  1
  Co  Co13  1  0.50000000  0.60949012  0.76226676  1
  Co  Co14  1  0.50000000  0.87123651  0.24760683  1
  Co  Co15  1  0.50000000  0.13168511  0.75109205  1
  O  O16  1  0.50000000  0.99736575  0.23101167  1
  O  O17  1  0.50000000  0.24851028  0.73015153  1
  O  O18  1  0.50000000  0.49388820  0.25216389  1
  O  O19  1  -0.00000000  0.12757310  0.98546173  1
  O  O20  1  0.00000000  0.37234049  0.47315954  1
  O  O21  1  0.00000000  0.62668353  0.98107372  1
  O  O22  1  0.50000000  0.75428039  0.72202503  1
  O  O23  1  -0.00000000  0.86498776  0.47370490  1
  O  O24  1  0.50000000  0.25014010  0.26705209  1
  O  O25  1  0.50000000  0.50605160  0.74415923  1
  O  O26  1  0.50000000  0.74667076  0.28044459  1
  O  O27  1  -0.00000000  0.37454588  0.02514148  1
  O  O28  1  0.00000000  0.63646254  0.52268252  1
  O  O29  1  -0.00000000  0.87112327  0.02609330  1
  O  O30  1  0.50000000  0.99961208  0.77166396  1
  O  O31  1  0.00000000  0.12653993  0.51433356  1
