# generated using pymatgen
data_K5Na3Nb8O24
_symmetry_space_group_name_H-M   'P 1'
_cell_length_a   8.07974125
_cell_length_b   8.07974125
_cell_length_c   8.07963455
_cell_angle_alpha   90.00000000
_cell_angle_beta   90.00000000
_cell_angle_gamma   90.00000000
_symmetry_Int_Tables_number   1
_chemical_formula_structural   K5Na3Nb8O24
_chemical_formula_sum   'K5 Na3 Nb8 O24'
_cell_volume   527.45646944
_cell_formula_units_Z   1
loop_
 _symmetry_equiv_pos_site_id
 _symmetry_equiv_pos_as_xyz
  1  'x, y, z'
loop_
 _atom_site_type_symbol
 _atom_site_label
 _atom_site_symmetry_multiplicity
 _atom_site_fract_x
 _atom_site_fract_y
 _atom_site_fract_z
 _atom_site_occupancy
  K  K0  1  0.25000000  0.25000000  0.25000000  1
  K  K1  1  0.25000000  0.75000000  0.25000000  1
  K  K2  1  0.75000000  0.25000000  0.25000000  1
  K  K3  1  0.75000000  0.75000000  0.25000000  1
  K  K4  1  0.75000000  0.75000000  0.75000000  1
  Na  Na5  1  0.25000000  0.25000000  0.75000000  1
  Na  Na6  1  0.25000000  0.75000000  0.75000000  1
  Na  Na7  1  0.75000000  0.25000000  0.75000000  1
  Nb  Nb8  1  0.00051121  0.00051121  0.99841573  1
  Nb  Nb9  1  0.00051121  0.00051121  0.50158427  1
  Nb  Nb10  1  0.00051121  0.49948879  0.99841573  1
  Nb  Nb11  1  0.00051121  0.49948879  0.50158427  1
  Nb  Nb12  1  0.49948879  0.00051121  0.99841573  1
  Nb  Nb13  1  0.49948879  0.00051121  0.50158427  1
  Nb  Nb14  1  0.49948879  0.49948879  0.99841573  1
  Nb  Nb15  1  0.49948879  0.49948879  0.50158427  1
  O  O16  1  0.25000000  0.00049218  0.99569315  1
  O  O17  1  0.25000000  0.00049218  0.50430685  1
  O  O18  1  0.25000000  0.49950782  0.99569315  1
  O  O19  1  0.25000000  0.49950782  0.50430685  1
  O  O20  1  0.75000000  0.00195602  0.99708747  1
  O  O21  1  0.75000000  0.00195602  0.50291253  1
  O  O22  1  0.75000000  0.49804398  0.99708747  1
  O  O23  1  0.75000000  0.49804398  0.50291253  1
  O  O24  1  0.00049218  0.25000000  0.99569315  1
  O  O25  1  0.00049218  0.25000000  0.50430685  1
  O  O26  1  0.00195602  0.75000000  0.99708747  1
  O  O27  1  0.00195602  0.75000000  0.50291253  1
  O  O28  1  0.49950782  0.25000000  0.99569315  1
  O  O29  1  0.49950782  0.25000000  0.50430685  1
  O  O30  1  0.49804398  0.75000000  0.99708747  1
  O  O31  1  0.49804398  0.75000000  0.50291253  1
  O  O32  1  0.00047247  0.00047247  0.25000000  1
  O  O33  1  0.00184126  0.00184126  0.75000000  1
  O  O34  1  0.00047247  0.49952753  0.25000000  1
  O  O35  1  0.00184126  0.49815874  0.75000000  1
  O  O36  1  0.49952753  0.00047247  0.25000000  1
  O  O37  1  0.49815874  0.00184126  0.75000000  1
  O  O38  1  0.49952753  0.49952753  0.25000000  1
  O  O39  1  0.49815874  0.49815874  0.75000000  1
