# generated using pymatgen
data_BaSr7Fe7CoO24
_symmetry_space_group_name_H-M   'P 1'
_cell_length_a   7.85822674
_cell_length_b   7.85822674
_cell_length_c   7.85822674
_cell_angle_alpha   90.01283393
_cell_angle_beta   90.01283393
_cell_angle_gamma   89.98716607
_symmetry_Int_Tables_number   1
_chemical_formula_structural   BaSr7Fe7CoO24
_chemical_formula_sum   'Ba1 Sr7 Fe7 Co1 O24'
_cell_volume   485.25903948
_cell_formula_units_Z   1
loop_
 _symmetry_equiv_pos_site_id
 _symmetry_equiv_pos_as_xyz
  1  'x, y, z'
loop_
 _atom_site_type_symbol
 _atom_site_label
 _atom_site_symmetry_multiplicity
 _atom_site_fract_x
 _atom_site_fract_y
 _atom_site_fract_z
 _atom_site_occupancy
  Ba  Ba0  1  0.24987211  0.74987211  0.25012789  1
  Sr  Sr1  1  0.25032143  0.24965424  0.24967857  1
  Sr  Sr2  1  0.25033084  0.24963119  0.75036881  1
  Sr  Sr3  1  0.25032143  0.75032143  0.75034576  1
  Sr  Sr4  1  0.74963119  0.24963119  0.24966916  1
  Sr  Sr5  1  0.74967793  0.24967793  0.75032207  1
  Sr  Sr6  1  0.74965424  0.75032143  0.24967857  1
  Sr  Sr7  1  0.74963119  0.75033084  0.75036881  1
  Fe  Fe8  1  0.99928065  0.00067780  0.99932220  1
  Fe  Fe9  1  0.99933292  0.00096165  0.50066708  1
  Fe  Fe10  1  0.99933292  0.49933292  0.99903835  1
  Fe  Fe11  1  0.50071417  0.00071417  0.99928583  1
  Fe  Fe12  1  0.50067780  0.00067780  0.50071935  1
  Fe  Fe13  1  0.50067780  0.49928065  0.99932220  1
  Fe  Fe14  1  0.50096165  0.49933292  0.50066708  1
  Co  Co15  1  0.99918246  0.49918246  0.50081754  1
  O  O16  1  0.25132821  0.00307541  0.99692459  1
  O  O17  1  0.24864862  0.00321266  0.50312808  1
  O  O18  1  0.24864862  0.49687192  0.99678734  1
  O  O19  1  0.24252805  0.49709325  0.50290675  1
  O  O20  1  0.74866201  0.00037437  0.99962563  1
  O  O21  1  0.75135602  0.00035729  0.50038351  1
  O  O22  1  0.75135602  0.49961649  0.99964271  1
  O  O23  1  0.75733798  0.49966549  0.50033451  1
  O  O24  1  0.99961649  0.25135602  0.99964271  1
  O  O25  1  0.99966549  0.25733798  0.50033451  1
  O  O26  1  0.99687192  0.74864862  0.99678734  1
  O  O27  1  0.99709325  0.74252805  0.50290675  1
  O  O28  1  0.50037437  0.24866201  0.99962563  1
  O  O29  1  0.50035729  0.25135602  0.50038351  1
  O  O30  1  0.50307541  0.75132821  0.99692459  1
  O  O31  1  0.50321266  0.74864862  0.50312808  1
  O  O32  1  0.99687192  0.00321266  0.25135138  1
  O  O33  1  0.99961649  0.00035729  0.74864398  1
  O  O34  1  0.99709325  0.49709325  0.25747195  1
  O  O35  1  0.99966549  0.49966549  0.74266202  1
  O  O36  1  0.50307541  0.00307541  0.24867179  1
  O  O37  1  0.50037437  0.00037437  0.75133799  1
  O  O38  1  0.50321266  0.49687192  0.25135138  1
  O  O39  1  0.50035729  0.49961649  0.74864398  1
