# generated using pymatgen
data_La3Al
_symmetry_space_group_name_H-M   'P 1'
_cell_length_a   5.46261883
_cell_length_b   7.26642583
_cell_length_c   7.26642583
_cell_angle_alpha   120.01813915
_cell_angle_beta   90.00000000
_cell_angle_gamma   90.00000000
_symmetry_Int_Tables_number   1
_chemical_formula_structural   La3Al
_chemical_formula_sum   'La6 Al2'
_cell_volume   249.74327858
_cell_formula_units_Z   2
loop_
 _symmetry_equiv_pos_site_id
 _symmetry_equiv_pos_as_xyz
  1  'x, y, z'
loop_
 _atom_site_type_symbol
 _atom_site_label
 _atom_site_symmetry_multiplicity
 _atom_site_fract_x
 _atom_site_fract_y
 _atom_site_fract_z
 _atom_site_occupancy
  La  La0  1  0.75000000  0.18082024  0.36191623  1
  La  La1  1  0.75000000  0.18111987  0.81888013  1
  La  La2  1  0.75000000  0.63808377  0.81917976  1
  La  La3  1  0.25000000  0.81917976  0.63808377  1
  La  La4  1  0.25000000  0.81888013  0.18111987  1
  La  La5  1  0.25000000  0.36191623  0.18082024  1
  Al  Al6  1  0.75000000  0.66661421  0.33338579  1
  Al  Al7  1  0.25000000  0.33338579  0.66661421  1
