# generated using pymatgen
data_ZnPbO3
_symmetry_space_group_name_H-M   'P 1'
_cell_length_a   5.51678683
_cell_length_b   5.51678683
_cell_length_c   5.82219398
_cell_angle_alpha   61.72056349
_cell_angle_beta   61.72056349
_cell_angle_gamma   59.99999658
_symmetry_Int_Tables_number   1
_chemical_formula_structural   ZnPbO3
_chemical_formula_sum   'Zn2 Pb2 O6'
_cell_volume   128.45822672
_cell_formula_units_Z   2
loop_
 _symmetry_equiv_pos_site_id
 _symmetry_equiv_pos_as_xyz
  1  'x, y, z'
loop_
 _atom_site_type_symbol
 _atom_site_label
 _atom_site_symmetry_multiplicity
 _atom_site_fract_x
 _atom_site_fract_y
 _atom_site_fract_z
 _atom_site_occupancy
  Zn  Zn0  1  0.49996036  0.49996036  0.50011892  1
  Zn  Zn1  1  -0.00003964  -0.00003964  0.00011892  1
  Pb  Pb2  1  0.21776547  0.21776547  0.34670360  1
  Pb  Pb3  1  0.71776547  0.71776547  0.84670360  1
  O  O4  1  0.12608330  0.40337330  0.66698583  1
  O  O5  1  0.40337330  0.80355757  0.66698583  1
  O  O6  1  0.80355757  0.12608330  0.66698583  1
  O  O7  1  0.62608330  0.30355757  0.16698583  1
  O  O8  1  0.30355757  0.90337330  0.16698583  1
  O  O9  1  0.90337330  0.62608330  0.16698583  1
