# generated using pymatgen
data_U(GeIr)2
_symmetry_space_group_name_H-M   'P 1'
_cell_length_a   4.20461581
_cell_length_b   4.20461581
_cell_length_c   10.17376889
_cell_angle_alpha   90.00000000
_cell_angle_beta   90.00000000
_cell_angle_gamma   90.00000000
_symmetry_Int_Tables_number   1
_chemical_formula_structural   U(GeIr)2
_chemical_formula_sum   'U2 Ge4 Ir4'
_cell_volume   179.85996553
_cell_formula_units_Z   2
loop_
 _symmetry_equiv_pos_site_id
 _symmetry_equiv_pos_as_xyz
  1  'x, y, z'
loop_
 _atom_site_type_symbol
 _atom_site_label
 _atom_site_symmetry_multiplicity
 _atom_site_fract_x
 _atom_site_fract_y
 _atom_site_fract_z
 _atom_site_occupancy
  U  U0  1  0.75000000  0.75000000  0.25709103  1
  U  U1  1  0.25000000  0.25000000  0.74290897  1
  Ge  Ge2  1  0.75000000  0.25000000  0.50000000  1
  Ge  Ge3  1  0.25000000  0.75000000  0.50000000  1
  Ge  Ge4  1  0.75000000  0.75000000  0.86740670  1
  Ge  Ge5  1  0.25000000  0.25000000  0.13259330  1
  Ir  Ir6  1  0.75000000  0.25000000  -0.00000000  1
  Ir  Ir7  1  0.25000000  0.75000000  -0.00000000  1
  Ir  Ir8  1  0.75000000  0.75000000  0.63119276  1
  Ir  Ir9  1  0.25000000  0.25000000  0.36880724  1
