# generated using pymatgen
data_ReN2
_symmetry_space_group_name_H-M   'P 1'
_cell_length_a   2.83282846
_cell_length_b   3.70258989
_cell_length_c   5.78152293
_cell_angle_alpha   95.56523031
_cell_angle_beta   90.00000000
_cell_angle_gamma   112.49153208
_symmetry_Int_Tables_number   1
_chemical_formula_structural   ReN2
_chemical_formula_sum   'Re2 N4'
_cell_volume   55.71914430
_cell_formula_units_Z   2
loop_
 _symmetry_equiv_pos_site_id
 _symmetry_equiv_pos_as_xyz
  1  'x, y, z'
loop_
 _atom_site_type_symbol
 _atom_site_label
 _atom_site_symmetry_multiplicity
 _atom_site_fract_x
 _atom_site_fract_y
 _atom_site_fract_z
 _atom_site_occupancy
  Re  Re0  1  0.67465193  0.34930386  0.23103609  1
  Re  Re1  1  0.32534807  0.65069614  0.76896391  1
  N  N2  1  0.37249299  0.74498599  0.13549529  1
  N  N3  1  0.62750701  0.25501401  0.86450471  1
  N  N4  1  0.90283019  0.80566037  0.52894143  1
  N  N5  1  0.09716981  0.19433963  0.47105857  1
