# generated using pymatgen
data_NiPW
_symmetry_space_group_name_H-M   'P 1'
_cell_length_a   3.78622630
_cell_length_b   5.83528251
_cell_length_c   5.83513316
_cell_angle_alpha   120.00085245
_cell_angle_beta   90.00000000
_cell_angle_gamma   90.00000000
_symmetry_Int_Tables_number   1
_chemical_formula_structural   NiPW
_chemical_formula_sum   'Ni3 P3 W3'
_cell_volume   111.64676071
_cell_formula_units_Z   3
loop_
 _symmetry_equiv_pos_site_id
 _symmetry_equiv_pos_as_xyz
  1  'x, y, z'
loop_
 _atom_site_type_symbol
 _atom_site_label
 _atom_site_symmetry_multiplicity
 _atom_site_fract_x
 _atom_site_fract_y
 _atom_site_fract_z
 _atom_site_occupancy
  Ni  Ni0  1  0.00000000  0.25341232  0.00000000  1
  Ni  Ni1  1  -0.00000000  0.74642962  0.74646584  1
  Ni  Ni2  1  -0.00000000  0.99996378  0.25353416  1
  P  P3  1  0.00000000  0.33339642  0.66672141  1
  P  P4  1  0.00000000  0.66667500  0.33327859  1
  P  P5  1  0.50000000  0.00003747  0.00000000  1
  W  W6  1  0.50000000  0.58525883  1.00000000  1
  W  W7  1  0.50000000  0.41472800  0.41472944  1
  W  W8  1  0.50000000  -0.00000145  0.58527056  1
