# generated using pymatgen
data_Sc2SnAu2
_symmetry_space_group_name_H-M   'P 1'
_cell_length_a   3.47308296
_cell_length_b   7.75400708
_cell_length_c   7.75400708
_cell_angle_alpha   90.00000000
_cell_angle_beta   90.00000000
_cell_angle_gamma   90.00000000
_symmetry_Int_Tables_number   1
_chemical_formula_structural   Sc2SnAu2
_chemical_formula_sum   'Sc4 Sn2 Au4'
_cell_volume   208.81781333
_cell_formula_units_Z   2
loop_
 _symmetry_equiv_pos_site_id
 _symmetry_equiv_pos_as_xyz
  1  'x, y, z'
loop_
 _atom_site_type_symbol
 _atom_site_label
 _atom_site_symmetry_multiplicity
 _atom_site_fract_x
 _atom_site_fract_y
 _atom_site_fract_z
 _atom_site_occupancy
  Sc  Sc0  1  0.00000000  0.33232427  0.66767573  1
  Sc  Sc1  1  -0.00000000  0.66767573  0.33232427  1
  Sc  Sc2  1  -0.00000000  0.16767573  0.16767573  1
  Sc  Sc3  1  0.00000000  0.83232427  0.83232427  1
  Sn  Sn4  1  0.50000000  -0.00000000  0.50000000  1
  Sn  Sn5  1  0.50000000  0.50000000  0.00000000  1
  Au  Au6  1  0.50000000  0.12897925  0.87102075  1
  Au  Au7  1  0.50000000  0.87102075  0.12897925  1
  Au  Au8  1  0.50000000  0.37102075  0.37102075  1
  Au  Au9  1  0.50000000  0.62897925  0.62897925  1
