# generated using pymatgen
data_K5Na3TaNb7O24
_symmetry_space_group_name_H-M   'P 1'
_cell_length_a   8.07753651
_cell_length_b   8.07753844
_cell_length_c   8.07649957
_cell_angle_alpha   89.99790805
_cell_angle_beta   89.99772937
_cell_angle_gamma   89.99797515
_symmetry_Int_Tables_number   1
_chemical_formula_structural   K5Na3TaNb7O24
_chemical_formula_sum   'K5 Na3 Ta1 Nb7 O24'
_cell_volume   526.96423047
_cell_formula_units_Z   1
loop_
 _symmetry_equiv_pos_site_id
 _symmetry_equiv_pos_as_xyz
  1  'x, y, z'
loop_
 _atom_site_type_symbol
 _atom_site_label
 _atom_site_symmetry_multiplicity
 _atom_site_fract_x
 _atom_site_fract_y
 _atom_site_fract_z
 _atom_site_occupancy
  K  K0  1  0.25003798  0.25003985  0.25005210  1
  K  K1  1  0.25004940  0.74995776  0.25005523  1
  K  K2  1  0.74993699  0.25004472  0.25004780  1
  K  K3  1  0.74994545  0.74996062  0.25006054  1
  K  K4  1  0.74995740  0.74996186  0.74995103  1
  Na  Na5  1  0.24998544  0.24998383  0.75001527  1
  Na  Na6  1  0.24998573  0.75001396  0.75001594  1
  Na  Na7  1  0.75001520  0.24998436  0.75001602  1
  Ta  Ta8  1  0.00036709  0.00036534  0.99889828  1
  Nb  Nb9  1  0.00035617  0.00035177  0.50103385  1
  Nb  Nb10  1  0.00034901  0.49965875  0.99894123  1
  Nb  Nb11  1  0.00035097  0.49964305  0.50106587  1
  Nb  Nb12  1  0.49965760  0.00035281  0.99894125  1
  Nb  Nb13  1  0.49964398  0.00035009  0.50106674  1
  Nb  Nb14  1  0.49964552  0.49964287  0.99894207  1
  Nb  Nb15  1  0.49964597  0.49964524  0.50105572  1
  O  O16  1  0.24896561  0.00013542  0.99797388  1
  O  O17  1  0.24994124  0.00012666  0.50201341  1
  O  O18  1  0.24994228  0.49987108  0.99798127  1
  O  O19  1  0.24998665  0.49987048  0.50202728  1
  O  O20  1  0.75107039  0.00095817  0.99877143  1
  O  O21  1  0.75006371  0.00095557  0.50121019  1
  O  O22  1  0.75006303  0.49904466  0.99878638  1
  O  O23  1  0.75001616  0.49903972  0.50121762  1
  O  O24  1  0.00013463  0.24896369  0.99797395  1
  O  O25  1  0.00012965  0.24994099  0.50201311  1
  O  O26  1  0.00096058  0.75106877  0.99877487  1
  O  O27  1  0.00095650  0.75006123  0.50121060  1
  O  O28  1  0.49987175  0.24994051  0.99797994  1
  O  O29  1  0.49987212  0.24998534  0.50202806  1
  O  O30  1  0.49904476  0.75006274  0.99878823  1
  O  O31  1  0.49903896  0.75001351  0.50121660  1
  O  O32  1  0.00013436  0.00013199  0.24889838  1
  O  O33  1  0.00093428  0.00093367  0.75099828  1
  O  O34  1  0.00012949  0.49987235  0.24993282  1
  O  O35  1  0.00093194  0.49906983  0.75005421  1
  O  O36  1  0.49987346  0.00013210  0.24993221  1
  O  O37  1  0.49907004  0.00093158  0.75005479  1
  O  O38  1  0.49987374  0.49986985  0.24998706  1
  O  O39  1  0.49906474  0.49906321  0.75001650  1
