# generated using pymatgen
data_Sr7CaMn3Fe5O24
_symmetry_space_group_name_H-M   'P 1'
_cell_length_a   7.79671233
_cell_length_b   7.79671233
_cell_length_c   7.82252511
_cell_angle_alpha   89.99717295
_cell_angle_beta   90.00282705
_cell_angle_gamma   90.01046342
_symmetry_Int_Tables_number   1
_chemical_formula_structural   Sr7CaMn3Fe5O24
_chemical_formula_sum   'Sr7 Ca1 Mn3 Fe5 O24'
_cell_volume   475.52130510
_cell_formula_units_Z   1
loop_
 _symmetry_equiv_pos_site_id
 _symmetry_equiv_pos_as_xyz
  1  'x, y, z'
loop_
 _atom_site_type_symbol
 _atom_site_label
 _atom_site_symmetry_multiplicity
 _atom_site_fract_x
 _atom_site_fract_y
 _atom_site_fract_z
 _atom_site_occupancy
  Sr  Sr0  1  0.25036403  0.25037956  0.25076962  1
  Sr  Sr1  1  0.25039013  0.25037136  0.74925453  1
  Sr  Sr2  1  0.25036939  0.74963061  0.74919934  1
  Sr  Sr3  1  0.74965792  0.25034208  0.25082633  1
  Sr  Sr4  1  0.74963294  0.25036706  0.74921096  1
  Sr  Sr5  1  0.74962044  0.74963597  0.25076962  1
  Sr  Sr6  1  0.74962864  0.74960987  0.74925453  1
  Ca  Ca7  1  0.25042672  0.74957328  0.25094812  1
  Mn  Mn8  1  0.00053127  0.50046591  0.49952893  1
  Mn  Mn9  1  0.49953409  0.99946873  0.49952893  1
  Mn  Mn10  1  0.49954044  0.50045956  0.49955943  1
  Fe  Fe11  1  0.00051047  0.99948953  0.00053706  1
  Fe  Fe12  1  0.00045645  0.99954355  0.49955583  1
  Fe  Fe13  1  0.00046308  0.50044275  0.00048114  1
  Fe  Fe14  1  0.49955725  0.99953692  0.00048114  1
  Fe  Fe15  1  0.49950285  0.50049715  0.00055334  1
  O  O16  1  0.24894956  0.99786953  0.00213232  1
  O  O17  1  0.25353041  0.99781445  0.49781911  1
  O  O18  1  0.25020317  0.50213060  0.00213952  1
  O  O19  1  0.25059348  0.50238829  0.49763153  1
  O  O20  1  0.75109950  0.99959548  0.00040176  1
  O  O21  1  0.74634445  0.99960149  0.49962633  1
  O  O22  1  0.74979386  0.50035232  0.00038226  1
  O  O23  1  0.74941267  0.50026967  0.49970890  1
  O  O24  1  0.00040452  0.24890050  0.00040176  1
  O  O25  1  0.00039851  0.25365555  0.49962633  1
  O  O26  1  0.00213047  0.75105044  0.00213232  1
  O  O27  1  0.00218555  0.74646959  0.49781911  1
  O  O28  1  0.49964768  0.25020614  0.00038226  1
  O  O29  1  0.49973033  0.25058733  0.49970890  1
  O  O30  1  0.49786940  0.74979683  0.00213952  1
  O  O31  1  0.49761171  0.74940652  0.49763153  1
  O  O32  1  0.00215077  0.99784923  0.24818819  1
  O  O33  1  0.00040793  0.99959207  0.75189392  1
  O  O34  1  0.00220697  0.50223679  0.25312971  1
  O  O35  1  0.00038818  0.50040626  0.74678561  1
  O  O36  1  0.49776321  0.99779303  0.25312971  1
  O  O37  1  0.49959374  0.99961182  0.74678561  1
  O  O38  1  0.49777961  0.50222039  0.25297429  1
  O  O39  1  0.49961824  0.50038176  0.74697065  1
