# generated using pymatgen
data_Li9Mn2Co5O16
_symmetry_space_group_name_H-M   'P 1'
_cell_length_a   2.89611498
_cell_length_b   13.15127957
_cell_length_c   7.76999779
_cell_angle_alpha   86.82258657
_cell_angle_beta   79.25926211
_cell_angle_gamma   89.99999853
_symmetry_Int_Tables_number   1
_chemical_formula_structural   Li9Mn2Co5O16
_chemical_formula_sum   'Li9 Mn2 Co5 O16'
_cell_volume   290.29290617
_cell_formula_units_Z   1
loop_
 _symmetry_equiv_pos_site_id
 _symmetry_equiv_pos_as_xyz
  1  'x, y, z'
loop_
 _atom_site_type_symbol
 _atom_site_label
 _atom_site_symmetry_multiplicity
 _atom_site_fract_x
 _atom_site_fract_y
 _atom_site_fract_z
 _atom_site_occupancy
  Li  Li0  1  0.55828105  0.20194596  0.88343789  1
  Li  Li1  1  0.69039378  0.55372280  0.61921245  1
  Li  Li2  1  0.80768397  0.93713535  0.38463206  1
  Li  Li3  1  0.94188505  0.31722042  0.11622990  1
  Li  Li4  1  0.05846967  0.68216245  0.88306067  1
  Li  Li5  1  0.18922945  0.06443632  0.62154109  1
  Li  Li6  1  0.30788237  0.43623269  0.38423526  1
  Li  Li7  1  0.44131741  0.80503349  0.11736518  1
  Li  Li8  1  0.12792868  0.37699338  0.74414264  1
  Mn  Mn9  1  0.99923030  0.00219398  0.00153940  1
  Mn  Mn10  1  0.74504229  0.25538051  0.50991542  1
  Co  Co11  1  0.25134761  0.74759704  0.49730479  1
  Co  Co12  1  0.37405130  0.13088089  0.25189740  1
  Co  Co13  1  0.50705643  0.48708349  0.98588714  1
  Co  Co14  1  0.62588120  0.87229745  0.74823760  1
  Co  Co15  1  0.87686250  0.62053553  0.24627499  1
  O  O16  1  0.58494512  0.02541132  0.83010976  1
  O  O17  1  0.72389215  0.39086690  0.55221570  1
  O  O18  1  0.83503230  0.77346131  0.32993539  1
  O  O19  1  0.96227483  0.15879464  0.07545034  1
  O  O20  1  0.08577294  0.53046793  0.82845412  1
  O  O21  1  0.21218362  0.90536041  0.57563277  1
  O  O22  1  0.33298314  0.27385725  0.33403371  1
  O  O23  1  0.46176414  0.65196249  0.07647172  1
  O  O24  1  0.52852614  0.35367938  0.94294772  1
  O  O25  1  0.66757073  0.72581120  0.66485854  1
  O  O26  1  0.78337236  0.10639308  0.43325529  1
  O  O27  1  0.91768203  0.47537266  0.16463594  1
  O  O28  1  0.03775078  0.84350436  0.92449844  1
  O  O29  1  0.16478170  0.22146192  0.67043659  1
  O  O30  1  0.28782947  0.59309141  0.42434107  1
  O  O31  1  0.41109549  0.97965198  0.17780902  1
