# generated using pymatgen
data_MnInO3
_symmetry_space_group_name_H-M   'P 1'
_cell_length_a   3.46187222
_cell_length_b   3.46187222
_cell_length_c   11.82529541
_cell_angle_alpha   90.00000000
_cell_angle_beta   90.00000000
_cell_angle_gamma   120.02960928
_symmetry_Int_Tables_number   1
_chemical_formula_structural   MnInO3
_chemical_formula_sum   'Mn2 In2 O6'
_cell_volume   122.69731026
_cell_formula_units_Z   2
loop_
 _symmetry_equiv_pos_site_id
 _symmetry_equiv_pos_as_xyz
  1  'x, y, z'
loop_
 _atom_site_type_symbol
 _atom_site_label
 _atom_site_symmetry_multiplicity
 _atom_site_fract_x
 _atom_site_fract_y
 _atom_site_fract_z
 _atom_site_occupancy
  Mn  Mn0  1  0.33320898  0.66679102  0.75000000  1
  Mn  Mn1  1  0.66679102  0.33320898  0.25000000  1
  In  In2  1  0.00000000  -0.00000000  0.50000000  1
  In  In3  1  0.00000000  -0.00000000  -0.00000000  1
  O  O4  1  0.33331067  0.66668933  0.58451783  1
  O  O5  1  0.66668933  0.33331067  0.41548217  1
  O  O6  1  0.66668933  0.33331067  0.08451783  1
  O  O7  1  0.33331067  0.66668933  0.91548217  1
  O  O8  1  0.00009926  0.99990074  0.75000000  1
  O  O9  1  0.99990074  0.00009926  0.25000000  1
