# generated using pymatgen
data_LiMg3
_symmetry_space_group_name_H-M   'P 1'
_cell_length_a   3.15147356
_cell_length_b   10.23148022
_cell_length_c   5.45294062
_cell_angle_alpha   90.00000000
_cell_angle_beta   90.00000000
_cell_angle_gamma   90.00000000
_symmetry_Int_Tables_number   1
_chemical_formula_structural   LiMg3
_chemical_formula_sum   'Li2 Mg6'
_cell_volume   175.82592275
_cell_formula_units_Z   2
loop_
 _symmetry_equiv_pos_site_id
 _symmetry_equiv_pos_as_xyz
  1  'x, y, z'
loop_
 _atom_site_type_symbol
 _atom_site_label
 _atom_site_symmetry_multiplicity
 _atom_site_fract_x
 _atom_site_fract_y
 _atom_site_fract_z
 _atom_site_occupancy
  Li  Li0  1  0.50000000  -0.00000000  0.83211330  1
  Li  Li1  1  -0.00000000  0.50000000  0.33211330  1
  Mg  Mg2  1  -0.00000000  -0.00000000  0.33518400  1
  Mg  Mg3  1  0.00000000  0.75054518  0.99968435  1
  Mg  Mg4  1  0.50000000  0.74945482  0.49968435  1
  Mg  Mg5  1  0.50000000  0.50000000  0.83518400  1
  Mg  Mg6  1  0.50000000  0.25054518  0.49968435  1
  Mg  Mg7  1  0.00000000  0.24945482  0.99968435  1
