# generated using pymatgen
data_Li20Si3P3S23Cl
_symmetry_space_group_name_H-M   'P 1'
_cell_length_a   8.77029045
_cell_length_b   8.85096372
_cell_length_c   12.77184434
_cell_angle_alpha   90.00000000
_cell_angle_beta   90.10762153
_cell_angle_gamma   90.00000000
_symmetry_Int_Tables_number   1
_chemical_formula_structural   Li20Si3P3S23Cl
_chemical_formula_sum   'Li20 Si3 P3 S23 Cl1'
_cell_volume   991.41934224
_cell_formula_units_Z   1
loop_
 _symmetry_equiv_pos_site_id
 _symmetry_equiv_pos_as_xyz
  1  'x, y, z'
loop_
 _atom_site_type_symbol
 _atom_site_label
 _atom_site_symmetry_multiplicity
 _atom_site_fract_x
 _atom_site_fract_y
 _atom_site_fract_z
 _atom_site_occupancy
  Li  Li0  1  0.22567375  0.76167279  0.29328096  1
  Li  Li1  1  0.77726517  0.23421392  0.28642218  1
  Li  Li2  1  0.27208429  0.26824055  0.79297055  1
  Li  Li3  1  0.72667533  0.73175600  0.79582662  1
  Li  Li4  1  0.22567375  0.23832721  0.29328096  1
  Li  Li5  1  0.77726517  0.76578608  0.28642218  1
  Li  Li6  1  0.27208429  0.73175945  0.79297055  1
  Li  Li7  1  0.72667533  0.26824400  0.79582662  1
  Li  Li8  1  0.99857200  0.50000000  0.94933352  1
  Li  Li9  1  0.99963786  0.50000000  0.43166354  1
  Li  Li10  1  0.49626527  -0.00000000  0.55431957  1
  Li  Li11  1  0.50827325  -0.00000000  0.03746339  1
  Li  Li12  1  0.24903750  0.24824984  0.02048233  1
  Li  Li13  1  0.75047915  0.76463454  0.03196447  1
  Li  Li14  1  0.26554521  0.75554360  0.53623725  1
  Li  Li15  1  0.73221333  0.24569125  0.53507348  1
  Li  Li16  1  0.26554521  0.24445640  0.53623725  1
  Li  Li17  1  0.73221333  0.75430875  0.53507348  1
  Li  Li18  1  0.24903750  0.75175016  0.02048233  1
  Li  Li19  1  0.75047915  0.23536546  0.03196447  1
  Si  Si20  1  0.50045633  -0.00000000  0.80164144  1
  Si  Si21  1  0.51434805  -0.00000000  0.31675280  1
  Si  Si22  1  0.00096451  0.50000000  0.19004980  1
  P  P23  1  0.99958354  0.50000000  0.68683924  1
  P  P24  1  0.99967601  -0.00000000  0.50279941  1
  P  P25  1  0.49908930  0.50000000  0.00445216  1
  S  S26  1  0.00092557  0.19307250  0.41177062  1
  S  S27  1  0.00092557  0.80692750  0.41177062  1
  S  S28  1  0.30432706  0.50000000  0.91175172  1
  S  S29  1  0.69312463  0.50000000  0.91307860  1
  S  S30  1  0.49847003  0.69151963  0.09477453  1
  S  S31  1  0.49847003  0.30848037  0.09477453  1
  S  S32  1  0.18852537  -0.00000000  0.59739134  1
  S  S33  1  0.80896757  -0.00000000  0.59458687  1
  S  S34  1  0.00222033  0.29707479  0.09593070  1
  S  S35  1  0.00222033  0.70292521  0.09593070  1
  S  S36  1  0.19567150  0.50000000  0.59682052  1
  S  S37  1  0.80423639  0.50000000  0.59595981  1
  S  S38  1  0.49590650  0.79815926  0.40284350  1
  S  S39  1  0.49590650  0.20184074  0.40284350  1
  S  S40  1  0.30048875  -0.00000000  0.90126896  1
  S  S41  1  0.70380283  -0.00000000  0.89807947  1
  S  S42  1  0.99933966  0.69112011  0.77757766  1
  S  S43  1  0.99933966  0.30887989  0.77757766  1
  S  S44  1  0.80189822  0.50000000  0.28493434  1
  S  S45  1  0.19921241  0.50000000  0.28640344  1
  S  S46  1  0.49963303  0.19702924  0.70372244  1
  S  S47  1  0.49963303  0.80297076  0.70372244  1
  S  S48  1  0.69021667  -0.00000000  0.20584688  1
  Cl  Cl49  1  0.30172475  -0.00000000  0.21522461  1
