# generated using pymatgen
data_Li9Mn2Co5O16
_symmetry_space_group_name_H-M   'P 1'
_cell_length_a   2.90720204
_cell_length_b   17.14257503
_cell_length_c   5.90688042
_cell_angle_alpha   89.80259484
_cell_angle_beta   90.00000000
_cell_angle_gamma   90.00000000
_symmetry_Int_Tables_number   1
_chemical_formula_structural   Li9Mn2Co5O16
_chemical_formula_sum   'Li9 Mn2 Co5 O16'
_cell_volume   294.37903356
_cell_formula_units_Z   1
loop_
 _symmetry_equiv_pos_site_id
 _symmetry_equiv_pos_as_xyz
  1  'x, y, z'
loop_
 _atom_site_type_symbol
 _atom_site_label
 _atom_site_symmetry_multiplicity
 _atom_site_fract_x
 _atom_site_fract_y
 _atom_site_fract_z
 _atom_site_occupancy
  Li  Li0  1  0.50000000  0.13257675  0.25218493  1
  Li  Li1  1  0.50000000  0.37500000  0.75000000  1
  Li  Li2  1  0.50000000  0.61742325  0.24781507  1
  Li  Li3  1  -0.00000000  0.26166881  0.00438086  1
  Li  Li4  1  -0.00000000  0.48833119  0.49561914  1
  Li  Li5  1  -0.00000000  0.74603367  0.00276916  1
  Li  Li6  1  0.50000000  0.87500000  0.75000000  1
  Li  Li7  1  -0.00000000  0.00396633  0.49723084  1
  Li  Li8  1  0.50000000  0.37500000  0.25000000  1
  Mn  Mn9  1  0.00000000  0.00007211  0.99753710  1
  Mn  Mn10  1  -0.00000000  0.74992789  0.50246290  1
  Co  Co11  1  0.00000000  0.26535195  0.48916202  1
  Co  Co12  1  0.00000000  0.48464805  0.01083798  1
  Co  Co13  1  0.50000000  0.61891631  0.76242313  1
  Co  Co14  1  0.50000000  0.87500000  0.25000000  1
  Co  Co15  1  0.50000000  0.13108369  0.73757687  1
  O  O16  1  0.50000000  0.00145128  0.22163056  1
  O  O17  1  0.50000000  0.24515539  0.73082779  1
  O  O18  1  0.50000000  0.50090841  0.23037034  1
  O  O19  1  -0.00000000  0.11382649  0.98161847  1
  O  O20  1  -0.00000000  0.36937087  0.50329020  1
  O  O21  1  -0.00000000  0.62824023  0.97873485  1
  O  O22  1  0.50000000  0.75108536  0.72426120  1
  O  O23  1  0.00000000  0.86467507  0.49188270  1
  O  O24  1  0.50000000  0.24909159  0.26962966  1
  O  O25  1  0.50000000  0.50484461  0.76917221  1
  O  O26  1  0.50000000  0.74854872  0.27836944  1
  O  O27  1  -0.00000000  0.38062913  0.99670980  1
  O  O28  1  0.00000000  0.63617351  0.51838153  1
  O  O29  1  -0.00000000  0.88532493  0.00811730  1
  O  O30  1  0.50000000  0.99891464  0.77573880  1
  O  O31  1  -0.00000000  0.12175977  0.52126515  1
