# generated using pymatgen
data_MgZn3
_symmetry_space_group_name_H-M   'P 1'
_cell_length_a   5.71596622
_cell_length_b   5.71596675
_cell_length_c   4.61158640
_cell_angle_alpha   90.00000000
_cell_angle_beta   90.00000000
_cell_angle_gamma   119.99999696
_symmetry_Int_Tables_number   1
_chemical_formula_structural   MgZn3
_chemical_formula_sum   'Mg2 Zn6'
_cell_volume   130.48492544
_cell_formula_units_Z   2
loop_
 _symmetry_equiv_pos_site_id
 _symmetry_equiv_pos_as_xyz
  1  'x, y, z'
loop_
 _atom_site_type_symbol
 _atom_site_label
 _atom_site_symmetry_multiplicity
 _atom_site_fract_x
 _atom_site_fract_y
 _atom_site_fract_z
 _atom_site_occupancy
  Mg  Mg0  1  0.66666700  0.33333300  0.75000000  1
  Mg  Mg1  1  0.33333300  0.66666700  0.25000000  1
  Zn  Zn2  1  0.67814506  0.83907253  0.75000000  1
  Zn  Zn3  1  0.16092747  0.32185494  0.75000000  1
  Zn  Zn4  1  0.16092747  0.83907253  0.75000000  1
  Zn  Zn5  1  0.83907253  0.67814506  0.25000000  1
  Zn  Zn6  1  0.83907253  0.16092747  0.25000000  1
  Zn  Zn7  1  0.32185494  0.16092747  0.25000000  1
