# generated using pymatgen
data_LaSnPd
_symmetry_space_group_name_H-M   'P 1'
_cell_length_a   4.81768259
_cell_length_b   7.68787719
_cell_length_c   8.06251938
_cell_angle_alpha   90.00000000
_cell_angle_beta   90.00000000
_cell_angle_gamma   90.00000000
_symmetry_Int_Tables_number   1
_chemical_formula_structural   LaSnPd
_chemical_formula_sum   'La4 Sn4 Pd4'
_cell_volume   298.61759404
_cell_formula_units_Z   4
loop_
 _symmetry_equiv_pos_site_id
 _symmetry_equiv_pos_as_xyz
  1  'x, y, z'
loop_
 _atom_site_type_symbol
 _atom_site_label
 _atom_site_symmetry_multiplicity
 _atom_site_fract_x
 _atom_site_fract_y
 _atom_site_fract_z
 _atom_site_occupancy
  La  La0  1  0.75000000  0.48570665  0.20095384  1
  La  La1  1  0.75000000  0.98570665  0.29904616  1
  La  La2  1  0.25000000  0.51429335  0.79904616  1
  La  La3  1  0.25000000  0.01429335  0.70095384  1
  Sn  Sn4  1  0.75000000  0.31523471  0.58658066  1
  Sn  Sn5  1  0.75000000  0.81523471  0.91341934  1
  Sn  Sn6  1  0.25000000  0.68476529  0.41341934  1
  Sn  Sn7  1  0.25000000  0.18476529  0.08658066  1
  Pd  Pd8  1  0.75000000  0.19922395  0.91496185  1
  Pd  Pd9  1  0.75000000  0.69922395  0.58503815  1
  Pd  Pd10  1  0.25000000  0.80077605  0.08503815  1
  Pd  Pd11  1  0.25000000  0.30077605  0.41496185  1
