# generated using pymatgen
data_Li9Mn2Co5O16
_symmetry_space_group_name_H-M   'P 1'
_cell_length_a   2.94564627
_cell_length_b   9.89778919
_cell_length_c   10.11677752
_cell_angle_alpha   86.88369005
_cell_angle_beta   89.99999957
_cell_angle_gamma   81.44242433
_symmetry_Int_Tables_number   1
_chemical_formula_structural   Li9Mn2Co5O16
_chemical_formula_sum   'Li9 Mn2 Co5 O16'
_cell_volume   291.23363651
_cell_formula_units_Z   1
loop_
 _symmetry_equiv_pos_site_id
 _symmetry_equiv_pos_as_xyz
  1  'x, y, z'
loop_
 _atom_site_type_symbol
 _atom_site_label
 _atom_site_symmetry_multiplicity
 _atom_site_fract_x
 _atom_site_fract_y
 _atom_site_fract_z
 _atom_site_occupancy
  Li  Li0  1  0.36078933  0.27842134  0.06166648  1
  Li  Li1  1  0.13921067  0.72157866  0.18833352  1
  Li  Li2  1  0.86886806  0.26226387  0.31803492  1
  Li  Li3  1  0.63392112  0.73215776  0.44705999  1
  Li  Li4  1  0.37157466  0.25685068  0.56627068  1
  Li  Li5  1  0.12842534  0.74314932  0.68372932  1
  Li  Li6  1  0.86607888  0.26784224  0.80294001  1
  Li  Li7  1  0.63113194  0.73773613  0.93196508  1
  Li  Li8  1  0.75000000  0.50000000  0.12500000  1
  Mn  Mn9  1  0.99976954  0.00046092  0.99842121  1
  Mn  Mn10  1  0.50023046  0.99953908  0.25157879  1
  Co  Co11  1  0.25081730  0.49836541  0.36235245  1
  Co  Co12  1  0.00180124  0.99639752  0.50554247  1
  Co  Co13  1  0.75000000  0.50000000  0.62500000  1
  Co  Co14  1  0.49819876  0.00360248  0.74445753  1
  Co  Co15  1  0.24918270  0.50163459  0.88764755  1
  O  O16  1  0.44530727  0.10938545  0.92395367  1
  O  O17  1  0.18965757  0.62068487  0.01646264  1
  O  O18  1  0.94770521  0.10458957  0.16226167  1
  O  O19  1  0.69044636  0.61910728  0.28884467  1
  O  O20  1  0.44549487  0.10901027  0.39934523  1
  O  O21  1  0.19436669  0.61126661  0.52919140  1
  O  O22  1  0.93983654  0.12032693  0.65870836  1
  O  O23  1  0.69356791  0.61286418  0.77421602  1
  O  O24  1  0.31034243  0.37931513  0.23353736  1
  O  O25  1  0.05469273  0.89061455  0.32604633  1
  O  O26  1  0.80643209  0.38713582  0.47578398  1
  O  O27  1  0.56016346  0.87967307  0.59129164  1
  O  O28  1  0.30563331  0.38873339  0.72080860  1
  O  O29  1  0.05450513  0.89098973  0.85065477  1
  O  O30  1  0.80955364  0.38089272  0.96115533  1
  O  O31  1  0.55229479  0.89541043  0.08773833  1
