# generated using pymatgen
data_K4Na4Nb3W5O24
_symmetry_space_group_name_H-M   'P 1'
_cell_length_a   8.02886378
_cell_length_b   8.03715655
_cell_length_c   8.04058614
_cell_angle_alpha   90.00000000
_cell_angle_beta   90.00000000
_cell_angle_gamma   90.00000000
_symmetry_Int_Tables_number   1
_chemical_formula_structural   K4Na4Nb3W5O24
_chemical_formula_sum   'K4 Na4 Nb3 W5 O24'
_cell_volume   518.85287352
_cell_formula_units_Z   1
loop_
 _symmetry_equiv_pos_site_id
 _symmetry_equiv_pos_as_xyz
  1  'x, y, z'
loop_
 _atom_site_type_symbol
 _atom_site_label
 _atom_site_symmetry_multiplicity
 _atom_site_fract_x
 _atom_site_fract_y
 _atom_site_fract_z
 _atom_site_occupancy
  K  K0  1  0.25058241  0.24945391  0.24980971  1
  K  K1  1  0.25058241  0.75054609  0.24980971  1
  K  K2  1  0.74941759  0.24945391  0.24980971  1
  K  K3  1  0.74941759  0.75054609  0.24980971  1
  Na  Na4  1  0.25070897  0.24939787  0.75016052  1
  Na  Na5  1  0.25070897  0.75060213  0.75016052  1
  Na  Na6  1  0.74929103  0.24939787  0.75016052  1
  Na  Na7  1  0.74929103  0.75060213  0.75016052  1
  Nb  Nb8  1  -0.00000000  0.50000000  0.50208079  1
  Nb  Nb9  1  0.50000000  0.50000000  0.99851310  1
  Nb  Nb10  1  0.50000000  0.50000000  0.50147336  1
  W  W11  1  -0.00000000  -0.00000000  0.99899036  1
  W  W12  1  -0.00000000  0.00000000  0.50146918  1
  W  W13  1  -0.00000000  0.50000000  0.99879120  1
  W  W14  1  0.50000000  0.00000000  0.99844858  1
  W  W15  1  0.50000000  -0.00000000  0.50140223  1
  O  O16  1  0.25666210  0.00000000  0.99723533  1
  O  O17  1  0.24989971  -0.00000000  0.50289432  1
  O  O18  1  0.24516867  0.50000000  0.99725847  1
  O  O19  1  0.24887231  0.50000000  0.50282098  1
  O  O20  1  0.74333790  -0.00000000  0.99723533  1
  O  O21  1  0.75010029  -0.00000000  0.50289432  1
  O  O22  1  0.75483133  0.50000000  0.99725847  1
  O  O23  1  0.75112769  0.50000000  0.50282098  1
  O  O24  1  -0.00000000  0.26124348  0.99709639  1
  O  O25  1  -0.00000000  0.24674160  0.50272308  1
  O  O26  1  -0.00000000  0.73875652  0.99709639  1
  O  O27  1  -0.00000000  0.75325840  0.50272308  1
  O  O28  1  0.50000000  0.25377595  0.99708463  1
  O  O29  1  0.50000000  0.24552945  0.50269379  1
  O  O30  1  0.50000000  0.74622405  0.99708463  1
  O  O31  1  0.50000000  0.75447055  0.50269379  1
  O  O32  1  -0.00000000  -0.00000000  0.25087486  1
  O  O33  1  -0.00000000  0.00000000  0.74963171  1
  O  O34  1  -0.00000000  0.50000000  0.24632055  1
  O  O35  1  -0.00000000  0.50000000  0.75247065  1
  O  O36  1  0.50000000  0.00000000  0.25127339  1
  O  O37  1  0.50000000  -0.00000000  0.74887410  1
  O  O38  1  0.50000000  0.50000000  0.25168109  1
  O  O39  1  0.50000000  0.50000000  0.74820992  1
