# generated using pymatgen
data_Ti11Fe13O36
_symmetry_space_group_name_H-M   'P 1'
_cell_length_a   5.55186915
_cell_length_b   5.55627720
_cell_length_c   33.41880716
_cell_angle_alpha   55.53693563
_cell_angle_beta   55.61113399
_cell_angle_gamma   55.58372898
_symmetry_Int_Tables_number   1
_chemical_formula_structural   Ti11Fe13O36
_chemical_formula_sum   'Ti11 Fe13 O36'
_cell_volume   654.12197472
_cell_formula_units_Z   1
loop_
 _symmetry_equiv_pos_site_id
 _symmetry_equiv_pos_as_xyz
  1  'x, y, z'
loop_
 _atom_site_type_symbol
 _atom_site_label
 _atom_site_symmetry_multiplicity
 _atom_site_fract_x
 _atom_site_fract_y
 _atom_site_fract_z
 _atom_site_occupancy
  Ti  Ti0  1  0.15127514  0.14659561  0.02324205  1
  Ti  Ti1  1  0.34459822  0.35202226  0.05960145  1
  Ti  Ti2  1  0.16336749  0.15013601  0.19145339  1
  Ti  Ti3  1  0.36114093  0.34716529  0.22693709  1
  Ti  Ti4  1  0.14298045  0.15207233  0.36033592  1
  Ti  Ti5  1  0.14599516  0.14402258  0.52440836  1
  Ti  Ti6  1  0.14509655  0.14579845  0.69091304  1
  Ti  Ti7  1  0.85232311  0.84819970  0.47638563  1
  Ti  Ti8  1  0.14336708  0.14788131  0.85809098  1
  Ti  Ti9  1  0.85386634  0.85479834  0.64253805  1
  Ti  Ti10  1  0.85140139  0.85777871  0.80886157  1
  Fe  Fe11  1  0.64158001  0.64138022  0.10740528  1
  Fe  Fe12  1  0.84923110  0.85504071  0.14228631  1
  Fe  Fe13  1  0.35703186  0.35772695  0.39281331  1
  Fe  Fe14  1  0.64359091  0.63626530  0.27496013  1
  Fe  Fe15  1  0.85595237  0.84498068  0.30949779  1
  Fe  Fe16  1  0.35577589  0.35368242  0.55955692  1
  Fe  Fe17  1  0.64251301  0.65186304  0.43922715  1
  Fe  Fe18  1  0.35491532  0.35355155  0.72652008  1
  Fe  Fe19  1  0.64408985  0.64271741  0.60776800  1
  Fe  Fe20  1  0.35833135  0.35961421  0.89121799  1
  Fe  Fe21  1  0.64338993  0.64624470  0.77393397  1
  Fe  Fe22  1  0.64499791  0.64095496  0.94058271  1
  Fe  Fe23  1  0.85426691  0.86135593  0.97439145  1
  O  O24  1  0.08888991  0.74392166  0.06963834  1
  O  O25  1  0.41548955  0.08447484  0.12394626  1
  O  O26  1  0.75126538  0.41513828  0.01476541  1
  O  O27  1  0.24674666  0.52685696  0.16189771  1
  O  O28  1  0.54874731  0.97065314  0.03885361  1
  O  O29  1  0.08939428  0.74829252  0.23521905  1
  O  O30  1  0.97454253  0.24075871  0.09038360  1
  O  O31  1  0.42978657  0.08495362  0.29049707  1
  O  O32  1  0.74752573  0.41912086  0.18094196  1
  O  O33  1  0.22926544  0.55605238  0.32702395  1
  O  O34  1  0.53816065  0.96549181  0.20866460  1
  O  O35  1  0.04329358  0.78698573  0.40536517  1
  O  O36  1  0.96624743  0.22840599  0.25728550  1
  O  O37  1  0.42795817  0.05076677  0.46354444  1
  O  O38  1  0.78257260  0.43694710  0.34015963  1
  O  O39  1  0.21882871  0.56678936  0.49228576  1
  O  O40  1  0.54978396  0.95375750  0.37081892  1
  O  O41  1  0.04688344  0.78088956  0.57236536  1
  O  O42  1  0.94277686  0.22113449  0.42762978  1
  O  O43  1  0.43373738  0.04790513  0.62997658  1
  O  O44  1  0.78089303  0.43607220  0.50759520  1
  O  O45  1  0.21978838  0.56694095  0.65874380  1
  O  O46  1  0.56576508  0.95164235  0.53627032  1
  O  O47  1  0.04592398  0.78190449  0.73871902  1
  O  O48  1  0.95177398  0.21958594  0.59433019  1
  O  O49  1  0.43190999  0.04849810  0.79709115  1
  O  O50  1  0.78141266  0.43432146  0.67465479  1
  O  O51  1  0.22014063  0.57030671  0.82406549  1
  O  O52  1  0.56647239  0.95333942  0.70278408  1
  O  O53  1  0.04933190  0.77890948  0.90670670  1
  O  O54  1  0.95207901  0.21980848  0.76062268  1
  O  O55  1  0.43020704  0.04477023  0.96429861  1
  O  O56  1  0.78077202  0.43346405  0.84117268  1
  O  O57  1  0.22879589  0.54489675  0.99400411  1
  O  O58  1  0.56587389  0.95680232  0.86934853  1
  O  O59  1  0.95588571  0.23759200  0.92540134  1
