# generated using pymatgen
data_Li9Mn7O16
_symmetry_space_group_name_H-M   'P 1'
_cell_length_a   5.08086089
_cell_length_b   10.23103944
_cell_length_c   5.99326180
_cell_angle_alpha   92.10892700
_cell_angle_beta   77.05149541
_cell_angle_gamma   78.49216380
_symmetry_Int_Tables_number   1
_chemical_formula_structural   Li9Mn7O16
_chemical_formula_sum   'Li9 Mn7 O16'
_cell_volume   296.43354805
_cell_formula_units_Z   1
loop_
 _symmetry_equiv_pos_site_id
 _symmetry_equiv_pos_as_xyz
  1  'x, y, z'
loop_
 _atom_site_type_symbol
 _atom_site_label
 _atom_site_symmetry_multiplicity
 _atom_site_fract_x
 _atom_site_fract_y
 _atom_site_fract_z
 _atom_site_occupancy
  Li  Li0  1  0.50000000  0.12500000  0.37500000  1
  Li  Li1  1  0.01127944  0.24655324  0.24477246  1
  Li  Li2  1  0.98872056  0.00344676  0.50522754  1
  Li  Li3  1  0.50143951  0.37107599  0.11262328  1
  Li  Li4  1  0.00229489  0.49684848  0.99985343  1
  Li  Li5  1  0.50000000  0.62500000  0.87500000  1
  Li  Li6  1  0.99770511  0.75315152  0.75014657  1
  Li  Li7  1  0.49856049  0.87892401  0.63737672  1
  Li  Li8  1  0.50000000  0.12500000  0.87500000  1
  Mn  Mn9  1  0.00456846  0.00359245  0.98628862  1
  Mn  Mn10  1  0.99543154  0.24640755  0.76371138  1
  Mn  Mn11  1  0.49364276  0.36850548  0.63812823  1
  Mn  Mn12  1  0.99483018  0.49814430  0.50418754  1
  Mn  Mn13  1  0.50000000  0.62500000  0.37500000  1
  Mn  Mn14  1  0.00516982  0.75185570  0.24581246  1
  Mn  Mn15  1  0.50635724  0.88149452  0.11187177  1
  O  O16  1  0.78503129  0.18382357  0.03540457  1
  O  O17  1  0.22905231  0.30611568  0.93243851  1
  O  O18  1  0.24886629  0.04965657  0.17787412  1
  O  O19  1  0.74560010  0.42264622  0.81320910  1
  O  O20  1  0.24459720  0.54734942  0.68021999  1
  O  O21  1  0.74662348  0.67814434  0.55645027  1
  O  O22  1  0.25078057  0.80062506  0.42555354  1
  O  O23  1  0.77580167  0.94023467  0.27281816  1
  O  O24  1  0.21496871  0.06617643  0.71459543  1
  O  O25  1  0.75113371  0.20034343  0.57212588  1
  O  O26  1  0.77094769  0.94388432  0.81756049  1
  O  O27  1  0.22419833  0.30976533  0.47718184  1
  O  O28  1  0.74921943  0.44937394  0.32444546  1
  O  O29  1  0.25337652  0.57185566  0.19354973  1
  O  O30  1  0.75540280  0.70265058  0.06978001  1
  O  O31  1  0.25439990  0.82735378  0.93679090  1
