# generated using pymatgen
data_Li9Mn7O16
_symmetry_space_group_name_H-M   'P 1'
_cell_length_a   5.09454971
_cell_length_b   8.13346830
_cell_length_c   7.69343317
_cell_angle_alpha   79.97938971
_cell_angle_beta   107.36378196
_cell_angle_gamma   93.93918340
_symmetry_Int_Tables_number   1
_chemical_formula_structural   Li9Mn7O16
_chemical_formula_sum   'Li9 Mn7 O16'
_cell_volume   299.57131195
_cell_formula_units_Z   1
loop_
 _symmetry_equiv_pos_site_id
 _symmetry_equiv_pos_as_xyz
  1  'x, y, z'
loop_
 _atom_site_type_symbol
 _atom_site_label
 _atom_site_symmetry_multiplicity
 _atom_site_fract_x
 _atom_site_fract_y
 _atom_site_fract_z
 _atom_site_occupancy
  Li  Li0  1  0.49307486  0.17528859  0.93689592  1
  Li  Li1  1  0.50133152  0.44194755  0.18808015  1
  Li  Li2  1  0.50692514  0.57471141  0.81310408  1
  Li  Li3  1  0.50984370  0.81392741  0.06831350  1
  Li  Li4  1  0.49015630  0.93607259  0.68168650  1
  Li  Li5  1  0.49866848  0.30805245  0.56191985  1
  Li  Li6  1  0.48542040  0.69285293  0.43592822  1
  Li  Li7  1  0.51457960  0.05714707  0.31407178  1
  Li  Li8  1  -0.00000000  0.87500000  0.37500000  1
  Mn  Mn9  1  0.99379806  0.99776905  0.00285938  1
  Mn  Mn10  1  0.00620194  0.75223095  0.74714062  1
  Mn  Mn11  1  0.99872879  0.24345294  0.25169208  1
  Mn  Mn12  1  0.00127121  0.50654706  0.49830792  1
  Mn  Mn13  1  -0.00000000  0.37500000  0.87500000  1
  Mn  Mn14  1  0.00431810  0.63032197  0.12714214  1
  Mn  Mn15  1  0.99568190  0.11967803  0.62285786  1
  O  O16  1  0.22958610  0.98476301  0.83884455  1
  O  O17  1  0.23421104  0.23287482  0.09209215  1
  O  O18  1  0.20830000  0.32979376  0.70659258  1
  O  O19  1  0.23047962  0.60238170  0.96856877  1
  O  O20  1  0.24121034  0.71729393  0.60528829  1
  O  O21  1  0.23136232  0.10568440  0.46939638  1
  O  O22  1  0.23144843  0.48541432  0.34062696  1
  O  O23  1  0.21611130  0.82906260  0.19857964  1
  O  O24  1  0.79170000  0.42020624  0.04340742  1
  O  O25  1  0.76863768  0.64431660  0.28060462  1
  O  O26  1  0.77041390  0.76523699  0.91115645  1
  O  O27  1  0.75878966  0.03270707  0.14471271  1
  O  O28  1  0.76952038  0.14761830  0.78143223  1
  O  O29  1  0.76578896  0.51712518  0.65790885  1
  O  O30  1  0.78388870  0.92093840  0.55142136  1
  O  O31  1  0.76855157  0.26458668  0.40937404  1
