# generated using pymatgen
data_Li9Mn7O16
_symmetry_space_group_name_H-M   'P 1'
_cell_length_a   6.04288093
_cell_length_b   6.49331069
_cell_length_c   8.15041073
_cell_angle_alpha   87.99436851
_cell_angle_beta   74.58997151
_cell_angle_gamma   75.25728587
_symmetry_Int_Tables_number   1
_chemical_formula_structural   Li9Mn7O16
_chemical_formula_sum   'Li9 Mn7 O16'
_cell_volume   297.97811899
_cell_formula_units_Z   1
loop_
 _symmetry_equiv_pos_site_id
 _symmetry_equiv_pos_as_xyz
  1  'x, y, z'
loop_
 _atom_site_type_symbol
 _atom_site_label
 _atom_site_symmetry_multiplicity
 _atom_site_fract_x
 _atom_site_fract_y
 _atom_site_fract_z
 _atom_site_occupancy
  Li  Li0  1  0.12500000  0.37500000  0.12500000  1
  Li  Li1  1  0.75825601  0.74733555  0.25644932  1
  Li  Li2  1  0.99386333  0.49385150  0.48260842  1
  Li  Li3  1  0.62500000  0.87500000  0.62500000  1
  Li  Li4  1  0.86957677  0.61105843  0.88832402  1
  Li  Li5  1  0.49174399  0.00266445  0.99355068  1
  Li  Li6  1  0.38042323  0.13894157  0.36167598  1
  Li  Li7  1  0.25613667  0.25614850  0.76739158  1
  Li  Li8  1  0.62500000  0.37500000  0.12500000  1
  Mn  Mn9  1  0.99786415  0.00668834  0.00125470  1
  Mn  Mn10  1  0.25213585  0.74331166  0.24874530  1
  Mn  Mn11  1  0.87101396  0.12475030  0.37002008  1
  Mn  Mn12  1  0.49802077  0.49614590  0.49324472  1
  Mn  Mn13  1  0.12500000  0.87500000  0.62500000  1
  Mn  Mn14  1  0.75197923  0.25385410  0.75675528  1
  Mn  Mn15  1  0.37898604  0.62524970  0.87997992  1
  O  O16  1  0.94421337  0.29340535  0.93664147  1
  O  O17  1  0.52609536  0.68729716  0.05003878  1
  O  O18  1  0.80657974  0.42526391  0.32483601  1
  O  O19  1  0.42939372  0.80148340  0.45209099  1
  O  O20  1  0.68081128  0.55445416  0.70844844  1
  O  O21  1  0.30615337  0.92516509  0.82236257  1
  O  O22  1  0.17972839  0.05423387  0.20425530  1
  O  O23  1  0.03021032  0.17361903  0.55064431  1
  O  O24  1  0.30578663  0.45659465  0.31335853  1
  O  O25  1  0.94384763  0.82483591  0.42763743  1
  O  O26  1  0.21978968  0.57638097  0.69935669  1
  O  O27  1  0.82060728  0.94851760  0.79791001  1
  O  O28  1  0.07027161  0.69576613  0.04574470  1
  O  O29  1  0.72390564  0.06270384  0.19996122  1
  O  O30  1  0.56918972  0.19554584  0.54155156  1
  O  O31  1  0.44342126  0.32473709  0.92516499  1
