# generated using pymatgen
data_Li9Mn7O16
_symmetry_space_group_name_H-M   'P 1'
_cell_length_a   5.09466205
_cell_length_b   5.82910967
_cell_length_c   10.51256627
_cell_angle_alpha   90.06342585
_cell_angle_beta   95.51537067
_cell_angle_gamma   107.23508859
_symmetry_Int_Tables_number   1
_chemical_formula_structural   Li9Mn7O16
_chemical_formula_sum   'Li9 Mn7 O16'
_cell_volume   296.65264533
_cell_formula_units_Z   1
loop_
 _symmetry_equiv_pos_site_id
 _symmetry_equiv_pos_as_xyz
  1  'x, y, z'
loop_
 _atom_site_type_symbol
 _atom_site_label
 _atom_site_symmetry_multiplicity
 _atom_site_fract_x
 _atom_site_fract_y
 _atom_site_fract_z
 _atom_site_occupancy
  Li  Li0  1  0.99269812  0.24943997  0.24353978  1
  Li  Li1  1  0.49740921  0.87758923  0.62935290  1
  Li  Li2  1  0.00730188  0.00056003  0.50646022  1
  Li  Li3  1  0.50000000  0.62500000  0.87500000  1
  Li  Li4  1  0.01413286  0.75171414  0.75732323  1
  Li  Li5  1  0.50259079  0.37241077  0.12064710  1
  Li  Li6  1  0.98586714  0.49828586  0.99267677  1
  Li  Li7  1  0.50000000  0.12500000  0.37500000  1
  Li  Li8  1  0.50000000  0.12500000  0.87500000  1
  Mn  Mn9  1  0.99369929  0.99786081  0.99162203  1
  Mn  Mn10  1  0.00630071  0.25213919  0.75837797  1
  Mn  Mn11  1  0.50000000  0.62500000  0.37500000  1
  Mn  Mn12  1  0.49062393  0.87522741  0.11456631  1
  Mn  Mn13  1  0.00665432  0.50038065  0.50353895  1
  Mn  Mn14  1  0.99334568  0.74961935  0.24646105  1
  Mn  Mn15  1  0.50937607  0.37477259  0.63543369  1
  O  O16  1  0.75005609  0.16242370  0.06438545  1
  O  O17  1  0.25618367  0.79634367  0.44009596  1
  O  O18  1  0.75095240  0.91671135  0.31412089  1
  O  O19  1  0.25957585  0.54410551  0.69526442  1
  O  O20  1  0.75620292  0.66283717  0.56477015  1
  O  O21  1  0.21271578  0.29315722  0.92534561  1
  O  O22  1  0.77134050  0.42153116  0.80913198  1
  O  O23  1  0.22244632  0.04471953  0.16907651  1
  O  O24  1  0.24904760  0.33328865  0.43587911  1
  O  O25  1  0.78728422  0.95684178  0.82465539  1
  O  O26  1  0.24994391  0.08757630  0.68561555  1
  O  O27  1  0.74042415  0.70589449  0.05473658  1
  O  O28  1  0.22865950  0.82846884  0.94086902  1
  O  O29  1  0.74381633  0.45365633  0.30990504  1
  O  O30  1  0.24379708  0.58716183  0.18523085  1
  O  O31  1  0.77755368  0.20527947  0.58092449  1
