# generated using pymatgen
data_Li9Mn7O16
_symmetry_space_group_name_H-M   'P 1'
_cell_length_a   5.99460076
_cell_length_b   7.77069049
_cell_length_c   7.67358918
_cell_angle_alpha   115.78250527
_cell_angle_beta   109.02828238
_cell_angle_gamma   70.81055797
_symmetry_Int_Tables_number   1
_chemical_formula_structural   Li9Mn7O16
_chemical_formula_sum   'Li9 Mn7 O16'
_cell_volume   296.85783420
_cell_formula_units_Z   1
loop_
 _symmetry_equiv_pos_site_id
 _symmetry_equiv_pos_as_xyz
  1  'x, y, z'
loop_
 _atom_site_type_symbol
 _atom_site_label
 _atom_site_symmetry_multiplicity
 _atom_site_fract_x
 _atom_site_fract_y
 _atom_site_fract_z
 _atom_site_occupancy
  Li  Li0  1  0.37500000  0.12500000  0.37500000  1
  Li  Li1  1  0.24179330  0.24773803  0.74278419  1
  Li  Li2  1  0.62284793  0.87628316  0.62483928  1
  Li  Li3  1  0.50820670  0.00226197  0.00721581  1
  Li  Li4  1  0.87500000  0.62500000  0.87500000  1
  Li  Li5  1  0.75319120  0.76148029  0.25007096  1
  Li  Li6  1  0.12715207  0.37371684  0.12516072  1
  Li  Li7  1  0.99680880  0.48851971  0.49992904  1
  Li  Li8  1  0.87500000  0.12500000  0.37500000  1
  Mn  Mn9  1  0.99431083  0.99946109  0.00097505  1
  Mn  Mn10  1  0.50651229  0.49326538  0.49744868  1
  Mn  Mn11  1  0.75568917  0.25053891  0.74902495  1
  Mn  Mn12  1  0.63223386  0.37100725  0.12717993  1
  Mn  Mn13  1  0.37500000  0.62500000  0.87500000  1
  Mn  Mn14  1  0.24348771  0.75673462  0.25255132  1
  Mn  Mn15  1  0.11776614  0.87899275  0.62282007  1
  O  O16  1  0.96075430  0.25154175  0.22407492  1
  O  O17  1  0.86660147  0.37513808  0.63897606  1
  O  O18  1  0.25309285  0.98249661  0.49969081  1
  O  O19  1  0.13048066  0.10131028  0.86947185  1
  O  O20  1  0.45948311  0.74684550  0.73316214  1
  O  O21  1  0.38020457  0.85790254  0.12467804  1
  O  O22  1  0.74812607  0.48401243  0.99953910  1
  O  O23  1  0.62785359  0.60034667  0.36927921  1
  O  O24  1  0.78924570  0.99845825  0.52592508  1
  O  O25  1  0.61951934  0.14868872  0.88052715  1
  O  O26  1  0.00187393  0.76598657  0.75045990  1
  O  O27  1  0.88339853  0.87486192  0.11102394  1
  O  O28  1  0.29051689  0.50315350  0.01683786  1
  O  O29  1  0.12214641  0.64965233  0.38071979  1
  O  O30  1  0.49690815  0.26750239  0.25030819  1
  O  O31  1  0.36979543  0.39209646  0.62532096  1
