# generated using pymatgen
data_SrCa7FeCo7O20
_symmetry_space_group_name_H-M   'P 1'
_cell_length_a   10.65074572
_cell_length_b   11.13260165
_cell_length_c   17.03242324
_cell_angle_alpha   108.70279240
_cell_angle_beta   107.83863027
_cell_angle_gamma   90.99717474
_symmetry_Int_Tables_number   1
_chemical_formula_structural   SrCa7FeCo7O20
_chemical_formula_sum   'Sr4 Ca28 Fe4 Co28 O80'
_cell_volume   1805.89770844
_cell_formula_units_Z   4
loop_
 _symmetry_equiv_pos_site_id
 _symmetry_equiv_pos_as_xyz
  1  'x, y, z'
loop_
 _atom_site_type_symbol
 _atom_site_label
 _atom_site_symmetry_multiplicity
 _atom_site_fract_x
 _atom_site_fract_y
 _atom_site_fract_z
 _atom_site_occupancy
  Sr  Sr0  1  0.30655138  0.56327478  0.60888215  1
  Sr  Sr1  1  0.05699635  0.29421982  0.61009565  1
  Sr  Sr2  1  0.55953987  0.29552939  0.61005908  1
  Sr  Sr3  1  0.44956951  0.19980135  0.89015882  1
  Ca  Ca4  1  0.30477774  0.06574052  0.11032339  1
  Ca  Ca5  1  0.30567800  0.06310243  0.60410222  1
  Ca  Ca6  1  0.30636597  0.56735011  0.11099462  1
  Ca  Ca7  1  0.80312664  0.06649662  0.10949035  1
  Ca  Ca8  1  0.80380828  0.06356596  0.60760961  1
  Ca  Ca9  1  0.80815414  0.56624924  0.11061324  1
  Ca  Ca10  1  0.80367655  0.56781216  0.60749020  1
  Ca  Ca11  1  0.19485136  0.43135354  0.38814909  1
  Ca  Ca12  1  0.19844266  0.43431519  0.89700679  1
  Ca  Ca13  1  0.19731250  0.93155650  0.38897853  1
  Ca  Ca14  1  0.19532940  0.93660534  0.89281062  1
  Ca  Ca15  1  0.69525802  0.43260198  0.38899600  1
  Ca  Ca16  1  0.70136408  0.43305898  0.89661609  1
  Ca  Ca17  1  0.69557816  0.93404850  0.39013378  1
  Ca  Ca18  1  0.69537976  0.93888553  0.89256624  1
  Ca  Ca19  1  0.05361777  0.29562070  0.10938279  1
  Ca  Ca20  1  0.05639929  0.79329058  0.10969112  1
  Ca  Ca21  1  0.05334792  0.79362598  0.60779667  1
  Ca  Ca22  1  0.55811262  0.29129595  0.11031993  1
  Ca  Ca23  1  0.55665477  0.79248996  0.11091260  1
  Ca  Ca24  1  0.55491524  0.79537022  0.60780414  1
  Ca  Ca25  1  0.44582473  0.20543535  0.38867794  1
  Ca  Ca26  1  0.44658515  0.70759778  0.39009286  1
  Ca  Ca27  1  0.44854263  0.71465125  0.89604987  1
  Ca  Ca28  1  0.94304553  0.20442637  0.38808204  1
  Ca  Ca29  1  0.94658289  0.20704327  0.89133508  1
  Ca  Ca30  1  0.94523632  0.70482538  0.38975954  1
  Ca  Ca31  1  0.94459665  0.71110334  0.89294764  1
  Fe  Fe32  1  0.10310590  0.59551691  0.75280704  1
  Fe  Fe33  1  0.61422590  0.59712184  0.75463977  1
  Fe  Fe34  1  0.35964000  0.41222445  0.75484864  1
  Fe  Fe35  1  0.35489292  0.90792413  0.74772240  1
  Co  Co36  1  0.00516889  0.00242752  0.00212569  1
  Co  Co37  1  0.00328505  0.99585030  0.49613235  1
  Co  Co38  1  0.00661346  0.50160301  0.00173269  1
  Co  Co39  1  0.00135502  0.49882767  0.49555737  1
  Co  Co40  1  0.50635221  0.99965448  0.00334012  1
  Co  Co41  1  0.50476357  0.99798998  0.49650487  1
  Co  Co42  1  0.50797535  0.49991762  0.00181925  1
  Co  Co43  1  0.50419547  0.49944546  0.49585320  1
  Co  Co44  1  0.25623849  0.25151948  0.00416503  1
  Co  Co45  1  0.25192452  0.24529870  0.49400060  1
  Co  Co46  1  0.25531304  0.75117827  0.00056661  1
  Co  Co47  1  0.25516360  0.74903605  0.49773534  1
  Co  Co48  1  0.75791337  0.25116946  0.00329465  1
  Co  Co49  1  0.75230683  0.24750962  0.49477744  1
  Co  Co50  1  0.75665870  0.75213038  0.00133364  1
  Co  Co51  1  0.75361787  0.74925854  0.49789999  1
  Co  Co52  1  0.10772506  0.09315564  0.24842975  1
  Co  Co53  1  0.10432038  0.09169485  0.75004256  1
  Co  Co54  1  0.10937061  0.59499530  0.25023218  1
  Co  Co55  1  0.60842146  0.09304688  0.25017357  1
  Co  Co56  1  0.61281089  0.09130621  0.74853926  1
  Co  Co57  1  0.60889475  0.59405205  0.24970921  1
  Co  Co58  1  0.35662631  0.40637531  0.24914521  1
  Co  Co59  1  0.35769606  0.90481641  0.24946148  1
  Co  Co60  1  0.85719028  0.40562797  0.24950290  1
  Co  Co61  1  0.86006677  0.40488786  0.75308267  1
  Co  Co62  1  0.85745628  0.90470956  0.24955890  1
  Co  Co63  1  0.85766319  0.90391168  0.75014929  1
  O  O64  1  0.11996410  0.11146815  0.48541337  1
  O  O65  1  0.12477068  0.12764734  0.99007639  1
  O  O66  1  0.11759082  0.61438303  0.48409633  1
  O  O67  1  0.12684019  0.62588737  0.98931450  1
  O  O68  1  0.62222245  0.11696523  0.48231945  1
  O  O69  1  0.62679462  0.11908916  0.99318811  1
  O  O70  1  0.62011158  0.61691210  0.48667030  1
  O  O71  1  0.62965132  0.62662455  0.99083600  1
  O  O72  1  0.13687596  0.38876075  0.01686886  1
  O  O73  1  0.13267521  0.36855593  0.50288796  1
  O  O74  1  0.13315966  0.88730650  0.01435737  1
  O  O75  1  0.13704835  0.87278081  0.51048872  1
  O  O76  1  0.63776397  0.38686061  0.01740310  1
  O  O77  1  0.63898831  0.37761756  0.50752247  1
  O  O78  1  0.63370891  0.88410229  0.01696610  1
  O  O79  1  0.63815879  0.87429029  0.51042616  1
  O  O80  1  0.36815424  0.11899394  0.48429011  1
  O  O81  1  0.37310465  0.10945115  0.99161506  1
  O  O82  1  0.36875966  0.62024972  0.48185321  1
  O  O83  1  0.37742829  0.61191093  0.98896735  1
  O  O84  1  0.86825085  0.11876214  0.48508214  1
  O  O85  1  0.87633563  0.11415363  0.98842225  1
  O  O86  1  0.86762677  0.62181698  0.48526024  1
  O  O87  1  0.87697487  0.61470751  0.98662741  1
  O  O88  1  0.38328920  0.37769649  0.01367246  1
  O  O89  1  0.38464962  0.38299160  0.50312172  1
  O  O90  1  0.38549711  0.87776035  0.01487884  1
  O  O91  1  0.38463425  0.88264547  0.51015274  1
  O  O92  1  0.88747684  0.38455835  0.01360969  1
  O  O93  1  0.88357298  0.38646850  0.50767992  1
  O  O94  1  0.88528061  0.88158496  0.01592726  1
  O  O95  1  0.88716036  0.88338043  0.50934353  1
  O  O96  1  0.08800833  0.10642685  0.14249997  1
  O  O97  1  0.08550612  0.09034772  0.64025733  1
  O  O98  1  0.08810957  0.60580324  0.14350280  1
  O  O99  1  0.07943774  0.60038299  0.63931665  1
  O  O100  1  0.58783018  0.10410472  0.14396359  1
  O  O101  1  0.59080709  0.09114978  0.63863086  1
  O  O102  1  0.58872473  0.60388458  0.14265031  1
  O  O103  1  0.58710236  0.59984112  0.63987182  1
  O  O104  1  0.44570227  0.39803460  0.35657806  1
  O  O105  1  0.45470667  0.40073262  0.86271201  1
  O  O106  1  0.44535013  0.89709925  0.35719434  1
  O  O107  1  0.44798612  0.89899854  0.85843094  1
  O  O108  1  0.94250642  0.39705274  0.35757313  1
  O  O109  1  0.95067550  0.39615573  0.85889301  1
  O  O110  1  0.94397133  0.89563447  0.35779538  1
  O  O111  1  0.94656348  0.89829493  0.85794021  1
  O  O112  1  0.33593515  0.28874450  0.14117447  1
  O  O113  1  0.33065588  0.29187412  0.64230287  1
  O  O114  1  0.33562221  0.78895343  0.14108945  1
  O  O115  1  0.33532040  0.79096966  0.63647053  1
  O  O116  1  0.83795607  0.28986938  0.14233323  1
  O  O117  1  0.83121796  0.28971929  0.64496800  1
  O  O118  1  0.83801322  0.78882418  0.14165581  1
  O  O119  1  0.83664537  0.79035137  0.64162412  1
  O  O120  1  0.19505860  0.20921537  0.35543905  1
  O  O121  1  0.18765825  0.20884337  0.85920774  1
  O  O122  1  0.19552847  0.71130449  0.35753802  1
  O  O123  1  0.19742792  0.71826324  0.86277176  1
  O  O124  1  0.69586781  0.21137277  0.35619314  1
  O  O125  1  0.69506557  0.20640548  0.85801052  1
  O  O126  1  0.69349039  0.71073509  0.35709377  1
  O  O127  1  0.70323982  0.72139002  0.86452365  1
  O  O128  1  0.42502560  0.06727527  0.24961410  1
  O  O129  1  0.42540571  0.06378943  0.74167457  1
  O  O130  1  0.42529834  0.56813085  0.24959987  1
  O  O131  1  0.43381220  0.57442187  0.75852685  1
  O  O132  1  0.92495993  0.06663740  0.24928056  1
  O  O133  1  0.92130756  0.06840670  0.74967349  1
  O  O134  1  0.92647822  0.56799263  0.25029135  1
  O  O135  1  0.92085379  0.57097394  0.75095890  1
  O  O136  1  0.17483061  0.43294468  0.24929504  1
  O  O137  1  0.18062463  0.44125969  0.75943865  1
  O  O138  1  0.17527812  0.93188661  0.24906930  1
  O  O139  1  0.17420678  0.92992762  0.75076702  1
  O  O140  1  0.67517719  0.43224441  0.24928844  1
  O  O141  1  0.68189070  0.44009498  0.75985774  1
  O  O142  1  0.67570415  0.93170437  0.25005726  1
  O  O143  1  0.67476044  0.92861842  0.75024881  1
