# generated using pymatgen
data_Th4P6O23
_symmetry_space_group_name_H-M   'P 1'
_cell_length_a   7.19651815
_cell_length_b   10.54887798
_cell_length_c   12.87770566
_cell_angle_alpha   89.50910800
_cell_angle_beta   90.00000000
_cell_angle_gamma   90.00000000
_symmetry_Int_Tables_number   1
_chemical_formula_structural   Th4P6O23
_chemical_formula_sum   'Th8 P12 O46'
_cell_volume   977.57761455
_cell_formula_units_Z   2
loop_
 _symmetry_equiv_pos_site_id
 _symmetry_equiv_pos_as_xyz
  1  'x, y, z'
loop_
 _atom_site_type_symbol
 _atom_site_label
 _atom_site_symmetry_multiplicity
 _atom_site_fract_x
 _atom_site_fract_y
 _atom_site_fract_z
 _atom_site_occupancy
  Th  Th0  1  0.25000000  0.02192949  0.68665448  1
  Th  Th1  1  0.25000000  0.50965312  0.41361659  1
  Th  Th2  1  0.25000000  0.97799334  0.18659715  1
  Th  Th3  1  0.25000000  0.49312487  0.91194355  1
  Th  Th4  1  0.75000000  0.97807051  0.31334552  1
  Th  Th5  1  0.75000000  0.02200666  0.81340285  1
  Th  Th6  1  0.75000000  0.49034688  0.58638341  1
  Th  Th7  1  0.75000000  0.50687513  0.08805645  1
  P  P8  1  0.95802229  0.72423165  0.75769160  1
  P  P9  1  0.25000000  0.62864852  0.13380214  1
  P  P10  1  0.25000000  0.12865567  0.91908198  1
  P  P11  1  0.25000000  0.37326510  0.63581774  1
  P  P12  1  0.25000000  0.87154612  0.42055581  1
  P  P13  1  0.45802229  0.27576835  0.24230840  1
  P  P14  1  0.54197771  0.72423165  0.75769160  1
  P  P15  1  0.75000000  0.12845388  0.57944419  1
  P  P16  1  0.75000000  0.37135148  0.86619786  1
  P  P17  1  0.75000000  0.62673490  0.36418226  1
  P  P18  1  0.75000000  0.87134433  0.08091802  1
  P  P19  1  0.04197771  0.27576835  0.24230840  1
  O  O20  1  0.02393203  0.86343339  0.74535963  1
  O  O21  1  0.05937818  0.34469602  0.34434632  1
  O  O22  1  0.05914194  0.65293772  0.84261480  1
  O  O23  1  0.08127647  0.08622191  0.85016767  1
  O  O24  1  0.08281271  0.91471578  0.35035842  1
  O  O25  1  0.08191217  0.58086049  0.06868021  1
  O  O26  1  0.08200794  0.42210611  0.57020009  1
  O  O27  1  0.25000000  0.24836306  0.19535746  1
  O  O28  1  0.25000000  0.57106217  0.24372725  1
  O  O29  1  0.25000000  0.05241113  0.02293872  1
  O  O30  1  0.25000000  0.22871746  0.64206598  1
  O  O31  1  0.25000000  0.72982770  0.44223114  1
  O  O32  1  0.25000000  0.77362571  0.14090597  1
  O  O33  1  0.25000000  0.42853778  0.74519926  1
  O  O34  1  0.25000000  0.94533255  0.52375000  1
  O  O35  1  0.25000000  0.26989508  0.93990903  1
  O  O36  1  0.41808783  0.58086049  0.06868021  1
  O  O37  1  0.41799206  0.42210611  0.57020009  1
  O  O38  1  0.41872353  0.08622191  0.85016767  1
  O  O39  1  0.41718729  0.91471578  0.35035842  1
  O  O40  1  0.44062182  0.34469602  0.34434632  1
  O  O41  1  0.44085806  0.65293772  0.84261480  1
  O  O42  1  0.52393203  0.13656661  0.25464037  1
  O  O43  1  0.47606797  0.86343339  0.74535963  1
  O  O44  1  0.55914194  0.34706228  0.15738520  1
  O  O45  1  0.55937818  0.65530398  0.65565368  1
  O  O46  1  0.58281271  0.08528422  0.64964158  1
  O  O47  1  0.58127647  0.91377809  0.14983233  1
  O  O48  1  0.58191217  0.41913951  0.93131979  1
  O  O49  1  0.58200794  0.57789389  0.42979991  1
  O  O50  1  0.75000000  0.73010492  0.06009097  1
  O  O51  1  0.75000000  0.05466745  0.47625000  1
  O  O52  1  0.75000000  0.22637429  0.85909403  1
  O  O53  1  0.75000000  0.27017230  0.55776886  1
  O  O54  1  0.75000000  0.57146222  0.25480074  1
  O  O55  1  0.75000000  0.75163694  0.80464254  1
  O  O56  1  0.75000000  0.77128254  0.35793402  1
  O  O57  1  0.75000000  0.94758887  0.97706128  1
  O  O58  1  0.75000000  0.42893783  0.75627275  1
  O  O59  1  0.91808783  0.41913951  0.93131979  1
  O  O60  1  0.91799206  0.57789389  0.42979991  1
  O  O61  1  0.91718729  0.08528422  0.64964158  1
  O  O62  1  0.91872353  0.91377809  0.14983233  1
  O  O63  1  0.94085806  0.34706228  0.15738520  1
  O  O64  1  0.94062182  0.65530398  0.65565368  1
  O  O65  1  0.97606797  0.13656661  0.25464037  1
