# generated using pymatgen
data_TbCrO4
_symmetry_space_group_name_H-M   'P 1'
_cell_length_a   5.08572563
_cell_length_b   5.08572563
_cell_length_c   6.72126750
_cell_angle_alpha   112.23032962
_cell_angle_beta   112.23032962
_cell_angle_gamma   90.00000000
_symmetry_Int_Tables_number   1
_chemical_formula_structural   TbCrO4
_chemical_formula_sum   'Tb2 Cr2 O8'
_cell_volume   146.86708642
_cell_formula_units_Z   2
loop_
 _symmetry_equiv_pos_site_id
 _symmetry_equiv_pos_as_xyz
  1  'x, y, z'
loop_
 _atom_site_type_symbol
 _atom_site_label
 _atom_site_symmetry_multiplicity
 _atom_site_fract_x
 _atom_site_fract_y
 _atom_site_fract_z
 _atom_site_occupancy
  Tb  Tb0  1  0.62500000  0.87500000  0.25000000  1
  Tb  Tb1  1  0.37500000  0.12500000  0.75000000  1
  Cr  Cr2  1  0.12500000  0.37500000  0.25000000  1
  Cr  Cr3  1  0.87500000  0.62500000  0.75000000  1
  O  O4  1  0.34638658  0.19358136  0.40363886  1
  O  O5  1  0.05725228  0.71005750  0.40363886  1
  O  O6  1  0.69358136  0.55725228  0.90363886  1
  O  O7  1  0.21005750  0.84638658  0.90363886  1
  O  O8  1  0.65361342  0.80641864  0.59636114  1
  O  O9  1  0.94274772  0.28994250  0.59636114  1
  O  O10  1  0.30641864  0.44274772  0.09636114  1
  O  O11  1  0.78994250  0.15361342  0.09636114  1
