# generated using pymatgen
data_Tb3Ga8Ir3
_symmetry_space_group_name_H-M   'P 1'
_cell_length_a   4.22897416
_cell_length_b   8.19745225
_cell_length_c   8.19745225
_cell_angle_alpha   74.47446042
_cell_angle_beta   75.05187740
_cell_angle_gamma   75.05187740
_symmetry_Int_Tables_number   1
_chemical_formula_structural   Tb3Ga8Ir3
_chemical_formula_sum   'Tb3 Ga8 Ir3'
_cell_volume   259.04053896
_cell_formula_units_Z   1
loop_
 _symmetry_equiv_pos_site_id
 _symmetry_equiv_pos_as_xyz
  1  'x, y, z'
loop_
 _atom_site_type_symbol
 _atom_site_label
 _atom_site_symmetry_multiplicity
 _atom_site_fract_x
 _atom_site_fract_y
 _atom_site_fract_z
 _atom_site_occupancy
  Tb  Tb0  1  0.50000000  0.50000000  0.50000000  1
  Tb  Tb1  1  0.17213499  0.82786501  0.82786501  1
  Tb  Tb2  1  0.82786501  0.17213499  0.17213499  1
  Ga  Ga3  1  0.37577555  0.33884813  0.90960078  1
  Ga  Ga4  1  0.62422445  0.66115187  0.09039922  1
  Ga  Ga5  1  0.37577555  0.90960078  0.33884813  1
  Ga  Ga6  1  0.62422445  0.09039922  0.66115187  1
  Ga  Ga7  1  0.16673494  0.46227037  0.20425974  1
  Ga  Ga8  1  0.83326506  0.53772963  0.79574026  1
  Ga  Ga9  1  0.16673494  0.20425974  0.46227037  1
  Ga  Ga10  1  0.83326506  0.79574026  0.53772963  1
  Ir  Ir11  1  0.50000000  -0.00000000  -0.00000000  1
  Ir  Ir12  1  0.00000000  0.78343104  0.21656896  1
  Ir  Ir13  1  0.00000000  0.21656896  0.78343104  1
