# generated using pymatgen
data_Li9Mn2Co5O16
_symmetry_space_group_name_H-M   'P 1'
_cell_length_a   2.88959023
_cell_length_b   10.55447009
_cell_length_c   10.26189847
_cell_angle_alpha   112.77131336
_cell_angle_beta   89.99999963
_cell_angle_gamma   82.13211395
_symmetry_Int_Tables_number   1
_chemical_formula_structural   Li9Mn2Co5O16
_chemical_formula_sum   'Li9 Mn2 Co5 O16'
_cell_volume   285.37676575
_cell_formula_units_Z   1
loop_
 _symmetry_equiv_pos_site_id
 _symmetry_equiv_pos_as_xyz
  1  'x, y, z'
loop_
 _atom_site_type_symbol
 _atom_site_label
 _atom_site_symmetry_multiplicity
 _atom_site_fract_x
 _atom_site_fract_y
 _atom_site_fract_z
 _atom_site_occupancy
  Li  Li0  1  0.37126729  0.25746542  0.19894600  1
  Li  Li1  1  0.12917842  0.74164315  0.55237825  1
  Li  Li2  1  0.87494821  0.25010359  0.94056025  1
  Li  Li3  1  0.87252908  0.25494185  0.44258994  1
  Li  Li4  1  0.62799747  0.74400506  0.80318213  1
  Li  Li5  1  0.37534147  0.24931706  0.68157462  1
  Li  Li6  1  0.12282432  0.75435136  0.06858488  1
  Li  Li7  1  0.62791511  0.74416978  0.31439670  1
  Li  Li8  1  0.74719980  0.50560039  0.37811362  1
  Mn  Mn9  1  -0.00057260  0.00114519  0.00024463  1
  Mn  Mn10  1  0.24723771  0.50552458  0.13477959  1
  Co  Co11  1  0.50193966  0.99612067  0.74389060  1
  Co  Co12  1  0.00275707  0.99448585  0.49727699  1
  Co  Co13  1  0.75039876  0.49920249  0.87205012  1
  Co  Co14  1  0.49573047  0.00853905  0.25871638  1
  Co  Co15  1  0.25401313  0.49197374  0.60819818  1
  O  O16  1  0.44190041  0.11619919  0.97304125  1
  O  O17  1  0.19303666  0.61392668  0.32254082  1
  O  O18  1  0.94529278  0.10941445  0.71818908  1
  O  O19  1  0.93775088  0.12449824  0.22753107  1
  O  O20  1  0.69133751  0.61732498  0.60124797  1
  O  O21  1  0.44243324  0.11513352  0.46989236  1
  O  O22  1  0.19776769  0.60446461  0.83616531  1
  O  O23  1  0.69292190  0.61415620  0.09346308  1
  O  O24  1  0.30821051  0.38357899  0.42631384  1
  O  O25  1  0.05669116  0.88661769  0.77285261  1
  O  O26  1  0.80613297  0.38773407  0.14971974  1
  O  O27  1  0.80851880  0.38296240  0.66211223  1
  O  O28  1  0.55780848  0.88438303  0.02856142  1
  O  O29  1  0.30235158  0.39529683  0.91584180  1
  O  O30  1  0.05656099  0.88687801  0.28152302  1
  O  O31  1  0.56057907  0.87884187  0.52552151  1
