# generated using pymatgen
data_SbPtS
_symmetry_space_group_name_H-M   'P 1'
_cell_length_a   6.28706721
_cell_length_b   6.28706721
_cell_length_c   6.28706721
_cell_angle_alpha   90.00000000
_cell_angle_beta   90.00000000
_cell_angle_gamma   90.00000000
_symmetry_Int_Tables_number   1
_chemical_formula_structural   SbPtS
_chemical_formula_sum   'Sb4 Pt4 S4'
_cell_volume   248.51025169
_cell_formula_units_Z   4
loop_
 _symmetry_equiv_pos_site_id
 _symmetry_equiv_pos_as_xyz
  1  'x, y, z'
loop_
 _atom_site_type_symbol
 _atom_site_label
 _atom_site_symmetry_multiplicity
 _atom_site_fract_x
 _atom_site_fract_y
 _atom_site_fract_z
 _atom_site_occupancy
  Sb  Sb0  1  0.88113086  0.38113086  0.11886914  1
  Sb  Sb1  1  0.38113086  0.11886914  0.88113086  1
  Sb  Sb2  1  0.11886914  0.88113086  0.38113086  1
  Sb  Sb3  1  0.61886914  0.61886914  0.61886914  1
  Pt  Pt4  1  0.50645243  0.00645243  0.49354757  1
  Pt  Pt5  1  0.00645243  0.49354757  0.50645243  1
  Pt  Pt6  1  0.49354757  0.50645243  0.00645243  1
  Pt  Pt7  1  0.99354757  0.99354757  0.99354757  1
  S  S8  1  0.11482175  0.61482175  0.88517825  1
  S  S9  1  0.61482175  0.88517825  0.11482175  1
  S  S10  1  0.88517825  0.11482175  0.61482175  1
  S  S11  1  0.38517825  0.38517825  0.38517825  1
