# generated using pymatgen
data_ErCrO4
_symmetry_space_group_name_H-M   'P 1'
_cell_length_a   5.02557774
_cell_length_b   5.02557774
_cell_length_c   6.65095024
_cell_angle_alpha   112.19803299
_cell_angle_beta   112.19803299
_cell_angle_gamma   90.00000000
_symmetry_Int_Tables_number   1
_chemical_formula_structural   ErCrO4
_chemical_formula_sum   'Er2 Cr2 O8'
_cell_volume   141.99174697
_cell_formula_units_Z   2
loop_
 _symmetry_equiv_pos_site_id
 _symmetry_equiv_pos_as_xyz
  1  'x, y, z'
loop_
 _atom_site_type_symbol
 _atom_site_label
 _atom_site_symmetry_multiplicity
 _atom_site_fract_x
 _atom_site_fract_y
 _atom_site_fract_z
 _atom_site_occupancy
  Er  Er0  1  0.62500000  0.87500000  0.25000000  1
  Er  Er1  1  0.37500000  0.12500000  0.75000000  1
  Cr  Cr2  1  0.12500000  0.37500000  0.25000000  1
  Cr  Cr3  1  0.87500000  0.62500000  0.75000000  1
  O  O4  1  0.34922972  0.19388741  0.40616107  1
  O  O5  1  0.05693136  0.71227366  0.40616107  1
  O  O6  1  0.69388741  0.55693136  0.90616107  1
  O  O7  1  0.21227366  0.84922972  0.90616107  1
  O  O8  1  0.65077028  0.80611259  0.59383893  1
  O  O9  1  0.94306864  0.28772634  0.59383893  1
  O  O10  1  0.30611259  0.44306864  0.09383893  1
  O  O11  1  0.78772634  0.15077028  0.09383893  1
