# generated using pymatgen
data_V4O5F7
_symmetry_space_group_name_H-M   'P 1'
_cell_length_a   5.25226941
_cell_length_b   7.43793784
_cell_length_c   5.40097099
_cell_angle_alpha   92.22803675
_cell_angle_beta   90.64745787
_cell_angle_gamma   90.03773806
_symmetry_Int_Tables_number   1
_chemical_formula_structural   V4O5F7
_chemical_formula_sum   'V4 O5 F7'
_cell_volume   210.82152302
_cell_formula_units_Z   1
loop_
 _symmetry_equiv_pos_site_id
 _symmetry_equiv_pos_as_xyz
  1  'x, y, z'
loop_
 _atom_site_type_symbol
 _atom_site_label
 _atom_site_symmetry_multiplicity
 _atom_site_fract_x
 _atom_site_fract_y
 _atom_site_fract_z
 _atom_site_occupancy
  V  V0  1  0.49140670  0.53118163  0.50224458  1
  V  V1  1  0.51152983  0.02971447  0.49753755  1
  V  V2  1  0.99166520  0.46946771  0.00413223  1
  V  V3  1  0.99216928  0.96598529  0.97058129  1
  O  O4  1  0.92750893  0.25071452  0.00848598  1
  O  O5  1  0.79489321  0.95959637  0.71931498  1
  O  O6  1  0.57269865  0.25037805  0.50320417  1
  O  O7  1  0.42780835  0.75139938  0.49938159  1
  O  O8  1  0.07449756  0.75050974  0.99721027  1
  F  F9  1  0.81024447  0.54358900  0.31069679  1
  F  F10  1  0.71084127  0.95756275  0.20135979  1
  F  F11  1  0.69376662  0.54364885  0.81028127  1
  F  F12  1  0.31294169  0.45860891  0.19381248  1
  F  F13  1  0.28944882  0.04251097  0.79881648  1
  F  F14  1  0.20282468  0.03733495  0.28613540  1
  F  F15  1  0.19575372  0.45779741  0.69680515  1
