# generated using pymatgen
data_Cs2LiI3
_symmetry_space_group_name_H-M   'P 1'
_cell_length_a   4.98200189
_cell_length_b   8.86905166
_cell_length_c   13.12503164
_cell_angle_alpha   90.00000000
_cell_angle_beta   100.94053610
_cell_angle_gamma   90.00000000
_symmetry_Int_Tables_number   1
_chemical_formula_structural   Cs2LiI3
_chemical_formula_sum   'Cs4 Li2 I6'
_cell_volume   569.39726653
_cell_formula_units_Z   2
loop_
 _symmetry_equiv_pos_site_id
 _symmetry_equiv_pos_as_xyz
  1  'x, y, z'
loop_
 _atom_site_type_symbol
 _atom_site_label
 _atom_site_symmetry_multiplicity
 _atom_site_fract_x
 _atom_site_fract_y
 _atom_site_fract_z
 _atom_site_occupancy
  Cs  Cs0  1  0.32389269  0.99178792  0.64778537  1
  Cs  Cs1  1  0.67610731  0.49178792  0.35221463  1
  Cs  Cs2  1  0.48951630  0.48667322  0.97903260  1
  Cs  Cs3  1  0.51048370  0.98667322  0.02096740  1
  Li  Li4  1  0.15075466  0.98223264  0.30150931  1
  Li  Li5  1  0.84924534  0.48223264  0.69849069  1
  I  I6  1  0.91359728  0.22841750  0.82719455  1
  I  I7  1  0.08640272  0.72841750  0.17280545  1
  I  I8  1  0.29492184  0.47256557  0.58984367  1
  I  I9  1  0.70507816  0.97256557  0.41015633  1
  I  I10  1  0.91011053  0.74179315  0.82022105  1
  I  I11  1  0.08988947  0.24179315  0.17977895  1
