# generated using pymatgen
data_BaMn2P2O9
_symmetry_space_group_name_H-M   'P 1'
_cell_length_a   5.07750593
_cell_length_b   5.22514989
_cell_length_c   8.38167323
_cell_angle_alpha   95.10683885
_cell_angle_beta   90.00000000
_cell_angle_gamma   119.06960600
_symmetry_Int_Tables_number   1
_chemical_formula_structural   BaMn2P2O9
_chemical_formula_sum   'Ba1 Mn2 P2 O9'
_cell_volume   193.34917520
_cell_formula_units_Z   1
loop_
 _symmetry_equiv_pos_site_id
 _symmetry_equiv_pos_as_xyz
  1  'x, y, z'
loop_
 _atom_site_type_symbol
 _atom_site_label
 _atom_site_symmetry_multiplicity
 _atom_site_fract_x
 _atom_site_fract_y
 _atom_site_fract_z
 _atom_site_occupancy
  Ba  Ba0  1  0.89898450  -0.00000000  -0.00000000  1
  Mn  Mn1  1  0.28079662  0.71288724  0.36981700  1
  Mn  Mn2  1  0.56790938  0.28711276  0.63018300  1
  P  P3  1  0.21806912  0.65870377  0.74050544  1
  P  P4  1  0.55936535  0.34129623  0.25949456  1
  O  O5  1  0.60588479  -0.00000000  0.50000000  1
  O  O6  1  0.05966846  0.58867127  0.56903321  1
  O  O7  1  0.47099718  0.41132873  0.43096679  1
  O  O8  1  0.35291254  0.99450386  0.79636816  1
  O  O9  1  0.35840868  0.00549614  0.20363184  1
  O  O10  1  0.95496815  0.47853523  0.84610994  1
  O  O11  1  0.47643292  0.52146477  0.15389006  1
  O  O12  1  0.89347679  0.41935128  0.24656251  1
  O  O13  1  0.47412551  0.58064872  0.75343749  1
