# generated using pymatgen
data_Y(CrFe2)4
_symmetry_space_group_name_H-M   'P 1'
_cell_length_a   4.71345383
_cell_length_b   6.34102512
_cell_length_c   6.34102512
_cell_angle_alpha   82.06013733
_cell_angle_beta   68.18176308
_cell_angle_gamma   68.18176308
_symmetry_Int_Tables_number   1
_chemical_formula_structural   Y(CrFe2)4
_chemical_formula_sum   'Y1 Cr4 Fe8'
_cell_volume   163.34209929
_cell_formula_units_Z   1
loop_
 _symmetry_equiv_pos_site_id
 _symmetry_equiv_pos_as_xyz
  1  'x, y, z'
loop_
 _atom_site_type_symbol
 _atom_site_label
 _atom_site_symmetry_multiplicity
 _atom_site_fract_x
 _atom_site_fract_y
 _atom_site_fract_z
 _atom_site_occupancy
  Y  Y0  1  -0.00000000  0.00000000  0.00000000  1
  Cr  Cr1  1  -0.00000000  0.36808538  0.63191462  1
  Cr  Cr2  1  0.00000000  0.63191462  0.36808538  1
  Cr  Cr3  1  0.63191462  0.36808538  0.36808538  1
  Cr  Cr4  1  0.36808538  0.63191462  0.63191462  1
  Fe  Fe5  1  0.72700575  0.77299425  0.77299425  1
  Fe  Fe6  1  0.27299425  0.22700575  0.22700575  1
  Fe  Fe7  1  0.50000000  0.22700575  0.77299425  1
  Fe  Fe8  1  0.50000000  0.77299425  0.22700575  1
  Fe  Fe9  1  -0.00000000  0.00000000  0.50000000  1
  Fe  Fe10  1  0.50000000  0.00000000  0.50000000  1
  Fe  Fe11  1  0.50000000  0.50000000  0.00000000  1
  Fe  Fe12  1  -0.00000000  0.50000000  0.00000000  1
