# generated using pymatgen
data_Ca(Mo3S4)2
_symmetry_space_group_name_H-M   'P 1'
_cell_length_a   6.62148264
_cell_length_b   6.51910648
_cell_length_c   6.59541524
_cell_angle_alpha   89.41484471
_cell_angle_beta   89.75823627
_cell_angle_gamma   90.41803433
_symmetry_Int_Tables_number   1
_chemical_formula_structural   Ca(Mo3S4)2
_chemical_formula_sum   'Ca1 Mo6 S8'
_cell_volume   284.67363655
_cell_formula_units_Z   1
loop_
 _symmetry_equiv_pos_site_id
 _symmetry_equiv_pos_as_xyz
  1  'x, y, z'
loop_
 _atom_site_type_symbol
 _atom_site_label
 _atom_site_symmetry_multiplicity
 _atom_site_fract_x
 _atom_site_fract_y
 _atom_site_fract_z
 _atom_site_occupancy
  Ca  Ca0  1  -0.00000000  0.00000000  -0.00000000  1
  Mo  Mo1  1  0.77480619  0.44038123  0.57981310  1
  Mo  Mo2  1  0.22519381  0.55961877  0.42018690  1
  Mo  Mo3  1  0.57987788  0.76878211  0.44113023  1
  Mo  Mo4  1  0.42012212  0.23121789  0.55886977  1
  Mo  Mo5  1  0.44097498  0.58134105  0.77471596  1
  Mo  Mo6  1  0.55902502  0.41865895  0.22528404  1
  S  S7  1  0.87179889  0.62424046  0.25706957  1
  S  S8  1  0.12820111  0.37575954  0.74293043  1
  S  S9  1  0.76049606  0.75835004  0.76267086  1
  S  S10  1  0.23950394  0.24164996  0.23732914  1
  S  S11  1  0.62644448  0.25893381  0.87126731  1
  S  S12  1  0.37355552  0.74106619  0.12873269  1
  S  S13  1  0.25721645  0.87098503  0.62568865  1
  S  S14  1  0.74278355  0.12901497  0.37431135  1
