# generated using pymatgen
data_Li2MgH4
_symmetry_space_group_name_H-M   'P 1'
_cell_length_a   2.92492884
_cell_length_b   4.92362721
_cell_length_c   9.30053979
_cell_angle_alpha   90.00000000
_cell_angle_beta   90.00000000
_cell_angle_gamma   90.00000000
_symmetry_Int_Tables_number   1
_chemical_formula_structural   Li2MgH4
_chemical_formula_sum   'Li4 Mg2 H8'
_cell_volume   133.93948444
_cell_formula_units_Z   2
loop_
 _symmetry_equiv_pos_site_id
 _symmetry_equiv_pos_as_xyz
  1  'x, y, z'
loop_
 _atom_site_type_symbol
 _atom_site_label
 _atom_site_symmetry_multiplicity
 _atom_site_fract_x
 _atom_site_fract_y
 _atom_site_fract_z
 _atom_site_occupancy
  Li  Li0  1  0.50000000  0.98244763  0.28946517  1
  Li  Li1  1  0.50000000  0.01755237  0.71053483  1
  Li  Li2  1  0.50000000  0.48244763  0.21053483  1
  Li  Li3  1  0.50000000  0.51755237  0.78946517  1
  Mg  Mg4  1  -0.00000000  0.50000000  0.50000000  1
  Mg  Mg5  1  0.00000000  0.00000000  -0.00000000  1
  H  H6  1  0.50000000  0.70598799  0.58711029  1
  H  H7  1  0.50000000  0.29401201  0.41288971  1
  H  H8  1  0.50000000  0.20598799  0.91288971  1
  H  H9  1  0.50000000  0.79401201  0.08711029  1
  H  H10  1  -0.00000000  0.71785659  0.32298353  1
  H  H11  1  0.00000000  0.28214341  0.67701647  1
  H  H12  1  0.00000000  0.21785659  0.17701647  1
  H  H13  1  0.00000000  0.78214341  0.82298353  1
