# generated using pymatgen
data_Er3Ga8Au3
_symmetry_space_group_name_H-M   'P 1'
_cell_length_a   4.34335072
_cell_length_b   8.26501328
_cell_length_c   8.26501328
_cell_angle_alpha   71.18588725
_cell_angle_beta   74.76638999
_cell_angle_gamma   74.76638999
_symmetry_Int_Tables_number   1
_chemical_formula_structural   Er3Ga8Au3
_chemical_formula_sum   'Er3 Ga8 Au3'
_cell_volume   265.77833198
_cell_formula_units_Z   1
loop_
 _symmetry_equiv_pos_site_id
 _symmetry_equiv_pos_as_xyz
  1  'x, y, z'
loop_
 _atom_site_type_symbol
 _atom_site_label
 _atom_site_symmetry_multiplicity
 _atom_site_fract_x
 _atom_site_fract_y
 _atom_site_fract_z
 _atom_site_occupancy
  Er  Er0  1  0.50000000  0.50000000  0.50000000  1
  Er  Er1  1  0.19726654  0.80273346  0.80273346  1
  Er  Er2  1  0.80273346  0.19726654  0.19726654  1
  Ga  Ga3  1  0.35715580  0.36101260  0.92467580  1
  Ga  Ga4  1  0.64284420  0.63898740  0.07532420  1
  Ga  Ga5  1  0.35715580  0.92467580  0.36101260  1
  Ga  Ga6  1  0.64284420  0.07532420  0.63898740  1
  Ga  Ga7  1  0.15893801  0.46975865  0.21236534  1
  Ga  Ga8  1  0.84106199  0.53024135  0.78763466  1
  Ga  Ga9  1  0.15893801  0.21236534  0.46975865  1
  Ga  Ga10  1  0.84106199  0.78763466  0.53024135  1
  Au  Au11  1  0.50000000  -0.00000000  0.00000000  1
  Au  Au12  1  0.00000000  0.80069444  0.19930556  1
  Au  Au13  1  -0.00000000  0.19930556  0.80069444  1
