# generated using pymatgen
data_Li9Mn2Co5O16
_symmetry_space_group_name_H-M   'P 1'
_cell_length_a   2.90870140
_cell_length_b   9.85446343
_cell_length_c   10.80457634
_cell_angle_alpha   72.27635892
_cell_angle_beta   82.26420714
_cell_angle_gamma   89.99999479
_symmetry_Int_Tables_number   1
_chemical_formula_structural   Li9Mn2Co5O16
_chemical_formula_sum   'Li9 Mn2 Co5 O16'
_cell_volume   292.03916630
_cell_formula_units_Z   1
loop_
 _symmetry_equiv_pos_site_id
 _symmetry_equiv_pos_as_xyz
  1  'x, y, z'
loop_
 _atom_site_type_symbol
 _atom_site_label
 _atom_site_symmetry_multiplicity
 _atom_site_fract_x
 _atom_site_fract_y
 _atom_site_fract_z
 _atom_site_occupancy
  Li  Li0  1  0.42857753  0.19500305  0.14284495  1
  Li  Li1  1  0.31510652  0.55555303  0.36978695  1
  Li  Li2  1  0.18903760  0.93571226  0.62192481  1
  Li  Li3  1  0.81414819  0.06522096  0.37170362  1
  Li  Li4  1  0.69229653  0.44129470  0.61540694  1
  Li  Li5  1  0.56215840  0.80209374  0.87568320  1
  Li  Li6  1  0.06073712  0.32166565  0.87852575  1
  Li  Li7  1  0.93782045  0.68119436  0.12435909  1
  Li  Li8  1  0.87677554  0.37598923  0.24644891  1
  Mn  Mn9  1  0.99894553  0.00082318  0.00210893  1
  Mn  Mn10  1  0.62896460  0.12778175  0.74207080  1
  Co  Co11  1  0.74817677  0.74423581  0.50364646  1
  Co  Co12  1  0.49284018  0.49762588  0.01431963  1
  Co  Co13  1  0.37205044  0.87490347  0.25589912  1
  Co  Co14  1  0.26267053  0.25676454  0.47465893  1
  Co  Co15  1  0.12228342  0.62337383  0.75543316  1
  O  O16  1  0.53633887  0.14009491  0.92732226  1
  O  O17  1  0.41612970  0.53243287  0.16774061  1
  O  O18  1  0.27831355  0.88897241  0.44337291  1
  O  O19  1  0.90268260  0.02287123  0.19463480  1
  O  O20  1  0.77933789  0.39681933  0.44132423  1
  O  O21  1  0.65470991  0.76834600  0.69058019  1
  O  O22  1  0.15210048  0.26461932  0.69579903  1
  O  O23  1  0.03197749  0.64921433  0.93604503  1
  O  O24  1  0.33753203  0.21472386  0.32493593  1
  O  O25  1  0.21659440  0.60024811  0.56681120  1
  O  O26  1  0.10182264  0.98952919  0.79635473  1
  O  O27  1  0.71479888  0.10886222  0.57040224  1
  O  O28  1  0.58921144  0.48055837  0.82157712  1
  O  O29  1  0.47050935  0.86174227  0.05898131  1
  O  O30  1  0.97197508  0.35505525  0.05604984  1
  O  O31  1  0.84337632  0.72667491  0.31324736  1
