# generated using pymatgen
data_Lu3Ga8Rh3
_symmetry_space_group_name_H-M   'P 1'
_cell_length_a   4.19172025
_cell_length_b   8.08708908
_cell_length_c   8.08708908
_cell_angle_alpha   75.48538571
_cell_angle_beta   74.97970353
_cell_angle_gamma   74.97970353
_symmetry_Int_Tables_number   1
_chemical_formula_structural   Lu3Ga8Rh3
_chemical_formula_sum   'Lu3 Ga8 Rh3'
_cell_volume   250.73550379
_cell_formula_units_Z   1
loop_
 _symmetry_equiv_pos_site_id
 _symmetry_equiv_pos_as_xyz
  1  'x, y, z'
loop_
 _atom_site_type_symbol
 _atom_site_label
 _atom_site_symmetry_multiplicity
 _atom_site_fract_x
 _atom_site_fract_y
 _atom_site_fract_z
 _atom_site_occupancy
  Lu  Lu0  1  0.50000000  0.50000000  0.50000000  1
  Lu  Lu1  1  0.17478727  0.82521273  0.82521273  1
  Lu  Lu2  1  0.82521273  0.17478727  0.17478727  1
  Ga  Ga3  1  0.37304648  0.33951400  0.91439304  1
  Ga  Ga4  1  0.62695352  0.66048600  0.08560696  1
  Ga  Ga5  1  0.37304648  0.91439304  0.33951400  1
  Ga  Ga6  1  0.62695352  0.08560696  0.66048600  1
  Ga  Ga7  1  0.16052462  0.46678169  0.21216906  1
  Ga  Ga8  1  0.83947538  0.53321831  0.78783094  1
  Ga  Ga9  1  0.16052462  0.21216906  0.46678169  1
  Ga  Ga10  1  0.83947538  0.78783094  0.53321831  1
  Rh  Rh11  1  0.50000000  0.00000000  0.00000000  1
  Rh  Rh12  1  -0.00000000  0.79403018  0.20596982  1
  Rh  Rh13  1  -0.00000000  0.20596982  0.79403018  1
