# generated using pymatgen
data_Cu(RhO2)2
_symmetry_space_group_name_H-M   'P 1'
_cell_length_a   6.05215681
_cell_length_b   6.05215681
_cell_length_c   6.05215681
_cell_angle_alpha   92.63738385
_cell_angle_beta   118.48916821
_cell_angle_gamma   118.48916821
_symmetry_Int_Tables_number   1
_chemical_formula_structural   Cu(RhO2)2
_chemical_formula_sum   'Cu2 Rh4 O8'
_cell_volume   160.14897455
_cell_formula_units_Z   2
loop_
 _symmetry_equiv_pos_site_id
 _symmetry_equiv_pos_as_xyz
  1  'x, y, z'
loop_
 _atom_site_type_symbol
 _atom_site_label
 _atom_site_symmetry_multiplicity
 _atom_site_fract_x
 _atom_site_fract_y
 _atom_site_fract_z
 _atom_site_occupancy
  Cu  Cu0  1  0.25000000  0.87500000  0.12500000  1
  Cu  Cu1  1  0.75000000  0.12500000  0.87500000  1
  Rh  Rh2  1  -0.00000000  0.00000000  0.50000000  1
  Rh  Rh3  1  0.50000000  0.50000000  0.00000000  1
  Rh  Rh4  1  -0.00000000  0.50000000  0.50000000  1
  Rh  Rh5  1  0.50000000  0.50000000  0.50000000  1
  O  O6  1  0.97129127  0.72433086  0.25303959  1
  O  O7  1  0.47129127  0.25303959  0.72433086  1
  O  O8  1  0.02870873  0.25303959  0.28174832  1
  O  O9  1  0.52870873  0.28174832  0.25303959  1
  O  O10  1  0.02870873  0.27566914  0.74696041  1
  O  O11  1  0.52870873  0.74696041  0.27566914  1
  O  O12  1  0.97129127  0.74696041  0.71825168  1
  O  O13  1  0.47129127  0.71825168  0.74696041  1
