# generated using pymatgen
data_MnBiO3
_symmetry_space_group_name_H-M   'P 1'
_cell_length_a   5.75159307
_cell_length_b   5.60993731
_cell_length_c   7.76897236
_cell_angle_alpha   90.00000000
_cell_angle_beta   90.00000000
_cell_angle_gamma   90.00000000
_symmetry_Int_Tables_number   1
_chemical_formula_structural   MnBiO3
_chemical_formula_sum   'Mn4 Bi4 O12'
_cell_volume   250.67425692
_cell_formula_units_Z   4
loop_
 _symmetry_equiv_pos_site_id
 _symmetry_equiv_pos_as_xyz
  1  'x, y, z'
loop_
 _atom_site_type_symbol
 _atom_site_label
 _atom_site_symmetry_multiplicity
 _atom_site_fract_x
 _atom_site_fract_y
 _atom_site_fract_z
 _atom_site_occupancy
  Mn  Mn0  1  0.00000000  0.50000000  -0.00000000  1
  Mn  Mn1  1  0.50000000  -0.00000000  0.50000000  1
  Mn  Mn2  1  0.00000000  0.50000000  0.50000000  1
  Mn  Mn3  1  0.50000000  0.00000000  0.00000000  1
  Bi  Bi4  1  0.54470180  0.49331445  0.75000000  1
  Bi  Bi5  1  0.04470180  0.00668555  0.75000000  1
  Bi  Bi6  1  0.45529820  0.50668555  0.25000000  1
  Bi  Bi7  1  0.95529820  0.99331445  0.25000000  1
  O  O8  1  0.96499312  0.60409009  0.75000000  1
  O  O9  1  0.46499312  0.89590991  0.75000000  1
  O  O10  1  0.03500688  0.39590991  0.25000000  1
  O  O11  1  0.53500688  0.10409009  0.25000000  1
  O  O12  1  0.28868490  0.32469843  0.95122785  1
  O  O13  1  0.78868490  0.17530157  0.54877215  1
  O  O14  1  0.71131510  0.67530157  0.45122785  1
  O  O15  1  0.21131510  0.82469843  0.04877215  1
  O  O16  1  0.71131510  0.67530157  0.04877215  1
  O  O17  1  0.21131510  0.82469843  0.45122785  1
  O  O18  1  0.28868490  0.32469843  0.54877215  1
  O  O19  1  0.78868490  0.17530157  0.95122785  1
