# generated using pymatgen
data_V18Cu2O45
_symmetry_space_group_name_H-M   'P 1'
_cell_length_a   16.97431664
_cell_length_b   9.25285724
_cell_length_c   14.52702522
_cell_angle_alpha   68.04914225
_cell_angle_beta   37.54622557
_cell_angle_gamma   58.72738063
_symmetry_Int_Tables_number   1
_chemical_formula_structural   V18Cu2O45
_chemical_formula_sum   'V18 Cu2 O45'
_cell_volume   1185.27879477
_cell_formula_units_Z   1
loop_
 _symmetry_equiv_pos_site_id
 _symmetry_equiv_pos_as_xyz
  1  'x, y, z'
loop_
 _atom_site_type_symbol
 _atom_site_label
 _atom_site_symmetry_multiplicity
 _atom_site_fract_x
 _atom_site_fract_y
 _atom_site_fract_z
 _atom_site_occupancy
  V  V0  1  0.28165885  0.10508447  0.11095706  1
  V  V1  1  0.07161749  0.78312396  0.09282314  1
  V  V2  1  0.06151438  0.40493272  0.54111936  1
  V  V3  1  0.57019092  0.21100940  0.07555168  1
  V  V4  1  0.24215781  0.61560057  0.43104592  1
  V  V5  1  0.50674118  0.74021534  0.09087319  1
  V  V6  1  0.17307628  0.24731011  0.89221552  1
  V  V7  1  0.37893144  0.39890708  0.55448207  1
  V  V8  1  0.05170197  0.87893248  0.89069856  1
  V  V9  1  0.94619189  0.17188886  0.11968767  1
  V  V10  1  0.56145445  0.61792812  0.43806595  1
  V  V11  1  0.85061834  0.70820927  0.11553129  1
  V  V12  1  0.49973060  0.26910064  0.90448221  1
  V  V13  1  0.69969005  0.41507843  0.56465961  1
  V  V14  1  0.35848700  0.82077546  0.91439814  1
  V  V15  1  0.90610078  0.61035077  0.43389174  1
  V  V16  1  0.84639563  0.25955244  0.89717858  1
  V  V17  1  0.77612950  0.77505345  0.94757569  1
  Cu  Cu18  1  0.55406156  0.00786369  0.39514713  1
  Cu  Cu19  1  0.76479134  0.99688193  0.59612609  1
  O  O20  1  0.02865925  0.98110049  0.99494193  1
  O  O21  1  0.04885688  0.26863959  0.08776410  1
  O  O22  1  0.01166030  0.70416770  0.03145384  1
  O  O23  1  0.30120873  0.99521854  0.01808185  1
  O  O24  1  0.11810139  0.18796343  0.27375971  1
  O  O25  1  0.03306678  0.62410266  0.23348465  1
  O  O26  1  0.99637445  0.95045454  0.19538932  1
  O  O27  1  0.18836860  0.22123849  0.45968524  1
  O  O28  1  0.46427091  0.28597168  0.05550481  1
  O  O29  1  0.13024774  0.56030088  0.46904164  1
  O  O30  1  0.35740574  0.66934003  0.02182889  1
  O  O31  1  0.67659644  0.99279354  0.01223115  1
  O  O32  1  0.47482817  0.23318613  0.25022855  1
  O  O33  1  0.27717341  0.47157220  0.52827846  1
  O  O34  1  0.40382723  0.61274892  0.23380660  1
  O  O35  1  0.15425424  0.80464883  0.50527395  1
  O  O36  1  0.39038536  0.95772014  0.13520274  1
  O  O37  1  0.27966887  0.03905537  0.84559784  1
  O  O38  1  0.49435838  0.20101166  0.47530891  1
  O  O39  1  0.78090764  0.32217459  0.04345081  1
  O  O40  1  0.26539405  0.39331874  0.75184514  1
  O  O41  1  0.46559008  0.53495177  0.46484826  1
  O  O42  1  0.63766726  0.70411582  0.07014001  1
  O  O43  1  0.21643261  0.79636693  0.73185127  1
  O  O44  1  0.77589682  0.26341665  0.26106123  1
  O  O45  1  0.34369617  0.27923110  0.99241942  1
  O  O46  1  0.60120857  0.48796885  0.53912891  1
  O  O47  1  0.75507443  0.58822864  0.25299610  1
  O  O48  1  0.24552586  0.72954039  0.94993658  1
  O  O49  1  0.49842620  0.82828074  0.46372694  1
  O  O50  1  0.73677327  0.90712914  0.19196091  1
  O  O51  1  0.62769413  0.08289142  0.80216981  1
  O  O52  1  0.79529108  0.20723743  0.51363124  1
  O  O53  1  0.56904060  0.41639084  0.76749096  1
  O  O54  1  0.79661212  0.54081365  0.48229682  1
  O  O55  1  0.52220053  0.77354270  0.74402783  1
  O  O56  1  0.70161364  0.29843450  0.94453821  1
  O  O57  1  0.97910128  0.45936779  0.49202945  1
  O  O58  1  0.59482092  0.67966873  0.92969285  1
  O  O59  1  0.82596478  0.80131147  0.51228985  1
  O  O60  1  0.95573281  0.03386077  0.85685657  1
  O  O61  1  0.94040486  0.38566836  0.74299931  1
  O  O62  1  0.87014190  0.76041648  0.77325287  1
  O  O63  1  0.05119123  0.26962021  0.91415441  1
  O  O64  1  0.89197579  0.69421826  0.95962948  1
