# generated using pymatgen
data_Tb(BO2)3
_symmetry_space_group_name_H-M   'P 1'
_cell_length_a   6.15761581
_cell_length_b   6.51324826
_cell_length_c   6.51324779
_cell_angle_alpha   80.42488956
_cell_angle_beta   61.89656249
_cell_angle_gamma   61.89656280
_symmetry_Int_Tables_number   1
_chemical_formula_structural   Tb(BO2)3
_chemical_formula_sum   'Tb2 B6 O12'
_cell_volume   202.73654299
_cell_formula_units_Z   2
loop_
 _symmetry_equiv_pos_site_id
 _symmetry_equiv_pos_as_xyz
  1  'x, y, z'
loop_
 _atom_site_type_symbol
 _atom_site_label
 _atom_site_symmetry_multiplicity
 _atom_site_fract_x
 _atom_site_fract_y
 _atom_site_fract_z
 _atom_site_occupancy
  Tb  Tb0  1  0.75000000  0.75231787  0.24768213  1
  Tb  Tb1  1  0.25000000  0.24768213  0.75231787  1
  B  B2  1  0.75000000  0.24838246  0.75161754  1
  B  B3  1  0.25000000  0.75161754  0.24838246  1
  B  B4  1  0.11741568  0.18597816  0.31651231  1
  B  B5  1  0.38258432  0.68348769  0.81402184  1
  B  B6  1  0.88258432  0.81402184  0.68348769  1
  B  B7  1  0.61741568  0.31651231  0.18597816  1
  O  O8  1  0.69595486  0.05015304  0.75330703  1
  O  O9  1  0.06148356  0.34240832  0.16311019  1
  O  O10  1  0.43851644  0.83688981  0.65759168  1
  O  O11  1  0.93851644  0.65759168  0.83688981  1
  O  O12  1  0.49967792  0.44593170  0.75094706  1
  O  O13  1  0.00032208  0.24905294  0.55406830  1
  O  O14  1  0.50032208  0.55406830  0.24905294  1
  O  O15  1  0.99967792  0.75094706  0.44593170  1
  O  O16  1  0.30404514  0.94984696  0.24669297  1
  O  O17  1  0.19595486  0.75330703  0.05015304  1
  O  O18  1  0.56148356  0.16311019  0.34240832  1
  O  O19  1  0.80404514  0.24669297  0.94984696  1
