# generated using pymatgen
data_In3GaN4
_symmetry_space_group_name_H-M   'P 1'
_cell_length_a   6.97147023
_cell_length_b   6.97147092
_cell_length_c   5.66809982
_cell_angle_alpha   90.00000000
_cell_angle_beta   90.00000000
_cell_angle_gamma   59.99999804
_symmetry_Int_Tables_number   1
_chemical_formula_structural   In3GaN4
_chemical_formula_sum   'In6 Ga2 N8'
_cell_volume   238.57059319
_cell_formula_units_Z   2
loop_
 _symmetry_equiv_pos_site_id
 _symmetry_equiv_pos_as_xyz
  1  'x, y, z'
loop_
 _atom_site_type_symbol
 _atom_site_label
 _atom_site_symmetry_multiplicity
 _atom_site_fract_x
 _atom_site_fract_y
 _atom_site_fract_z
 _atom_site_occupancy
  In  In0  1  0.00294302  0.00294302  0.99907957  1
  In  In1  1  0.00294302  0.49411295  0.99907957  1
  In  In2  1  0.49411295  0.00294302  0.99907957  1
  In  In3  1  0.17255405  0.66372298  0.49907957  1
  In  In4  1  0.66372298  0.17255405  0.49907957  1
  In  In5  1  0.66372298  0.66372298  0.49907957  1
  Ga  Ga6  1  0.50000000  0.50000000  0.99938436  1
  Ga  Ga7  1  0.16666700  0.16666700  0.49938436  1
  N  N8  1  0.01029358  0.01029358  0.38576874  1
  N  N9  1  0.01029358  0.47941284  0.38576874  1
  N  N10  1  0.47941284  0.01029358  0.38576874  1
  N  N11  1  0.50000000  0.50000000  0.34606870  1
  N  N12  1  0.16666700  0.16666700  0.84606870  1
  N  N13  1  0.18725416  0.65637342  0.88576874  1
  N  N14  1  0.65637342  0.18725416  0.88576874  1
  N  N15  1  0.65637342  0.65637342  0.88576874  1
