# generated using pymatgen
data_TlCoO3
_symmetry_space_group_name_H-M   'P 1'
_cell_length_a   5.39412857
_cell_length_b   5.41643878
_cell_length_c   7.96169547
_cell_angle_alpha   89.82803741
_cell_angle_beta   89.94726954
_cell_angle_gamma   89.73773685
_symmetry_Int_Tables_number   1
_chemical_formula_structural   TlCoO3
_chemical_formula_sum   'Tl4 Co4 O12'
_cell_volume   232.61301520
_cell_formula_units_Z   4
loop_
 _symmetry_equiv_pos_site_id
 _symmetry_equiv_pos_as_xyz
  1  'x, y, z'
loop_
 _atom_site_type_symbol
 _atom_site_label
 _atom_site_symmetry_multiplicity
 _atom_site_fract_x
 _atom_site_fract_y
 _atom_site_fract_z
 _atom_site_occupancy
  Tl  Tl0  1  0.01625124  0.95586748  0.75064936  1
  Tl  Tl1  1  0.48610416  0.45581492  0.75262032  1
  Tl  Tl2  1  0.51389584  0.54418508  0.24737968  1
  Tl  Tl3  1  0.98374876  0.04413252  0.24935064  1
  Co  Co4  1  0.00000000  0.50000000  -0.00000000  1
  Co  Co5  1  0.00000000  0.50000000  0.50000000  1
  Co  Co6  1  0.50000000  0.00000000  -0.00000000  1
  Co  Co7  1  0.50000000  0.00000000  0.50000000  1
  O  O8  1  0.10891427  0.44682580  0.24835295  1
  O  O9  1  0.18893295  0.21378113  0.55885925  1
  O  O10  1  0.19522507  0.21670849  0.93734597  1
  O  O11  1  0.30853780  0.71764201  0.94014756  1
  O  O12  1  0.31013980  0.71397771  0.56369785  1
  O  O13  1  0.38646277  0.94359353  0.25088471  1
  O  O14  1  0.61353723  0.05640647  0.74911529  1
  O  O15  1  0.68986020  0.28602229  0.43630215  1
  O  O16  1  0.69146220  0.28235799  0.05985244  1
  O  O17  1  0.80477493  0.78329151  0.06265403  1
  O  O18  1  0.81106705  0.78621887  0.44114075  1
  O  O19  1  0.89108573  0.55317420  0.75164705  1
