# generated using pymatgen
data_Li7Mn5O12
_symmetry_space_group_name_H-M   'P 1'
_cell_length_a   5.09595886
_cell_length_b   6.47632525
_cell_length_c   6.93546330
_cell_angle_alpha   84.15512249
_cell_angle_beta   100.66832248
_cell_angle_gamma   96.85150773
_symmetry_Int_Tables_number   1
_chemical_formula_structural   Li7Mn5O12
_chemical_formula_sum   'Li7 Mn5 O12'
_cell_volume   222.58175408
_cell_formula_units_Z   1
loop_
 _symmetry_equiv_pos_site_id
 _symmetry_equiv_pos_as_xyz
  1  'x, y, z'
loop_
 _atom_site_type_symbol
 _atom_site_label
 _atom_site_symmetry_multiplicity
 _atom_site_fract_x
 _atom_site_fract_y
 _atom_site_fract_z
 _atom_site_occupancy
  Li  Li0  1  0.74519165  0.24789738  0.24733758  1
  Li  Li1  1  0.72795024  0.58628142  0.94148862  1
  Li  Li2  1  0.27204864  0.08038382  0.39184404  1
  Li  Li3  1  0.25480902  0.41876782  0.08599782  1
  Li  Li4  1  0.74049658  0.91589287  0.58973345  1
  Li  Li5  1  0.25950340  0.75077267  0.74359982  1
  Li  Li6  1  0.50000098  0.83333459  0.16666816  1
  Mn  Mn7  1  0.99948951  0.99774404  0.01108083  1
  Mn  Mn8  1  0.00050539  0.66892299  0.32224856  1
  Mn  Mn9  1  0.99999489  0.33333490  0.66667800  1
  Mn  Mn10  1  0.49596695  0.16075732  0.84663248  1
  Mn  Mn11  1  0.50403460  0.50590654  0.48669722  1
  O  O12  1  0.86092394  0.27132190  0.95880266  1
  O  O13  1  0.88319407  0.62101818  0.58837227  1
  O  O14  1  0.34617890  0.11633269  0.11994207  1
  O  O15  1  0.35971975  0.43901510  0.79088456  1
  O  O16  1  0.89753608  0.94950615  0.26953922  1
  O  O17  1  0.36361298  0.77322240  0.45735110  1
  O  O18  1  0.64028336  0.22765077  0.54245062  1
  O  O19  1  0.65382065  0.55033419  0.21339102  1
  O  O20  1  0.11680627  0.04564893  0.74496036  1
  O  O21  1  0.13907945  0.39534635  0.37453000  1
  O  O22  1  0.63638737  0.89344710  0.87598100  1
  O  O23  1  0.10246532  0.71715987  0.06378857  1
