# generated using pymatgen
data_Na6GaP3
_symmetry_space_group_name_H-M   'P 1'
_cell_length_a   8.05192886
_cell_length_b   8.11834901
_cell_length_c   16.04186506
_cell_angle_alpha   95.82625970
_cell_angle_beta   94.00096428
_cell_angle_gamma   119.65321208
_symmetry_Int_Tables_number   1
_chemical_formula_structural   Na6GaP3
_chemical_formula_sum   'Na24 Ga4 P12'
_cell_volume   897.81500559
_cell_formula_units_Z   4
loop_
 _symmetry_equiv_pos_site_id
 _symmetry_equiv_pos_as_xyz
  1  'x, y, z'
loop_
 _atom_site_type_symbol
 _atom_site_label
 _atom_site_symmetry_multiplicity
 _atom_site_fract_x
 _atom_site_fract_y
 _atom_site_fract_z
 _atom_site_occupancy
  Na  Na0  1  0.02982216  0.85787188  0.58146270  1
  Na  Na1  1  0.15779813  0.97656526  0.92766372  1
  Na  Na2  1  0.04629184  0.55802489  0.70051172  1
  Na  Na3  1  0.12993560  0.62200617  0.46982081  1
  Na  Na4  1  0.16111684  0.35569108  0.99791970  1
  Na  Na5  1  0.42723572  0.91604586  0.81106343  1
  Na  Na6  1  0.15669822  0.29139960  0.80212690  1
  Na  Na7  1  0.49015287  0.69289927  0.93711622  1
  Na  Na8  1  0.26323551  0.37350285  0.20462882  1
  Na  Na9  1  0.55130369  0.79359595  0.31318546  1
  Na  Na10  1  0.24128166  0.02238324  0.30463484  1
  Na  Na11  1  0.64366117  0.80325097  0.50100231  1
  Na  Na12  1  0.34430939  0.18260900  0.49380399  1
  Na  Na13  1  0.76572180  0.96378777  0.70044192  1
  Na  Na14  1  0.42822396  0.20681196  0.69341035  1
  Na  Na15  1  0.73984475  0.62394200  0.79672502  1
  Na  Na16  1  0.50864880  0.30956140  0.06294152  1
  Na  Na17  1  0.84064996  0.71297849  0.19932872  1
  Na  Na18  1  0.57158221  0.08164886  0.18645701  1
  Na  Na19  1  0.83812588  0.64424246  0.00161106  1
  Na  Na20  1  0.72387720  0.21396183  0.55869980  1
  Na  Na21  1  0.95297040  0.44680361  0.29079348  1
  Na  Na22  1  0.84337730  0.02326052  0.07260305  1
  Na  Na23  1  0.96986119  0.14940476  0.41860860  1
  Ga  Ga24  1  0.20132056  0.70556045  0.09174870  1
  Ga  Ga25  1  0.36628123  0.52866662  0.59797452  1
  Ga  Ga26  1  0.64563133  0.47317267  0.40565953  1
  Ga  Ga27  1  0.79793986  0.29428887  0.90698596  1
  P  P28  1  0.18052737  0.99036657  0.12049738  1
  P  P29  1  0.09602205  0.59753353  0.89243181  1
  P  P30  1  0.38321991  0.83823583  0.62606821  1
  P  P31  1  0.08656724  0.23641421  0.61760144  1
  P  P32  1  0.33334555  0.45916407  0.39609268  1
  P  P33  1  0.49430282  0.69429965  0.11933748  1
  P  P34  1  0.50373419  0.30475905  0.88072727  1
  P  P35  1  0.67280738  0.53555153  0.60417933  1
  P  P36  1  0.91639350  0.76980391  0.38491515  1
  P  P37  1  0.63339072  0.17336417  0.37460478  1
  P  P38  1  0.90217311  0.40178147  0.10436675  1
  P  P39  1  0.81941691  0.00878771  0.88071789  1
