# generated using pymatgen
data_Sr8Y4Cu11CO28
_symmetry_space_group_name_H-M   'P 1'
_cell_length_a   3.87579005
_cell_length_b   13.70665466
_cell_length_c   13.70665466
_cell_angle_alpha   112.26318626
_cell_angle_beta   90.00000000
_cell_angle_gamma   90.00000000
_symmetry_Int_Tables_number   1
_chemical_formula_structural   Sr8Y4Cu11CO28
_chemical_formula_sum   'Sr8 Y4 Cu11 C1 O28'
_cell_volume   673.87246381
_cell_formula_units_Z   1
loop_
 _symmetry_equiv_pos_site_id
 _symmetry_equiv_pos_as_xyz
  1  'x, y, z'
loop_
 _atom_site_type_symbol
 _atom_site_label
 _atom_site_symmetry_multiplicity
 _atom_site_fract_x
 _atom_site_fract_y
 _atom_site_fract_z
 _atom_site_occupancy
  Sr  Sr0  1  0.50000000  0.79078502  0.97383594  1
  Sr  Sr1  1  0.50000000  0.21008870  0.02683659  1
  Sr  Sr2  1  0.50000000  0.02683659  0.21008870  1
  Sr  Sr3  1  0.50000000  0.97383594  0.79078502  1
  Sr  Sr4  1  0.50000000  0.56002504  0.73760315  1
  Sr  Sr5  1  0.50000000  0.44435769  0.25983093  1
  Sr  Sr6  1  0.50000000  0.25983093  0.44435769  1
  Sr  Sr7  1  0.50000000  0.73760315  0.56002504  1
  Y  Y8  1  0.50000000  0.62191361  0.12899595  1
  Y  Y9  1  0.50000000  0.37863651  0.86954342  1
  Y  Y10  1  0.50000000  0.86954342  0.37863651  1
  Y  Y11  1  0.50000000  0.12899595  0.62191361  1
  Cu  Cu12  1  -0.00000000  0.81988264  0.18026293  1
  Cu  Cu13  1  0.00000000  0.18026293  0.81988264  1
  Cu  Cu14  1  0.00000000  0.32822372  0.67102606  1
  Cu  Cu15  1  0.00000000  0.67102606  0.32822372  1
  Cu  Cu16  1  -0.00000000  -0.00001356  -0.00001356  1
  Cu  Cu17  1  -0.00000000  0.57667153  0.93001794  1
  Cu  Cu18  1  0.00000000  0.42379517  0.06854420  1
  Cu  Cu19  1  -0.00000000  0.06854420  0.42379517  1
  Cu  Cu20  1  -0.00000000  0.93001794  0.57667153  1
  Cu  Cu21  1  -0.00000000  0.76300741  0.76300741  1
  Cu  Cu22  1  0.00000000  0.24005811  0.24005811  1
  C  C23  1  0.00000000  0.49823472  0.49823472  1
  O  O24  1  0.00000000  0.44867668  0.80202410  1
  O  O25  1  -0.00000000  0.55345440  0.19444466  1
  O  O26  1  -0.00000000  0.19444466  0.55345440  1
  O  O27  1  0.00000000  0.80202410  0.44867668  1
  O  O28  1  0.00000000  0.68201514  0.07056007  1
  O  O29  1  0.00000000  0.31926408  0.92755226  1
  O  O30  1  0.00000000  0.92755226  0.31926408  1
  O  O31  1  0.00000000  0.07056007  0.68201514  1
  O  O32  1  0.50000000  0.75567014  0.75567014  1
  O  O33  1  0.50000000  0.25113504  0.25113504  1
  O  O34  1  0.00000000  0.67860095  0.84355689  1
  O  O35  1  0.00000000  0.31952630  0.15464824  1
  O  O36  1  0.00000000  0.15464824  0.31952630  1
  O  O37  1  0.00000000  0.84355689  0.67860095  1
  O  O38  1  0.50000000  0.80906607  0.19114896  1
  O  O39  1  0.50000000  0.19114896  0.80906607  1
  O  O40  1  0.00000000  0.91666977  0.08297149  1
  O  O41  1  0.00000000  0.08297149  0.91666977  1
  O  O42  1  0.50000000  0.32227654  0.67741729  1
  O  O43  1  0.50000000  0.67741729  0.32227654  1
  O  O44  1  0.50000000  0.56603244  0.93832221  1
  O  O45  1  0.50000000  0.43394957  0.06051047  1
  O  O46  1  0.50000000  0.06051047  0.43394957  1
  O  O47  1  0.50000000  0.93832221  0.56603244  1
  O  O48  1  0.50000000  0.00059143  0.00059143  1
  O  O49  1  0.00000000  0.40654576  0.50602740  1
  O  O50  1  0.00000000  0.50602740  0.40654576  1
  O  O51  1  0.00000000  0.58397823  0.58397823  1
