# generated using pymatgen
data_NaPr2Ti2MnO9
_symmetry_space_group_name_H-M   'P 1'
_cell_length_a   5.62279310
_cell_length_b   5.55609717
_cell_length_c   23.17017146
_cell_angle_alpha   89.76402762
_cell_angle_beta   89.60625091
_cell_angle_gamma   87.33141063
_symmetry_Int_Tables_number   1
_chemical_formula_structural   NaPr2Ti2MnO9
_chemical_formula_sum   'Na4 Pr8 Ti8 Mn4 O36'
_cell_volume   723.04705461
_cell_formula_units_Z   4
loop_
 _symmetry_equiv_pos_site_id
 _symmetry_equiv_pos_as_xyz
  1  'x, y, z'
loop_
 _atom_site_type_symbol
 _atom_site_label
 _atom_site_symmetry_multiplicity
 _atom_site_fract_x
 _atom_site_fract_y
 _atom_site_fract_z
 _atom_site_occupancy
  Na  Na0  1  0.51528171  0.49853387  0.91703976  1
  Na  Na1  1  0.98048545  0.00723925  0.41730850  1
  Na  Na2  1  0.98073398  0.00173948  0.08300306  1
  Na  Na3  1  0.97995743  0.00292237  0.75094822  1
  Pr  Pr4  1  0.04300720  0.98542929  0.24928655  1
  Pr  Pr5  1  0.04275027  0.98573966  0.58344764  1
  Pr  Pr6  1  0.03483434  0.98678503  0.91665645  1
  Pr  Pr7  1  0.44991695  0.48780727  0.08256342  1
  Pr  Pr8  1  0.45733096  0.49080903  0.41701956  1
  Pr  Pr9  1  0.45601397  0.49167267  0.75100403  1
  Pr  Pr10  1  0.53993588  0.50432365  0.58394511  1
  Pr  Pr11  1  0.54158551  0.50457202  0.24992602  1
  Ti  Ti12  1  0.97768006  0.48319621  0.00242912  1
  Ti  Ti13  1  0.99879339  0.49667995  0.33754250  1
  Ti  Ti14  1  0.99765739  0.49612633  0.67083885  1
  Ti  Ti15  1  0.98126007  0.48112233  0.83385945  1
  Ti  Ti16  1  0.50800397  0.99752682  0.16261993  1
  Ti  Ti17  1  0.50787264  -0.00208205  0.49638486  1
  Ti  Ti18  1  0.50237817  0.98092038  0.83341375  1
  Ti  Ti19  1  0.49767303  0.98321640  0.99670787  1
  Mn  Mn20  1  0.99734791  0.49344553  0.16525409  1
  Mn  Mn21  1  0.99897790  0.49501649  0.49947608  1
  Mn  Mn22  1  0.50602342  0.00031667  0.33372433  1
  Mn  Mn23  1  0.50545794  0.00087064  0.66772698  1
  O  O24  1  0.01633206  0.57101080  0.08223673  1
  O  O25  1  0.01914462  0.57740321  0.41686768  1
  O  O26  1  0.01839638  0.57622741  0.75070137  1
  O  O27  1  0.22049061  0.22211970  0.34649434  1
  O  O28  1  0.23226947  0.23535265  0.01125795  1
  O  O29  1  0.21619988  0.21765976  0.15332511  1
  O  O30  1  0.22075746  0.22083820  0.48710082  1
  O  O31  1  0.21829995  0.22298839  0.68023606  1
  O  O32  1  0.23053477  0.23727413  0.82179305  1
  O  O33  1  0.29816656  0.73396062  0.51535835  1
  O  O34  1  0.29847901  0.73010328  0.18100416  1
  O  O35  1  0.26676643  0.70357893  0.31765584  1
  O  O36  1  0.26700589  0.70326018  0.65158176  1
  O  O37  1  0.28429726  0.74013928  0.84547053  1
  O  O38  1  0.28260469  0.74126579  0.98796625  1
  O  O39  1  0.48105668  0.07716659  0.58519578  1
  O  O40  1  0.48181342  0.07541334  0.25132912  1
  O  O41  1  0.48695269  0.07169113  0.91631256  1
  O  O42  1  0.51901108  0.92138561  0.08273953  1
  O  O43  1  0.52199797  0.91839007  0.41652115  1
  O  O44  1  0.51920691  0.92602634  0.75064292  1
  O  O45  1  0.72519985  0.28634782  0.01273855  1
  O  O46  1  0.68436412  0.28262508  0.15547598  1
  O  O47  1  0.68945585  0.27898380  0.48887531  1
  O  O48  1  0.71396620  0.31802224  0.34459975  1
  O  O49  1  0.71268795  0.31851931  0.67827078  1
  O  O50  1  0.72534957  0.28974619  0.82074445  1
  O  O51  1  0.77898906  0.78326470  0.31574229  1
  O  O52  1  0.78213494  0.77800433  0.18229475  1
  O  O53  1  0.77873545  0.78240101  0.64977112  1
  O  O54  1  0.78782647  0.78720228  0.84714287  1
  O  O55  1  0.78479952  0.78453969  0.98589363  1
  O  O56  1  0.78021571  0.77658210  0.51684340  1
  O  O57  1  0.98096419  0.41476797  0.24860923  1
  O  O58  1  0.98105374  0.41409010  0.58246566  1
  O  O59  1  0.99351406  0.42771870  0.91661502  1
