# generated using pymatgen
data_Li9Co7O16
_symmetry_space_group_name_H-M   'P 1'
_cell_length_a   5.03890216
_cell_length_b   11.36797089
_cell_length_c   4.95490483
_cell_angle_alpha   90.00000000
_cell_angle_beta   70.27203758
_cell_angle_gamma   90.00000000
_symmetry_Int_Tables_number   1
_chemical_formula_structural   Li9Co7O16
_chemical_formula_sum   'Li9 Co7 O16'
_cell_volume   267.16833608
_cell_formula_units_Z   1
loop_
 _symmetry_equiv_pos_site_id
 _symmetry_equiv_pos_as_xyz
  1  'x, y, z'
loop_
 _atom_site_type_symbol
 _atom_site_label
 _atom_site_symmetry_multiplicity
 _atom_site_fract_x
 _atom_site_fract_y
 _atom_site_fract_z
 _atom_site_occupancy
  Li  Li0  1  0.50000000  0.12358407  0.00000000  1
  Li  Li1  1  0.50000000  0.24874055  0.50000000  1
  Li  Li2  1  0.50000000  0.37500000  0.00000000  1
  Li  Li3  1  0.50000000  0.50125945  0.50000000  1
  Li  Li4  1  0.50000000  0.62641593  0.00000000  1
  Li  Li5  1  0.50000000  0.75852690  0.50000000  1
  Li  Li6  1  0.50000000  0.87500000  0.00000000  1
  Li  Li7  1  0.50000000  0.99147310  0.50000000  1
  Li  Li8  1  -0.00000000  0.87500000  0.50000000  1
  Co  Co9  1  -0.00000000  -0.00078108  0.00000000  1
  Co  Co10  1  -0.00000000  0.75078108  0.00000000  1
  Co  Co11  1  -0.00000000  0.12081392  0.50000000  1
  Co  Co12  1  -0.00000000  0.24961919  0.00000000  1
  Co  Co13  1  -0.00000000  0.37500000  0.50000000  1
  Co  Co14  1  -0.00000000  0.50038081  0.00000000  1
  Co  Co15  1  -0.00000000  0.62918608  0.50000000  1
  O  O16  1  0.21823460  0.12576610  0.75587017  1
  O  O17  1  0.21201429  0.24896242  0.25975514  1
  O  O18  1  0.23165065  0.37500000  0.77494440  1
  O  O19  1  0.21201429  0.50103758  0.25975514  1
  O  O20  1  0.21823460  0.62423390  0.75587017  1
  O  O21  1  0.21878507  0.73882381  0.25286568  1
  O  O22  1  0.23045291  0.87500000  0.77981181  1
  O  O23  1  0.21878507  0.01117619  0.25286568  1
  O  O24  1  0.78176540  0.12576610  0.24412983  1
  O  O25  1  0.78798571  0.24896242  0.74024486  1
  O  O26  1  0.76834935  0.37500000  0.22505560  1
  O  O27  1  0.78798571  0.50103758  0.74024486  1
  O  O28  1  0.78176540  0.62423390  0.24412983  1
  O  O29  1  0.78121493  0.73882381  0.74713432  1
  O  O30  1  0.76954709  0.87500000  0.22018819  1
  O  O31  1  0.78121493  0.01117619  0.74713432  1
