# generated using pymatgen
data_Li4Mn3O7
_symmetry_space_group_name_H-M   'P 1'
_cell_length_a   5.06760571
_cell_length_b   7.99490525
_cell_length_c   6.48810183
_cell_angle_alpha   85.49489250
_cell_angle_beta   96.86069540
_cell_angle_gamma   98.28536732
_symmetry_Int_Tables_number   1
_chemical_formula_structural   Li4Mn3O7
_chemical_formula_sum   'Li8 Mn6 O14'
_cell_volume   257.75565756
_cell_formula_units_Z   2
loop_
 _symmetry_equiv_pos_site_id
 _symmetry_equiv_pos_as_xyz
  1  'x, y, z'
loop_
 _atom_site_type_symbol
 _atom_site_label
 _atom_site_symmetry_multiplicity
 _atom_site_fract_x
 _atom_site_fract_y
 _atom_site_fract_z
 _atom_site_occupancy
  Li  Li0  1  0.90951900  0.34611818  0.86365226  1
  Li  Li1  1  0.23333136  0.93959214  0.42205309  1
  Li  Li2  1  0.49377044  0.48564143  0.99861653  1
  Li  Li3  1  0.07142804  0.64286151  0.14285221  1
  Li  Li4  1  0.36286253  0.21141483  0.71619466  1
  Li  Li5  1  0.64908512  0.80007490  0.28709914  1
  Li  Li6  1  0.77999714  0.07429655  0.56952806  1
  Li  Li7  1  0.57143082  0.14285858  0.14285546  1
  Mn  Mn8  1  0.00770495  0.01093025  0.00072445  1
  Mn  Mn9  1  0.13517814  0.27477953  0.28498486  1
  Mn  Mn10  1  0.27935199  0.56820200  0.57084878  1
  Mn  Mn11  1  0.86348526  0.71752101  0.71487737  1
  Mn  Mn12  1  0.43996920  0.86995590  0.86105130  1
  Mn  Mn13  1  0.70287460  0.41576190  0.42466958  1
  O  O14  1  0.70756337  0.10526544  0.86681303  1
  O  O15  1  0.97560183  0.68035357  0.44622858  1
  O  O16  1  0.22234159  0.23179647  0.01363774  1
  O  O17  1  0.83065691  0.39412667  0.16172425  1
  O  O18  1  0.12561882  0.96888139  0.73825362  1
  O  O19  1  0.37128713  0.50584219  0.29529452  1
  O  O20  1  0.55302921  0.82087797  0.58838190  1
  O  O21  1  0.16725589  0.60536237  0.83947505  1
  O  O22  1  0.43528984  0.18045208  0.41890138  1
  O  O23  1  0.77157155  0.77986562  0.99042331  1
  O  O24  1  0.31220475  0.89157957  0.12399726  1
  O  O25  1  0.58983304  0.46483028  0.69733037  1
  O  O26  1  0.92051275  0.05391761  0.27208626  1
  O  O27  1  0.01724473  0.31684007  0.54744499  1
