# generated using pymatgen
data_Gd(BO2)3
_symmetry_space_group_name_H-M   'P 1'
_cell_length_a   6.31488538
_cell_length_b   6.38318047
_cell_length_c   6.38318047
_cell_angle_alpha   79.33557565
_cell_angle_beta   62.52406632
_cell_angle_gamma   62.52406634
_symmetry_Int_Tables_number   1
_chemical_formula_structural   Gd(BO2)3
_chemical_formula_sum   'Gd2 B6 O12'
_cell_volume   202.40262432
_cell_formula_units_Z   2
loop_
 _symmetry_equiv_pos_site_id
 _symmetry_equiv_pos_as_xyz
  1  'x, y, z'
loop_
 _atom_site_type_symbol
 _atom_site_label
 _atom_site_symmetry_multiplicity
 _atom_site_fract_x
 _atom_site_fract_y
 _atom_site_fract_z
 _atom_site_occupancy
  B  B0  1  0.90913548  0.66334154  0.29357023  1
  B  B1  1  0.59086452  0.20642977  0.83665846  1
  B  B2  1  0.75000000  0.77591502  0.72408498  1
  B  B3  1  0.25000000  0.22408498  0.27591502  1
  B  B4  1  0.09086452  0.33665846  0.70642977  1
  B  B5  1  0.40913548  0.79357023  0.16334154  1
  O  O6  1  0.70632899  0.78101057  0.51242729  1
  O  O7  1  0.99542743  0.58141227  0.71693086  1
  O  O8  1  0.50457257  0.78306914  0.91858773  1
  O  O9  1  0.00457257  0.41858773  0.28306914  1
  O  O10  1  0.48894557  0.61515487  0.29761857  1
  O  O11  1  0.01105443  0.20238143  0.88484513  1
  O  O12  1  0.51105443  0.38484513  0.70238143  1
  O  O13  1  0.98894557  0.79761857  0.11515487  1
  O  O14  1  0.29367101  0.21898943  0.48757271  1
  O  O15  1  0.20632899  0.01242729  0.28101057  1
  O  O16  1  0.49542743  0.21693086  0.08141227  1
  O  O17  1  0.79367101  0.98757271  0.71898943  1
  Gd  Gd18  1  0.75000000  0.20874401  0.29125599  1
  Gd  Gd19  1  0.25000000  0.79125599  0.70874401  1
