# generated using pymatgen
data_MnFeCo(PO4)3
_symmetry_space_group_name_H-M   'P 1'
_cell_length_a   9.87145592
_cell_length_b   5.97616775
_cell_length_c   14.64087196
_cell_angle_alpha   90.00000000
_cell_angle_beta   89.74116728
_cell_angle_gamma   90.00000000
_symmetry_Int_Tables_number   1
_chemical_formula_structural   MnFeCo(PO4)3
_chemical_formula_sum   'Mn4 Fe4 Co4 P12 O48'
_cell_volume   863.70712319
_cell_formula_units_Z   4
loop_
 _symmetry_equiv_pos_site_id
 _symmetry_equiv_pos_as_xyz
  1  'x, y, z'
loop_
 _atom_site_type_symbol
 _atom_site_label
 _atom_site_symmetry_multiplicity
 _atom_site_fract_x
 _atom_site_fract_y
 _atom_site_fract_z
 _atom_site_occupancy
  Mn  Mn0  1  0.21507644  0.75000000  0.14493797  1
  Mn  Mn1  1  0.21725733  0.75000000  0.47867741  1
  Mn  Mn2  1  0.21329831  0.75000000  0.81027651  1
  Mn  Mn3  1  0.28629829  0.25000000  0.64554722  1
  Fe  Fe4  1  0.27750522  0.25000000  0.31909562  1
  Fe  Fe5  1  0.27662894  0.25000000  0.98558641  1
  Fe  Fe6  1  0.72674203  0.75000000  0.01197867  1
  Fe  Fe7  1  0.72791325  0.75000000  0.34397857  1
  Co  Co8  1  0.72570425  0.75000000  0.67922818  1
  Co  Co9  1  0.77088976  0.25000000  0.84271963  1
  Co  Co10  1  0.77191870  0.25000000  0.17873205  1
  Co  Co11  1  0.77922074  0.25000000  0.51801895  1
  P  P12  1  0.09528470  0.25000000  0.80427040  1
  P  P13  1  0.09792580  0.25000000  0.47170597  1
  P  P14  1  0.09436480  0.25000000  0.13799492  1
  P  P15  1  0.39935611  0.75000000  0.30500774  1
  P  P16  1  0.39866057  0.75000000  0.97184907  1
  P  P17  1  0.40265266  0.75000000  0.63906604  1
  P  P18  1  0.60211282  0.25000000  0.03045895  1
  P  P19  1  0.60232951  0.25000000  0.36569787  1
  P  P20  1  0.59854809  0.25000000  0.69621312  1
  P  P21  1  0.90279264  0.75000000  0.52713073  1
  P  P22  1  0.89870478  0.75000000  0.86167563  1
  P  P23  1  0.90235986  0.75000000  0.19498672  1
  O  O24  1  0.05451489  0.75000000  0.55152020  1
  O  O25  1  0.05506239  0.75000000  0.21770791  1
  O  O26  1  0.05164122  0.75000000  0.88078574  1
  O  O27  1  0.12213256  0.25000000  0.57519197  1
  O  O28  1  0.11805341  0.25000000  0.90718608  1
  O  O29  1  0.11868782  0.25000000  0.24057688  1
  O  O30  1  0.16631564  0.04845658  0.75474201  1
  O  O31  1  0.16631564  0.45154342  0.75474201  1
  O  O32  1  0.16893278  0.05130219  0.08759624  1
  O  O33  1  0.16893278  0.44869781  0.08759624  1
  O  O34  1  0.17269555  0.05092070  0.42183188  1
  O  O35  1  0.17269555  0.44907930  0.42183188  1
  O  O36  1  0.32761373  0.54574213  0.25897921  1
  O  O37  1  0.32761373  0.95425787  0.25897921  1
  O  O38  1  0.32697242  0.95409486  0.92566597  1
  O  O39  1  0.32697242  0.54590514  0.92566597  1
  O  O40  1  0.33325791  0.54851049  0.58986758  1
  O  O41  1  0.33325791  0.95148951  0.58986758  1
  O  O42  1  0.37943391  0.75000000  0.74295636  1
  O  O43  1  0.37842870  0.75000000  0.07709163  1
  O  O44  1  0.37968185  0.75000000  0.41026206  1
  O  O45  1  0.45031052  0.25000000  0.05024043  1
  O  O46  1  0.44996462  0.25000000  0.38461159  1
  O  O47  1  0.44543960  0.25000000  0.71911463  1
  O  O48  1  0.55182327  0.75000000  0.28640318  1
  O  O49  1  0.55133377  0.75000000  0.95338753  1
  O  O50  1  0.55736808  0.75000000  0.62112121  1
  O  O51  1  0.61722169  0.25000000  0.59214976  1
  O  O52  1  0.62748749  0.25000000  0.92631090  1
  O  O53  1  0.62731382  0.25000000  0.26093163  1
  O  O54  1  0.67523356  0.04741762  0.07817134  1
  O  O55  1  0.67523356  0.45258238  0.07817134  1
  O  O56  1  0.67525328  0.04736332  0.41245130  1
  O  O57  1  0.67525328  0.45263668  0.41245130  1
  O  O58  1  0.67022228  0.04831625  0.74540360  1
  O  O59  1  0.67022228  0.45168375  0.74540360  1
  O  O60  1  0.82870141  0.54648795  0.57567110  1
  O  O61  1  0.82870141  0.95351205  0.57567110  1
  O  O62  1  0.82952130  0.55028428  0.24498386  1
  O  O63  1  0.82952130  0.94971572  0.24498386  1
  O  O64  1  0.82832852  0.54940277  0.91102420  1
  O  O65  1  0.82832852  0.95059723  0.91102420  1
  O  O66  1  0.87477732  0.75000000  0.75699145  1
  O  O67  1  0.88385982  0.75000000  0.09163806  1
  O  O68  1  0.88426097  0.75000000  0.42432095  1
  O  O69  1  0.94103495  0.25000000  0.78406197  1
  O  O70  1  0.94735624  0.25000000  0.44963219  1
  O  O71  1  0.94184567  0.25000000  0.11693073  1
