# generated using pymatgen
data_Li4Mn3O7
_symmetry_space_group_name_H-M   'P 1'
_cell_length_a   5.07523706
_cell_length_b   5.08995692
_cell_length_c   10.67475149
_cell_angle_alpha   84.05468359
_cell_angle_beta   100.41640418
_cell_angle_gamma   107.28697696
_symmetry_Int_Tables_number   1
_chemical_formula_structural   Li4Mn3O7
_chemical_formula_sum   'Li8 Mn6 O14'
_cell_volume   258.59718442
_cell_formula_units_Z   2
loop_
 _symmetry_equiv_pos_site_id
 _symmetry_equiv_pos_as_xyz
  1  'x, y, z'
loop_
 _atom_site_type_symbol
 _atom_site_label
 _atom_site_symmetry_multiplicity
 _atom_site_fract_x
 _atom_site_fract_y
 _atom_site_fract_z
 _atom_site_occupancy
  Li  Li0  1  0.07142900  0.50000000  0.14285700  1
  Li  Li1  1  0.63591823  0.50265087  0.27974285  1
  Li  Li2  1  0.19875954  0.49322625  0.41865495  1
  Li  Li3  1  0.79527133  0.50567749  0.57651404  1
  Li  Li4  1  0.34758567  0.49432251  0.70920096  1
  Li  Li5  1  0.94409746  0.50677375  0.86705905  1
  Li  Li6  1  0.50693877  0.49734913  0.00597115  1
  Li  Li7  1  0.57142900  0.00000000  0.14285700  1
  Mn  Mn8  1  0.01250382  0.01458599  0.00719904  1
  Mn  Mn9  1  0.13035318  0.98541401  0.27851496  1
  Mn  Mn10  1  0.69579413  0.98452079  0.41872328  1
  Mn  Mn11  1  0.27922364  0.99592208  0.56887617  1
  Mn  Mn12  1  0.86363336  0.00407792  0.71683883  1
  Mn  Mn13  1  0.44706287  0.01547921  0.86699072  1
  O  O14  1  0.77751263  0.24369319  0.00412686  1
  O  O15  1  0.28509375  0.21896490  0.13984656  1
  O  O16  1  0.89227527  0.21976643  0.29332521  1
  O  O17  1  0.42523685  0.20338281  0.41477257  1
  O  O18  1  0.04142705  0.23171707  0.57968967  1
  O  O19  1  0.61589002  0.23213709  0.72116331  1
  O  O20  1  0.19755663  0.24316910  0.87026260  1
  O  O21  1  0.36534437  0.75630681  0.28158714  1
  O  O22  1  0.94530137  0.75683090  0.41545140  1
  O  O23  1  0.52696698  0.76786291  0.56455069  1
  O  O24  1  0.10142995  0.76828293  0.70602433  1
  O  O25  1  0.71762015  0.79661719  0.87094243  1
  O  O26  1  0.25058173  0.78023357  0.99238979  1
  O  O27  1  0.85776325  0.78103510  0.14586744  1
