# generated using pymatgen
data_LiCo2(PO4)2
_symmetry_space_group_name_H-M   'P 1'
_cell_length_a   10.32872586
_cell_length_b   13.60322303
_cell_length_c   5.13596528
_cell_angle_alpha   90.00000000
_cell_angle_beta   90.00000000
_cell_angle_gamma   90.00000000
_symmetry_Int_Tables_number   1
_chemical_formula_structural   LiCo2(PO4)2
_chemical_formula_sum   'Li4 Co8 P8 O32'
_cell_volume   721.62346791
_cell_formula_units_Z   4
loop_
 _symmetry_equiv_pos_site_id
 _symmetry_equiv_pos_as_xyz
  1  'x, y, z'
loop_
 _atom_site_type_symbol
 _atom_site_label
 _atom_site_symmetry_multiplicity
 _atom_site_fract_x
 _atom_site_fract_y
 _atom_site_fract_z
 _atom_site_occupancy
  Li  Li0  1  0.03348465  0.75293192  0.05610865  1
  Li  Li1  1  0.46651535  0.25293192  0.05610865  1
  Li  Li2  1  0.53348465  0.75293192  0.94389135  1
  Li  Li3  1  0.96651535  0.25293192  0.94389135  1
  Co  Co4  1  0.03206772  0.50233224  0.93053065  1
  Co  Co5  1  0.21787318  0.75136949  0.55499408  1
  Co  Co6  1  0.28212682  0.25136949  0.55499408  1
  Co  Co7  1  0.46793228  0.00233224  0.93053065  1
  Co  Co8  1  0.53206772  0.50233224  0.06946935  1
  Co  Co9  1  0.71787318  0.75136949  0.44500592  1
  Co  Co10  1  0.78212682  0.25136949  0.44500592  1
  Co  Co11  1  0.96793228  0.00233224  0.06946935  1
  P  P12  1  0.02956360  0.37493540  0.43612346  1
  P  P13  1  0.21822493  0.12791330  0.05409692  1
  P  P14  1  0.28177507  0.62791330  0.05409692  1
  P  P15  1  0.47043640  0.87493540  0.43612346  1
  P  P16  1  0.52956360  0.37493540  0.56387654  1
  P  P17  1  0.71822493  0.12791330  0.94590308  1
  P  P18  1  0.78177507  0.62791330  0.94590308  1
  P  P19  1  0.97043640  0.87493540  0.56387654  1
  O  O20  1  0.99408591  0.87797986  0.86141134  1
  O  O21  1  0.01250160  0.96972749  0.43037932  1
  O  O22  1  0.04497874  0.78243448  0.45134898  1
  O  O23  1  0.07056813  0.12740149  0.00532298  1
  O  O24  1  0.17580137  0.35671932  0.49673213  1
  O  O25  1  0.21940714  0.72065298  0.91448425  1
  O  O26  1  0.21660916  0.53331712  0.96688914  1
  O  O27  1  0.24658469  0.14412692  0.35073268  1
  O  O28  1  0.25341531  0.64412692  0.35073268  1
  O  O29  1  0.28339084  0.03331712  0.96688914  1
  O  O30  1  0.28059286  0.22065298  0.91448425  1
  O  O31  1  0.32419863  0.85671932  0.49673213  1
  O  O32  1  0.42943187  0.62740149  0.00532298  1
  O  O33  1  0.45502126  0.28243448  0.45134898  1
  O  O34  1  0.48749840  0.46972749  0.43037932  1
  O  O35  1  0.50591409  0.37797986  0.86141134  1
  O  O36  1  0.49408591  0.87797986  0.13858866  1
  O  O37  1  0.51250160  0.96972749  0.56962068  1
  O  O38  1  0.54497874  0.78243448  0.54865102  1
  O  O39  1  0.57056813  0.12740149  0.99467702  1
  O  O40  1  0.67580137  0.35671932  0.50326787  1
  O  O41  1  0.71940714  0.72065298  0.08551575  1
  O  O42  1  0.71660916  0.53331712  0.03311086  1
  O  O43  1  0.74658469  0.14412692  0.64926732  1
  O  O44  1  0.75341531  0.64412692  0.64926732  1
  O  O45  1  0.78339084  0.03331712  0.03311086  1
  O  O46  1  0.78059286  0.22065298  0.08551575  1
  O  O47  1  0.82419863  0.85671932  0.50326787  1
  O  O48  1  0.92943187  0.62740149  0.99467702  1
  O  O49  1  0.95502126  0.28243448  0.54865102  1
  O  O50  1  0.98749840  0.46972749  0.56962068  1
  O  O51  1  0.00591409  0.37797986  0.13858866  1
