# generated using pymatgen
data_LiFe2(CO3)3
_symmetry_space_group_name_H-M   'P 1'
_cell_length_a   7.51848356
_cell_length_b   7.60684565
_cell_length_c   7.64247864
_cell_angle_alpha   111.11244254
_cell_angle_beta   106.78606930
_cell_angle_gamma   107.53632888
_symmetry_Int_Tables_number   1
_chemical_formula_structural   LiFe2(CO3)3
_chemical_formula_sum   'Li2 Fe4 C6 O18'
_cell_volume   347.85624450
_cell_formula_units_Z   2
loop_
 _symmetry_equiv_pos_site_id
 _symmetry_equiv_pos_as_xyz
  1  'x, y, z'
loop_
 _atom_site_type_symbol
 _atom_site_label
 _atom_site_symmetry_multiplicity
 _atom_site_fract_x
 _atom_site_fract_y
 _atom_site_fract_z
 _atom_site_occupancy
  Li  Li0  1  0.30276757  0.60362825  0.85466505  1
  Li  Li1  1  0.79127575  0.81652478  0.81608736  1
  Fe  Fe2  1  0.03933057  0.54514857  0.16331883  1
  Fe  Fe3  1  0.16050783  0.04745724  0.53928912  1
  Fe  Fe4  1  0.44338296  0.43684290  0.43227516  1
  Fe  Fe5  1  0.54537693  0.16482795  0.03557282  1
  C  C6  1  0.18065126  0.25905995  0.94174976  1
  C  C7  1  0.25658125  0.93522800  0.16516942  1
  C  C8  1  0.39182871  0.80350336  0.59790219  1
  C  C9  1  0.60037160  0.41852413  0.81692556  1
  C  C10  1  0.80387230  0.60086650  0.41073354  1
  C  C11  1  0.93351611  0.17036366  0.24167621  1
  O  O12  1  0.13041490  0.41354533  0.95619516  1
  O  O13  1  0.07664612  0.77303400  0.08519952  1
  O  O14  1  0.06843364  0.07547796  0.78529886  1
  O  O15  1  0.08478052  0.34779821  0.29123404  1
  O  O16  1  0.39501869  0.98224039  0.70965675  1
  O  O17  1  0.33820756  0.73355986  0.40044401  1
  O  O18  1  0.44364968  0.69838250  0.68485492  1
  O  O19  1  0.36482152  0.92260497  0.05914644  1
  O  O20  1  0.40539931  0.36581432  0.77018059  1
  O  O21  1  0.35313618  0.30350179  0.09240239  1
  O  O22  1  0.31882560  0.09902168  0.34052304  1
  O  O23  1  0.70990972  0.39232532  0.96942374  1
  O  O24  1  0.72335200  0.70022959  0.50520123  1
  O  O25  1  0.68747160  0.49350415  0.72375881  1
  O  O26  1  0.72558990  0.39509213  0.33453148  1
  O  O27  1  0.96554630  0.69843590  0.38948358  1
  O  O28  1  0.93930773  0.08935715  0.35888875  1
  O  O29  1  0.77067316  0.07335245  0.05562367  1
