# generated using pymatgen
data_Li7V3P8O29
_symmetry_space_group_name_H-M   'P 1'
_cell_length_a   9.82175881
_cell_length_b   9.83332964
_cell_length_c   13.90089536
_cell_angle_alpha   89.91273250
_cell_angle_beta   90.08978746
_cell_angle_gamma   60.00225598
_symmetry_Int_Tables_number   1
_chemical_formula_structural   Li7V3P8O29
_chemical_formula_sum   'Li14 V6 P16 O58'
_cell_volume   1162.70908924
_cell_formula_units_Z   2
loop_
 _symmetry_equiv_pos_site_id
 _symmetry_equiv_pos_as_xyz
  1  'x, y, z'
loop_
 _atom_site_type_symbol
 _atom_site_label
 _atom_site_symmetry_multiplicity
 _atom_site_fract_x
 _atom_site_fract_y
 _atom_site_fract_z
 _atom_site_occupancy
  Li  Li0  1  0.90369194  0.76831471  0.06411199  1
  Li  Li1  1  0.76140837  0.90367641  0.56375916  1
  Li  Li2  1  0.90213332  0.33325151  0.56194213  1
  Li  Li3  1  0.67405823  0.66596423  0.88492768  1
  Li  Li4  1  0.76526697  0.32677781  0.06267150  1
  Li  Li5  1  0.33068093  0.90489388  0.06213700  1
  Li  Li6  1  0.65633383  0.23775609  0.44026186  1
  Li  Li7  1  0.33925931  0.76025967  0.55890388  1
  Li  Li8  1  0.23227969  0.66830640  0.94155306  1
  Li  Li9  1  0.09886594  0.66516946  0.43684669  1
  Li  Li10  1  0.23590197  0.09956973  0.43860424  1
  Li  Li11  1  0.09860504  0.23459538  0.93769871  1
  Li  Li12  1  0.94537198  0.01786555  0.99416989  1
  Li  Li13  1  0.00100619  0.00028695  0.50052857  1
  V  V14  1  0.56581941  0.43366283  0.24810238  1
  V  V15  1  0.43784039  0.56168647  0.75032783  1
  V  V16  1  0.56222358  0.00435957  0.75335112  1
  V  V17  1  0.43591791  0.00136024  0.25030360  1
  V  V18  1  0.99931813  0.56579491  0.24987653  1
  V  V19  1  0.00162405  0.43653392  0.74628500  1
  P  P20  1  0.90771346  0.77818130  0.84274004  1
  P  P21  1  0.77178628  0.91751227  0.34559644  1
  P  P22  1  0.91252005  0.31016000  0.34236380  1
  P  P23  1  0.66313325  0.66764913  0.12640528  1
  P  P24  1  0.66098908  0.67125315  0.62901216  1
  P  P25  1  0.77877290  0.31191473  0.84517347  1
  P  P26  1  0.68931660  0.22452274  0.65916845  1
  P  P27  1  0.31405176  0.90980706  0.84249682  1
  P  P28  1  0.69233750  0.08588249  0.15874128  1
  P  P29  1  0.31579434  0.77316142  0.34188380  1
  P  P30  1  0.22805744  0.68818809  0.15646477  1
  P  P31  1  0.33646916  0.33124948  0.37114713  1
  P  P32  1  0.33520406  0.33415716  0.87165567  1
  P  P33  1  0.08748457  0.68964083  0.65603352  1
  P  P34  1  0.22787537  0.08228511  0.65509492  1
  P  P35  1  0.08731547  0.22454419  0.15777849  1
  O  O36  1  0.99837815  0.78701341  0.56801065  1
  O  O37  1  0.91462614  0.75225247  0.34442051  1
  O  O38  1  0.80174554  0.99333525  0.07843269  1
  O  O39  1  0.74282893  0.92231679  0.84019567  1
  O  O40  1  0.89426302  0.62937696  0.83526080  1
  O  O41  1  0.80845336  0.67784994  0.15990604  1
  O  O42  1  0.91163091  0.46385975  0.33460687  1
  O  O43  1  0.00409781  0.21323847  0.06841196  1
  O  O44  1  0.92372412  0.33159473  0.84141332  1
  O  O45  1  0.67262563  0.81312437  0.67257940  1
  O  O46  1  0.61775775  0.91376929  0.32840147  1
  O  O47  1  0.80766697  0.51530407  0.66257539  1
  O  O48  1  0.65172402  0.66643891  0.01787218  1
  O  O49  1  0.63839878  0.68496909  0.52242979  1
  O  O50  1  0.67775231  0.51031111  0.16679270  1
  O  O51  1  0.47936008  0.89247590  0.82994665  1
  O  O52  1  0.51019812  0.80978674  0.16825683  1
  O  O53  1  0.74309065  0.33435347  0.33946305  1
  O  O54  1  0.79321965  0.20509567  0.75336259  1
  O  O55  1  0.78086314  0.22158805  0.57027365  1
  O  O56  1  0.77794023  0.22841415  0.93565124  1
  O  O57  1  0.62887176  0.47631800  0.83135467  1
  O  O58  1  0.51111509  0.67524501  0.67673599  1
  O  O59  1  0.66214104  0.25653606  0.15724996  1
  O  O60  1  0.47024340  0.61886996  0.33006619  1
  O  O61  1  0.33919919  0.91752293  0.34300328  1
  O  O62  1  0.78975600  0.01289798  0.25784947  1
  O  O63  1  0.76685099  0.00438506  0.43699147  1
  O  O64  1  0.22796709  0.99096101  0.56656018  1
  O  O65  1  0.66569385  0.08147419  0.65875320  1
  O  O66  1  0.53324185  0.38009522  0.66875474  1
  O  O67  1  0.33283133  0.74479382  0.84551747  1
  O  O68  1  0.48989556  0.31934755  0.32690346  1
  O  O69  1  0.38182933  0.53039495  0.17224530  1
  O  O70  1  0.23454360  0.77183807  0.06662336  1
  O  O71  1  0.22256242  0.77715044  0.43028287  1
  O  O72  1  0.20802350  0.79700515  0.24845313  1
  O  O73  1  0.25375982  0.66947444  0.65779705  1
  O  O74  1  0.47998361  0.18753427  0.82393948  1
  O  O75  1  0.54047195  0.07959693  0.16570875  1
  O  O76  1  0.33379106  0.48431304  0.82549817  1
  O  O77  1  0.34436112  0.34271565  0.97807519  1
  O  O78  1  0.35157616  0.31495108  0.47830056  1
  O  O79  1  0.19153058  0.48725110  0.33670887  1
  O  O80  1  0.38321020  0.08142012  0.66816048  1
  O  O81  1  0.32180864  0.18852496  0.32830092  1
  O  O82  1  0.08462196  0.66675607  0.15604319  1
  O  O83  1  0.00023076  0.79193157  0.75064323  1
  O  O84  1  0.99787110  0.78180979  0.93141861  1
  O  O85  1  0.09188435  0.53341326  0.66306222  1
  O  O86  1  0.18784707  0.33128954  0.83515506  1
  O  O87  1  0.09016674  0.37598117  0.16684608  1
  O  O88  1  0.25666707  0.07890915  0.16178831  1
  O  O89  1  0.22965804  0.00346716  0.93082956  1
  O  O90  1  0.20834938  0.99508206  0.74930349  1
  O  O91  1  0.08478286  0.24702472  0.65328087  1
  O  O92  1  0.99680030  0.21272615  0.43133673  1
  O  O93  1  0.99928939  0.20189090  0.24980813  1
