# generated using pymatgen
data_Li6V3P8O29
_symmetry_space_group_name_H-M   'P 1'
_cell_length_a   9.82792751
_cell_length_b   9.81994912
_cell_length_c   13.90658046
_cell_angle_alpha   89.96354959
_cell_angle_beta   89.88140285
_cell_angle_gamma   60.08357195
_symmetry_Int_Tables_number   1
_chemical_formula_structural   Li6V3P8O29
_chemical_formula_sum   'Li12 V6 P16 O58'
_cell_volume   1163.28547681
_cell_formula_units_Z   2
loop_
 _symmetry_equiv_pos_site_id
 _symmetry_equiv_pos_as_xyz
  1  'x, y, z'
loop_
 _atom_site_type_symbol
 _atom_site_label
 _atom_site_symmetry_multiplicity
 _atom_site_fract_x
 _atom_site_fract_y
 _atom_site_fract_z
 _atom_site_occupancy
  Li  Li0  1  0.90368676  0.76848381  0.05657898  1
  Li  Li1  1  0.77064101  0.90400453  0.56603967  1
  Li  Li2  1  0.90359059  0.32531058  0.56592973  1
  Li  Li3  1  0.66606747  0.66826460  0.87923905  1
  Li  Li4  1  0.76869719  0.32811343  0.05692813  1
  Li  Li5  1  0.32811927  0.90366192  0.05649793  1
  Li  Li6  1  0.67762802  0.22784986  0.44387092  1
  Li  Li7  1  0.32503656  0.77112108  0.56591804  1
  Li  Li8  1  0.33356626  0.33323032  0.11141288  1
  Li  Li9  1  0.09434070  0.67769873  0.44360990  1
  Li  Li10  1  0.22758778  0.09452290  0.44384483  1
  Li  Li11  1  0.00075390  0.99905859  0.98599141  1
  V  V12  1  0.56860618  0.43262193  0.25027463  1
  V  V13  1  0.43195308  0.56348030  0.75342590  1
  V  V14  1  0.56357279  0.00462963  0.75386092  1
  V  V15  1  0.43259173  0.99876486  0.25017866  1
  V  V16  1  0.99882128  0.56868400  0.25014675  1
  V  V17  1  0.00271517  0.43093151  0.75196242  1
  P  P18  1  0.90842003  0.77552386  0.84369965  1
  P  P19  1  0.76696228  0.91474166  0.34313765  1
  P  P20  1  0.91456243  0.31806679  0.34319422  1
  P  P21  1  0.66684647  0.66670906  0.12491484  1
  P  P22  1  0.66600936  0.66703263  0.62698131  1
  P  P23  1  0.77489247  0.31598156  0.84240355  1
  P  P24  1  0.68113485  0.23156964  0.65802517  1
  P  P25  1  0.31517811  0.90890298  0.84324848  1
  P  P26  1  0.68616898  0.08788914  0.15710225  1
  P  P27  1  0.31811908  0.76708992  0.34320648  1
  P  P28  1  0.22646524  0.68585984  0.15715336  1
  P  P29  1  0.33296321  0.33348229  0.37316023  1
  P  P30  1  0.33254016  0.33268851  0.87281877  1
  P  P31  1  0.08659873  0.68186825  0.65879627  1
  P  P32  1  0.23243957  0.08703603  0.65868962  1
  P  P33  1  0.08804408  0.22587963  0.15709676  1
  O  O34  1  0.99652051  0.75998307  0.56850108  1
  O  O35  1  0.91474708  0.74963631  0.34092559  1
  O  O36  1  0.78428710  0.99593095  0.07364555  1
  O  O37  1  0.74292475  0.91763046  0.83825372  1
  O  O38  1  0.89402537  0.62605130  0.83004996  1
  O  O39  1  0.81198079  0.67553387  0.16431957  1
  O  O40  1  0.90598994  0.47737139  0.32152897  1
  O  O41  1  0.99598623  0.22001305  0.07379397  1
  O  O42  1  0.91832646  0.34057021  0.83565762  1
  O  O43  1  0.66740787  0.81633031  0.66902767  1
  O  O44  1  0.61640599  0.90612307  0.32157125  1
  O  O45  1  0.81456600  0.51515515  0.66677167  1
  O  O46  1  0.66696666  0.66646184  0.01672126  1
  O  O47  1  0.66463502  0.66873318  0.51949331  1
  O  O48  1  0.67561586  0.51261708  0.16445266  1
  O  O49  1  0.47995082  0.89422299  0.83049918  1
  O  O50  1  0.51280276  0.81184442  0.16436980  1
  O  O51  1  0.74930959  0.33565082  0.34109420  1
  O  O52  1  0.79006428  0.21005047  0.75068618  1
  O  O53  1  0.76184095  0.24178726  0.56813254  1
  O  O54  1  0.77917245  0.23197475  0.93324082  1
  O  O55  1  0.62643772  0.48073042  0.83036088  1
  O  O56  1  0.51518263  0.66795741  0.66894709  1
  O  O57  1  0.66235393  0.25769031  0.16006602  1
  O  O58  1  0.47729485  0.61675484  0.32158119  1
  O  O59  1  0.33541585  0.91508402  0.34108215  1
  O  O60  1  0.78616678  0.00710098  0.25392338  1
  O  O61  1  0.75413267  0.00085503  0.43442603  1
  O  O62  1  0.24153783  0.99709675  0.56855447  1
  O  O63  1  0.66572820  0.08338423  0.65805233  1
  O  O64  1  0.52340190  0.38133071  0.67339394  1
  O  O65  1  0.33913565  0.74295413  0.83785324  1
  O  O66  1  0.48714978  0.32681350  0.33216769  1
  O  O67  1  0.37310496  0.52146713  0.16940663  1
  O  O68  1  0.22058948  0.78397333  0.07376379  1
  O  O69  1  0.24479863  0.75407928  0.43455192  1
  O  O70  1  0.20699682  0.78605621  0.25410872  1
  O  O71  1  0.25105731  0.66364233  0.65774826  1
  O  O72  1  0.48117540  0.18407567  0.83011017  1
  O  O73  1  0.52171144  0.10543891  0.16939614  1
  O  O74  1  0.33709503  0.47916613  0.83010941  1
  O  O75  1  0.33625481  0.33265474  0.98007341  1
  O  O76  1  0.33270060  0.33361175  0.48008623  1
  O  O77  1  0.18573476  0.48737606  0.33216901  1
  O  O78  1  0.38189243  0.09572092  0.67329598  1
  O  O79  1  0.32657503  0.18587889  0.33214567  1
  O  O80  1  0.08044837  0.66212450  0.16009342  1
  O  O81  1  0.00048865  0.78963828  0.75090966  1
  O  O82  1  0.99149464  0.77790540  0.93361628  1
  O  O83  1  0.09250574  0.52386646  0.67584289  1
  O  O84  1  0.18718581  0.33300188  0.83101403  1
  O  O85  1  0.10575075  0.37284159  0.16934764  1
  O  O86  1  0.25759975  0.08007198  0.16007956  1
  O  O87  1  0.23089270  0.99149712  0.93360619  1
  O  O88  1  0.20972088  0.00062306  0.75088950  1
  O  O89  1  0.08363743  0.25139096  0.65840941  1
  O  O90  1  0.00066631  0.24504956  0.43439718  1
  O  O91  1  0.00684321  0.20667522  0.25402850  1
