# generated using pymatgen
data_Li7V3P8O29
_symmetry_space_group_name_H-M   'P 1'
_cell_length_a   9.85057728
_cell_length_b   9.85656607
_cell_length_c   13.90435335
_cell_angle_alpha   89.94481787
_cell_angle_beta   90.05428707
_cell_angle_gamma   60.13961716
_symmetry_Int_Tables_number   1
_chemical_formula_structural   Li7V3P8O29
_chemical_formula_sum   'Li14 V6 P16 O58'
_cell_volume   1170.78523908
_cell_formula_units_Z   2
loop_
 _symmetry_equiv_pos_site_id
 _symmetry_equiv_pos_as_xyz
  1  'x, y, z'
loop_
 _atom_site_type_symbol
 _atom_site_label
 _atom_site_symmetry_multiplicity
 _atom_site_fract_x
 _atom_site_fract_y
 _atom_site_fract_z
 _atom_site_occupancy
  Li  Li0  1  0.76607849  0.90694833  0.56573125  1
  Li  Li1  1  0.90717427  0.33091448  0.56609441  1
  Li  Li2  1  0.66683512  0.66104219  0.38479323  1
  Li  Li3  1  0.67416441  0.67495373  0.88612744  1
  Li  Li4  1  0.76484613  0.32422260  0.06222877  1
  Li  Li5  1  0.32158002  0.90949035  0.05885232  1
  Li  Li6  1  0.32633569  0.76709770  0.56548426  1
  Li  Li7  1  0.66307022  0.10135346  0.93680176  1
  Li  Li8  1  0.23551847  0.65841338  0.93936427  1
  Li  Li9  1  0.09758835  0.66652843  0.44120441  1
  Li  Li10  1  0.23284515  0.09762258  0.44533973  1
  Li  Li11  1  0.09966653  0.23119524  0.93420609  1
  Li  Li12  1  0.98464866  0.96090577  -0.00002732  1
  Li  Li13  1  0.95219163  0.03067605  0.50358348  1
  V  V14  1  0.56257348  0.43483239  0.25470277  1
  V  V15  1  0.43772863  0.55945366  0.74834772  1
  V  V16  1  0.56550589  0.00038430  0.74844798  1
  V  V17  1  0.43864498  0.00253724  0.24849053  1
  V  V18  1  0.99985154  0.56552042  0.24401085  1
  V  V19  1  0.00179437  0.43609312  0.74969096  1
  P  P20  1  0.91225012  0.78051234  0.84231506  1
  P  P21  1  0.77898348  0.90761366  0.34242544  1
  P  P22  1  0.91190923  0.31513146  0.34189118  1
  P  P23  1  0.66235609  0.66679257  0.12997023  1
  P  P24  1  0.66471972  0.66544354  0.62556643  1
  P  P25  1  0.77284130  0.31539626  0.84479118  1
  P  P26  1  0.69510836  0.22342130  0.65708871  1
  P  P27  1  0.31728428  0.90557116  0.84270189  1
  P  P28  1  0.69193260  0.08657035  0.15690193  1
  P  P29  1  0.31519924  0.77634718  0.34314763  1
  P  P30  1  0.22920147  0.68570141  0.15785056  1
  P  P31  1  0.33010503  0.33466606  0.36936226  1
  P  P32  1  0.33618120  0.33372858  0.87410696  1
  P  P33  1  0.08627238  0.68740147  0.65519595  1
  P  P34  1  0.22744410  0.08501418  0.65736106  1
  P  P35  1  0.08680523  0.22629072  0.15605085  1
  O  O36  1  0.00256018  0.77887041  0.56463162  1
  O  O37  1  0.92115894  0.73964468  0.33940722  1
  O  O38  1  0.77865398  0.01068881  0.06626929  1
  O  O39  1  0.74765320  0.92496165  0.84441111  1
  O  O40  1  0.89747422  0.63196765  0.83684947  1
  O  O41  1  0.80652948  0.67065506  0.17391399  1
  O  O42  1  0.90375045  0.47594524  0.32964842  1
  O  O43  1  0.99770235  0.22649794  0.06760615  1
  O  O44  1  0.91862369  0.33312868  0.84560369  1
  O  O45  1  0.67582611  0.80918193  0.66103478  1
  O  O46  1  0.62773930  0.89480140  0.32879009  1
  O  O47  1  0.80940472  0.51224159  0.66212006  1
  O  O48  1  0.65693761  0.66521671  0.02254100  1
  O  O49  1  0.65208968  0.66598597  0.51685563  1
  O  O50  1  0.66703577  0.51648566  0.17144066  1
  O  O51  1  0.48088586  0.88791112  0.83321607  1
  O  O52  1  0.51021670  0.81601043  0.16954157  1
  O  O53  1  0.74398732  0.34530335  0.34174426  1
  O  O54  1  0.78911596  0.20464622  0.75697598  1
  O  O55  1  0.80197242  0.21244536  0.57631913  1
  O  O56  1  0.76170631  0.23569884  0.93542724  1
  O  O57  1  0.62666530  0.48025398  0.82931507  1
  O  O58  1  0.51180818  0.67435431  0.66971237  1
  O  O59  1  0.66593619  0.25394734  0.16449614  1
  O  O60  1  0.48032276  0.62995834  0.32992154  1
  O  O61  1  0.33365741  0.92290415  0.34382051  1
  O  O62  1  0.79690847  0.99522411  0.24997621  1
  O  O63  1  0.78205747  0.98759001  0.43307189  1
  O  O64  1  0.22710095  0.99513120  0.56802412  1
  O  O65  1  0.66720983  0.08433114  0.65554417  1
  O  O66  1  0.54169158  0.38167909  0.66407771  1
  O  O67  1  0.33385384  0.74129516  0.84348938  1
  O  O68  1  0.47602486  0.33744748  0.32532689  1
  O  O69  1  0.38549969  0.53350883  0.16897973  1
  O  O70  1  0.22140509  0.77804016  0.06891061  1
  O  O71  1  0.23193999  0.76571251  0.43124889  1
  O  O72  1  0.21034286  0.79425910  0.25035575  1
  O  O73  1  0.25173535  0.66825675  0.65926616  1
  O  O74  1  0.48693137  0.18742133  0.83831263  1
  O  O75  1  0.53608408  0.08521221  0.16768614  1
  O  O76  1  0.33436511  0.48248712  0.82331890  1
  O  O77  1  0.33480033  0.35777827  0.98053210  1
  O  O78  1  0.32717412  0.32868207  0.47559475  1
  O  O79  1  0.18241400  0.48385355  0.32849925  1
  O  O80  1  0.37683575  0.09277013  0.66916818  1
  O  O81  1  0.33408950  0.18316230  0.32507415  1
  O  O82  1  0.09044777  0.65699611  0.16271271  1
  O  O83  1  0.98932493  0.79786880  0.74353355  1
  O  O84  1  0.01293760  0.78571453  0.92237124  1
  O  O85  1  0.09222551  0.53102105  0.66476470  1
  O  O86  1  0.19014544  0.32760996  0.83661381  1
  O  O87  1  0.09052696  0.37897706  0.16841822  1
  O  O88  1  0.25313526  0.08273847  0.15702668  1
  O  O89  1  0.22775217  0.99780501  0.93113474  1
  O  O90  1  0.21161070  0.99360320  0.75035092  1
  O  O91  1  0.08112259  0.24721184  0.65819994  1
  O  O92  1  0.00202941  0.22723493  0.43054446  1
  O  O93  1  0.99958246  0.20727104  0.24973513  1
