# generated using pymatgen
data_Li6V3P8O29
_symmetry_space_group_name_H-M   'P 1'
_cell_length_a   9.78880232
_cell_length_b   9.77675157
_cell_length_c   14.01602960
_cell_angle_alpha   90.17098097
_cell_angle_beta   90.59602864
_cell_angle_gamma   60.44423283
_symmetry_Int_Tables_number   1
_chemical_formula_structural   Li6V3P8O29
_chemical_formula_sum   'Li12 V6 P16 O58'
_cell_volume   1166.76037052
_cell_formula_units_Z   2
loop_
 _symmetry_equiv_pos_site_id
 _symmetry_equiv_pos_as_xyz
  1  'x, y, z'
loop_
 _atom_site_type_symbol
 _atom_site_label
 _atom_site_symmetry_multiplicity
 _atom_site_fract_x
 _atom_site_fract_y
 _atom_site_fract_z
 _atom_site_occupancy
  Li  Li0  1  0.76583549  0.90431278  0.55741897  1
  Li  Li1  1  0.90416529  0.33691203  0.56374528  1
  Li  Li2  1  0.66686705  0.66954689  0.88823990  1
  Li  Li3  1  0.76629024  0.32062442  0.05813821  1
  Li  Li4  1  0.32659094  0.90674768  0.06484260  1
  Li  Li5  1  0.67039308  0.23589215  0.43787962  1
  Li  Li6  1  0.33733535  0.76022997  0.56349247  1
  Li  Li7  1  0.67957232  0.08944205  0.93709302  1
  Li  Li8  1  0.31966511  0.33786226  0.10945363  1
  Li  Li9  1  0.09694906  0.66899902  0.43757406  1
  Li  Li10  1  0.04337375  0.94134797  0.99552291  1
  Li  Li11  1  0.04498406  0.01523752  0.49181029  1
  V  V12  1  0.56178195  0.44110726  0.24888805  1
  V  V13  1  0.43321104  0.56368559  0.75118705  1
  V  V14  1  0.56335348  0.99805202  0.74553169  1
  V  V15  1  0.43250662  0.00440070  0.25197961  1
  V  V16  1  0.99653458  0.56648679  0.24839658  1
  V  V17  1  0.00497761  0.43555521  0.75547303  1
  P  P18  1  0.91227911  0.78286014  0.83961023  1
  P  P19  1  0.77364103  0.91470786  0.33828916  1
  P  P20  1  0.91613886  0.31123987  0.34622250  1
  P  P21  1  0.66165334  0.67261937  0.12864139  1
  P  P22  1  0.66903968  0.66117540  0.62968533  1
  P  P23  1  0.77483037  0.31806212  0.84084123  1
  P  P24  1  0.68428738  0.22893400  0.65651095  1
  P  P25  1  0.31683760  0.90658516  0.84805450  1
  P  P26  1  0.68188877  0.09366929  0.15413156  1
  P  P27  1  0.31295061  0.77373572  0.34490714  1
  P  P28  1  0.21768573  0.68910733  0.16164136  1
  P  P29  1  0.33683920  0.33418413  0.36943494  1
  P  P30  1  0.33970753  0.32990946  0.87056426  1
  P  P31  1  0.08279964  0.68883797  0.65478141  1
  P  P32  1  0.21829763  0.08379064  0.66409752  1
  P  P33  1  0.08410771  0.22042947  0.16067484  1
  O  O34  1  0.99805581  0.77190853  0.56365650  1
  O  O35  1  0.92060123  0.74872404  0.33800121  1
  O  O36  1  0.76478819  0.01419496  0.06456430  1
  O  O37  1  0.73860122  0.92193418  0.83490509  1
  O  O38  1  0.90036965  0.62985611  0.83229486  1
  O  O39  1  0.80639836  0.67103501  0.17400419  1
  O  O40  1  0.92033916  0.46598331  0.33011655  1
  O  O41  1  0.98408297  0.21773147  0.08054819  1
  O  O42  1  0.91873244  0.33982548  0.84122223  1
  O  O43  1  0.67711738  0.81006348  0.66674583  1
  O  O44  1  0.62199886  0.90606194  0.32737660  1
  O  O45  1  0.81450535  0.51158792  0.67423790  1
  O  O46  1  0.65757240  0.67074493  0.02160824  1
  O  O47  1  0.66953375  0.65525947  0.52332263  1
  O  O48  1  0.66016960  0.52119641  0.16711637  1
  O  O49  1  0.47991715  0.89418288  0.83124762  1
  O  O50  1  0.51089857  0.82123608  0.16683525  1
  O  O51  1  0.74716157  0.33906956  0.33717130  1
  O  O52  1  0.79074351  0.20917300  0.74997010  1
  O  O53  1  0.77520742  0.22597974  0.56898098  1
  O  O54  1  0.76379833  0.23500557  0.92854533  1
  O  O55  1  0.62719593  0.48352274  0.82754443  1
  O  O56  1  0.51457999  0.67093965  0.67047026  1
  O  O57  1  0.65879829  0.26244046  0.15870941  1
  O  O58  1  0.46666724  0.61645156  0.33272284  1
  O  O59  1  0.34091102  0.91250179  0.33693493  1
  O  O60  1  0.79050746  0.00340503  0.24611047  1
  O  O61  1  0.77483207  0.00272070  0.42725739  1
  O  O62  1  0.20994649  0.98738566  0.58311920  1
  O  O63  1  0.66282002  0.08167555  0.65709242  1
  O  O64  1  0.52859859  0.38146765  0.66717999  1
  O  O65  1  0.33883928  0.74155839  0.83587767  1
  O  O66  1  0.48954839  0.32753240  0.32632183  1
  O  O67  1  0.36917357  0.52606773  0.16945948  1
  O  O68  1  0.21269602  0.79082300  0.08073350  1
  O  O69  1  0.22663959  0.77917746  0.43582750  1
  O  O70  1  0.19767524  0.78544228  0.25863262  1
  O  O71  1  0.24985108  0.66567532  0.65799649  1
  O  O72  1  0.48649499  0.18134161  0.83212081  1
  O  O73  1  0.51856724  0.10652210  0.16708157  1
  O  O74  1  0.34118110  0.47565348  0.82497043  1
  O  O75  1  0.34188999  0.33391877  0.97700750  1
  O  O76  1  0.34887690  0.32579197  0.47516146  1
  O  O77  1  0.18944304  0.48745949  0.33183533  1
  O  O78  1  0.38085925  0.07751648  0.67183626  1
  O  O79  1  0.33314653  0.18908057  0.32117775  1
  O  O80  1  0.07900896  0.65578227  0.16140875  1
  O  O81  1  0.98900118  0.80186880  0.74267298  1
  O  O82  1  0.99604216  0.80039302  0.92320519  1
  O  O83  1  0.08374867  0.53287517  0.67020334  1
  O  O84  1  0.18864218  0.33458578  0.82781140  1
  O  O85  1  0.09961605  0.37102641  0.17029431  1
  O  O86  1  0.25227107  0.07921927  0.15808324  1
  O  O87  1  0.23845176  0.98033594  0.94014315  1
  O  O88  1  0.20058008  0.01315791  0.76310097  1
  O  O89  1  0.08342587  0.25410817  0.66090934  1
  O  O90  1  0.98800060  0.23006625  0.43916414  1
  O  O91  1  0.01387297  0.19813982  0.26038609  1
