# generated using pymatgen
data_MnFeCo(PO4)3
_symmetry_space_group_name_H-M   'P 1'
_cell_length_a   9.88604213
_cell_length_b   5.98821415
_cell_length_c   14.61202293
_cell_angle_alpha   90.00000000
_cell_angle_beta   89.70819217
_cell_angle_gamma   90.00000000
_symmetry_Int_Tables_number   1
_chemical_formula_structural   MnFeCo(PO4)3
_chemical_formula_sum   'Mn4 Fe4 Co4 P12 O48'
_cell_volume   865.01670070
_cell_formula_units_Z   4
loop_
 _symmetry_equiv_pos_site_id
 _symmetry_equiv_pos_as_xyz
  1  'x, y, z'
loop_
 _atom_site_type_symbol
 _atom_site_label
 _atom_site_symmetry_multiplicity
 _atom_site_fract_x
 _atom_site_fract_y
 _atom_site_fract_z
 _atom_site_occupancy
  Mn  Mn0  1  0.21218818  0.75000000  0.47818474  1
  Mn  Mn1  1  0.21614430  0.75000000  0.81170077  1
  Mn  Mn2  1  0.21726011  0.75000000  0.14578554  1
  Mn  Mn3  1  0.28632032  0.25000000  0.31157127  1
  Fe  Fe4  1  0.27681119  0.25000000  0.65354070  1
  Fe  Fe5  1  0.27923541  0.25000000  0.98644044  1
  Fe  Fe6  1  0.72319330  0.75000000  0.34778859  1
  Fe  Fe7  1  0.72857771  0.75000000  0.00987039  1
  Co  Co8  1  0.72601494  0.75000000  0.67707657  1
  Co  Co9  1  0.77864065  0.25000000  0.18398271  1
  Co  Co10  1  0.77690362  0.25000000  0.51364367  1
  Co  Co11  1  0.76972823  0.25000000  0.84115179  1
  P  P12  1  0.09760535  0.25000000  0.47203266  1
  P  P13  1  0.09484173  0.25000000  0.80585356  1
  P  P14  1  0.09794136  0.25000000  0.13862326  1
  P  P15  1  0.39982372  0.75000000  0.30537104  1
  P  P16  1  0.40031921  0.75000000  0.63934832  1
  P  P17  1  0.39996294  0.75000000  0.97175379  1
  P  P18  1  0.60440201  0.25000000  0.03046027  1
  P  P19  1  0.59878744  0.25000000  0.36276743  1
  P  P20  1  0.59945472  0.25000000  0.69562748  1
  P  P21  1  0.90037067  0.75000000  0.52948898  1
  P  P22  1  0.89993355  0.75000000  0.86027413  1
  P  P23  1  0.90306571  0.75000000  0.19334332  1
  O  O24  1  0.05415764  0.75000000  0.21806301  1
  O  O25  1  0.05266883  0.75000000  0.55190423  1
  O  O26  1  0.05281737  0.75000000  0.88048642  1
  O  O27  1  0.12111611  0.25000000  0.24246105  1
  O  O28  1  0.11933982  0.25000000  0.57506631  1
  O  O29  1  0.12000713  0.25000000  0.90839671  1
  O  O30  1  0.16788610  0.04863202  0.42292428  1
  O  O31  1  0.16788610  0.45136798  0.42292428  1
  O  O32  1  0.17290604  0.05147170  0.08891255  1
  O  O33  1  0.17290604  0.44852830  0.08891255  1
  O  O34  1  0.16865529  0.05152585  0.75499369  1
  O  O35  1  0.16865529  0.44847415  0.75499369  1
  O  O36  1  0.33059564  0.54613124  0.59287786  1
  O  O37  1  0.33059564  0.95386876  0.59287786  1
  O  O38  1  0.32815957  0.54645715  0.92571138  1
  O  O39  1  0.32815957  0.95354285  0.92571138  1
  O  O40  1  0.32843431  0.54911761  0.25679323  1
  O  O41  1  0.32843431  0.95088239  0.25679323  1
  O  O42  1  0.37984929  0.75000000  0.07717175  1
  O  O43  1  0.38019629  0.75000000  0.74446629  1
  O  O44  1  0.37705698  0.75000000  0.40968573  1
  O  O45  1  0.45243701  0.25000000  0.04961515  1
  O  O46  1  0.44815049  0.25000000  0.71778734  1
  O  O47  1  0.44615781  0.25000000  0.38532435  1
  O  O48  1  0.55231808  0.75000000  0.95301014  1
  O  O49  1  0.55183366  0.75000000  0.28580898  1
  O  O50  1  0.55486453  0.75000000  0.62150196  1
  O  O51  1  0.62227567  0.25000000  0.59080301  1
  O  O52  1  0.62797850  0.25000000  0.92578749  1
  O  O53  1  0.61807744  0.25000000  0.25847014  1
  O  O54  1  0.67688416  0.04824275  0.07800287  1
  O  O55  1  0.67688416  0.45175725  0.07800287  1
  O  O56  1  0.67096165  0.04741019  0.41064845  1
  O  O57  1  0.67096165  0.45258981  0.41064845  1
  O  O58  1  0.67204498  0.04918663  0.74428742  1
  O  O59  1  0.67204498  0.45081337  0.74428742  1
  O  O60  1  0.82835424  0.54875028  0.57839737  1
  O  O61  1  0.82835424  0.95124972  0.57839737  1
  O  O62  1  0.82801857  0.54877192  0.24238308  1
  O  O63  1  0.82801857  0.95122808  0.24238308  1
  O  O64  1  0.82965617  0.54999298  0.91036562  1
  O  O65  1  0.82965617  0.95000702  0.91036562  1
  O  O66  1  0.87671809  0.75000000  0.75620369  1
  O  O67  1  0.88474659  0.75000000  0.09039117  1
  O  O68  1  0.88065026  0.75000000  0.42551088  1
  O  O69  1  0.94754946  0.25000000  0.11647315  1
  O  O70  1  0.94335568  0.25000000  0.45216068  1
  O  O71  1  0.94278346  0.25000000  0.78470837  1
