# generated using pymatgen
data_MnFeCo(PO4)3
_symmetry_space_group_name_H-M   'P 1'
_cell_length_a   9.87213770
_cell_length_b   5.98355774
_cell_length_c   14.64297293
_cell_angle_alpha   90.00000000
_cell_angle_beta   89.82197393
_cell_angle_gamma   90.00000000
_symmetry_Int_Tables_number   1
_chemical_formula_structural   MnFeCo(PO4)3
_chemical_formula_sum   'Mn4 Fe4 Co4 P12 O48'
_cell_volume   864.96364452
_cell_formula_units_Z   4
loop_
 _symmetry_equiv_pos_site_id
 _symmetry_equiv_pos_as_xyz
  1  'x, y, z'
loop_
 _atom_site_type_symbol
 _atom_site_label
 _atom_site_symmetry_multiplicity
 _atom_site_fract_x
 _atom_site_fract_y
 _atom_site_fract_z
 _atom_site_occupancy
  Mn  Mn0  1  0.21713991  0.75000000  0.47875971  1
  Mn  Mn1  1  0.21186940  0.75000000  0.14531933  1
  Mn  Mn2  1  0.28279031  0.25000000  0.97763954  1
  Mn  Mn3  1  0.28735410  0.25000000  0.64395814  1
  Fe  Fe4  1  0.22158414  0.75000000  0.81860305  1
  Fe  Fe5  1  0.27857788  0.25000000  0.31926446  1
  Fe  Fe6  1  0.72761911  0.75000000  0.34506668  1
  Fe  Fe7  1  0.72673798  0.75000000  0.01229203  1
  Co  Co8  1  0.72615980  0.75000000  0.67806626  1
  Co  Co9  1  0.77712441  0.25000000  0.51673632  1
  Co  Co10  1  0.77124192  0.25000000  0.84229242  1
  Co  Co11  1  0.77392798  0.25000000  0.17790493  1
  P  P12  1  0.09899778  0.25000000  0.80524579  1
  P  P13  1  0.09776652  0.25000000  0.47162022  1
  P  P14  1  0.09706092  0.25000000  0.13863219  1
  P  P15  1  0.40005152  0.75000000  0.97198510  1
  P  P16  1  0.40447624  0.75000000  0.63824098  1
  P  P17  1  0.39920853  0.75000000  0.30475815  1
  P  P18  1  0.60317876  0.25000000  0.36354643  1
  P  P19  1  0.59846591  0.25000000  0.69705806  1
  P  P20  1  0.60044631  0.25000000  0.02801316  1
  P  P21  1  0.89705256  0.75000000  0.86286287  1
  P  P22  1  0.90316961  0.75000000  0.52805193  1
  P  P23  1  0.90134485  0.75000000  0.19622186  1
  O  O24  1  0.05503632  0.75000000  0.55214880  1
  O  O25  1  0.04899212  0.75000000  0.88052899  1
  O  O26  1  0.05385444  0.75000000  0.21906382  1
  O  O27  1  0.11991550  0.25000000  0.90988847  1
  O  O28  1  0.12229133  0.25000000  0.57515596  1
  O  O29  1  0.12022001  0.25000000  0.24140110  1
  O  O30  1  0.16835533  0.04621364  0.75798502  1
  O  O31  1  0.16835533  0.45378636  0.75798502  1
  O  O32  1  0.17249177  0.05119526  0.42204941  1
  O  O33  1  0.17249177  0.44880474  0.42204941  1
  O  O34  1  0.16655783  0.45127599  0.08886142  1
  O  O35  1  0.16655783  0.04872401  0.08886142  1
  O  O36  1  0.32573890  0.55182000  0.92189845  1
  O  O37  1  0.32573890  0.94818000  0.92189845  1
  O  O38  1  0.33467425  0.54856708  0.58898635  1
  O  O39  1  0.33467425  0.95143292  0.58898635  1
  O  O40  1  0.32799480  0.95399038  0.25867056  1
  O  O41  1  0.32799480  0.54600962  0.25867056  1
  O  O42  1  0.38022584  0.75000000  0.74107868  1
  O  O43  1  0.37898842  0.75000000  0.40981446  1
  O  O44  1  0.37608814  0.75000000  0.07543497  1
  O  O45  1  0.45155171  0.25000000  0.38362517  1
  O  O46  1  0.44531527  0.25000000  0.71866087  1
  O  O47  1  0.44707949  0.25000000  0.04726485  1
  O  O48  1  0.55099992  0.75000000  0.95178410  1
  O  O49  1  0.55196785  0.75000000  0.28665228  1
  O  O50  1  0.55896677  0.75000000  0.61887095  1
  O  O51  1  0.62424642  0.25000000  0.92418539  1
  O  O52  1  0.61951168  0.25000000  0.59307862  1
  O  O53  1  0.62664503  0.25000000  0.25878382  1
  O  O54  1  0.67651848  0.04846552  0.41103156  1
  O  O55  1  0.67651848  0.45153448  0.41103156  1
  O  O56  1  0.66944771  0.04859379  0.74611267  1
  O  O57  1  0.66944771  0.45140621  0.74611267  1
  O  O58  1  0.67097055  0.04747619  0.07672705  1
  O  O59  1  0.67097055  0.45252381  0.07672705  1
  O  O60  1  0.82912655  0.54713600  0.57631468  1
  O  O61  1  0.82912655  0.95286400  0.57631468  1
  O  O62  1  0.82594857  0.54980117  0.91230358  1
  O  O63  1  0.82594857  0.95019883  0.91230358  1
  O  O64  1  0.82900498  0.55010381  0.24566274  1
  O  O65  1  0.82900498  0.94989619  0.24566274  1
  O  O66  1  0.87136543  0.75000000  0.75853903  1
  O  O67  1  0.88454370  0.75000000  0.42506185  1
  O  O68  1  0.88197159  0.75000000  0.09287623  1
  O  O69  1  0.94696340  0.25000000  0.44981415  1
  O  O70  1  0.94410090  0.25000000  0.78877453  1
  O  O71  1  0.94217684  0.25000000  0.12010533  1
