# generated using pymatgen
data_Li6V3P8O29
_symmetry_space_group_name_H-M   'P 1'
_cell_length_a   9.79047032
_cell_length_b   9.81567302
_cell_length_c   13.97322824
_cell_angle_alpha   89.83273084
_cell_angle_beta   89.85575112
_cell_angle_gamma   60.65913119
_symmetry_Int_Tables_number   1
_chemical_formula_structural   Li6V3P8O29
_chemical_formula_sum   'Li12 V6 P16 O58'
_cell_volume   1170.56410114
_cell_formula_units_Z   2
loop_
 _symmetry_equiv_pos_site_id
 _symmetry_equiv_pos_as_xyz
  1  'x, y, z'
loop_
 _atom_site_type_symbol
 _atom_site_label
 _atom_site_symmetry_multiplicity
 _atom_site_fract_x
 _atom_site_fract_y
 _atom_site_fract_z
 _atom_site_occupancy
  Li  Li0  1  0.77746039  0.91100946  0.55812592  1
  Li  Li1  1  0.90415352  0.32199078  0.55901669  1
  Li  Li2  1  0.76701502  0.33708614  0.06243549  1
  Li  Li3  1  0.33590740  0.89938891  0.06068308  1
  Li  Li4  1  0.31905105  0.77534000  0.55848216  1
  Li  Li5  1  0.67646707  0.08909094  0.94007753  1
  Li  Li6  1  0.23447154  0.67361664  0.93919247  1
  Li  Li7  1  0.33836458  0.33123346  0.61205496  1
  Li  Li8  1  0.32965992  0.33400053  0.11393449  1
  Li  Li9  1  0.08552279  0.68583878  0.43360533  1
  Li  Li10  1  0.22228388  0.08960981  0.43835308  1
  Li  Li11  1  0.99702013  0.99939643  0.00591247  1
  V  V12  1  0.56921739  0.43272122  0.25464244  1
  V  V13  1  0.43703846  0.56359154  0.74841093  1
  V  V14  1  0.56905054  0.99885258  0.75358730  1
  V  V15  1  0.43238868  0.99948880  0.25046916  1
  V  V16  1  0.99222086  0.57089095  0.24495303  1
  V  V17  1  0.00087789  0.43149209  0.75567112  1
  P  P18  1  0.91916472  0.77378214  0.84131571  1
  P  P19  1  0.76862038  0.91356999  0.33957498  1
  P  P20  1  0.91508432  0.31706457  0.34467141  1
  P  P21  1  0.66014296  0.66768270  0.12704598  1
  P  P22  1  0.67041816  0.66672883  0.62968451  1
  P  P23  1  0.76798677  0.31567565  0.84357087  1
  P  P24  1  0.68236979  0.22818280  0.65925394  1
  P  P25  1  0.31301610  0.91290266  0.84401744  1
  P  P26  1  0.68560096  0.09252529  0.15598160  1
  P  P27  1  0.32202536  0.76600794  0.34189047  1
  P  P28  1  0.22871260  0.68037907  0.15867469  1
  P  P29  1  0.32708977  0.33829130  0.37131169  1
  P  P30  1  0.33626971  0.33226341  0.87226009  1
  P  P31  1  0.08881860  0.67775876  0.65468709  1
  P  P32  1  0.23042384  0.09225044  0.66015801  1
  P  P33  1  0.08759189  0.22096557  0.15966443  1
  O  O34  1  0.00014156  0.74913460  0.56396379  1
  O  O35  1  0.91394687  0.74822387  0.33495589  1
  O  O36  1  0.77184223  0.01136753  0.06650815  1
  O  O37  1  0.75040701  0.91631259  0.84018311  1
  O  O38  1  0.91948866  0.61805430  0.83345805  1
  O  O39  1  0.80361384  0.67177893  0.17095524  1
  O  O40  1  0.91135034  0.47347031  0.32109712  1
  O  O41  1  0.99362213  0.20751701  0.07959045  1
  O  O42  1  0.91027794  0.34195270  0.83480323  1
  O  O43  1  0.67041927  0.81432479  0.67279560  1
  O  O44  1  0.61594015  0.90561295  0.31754294  1
  O  O45  1  0.81599852  0.51661538  0.67035028  1
  O  O46  1  0.65705794  0.65641234  0.02087703  1
  O  O47  1  0.66463544  0.67101043  0.52335531  1
  O  O48  1  0.66380684  0.51519336  0.17140713  1
  O  O49  1  0.46904265  0.91607778  0.82898678  1
  O  O50  1  0.50731975  0.81448242  0.16518584  1
  O  O51  1  0.75069284  0.33944700  0.34075013  1
  O  O52  1  0.78267990  0.20419123  0.75584484  1
  O  O53  1  0.76829357  0.23980900  0.57557797  1
  O  O54  1  0.77328810  0.23003594  0.93458578  1
  O  O55  1  0.61578959  0.47115453  0.83069717  1
  O  O56  1  0.51768455  0.66483507  0.67097139  1
  O  O57  1  0.66746850  0.25740552  0.16070468  1
  O  O58  1  0.48307578  0.62466259  0.32557960  1
  O  O59  1  0.33039134  0.91990519  0.34056612  1
  O  O60  1  0.78889380  0.00324036  0.24899092  1
  O  O61  1  0.75776386  0.99239220  0.43167351  1
  O  O62  1  0.24617168  0.99959060  0.57111914  1
  O  O63  1  0.66229982  0.07997115  0.65917301  1
  O  O64  1  0.51469342  0.37081654  0.67384100  1
  O  O65  1  0.33868896  0.74554912  0.83661545  1
  O  O66  1  0.47399052  0.34060084  0.32594253  1
  O  O67  1  0.37686803  0.51944576  0.16719795  1
  O  O68  1  0.22497061  0.77290592  0.07081399  1
  O  O69  1  0.24283665  0.75466926  0.43173856  1
  O  O70  1  0.21080015  0.78448727  0.25144168  1
  O  O71  1  0.25376285  0.66201815  0.65454593  1
  O  O72  1  0.49341546  0.18711839  0.83662206  1
  O  O73  1  0.52078945  0.10775639  0.16912599  1
  O  O74  1  0.33053660  0.48641351  0.83119356  1
  O  O75  1  0.33742600  0.33839191  0.97959961  1
  O  O76  1  0.33031395  0.33847174  0.47877124  1
  O  O77  1  0.18057229  0.48813022  0.33297750  1
  O  O78  1  0.37437696  0.11562757  0.67667904  1
  O  O79  1  0.32688140  0.18695771  0.33422730  1
  O  O80  1  0.08454585  0.65570374  0.16129955  1
  O  O81  1  0.99477611  0.79187739  0.74119369  1
  O  O82  1  0.01127761  0.78991129  0.92168629  1
  O  O83  1  0.10906004  0.51298026  0.67519413  1
  O  O84  1  0.19531113  0.32434099  0.82829770  1
  O  O85  1  0.10195650  0.37070261  0.16538259  1
  O  O86  1  0.25821864  0.07923865  0.15956026  1
  O  O87  1  0.23044392  0.98731577  0.93518882  1
  O  O88  1  0.20906650  0.00365067  0.75135885  1
  O  O89  1  0.08147217  0.25468288  0.65910448  1
  O  O90  1  0.00277470  0.24673149  0.43591559  1
  O  O91  1  0.01554100  0.20059804  0.25908588  1
