# generated using pymatgen
data_Li6V3P8O29
_symmetry_space_group_name_H-M   'P 1'
_cell_length_a   9.84950194
_cell_length_b   9.86065327
_cell_length_c   13.94598992
_cell_angle_alpha   90.22276831
_cell_angle_beta   90.01936977
_cell_angle_gamma   59.99503707
_symmetry_Int_Tables_number   1
_chemical_formula_structural   Li6V3P8O29
_chemical_formula_sum   'Li12 V6 P16 O58'
_cell_volume   1172.93564847
_cell_formula_units_Z   2
loop_
 _symmetry_equiv_pos_site_id
 _symmetry_equiv_pos_as_xyz
  1  'x, y, z'
loop_
 _atom_site_type_symbol
 _atom_site_label
 _atom_site_symmetry_multiplicity
 _atom_site_fract_x
 _atom_site_fract_y
 _atom_site_fract_z
 _atom_site_occupancy
  Li  Li0  1  0.77291772  0.90496956  0.56086972  1
  Li  Li1  1  0.90749019  0.31957047  0.56044800  1
  Li  Li2  1  0.66823295  0.66984169  0.88541678  1
  Li  Li3  1  0.77343080  0.31163371  0.06056714  1
  Li  Li4  1  0.31608263  0.90764332  0.06052497  1
  Li  Li5  1  0.67764799  0.22646731  0.44007211  1
  Li  Li6  1  0.31973226  0.77244748  0.56024788  1
  Li  Li7  1  0.21993983  0.68741290  0.94106211  1
  Li  Li8  1  0.33542779  0.33169628  0.11523546  1
  Li  Li9  1  0.09460849  0.67611653  0.43863412  1
  Li  Li10  1  0.22891934  0.09326187  0.43981953  1
  Li  Li11  1  0.08751427  0.22584491  0.93923799  1
  V  V12  1  0.56958924  0.42989280  0.25128647  1
  V  V13  1  0.43507644  0.56453842  0.75081981  1
  V  V14  1  0.57110591  0.00087660  0.75239252  1
  V  V15  1  0.43741889  0.99894273  0.24828720  1
  V  V16  1  0.99736606  0.57240089  0.24718046  1
  V  V17  1  0.00133795  0.43618479  0.75032865  1
  P  P18  1  0.91193953  0.77157599  0.84125183  1
  P  P19  1  0.76759870  0.91444938  0.34191132  1
  P  P20  1  0.91454463  0.32072888  0.34129607  1
  P  P21  1  0.66692141  0.66596339  0.12687245  1
  P  P22  1  0.66768488  0.66540672  0.62731118  1
  P  P23  1  0.77085843  0.31938303  0.84369158  1
  P  P24  1  0.68110044  0.23166731  0.65963239  1
  P  P25  1  0.32026740  0.91049972  0.84275902  1
  P  P26  1  0.68508160  0.08576922  0.15625300  1
  P  P27  1  0.31935681  0.76817910  0.34149841  1
  P  P28  1  0.23092500  0.67794752  0.15852713  1
  P  P29  1  0.33286566  0.33293613  0.37276110  1
  P  P30  1  0.33321020  0.33548876  0.87257517  1
  P  P31  1  0.08739922  0.68171643  0.65674639  1
  P  P32  1  0.23415956  0.08606182  0.65886566  1
  P  P33  1  0.08985259  0.23059616  0.15714152  1
  O  O34  1  0.99933109  0.75661025  0.56602699  1
  O  O35  1  0.91677062  0.75033839  0.33981818  1
  O  O36  1  0.76631607  0.00065994  0.06910756  1
  O  O37  1  0.74297877  0.91472203  0.83587005  1
  O  O38  1  0.88960332  0.62613919  0.82646360  1
  O  O39  1  0.80954346  0.67032355  0.17009151  1
  O  O40  1  0.90829532  0.47733921  0.32262978  1
  O  O41  1  0.99704626  0.24484458  0.06853127  1
  O  O42  1  0.91976350  0.33527092  0.84027540  1
  O  O43  1  0.67204649  0.81282839  0.66578724  1
  O  O44  1  0.61925878  0.90254317  0.32545577  1
  O  O45  1  0.81747694  0.51372993  0.66910213  1
  O  O46  1  0.65980129  0.66868626  0.01933825  1
  O  O47  1  0.66575805  0.65945939  0.52070251  1
  O  O48  1  0.66869823  0.51605096  0.16521662  1
  O  O49  1  0.48601252  0.88637127  0.82638390  1
  O  O50  1  0.51297113  0.81858629  0.16625190  1
  O  O51  1  0.74980525  0.33738682  0.34161584  1
  O  O52  1  0.78927282  0.21223113  0.75106284  1
  O  O53  1  0.75883005  0.24278865  0.56939907  1
  O  O54  1  0.75751555  0.24869269  0.93395629  1
  O  O55  1  0.62630986  0.48614172  0.82503628  1
  O  O56  1  0.51646295  0.66662725  0.67024084  1
  O  O57  1  0.66156368  0.25672216  0.16323900  1
  O  O58  1  0.47693630  0.61653294  0.32107882  1
  O  O59  1  0.33693481  0.91403012  0.34132305  1
  O  O60  1  0.78551878  0.00709443  0.25322512  1
  O  O61  1  0.75719936  0.00062693  0.43342786  1
  O  O62  1  0.24607674  0.99658941  0.56864250  1
  O  O63  1  0.66705105  0.08223240  0.65991828  1
  O  O64  1  0.52037486  0.37953127  0.67543598  1
  O  O65  1  0.33227364  0.74850468  0.84362970  1
  O  O66  1  0.48792681  0.32603053  0.33413216  1
  O  O67  1  0.37482727  0.51301896  0.17356772  1
  O  O68  1  0.24248718  0.75695169  0.06977392  1
  O  O69  1  0.24334839  0.75435426  0.43143839  1
  O  O70  1  0.21150187  0.78761850  0.24963682  1
  O  O71  1  0.25055298  0.66716534  0.65876858  1
  O  O72  1  0.47664710  0.19173002  0.82959639  1
  O  O73  1  0.51613956  0.11059188  0.17367816  1
  O  O74  1  0.33236356  0.48760396  0.83388194  1
  O  O75  1  0.32441328  0.34176992  0.97996311  1
  O  O76  1  0.33358891  0.32791278  0.47954398  1
  O  O77  1  0.18631364  0.48494826  0.33298833  1
  O  O78  1  0.38613928  0.09004963  0.67897148  1
  O  O79  1  0.33083413  0.18305862  0.32947449  1
  O  O80  1  0.08446413  0.65934830  0.16260349  1
  O  O81  1  0.99338397  0.79301314  0.74600290  1
  O  O82  1  0.00559813  0.76133350  0.92615700  1
  O  O83  1  0.09897527  0.52219892  0.67479376  1
  O  O84  1  0.17978149  0.33840075  0.83317204  1
  O  O85  1  0.11364175  0.37241692  0.17397895  1
  O  O86  1  0.25211025  0.08071093  0.15641474  1
  O  O87  1  0.24161165  0.00399155  0.93168419  1
  O  O88  1  0.21256020  0.99904651  0.75084446  1
  O  O89  1  0.08812221  0.25008837  0.65869055  1
  O  O90  1  0.00281737  0.24216354  0.43117453  1
  O  O91  1  0.00110829  0.21166508  0.24925668  1
