# generated using pymatgen
data_Li6MnV3(PO4)6
_symmetry_space_group_name_H-M   'P 1'
_cell_length_a   8.59148877
_cell_length_b   12.04770204
_cell_length_c   8.77946476
_cell_angle_alpha   89.74231092
_cell_angle_beta   89.37939313
_cell_angle_gamma   91.01608868
_symmetry_Int_Tables_number   1
_chemical_formula_structural   Li6MnV3(PO4)6
_chemical_formula_sum   'Li12 Mn2 V6 P12 O48'
_cell_volume   908.53598568
_cell_formula_units_Z   2
loop_
 _symmetry_equiv_pos_site_id
 _symmetry_equiv_pos_as_xyz
  1  'x, y, z'
loop_
 _atom_site_type_symbol
 _atom_site_label
 _atom_site_symmetry_multiplicity
 _atom_site_fract_x
 _atom_site_fract_y
 _atom_site_fract_z
 _atom_site_occupancy
  Li  Li0  1  0.06521523  0.34748107  0.51300557  1
  Li  Li1  1  0.07921445  0.69042616  0.08656610  1
  Li  Li2  1  0.18080830  0.17818912  0.77966444  1
  Li  Li3  1  0.32010712  0.32240242  0.27800250  1
  Li  Li4  1  0.41982795  0.80936380  0.58712205  1
  Li  Li5  1  0.43495063  0.15369548  0.01082796  1
  Li  Li6  1  0.56510911  0.84664586  0.98581652  1
  Li  Li7  1  0.58051725  0.19130122  0.41404583  1
  Li  Li8  1  0.68007508  0.67805791  0.72101286  1
  Li  Li9  1  0.82019814  0.82198103  0.21989726  1
  Li  Li10  1  0.92078168  0.30980155  0.91405136  1
  Li  Li11  1  0.93469738  0.65258954  0.48691754  1
  Mn  Mn12  1  0.25298223  0.39142797  0.96466362  1
  Mn  Mn13  1  0.75227503  0.10735270  0.97256636  1
  V  V14  1  0.24333974  0.89565585  0.02685903  1
  V  V15  1  0.24524775  0.10873379  0.46547111  1
  V  V16  1  0.25446358  0.60517440  0.52815570  1
  V  V17  1  0.74474237  0.60824911  0.03413911  1
  V  V18  1  0.74539004  0.39500587  0.47195832  1
  V  V19  1  0.75541096  0.89066213  0.53551022  1
  P  P20  1  0.04042279  0.49081004  0.24886840  1
  P  P21  1  0.11368521  0.84752137  0.38269649  1
  P  P22  1  0.11685434  0.14795178  0.11257528  1
  P  P23  1  0.38496255  0.65081212  0.88320241  1
  P  P24  1  0.38568205  0.35315375  0.61086481  1
  P  P25  1  0.45862800  0.00961155  0.74759582  1
  P  P26  1  0.54184303  0.98943096  0.24971328  1
  P  P27  1  0.61479591  0.64719527  0.38970282  1
  P  P28  1  0.61351954  0.34729011  0.11870263  1
  P  P29  1  0.88481276  0.85308997  0.88953330  1
  P  P30  1  0.88547833  0.15158822  0.61907187  1
  P  P31  1  0.95797801  0.50956966  0.75000517  1
  O  O32  1  0.05212165  0.89746123  0.88957188  1
  O  O33  1  0.04638357  0.44518126  0.87095022  1
  O  O34  1  0.05454736  0.60039210  0.66469387  1
  O  O35  1  0.05749591  0.18953404  0.57984724  1
  O  O36  1  0.09795336  0.58209606  0.36066343  1
  O  O37  1  0.12413610  0.83019062  0.20629857  1
  O  O38  1  0.13908482  0.97000212  0.42071211  1
  O  O39  1  0.13036707  0.24824780  0.99377521  1
  O  O40  1  0.17509599  0.18826955  0.26995824  1
  O  O41  1  0.18657019  0.43470659  0.17811675  1
  O  O42  1  0.22951244  0.77534765  0.47125419  1
  O  O43  1  0.23764901  0.06305268  0.04985849  1
  O  O44  1  0.26532490  0.43854232  0.55089628  1
  O  O45  1  0.26940220  0.72352279  0.97198190  1
  O  O46  1  0.31295360  0.06450556  0.67522865  1
  O  O47  1  0.32749268  0.31199269  0.76969491  1
  O  O48  1  0.36216148  0.52696102  0.92015985  1
  O  O49  1  0.37228658  0.25434320  0.49418365  1
  O  O50  1  0.37572118  0.66911650  0.70680925  1
  O  O51  1  0.40116624  0.91699257  0.85998119  1
  O  O52  1  0.44590146  0.90031499  0.16500771  1
  O  O53  1  0.44431941  0.30772294  0.08209623  1
  O  O54  1  0.44748378  0.60293457  0.39043052  1
  O  O55  1  0.45037883  0.05584444  0.36894596  1
  O  O56  1  0.55016925  0.94534633  0.62652356  1
  O  O57  1  0.55284979  0.39756290  0.60938716  1
  O  O58  1  0.55686879  0.68717278  0.92189423  1
  O  O59  1  0.55033168  0.10184412  0.82984882  1
  O  O60  1  0.60125703  0.08356786  0.13733093  1
  O  O61  1  0.62492259  0.33080652  0.29535561  1
  O  O62  1  0.62776957  0.74579784  0.50670079  1
  O  O63  1  0.63746159  0.47025265  0.07969306  1
  O  O64  1  0.67241288  0.68757162  0.23060840  1
  O  O65  1  0.68513844  0.93388763  0.32221268  1
  O  O66  1  0.73206038  0.27778663  0.02793903  1
  O  O67  1  0.73517874  0.56193465  0.44967737  1
  O  O68  1  0.76272010  0.93681335  0.95083854  1
  O  O69  1  0.77026309  0.22414193  0.53053318  1
  O  O70  1  0.81331662  0.56706574  0.82136682  1
  O  O71  1  0.82917955  0.81274118  0.73079451  1
  O  O72  1  0.87274410  0.75298834  0.00596666  1
  O  O73  1  0.86088229  0.02984003  0.57956780  1
  O  O74  1  0.87746381  0.16750458  0.79711856  1
  O  O75  1  0.90055500  0.41822244  0.63812557  1
  O  O76  1  0.94149428  0.81059086  0.42176740  1
  O  O77  1  0.94470028  0.39953894  0.33465009  1
  O  O78  1  0.94949620  0.55479623  0.12844757  1
  O  O79  1  0.95123760  0.10273079  0.11374660  1
