# generated using pymatgen
data_LiBi(PO4)2
_symmetry_space_group_name_H-M   'P 1'
_cell_length_a   8.76929823
_cell_length_b   8.77186085
_cell_length_c   7.65581315
_cell_angle_alpha   89.93573124
_cell_angle_beta   89.83111152
_cell_angle_gamma   59.98762428
_symmetry_Int_Tables_number   1
_chemical_formula_structural   LiBi(PO4)2
_chemical_formula_sum   'Li3 Bi3 P6 O24'
_cell_volume   509.94394075
_cell_formula_units_Z   3
loop_
 _symmetry_equiv_pos_site_id
 _symmetry_equiv_pos_as_xyz
  1  'x, y, z'
loop_
 _atom_site_type_symbol
 _atom_site_label
 _atom_site_symmetry_multiplicity
 _atom_site_fract_x
 _atom_site_fract_y
 _atom_site_fract_z
 _atom_site_occupancy
  Li  Li0  1  0.33189296  0.33293778  0.50119649  1
  Li  Li1  1  0.99720717  0.00166733  0.39808575  1
  Li  Li2  1  0.66799763  0.66529256  0.50556326  1
  Bi  Bi3  1  0.33370002  0.33335585  0.93091260  1
  Bi  Bi4  1  0.99983618  0.99989652  0.99079505  1
  Bi  Bi5  1  0.66683728  0.66681958  0.07356607  1
  P  P6  1  0.31915799  0.04043660  0.24273755  1
  P  P7  1  0.04000079  0.63991275  0.24324508  1
  P  P8  1  0.36033681  0.67953860  0.76351397  1
  P  P9  1  0.63906392  0.32035398  0.24267956  1
  P  P10  1  0.96167200  0.35918327  0.76359046  1
  P  P11  1  0.68021515  0.96055784  0.76286055  1
  O  O12  1  0.04363923  0.15544910  0.78770817  1
  O  O13  1  0.11961678  0.39669812  0.74899972  1
  O  O14  1  0.29177249  0.14071925  0.06569635  1
  O  O15  1  0.28332441  0.15126067  0.40326157  1
  O  O16  1  0.15073466  0.56428490  0.40338553  1
  O  O17  1  0.14062469  0.56783842  0.06596933  1
  O  O18  1  0.48467957  0.11835010  0.74926641  1
  O  O19  1  0.15644210  0.80109197  0.78782275  1
  O  O20  1  0.39821126  0.48404728  0.74936587  1
  O  O21  1  0.18913731  0.96749692  0.22204355  1
  O  O22  1  0.56252026  0.28492692  0.40247580  1
  O  O23  1  0.56795703  0.29243068  0.06503461  1
  O  O24  1  0.43066303  0.71113933  0.94044663  1
  O  O25  1  0.43420537  0.71738937  0.60329280  1
  O  O26  1  0.80251256  0.04210663  0.78592840  1
  O  O27  1  0.60645299  0.51385800  0.25594746  1
  O  O28  1  0.84223391  0.19028666  0.22237490  1
  O  O29  1  0.51297642  0.87991923  0.25548822  1
  O  O30  1  0.85981246  0.43011164  0.94102247  1
  O  O31  1  0.85001348  0.43270255  0.60387803  1
  O  O32  1  0.71776716  0.84904578  0.60277268  1
  O  O33  1  0.71163671  0.85879982  0.94023475  1
  O  O34  1  0.87925440  0.60687852  0.25616806  1
  O  O35  1  0.96678679  0.84296046  0.22281754  1
