# generated using pymatgen
data_Li6V3P8O29
_symmetry_space_group_name_H-M   'P 1'
_cell_length_a   9.82103175
_cell_length_b   9.83827721
_cell_length_c   14.00449650
_cell_angle_alpha   90.02028920
_cell_angle_beta   89.76775634
_cell_angle_gamma   59.91919936
_symmetry_Int_Tables_number   1
_chemical_formula_structural   Li6V3P8O29
_chemical_formula_sum   'Li12 V6 P16 O58'
_cell_volume   1170.88678395
_cell_formula_units_Z   2
loop_
 _symmetry_equiv_pos_site_id
 _symmetry_equiv_pos_as_xyz
  1  'x, y, z'
loop_
 _atom_site_type_symbol
 _atom_site_label
 _atom_site_symmetry_multiplicity
 _atom_site_fract_x
 _atom_site_fract_y
 _atom_site_fract_z
 _atom_site_occupancy
  Li  Li0  1  0.91133458  0.77355891  0.06049449  1
  Li  Li1  1  0.75988354  0.90673805  0.56106408  1
  Li  Li2  1  0.90207942  0.33466852  0.55871610  1
  Li  Li3  1  0.66773072  0.67058709  0.88760423  1
  Li  Li4  1  0.77360984  0.31020399  0.06545730  1
  Li  Li5  1  0.31766046  0.90947914  0.06245416  1
  Li  Li6  1  0.32927401  0.76623708  0.55801421  1
  Li  Li7  1  0.22360938  0.68339210  0.94164852  1
  Li  Li8  1  0.10124947  0.66380982  0.43728747  1
  Li  Li9  1  0.23397677  0.10299522  0.43753326  1
  Li  Li10  1  0.08940702  0.22454187  0.94086331  1
  Li  Li11  1  0.94736534  0.03870859  0.48908388  1
  V  V12  1  0.56726469  0.42746217  0.25388812  1
  V  V13  1  0.44009600  0.56063036  0.74762313  1
  V  V14  1  0.56482914  0.00314365  0.75255650  1
  V  V15  1  0.43511092  0.00052173  0.24989523  1
  V  V16  1  0.00178208  0.56662700  0.24867055  1
  V  V17  1  0.99963693  0.43545876  0.74808471  1
  P  P18  1  0.90812949  0.77107498  0.84150069  1
  P  P19  1  0.77296953  0.91263495  0.34518146  1
  P  P20  1  0.91209397  0.31623585  0.34059289  1
  P  P21  1  0.66755500  0.66335435  0.12877099  1
  P  P22  1  0.66635036  0.66970457  0.62840542  1
  P  P23  1  0.77044173  0.32039285  0.84616593  1
  P  P24  1  0.69651958  0.22175026  0.66071949  1
  P  P25  1  0.31987219  0.90798088  0.84080140  1
  P  P26  1  0.68665567  0.08378780  0.16121173  1
  P  P27  1  0.31496295  0.77244270  0.34109439  1
  P  P28  1  0.23430963  0.67951561  0.15815478  1
  P  P29  1  0.33007778  0.33494386  0.37158089  1
  P  P30  1  0.32995217  0.33538668  0.87008868  1
  P  P31  1  0.08781595  0.68432709  0.65768845  1
  P  P32  1  0.23018599  0.08496067  0.65649335  1
  P  P33  1  0.09024512  0.23143244  0.15833526  1
  O  O34  1  0.99867421  0.77307736  0.56976825  1
  O  O35  1  0.91787899  0.74372718  0.33537851  1
  O  O36  1  0.77225394  0.98837874  0.07636843  1
  O  O37  1  0.74491700  0.91644708  0.84072913  1
  O  O38  1  0.88591103  0.62610473  0.82361963  1
  O  O39  1  0.81529732  0.67026462  0.16616534  1
  O  O40  1  0.91450463  0.46932303  0.33206869  1
  O  O41  1  0.00026565  0.24471361  0.06871359  1
  O  O42  1  0.92118515  0.33366669  0.84019259  1
  O  O43  1  0.67436959  0.81413116  0.67038948  1
  O  O44  1  0.61886418  0.91203165  0.33359466  1
  O  O45  1  0.81324916  0.51390876  0.66783865  1
  O  O46  1  0.66703918  0.66625817  0.02064972  1
  O  O47  1  0.66604670  0.67029402  0.52192389  1
  O  O48  1  0.67360733  0.51116379  0.16621632  1
  O  O49  1  0.48748646  0.88400861  0.82528457  1
  O  O50  1  0.51408009  0.81243628  0.16720864  1
  O  O51  1  0.74436461  0.34211703  0.33596694  1
  O  O52  1  0.78633968  0.20570351  0.76002301  1
  O  O53  1  0.80255251  0.21023884  0.57957764  1
  O  O54  1  0.75397285  0.25674177  0.93855123  1
  O  O55  1  0.62811016  0.48822377  0.82330658  1
  O  O56  1  0.51197824  0.67676626  0.66930796  1
  O  O57  1  0.66348283  0.25087767  0.16076912  1
  O  O58  1  0.47108301  0.62083756  0.33031344  1
  O  O59  1  0.33591350  0.91889789  0.33832766  1
  O  O60  1  0.78917308  0.00743668  0.25698410  1
  O  O61  1  0.79091822  0.98246938  0.43680695  1
  O  O62  1  0.22894855  0.99732093  0.56784604  1
  O  O63  1  0.66592412  0.08311782  0.65963351  1
  O  O64  1  0.54072451  0.38128711  0.66678389  1
  O  O65  1  0.33336717  0.74479261  0.84164427  1
  O  O66  1  0.48204106  0.32238936  0.32724691  1
  O  O67  1  0.38406620  0.52215905  0.17662088  1
  O  O68  1  0.24487788  0.75802252  0.06808591  1
  O  O69  1  0.22161050  0.77984186  0.42965465  1
  O  O70  1  0.20845674  0.79294021  0.24827309  1
  O  O71  1  0.25450373  0.66208826  0.65816430  1
  O  O72  1  0.47346467  0.18492184  0.82449578  1
  O  O73  1  0.52508712  0.09299801  0.17868277  1
  O  O74  1  0.33550933  0.48146380  0.82737098  1
  O  O75  1  0.32489137  0.33672945  0.97590970  1
  O  O76  1  0.31860424  0.34285632  0.47823728  1
  O  O77  1  0.18764776  0.49109178  0.32879742  1
  O  O78  1  0.38430411  0.08627116  0.66861182  1
  O  O79  1  0.31857262  0.19008678  0.33243751  1
  O  O80  1  0.08654447  0.66197065  0.15668601  1
  O  O81  1  0.00249001  0.78794852  0.75171791  1
  O  O82  1  0.00252044  0.74895124  0.93022985  1
  O  O83  1  0.09056939  0.52737807  0.66928845  1
  O  O84  1  0.17905152  0.33741563  0.82793303  1
  O  O85  1  0.10258661  0.37886715  0.17715614  1
  O  O86  1  0.25433453  0.08214685  0.15777182  1
  O  O87  1  0.24389898  0.00045171  0.93034275  1
  O  O88  1  0.21156035  0.99796384  0.75036529  1
  O  O89  1  0.08420760  0.25068921  0.65809949  1
  O  O90  1  0.99519040  0.22136133  0.42932254  1
  O  O91  1  0.00090135  0.20843048  0.24844925  1
