# generated using pymatgen
data_Li6MnV3(PO4)6
_symmetry_space_group_name_H-M   'P 1'
_cell_length_a   8.54965244
_cell_length_b   12.15408545
_cell_length_c   8.74650648
_cell_angle_alpha   90.00000000
_cell_angle_beta   90.00000000
_cell_angle_gamma   91.00180581
_symmetry_Int_Tables_number   1
_chemical_formula_structural   Li6MnV3(PO4)6
_chemical_formula_sum   'Li12 Mn2 V6 P12 O48'
_cell_volume   908.73860594
_cell_formula_units_Z   2
loop_
 _symmetry_equiv_pos_site_id
 _symmetry_equiv_pos_as_xyz
  1  'x, y, z'
loop_
 _atom_site_type_symbol
 _atom_site_label
 _atom_site_symmetry_multiplicity
 _atom_site_fract_x
 _atom_site_fract_y
 _atom_site_fract_z
 _atom_site_occupancy
  Li  Li0  1  0.06519291  0.34670289  0.51432544  1
  Li  Li1  1  0.08027039  0.69163782  0.08601628  1
  Li  Li2  1  0.18133834  0.17805438  0.77930728  1
  Li  Li3  1  0.31933089  0.32230057  0.27998899  1
  Li  Li4  1  0.41971367  0.80876610  0.58571165  1
  Li  Li5  1  0.43475903  0.15408300  0.01211460  1
  Li  Li6  1  0.56519291  0.84670289  0.98567456  1
  Li  Li7  1  0.58027039  0.19163782  0.41398372  1
  Li  Li8  1  0.68133834  0.67805438  0.72069272  1
  Li  Li9  1  0.81933089  0.82230057  0.22001101  1
  Li  Li10  1  0.91971367  0.30876610  0.91428835  1
  Li  Li11  1  0.93475903  0.65408300  0.48788540  1
  Mn  Mn12  1  0.25315038  0.60586780  0.52911384  1
  Mn  Mn13  1  0.75315038  0.10586780  0.97088616  1
  V  V14  1  0.24331628  0.89567686  0.02712908  1
  V  V15  1  0.24504166  0.10883639  0.46439563  1
  V  V16  1  0.25590724  0.39070776  0.96446230  1
  V  V17  1  0.74504166  0.60883639  0.03560437  1
  V  V18  1  0.74331628  0.39567686  0.47287092  1
  V  V19  1  0.75590724  0.89070776  0.53553770  1
  P  P20  1  0.04117348  0.49012921  0.25033460  1
  P  P21  1  0.11384546  0.84969711  0.38234542  1
  P  P22  1  0.11559683  0.14673163  0.11039916  1
  P  P23  1  0.38519832  0.65162981  0.88202981  1
  P  P24  1  0.38402035  0.35179168  0.60934071  1
  P  P25  1  0.45920850  0.00868861  0.74820527  1
  P  P26  1  0.54117348  0.99012921  0.24966540  1
  P  P27  1  0.61559683  0.64673163  0.38960084  1
  P  P28  1  0.61384546  0.34969711  0.11765458  1
  P  P29  1  0.88402035  0.85179168  0.89065929  1
  P  P30  1  0.88519832  0.15162981  0.61797019  1
  P  P31  1  0.95920850  0.50868861  0.75179473  1
  O  O32  1  0.05184302  0.89599550  0.89165253  1
  O  O33  1  0.05050712  0.44429976  0.87245709  1
  O  O34  1  0.05322998  0.60047117  0.66796868  1
  O  O35  1  0.05809346  0.18840088  0.57952478  1
  O  O36  1  0.10133596  0.58306309  0.36214394  1
  O  O37  1  0.12375782  0.83159400  0.20516708  1
  O  O38  1  0.13817147  0.97160706  0.41970326  1
  O  O39  1  0.13027856  0.24557136  0.99372861  1
  O  O40  1  0.17465728  0.18714110  0.26929428  1
  O  O41  1  0.18413476  0.43371083  0.17684492  1
  O  O42  1  0.22977776  0.77909281  0.47141941  1
  O  O43  1  0.23638889  0.06188063  0.04958315  1
  O  O44  1  0.26241112  0.43412026  0.54798976  1
  O  O45  1  0.27084836  0.72483347  0.97047749  1
  O  O46  1  0.31434293  0.06483946  0.67557929  1
  O  O47  1  0.32909406  0.31236293  0.77008818  1
  O  O48  1  0.35908765  0.53056224  0.92107446  1
  O  O49  1  0.37298812  0.25170217  0.49426369  1
  O  O50  1  0.37748793  0.66766498  0.70300849  1
  O  O51  1  0.40035210  0.91788989  0.86021865  1
  O  O52  1  0.44490027  0.90111650  0.16420753  1
  O  O53  1  0.44117956  0.31245073  0.07923429  1
  O  O54  1  0.44817045  0.60236134  0.38805339  1
  O  O55  1  0.44989665  0.05596621  0.36918536  1
  O  O56  1  0.55050712  0.94429976  0.62754291  1
  O  O57  1  0.55184302  0.39599550  0.60834747  1
  O  O58  1  0.55809446  0.68840088  0.92047522  1
  O  O59  1  0.55322998  0.10047117  0.83203132  1
  O  O60  1  0.60133596  0.08306309  0.13785606  1
  O  O61  1  0.62375782  0.33159400  0.29483292  1
  O  O62  1  0.63027856  0.74557136  0.50627139  1
  O  O63  1  0.63817147  0.47160706  0.08029674  1
  O  O64  1  0.67465728  0.68714110  0.23070572  1
  O  O65  1  0.68413476  0.93371083  0.32315508  1
  O  O66  1  0.72977776  0.27909281  0.02858059  1
  O  O67  1  0.73638889  0.56188063  0.45041685  1
  O  O68  1  0.76241112  0.93412026  0.95201024  1
  O  O69  1  0.77084836  0.22483347  0.52952251  1
  O  O70  1  0.81434293  0.56483946  0.82442071  1
  O  O71  1  0.82909406  0.81236293  0.72991182  1
  O  O72  1  0.87298812  0.75170217  0.00573631  1
  O  O73  1  0.85908765  0.03056224  0.57892554  1
  O  O74  1  0.87748793  0.16766498  0.79699151  1
  O  O75  1  0.90035210  0.41788989  0.63978135  1
  O  O76  1  0.94117956  0.81245073  0.42076571  1
  O  O77  1  0.94490027  0.40111650  0.33579247  1
  O  O78  1  0.94989665  0.55596621  0.13081464  1
  O  O79  1  0.94817045  0.10236134  0.11194661  1
