# generated using pymatgen
data_Li6V3P8O29
_symmetry_space_group_name_H-M   'P 1'
_cell_length_a   9.83975327
_cell_length_b   9.84217987
_cell_length_c   14.07868987
_cell_angle_alpha   89.53134838
_cell_angle_beta   89.72271252
_cell_angle_gamma   59.84002794
_symmetry_Int_Tables_number   1
_chemical_formula_structural   Li6V3P8O29
_chemical_formula_sum   'Li12 V6 P16 O58'
_cell_volume   1178.83049566
_cell_formula_units_Z   2
loop_
 _symmetry_equiv_pos_site_id
 _symmetry_equiv_pos_as_xyz
  1  'x, y, z'
loop_
 _atom_site_type_symbol
 _atom_site_label
 _atom_site_symmetry_multiplicity
 _atom_site_fract_x
 _atom_site_fract_y
 _atom_site_fract_z
 _atom_site_occupancy
  Li  Li0  1  0.90959685  0.76630459  0.06255474  1
  Li  Li1  1  0.76060095  0.90241516  0.56199316  1
  Li  Li2  1  0.90322220  0.32964828  0.55813242  1
  Li  Li3  1  0.66653292  0.66565815  0.88941645  1
  Li  Li4  1  0.76804775  0.32260481  0.06215439  1
  Li  Li5  1  0.32213876  0.91097783  0.05939843  1
  Li  Li6  1  0.32770871  0.76504205  0.56016745  1
  Li  Li7  1  0.33776130  0.34091426  0.60619146  1
  Li  Li8  1  0.33697684  0.33759002  0.10723016  1
  Li  Li9  1  0.22900212  0.09032731  0.43791742  1
  Li  Li10  1  0.99709035  0.99869516  0.99180201  1
  Li  Li11  1  0.96634760  0.98352828  0.49511459  1
  V  V12  1  0.56338943  0.43557356  0.25388484  1
  V  V13  1  0.43869645  0.56109498  0.75104155  1
  V  V14  1  0.56329858  0.00179516  0.75240564  1
  V  V15  1  0.43665370  0.99870584  0.24859296  1
  V  V16  1  0.99930798  0.56573197  0.24910787  1
  V  V17  1  0.99981788  0.43891364  0.75090674  1
  P  P18  1  0.91006176  0.77472776  0.84583999  1
  P  P19  1  0.77219619  0.91259738  0.34191610  1
  P  P20  1  0.91489277  0.31278366  0.34344471  1
  P  P21  1  0.66454953  0.66520520  0.12808720  1
  P  P22  1  0.66567810  0.66897370  0.62889581  1
  P  P23  1  0.77631050  0.31447806  0.84511321  1
  P  P24  1  0.69368269  0.21995160  0.66063929  1
  P  P25  1  0.31623232  0.90699176  0.84259908  1
  P  P26  1  0.69229499  0.08903986  0.15943873  1
  P  P27  1  0.31267964  0.77330656  0.34496766  1
  P  P28  1  0.22179391  0.69287789  0.16131446  1
  P  P29  1  0.33139064  0.33284684  0.36756456  1
  P  P30  1  0.33288281  0.33281410  0.86934656  1
  P  P31  1  0.08652183  0.69425316  0.66093467  1
  P  P32  1  0.22669466  0.09155678  0.65871717  1
  P  P33  1  0.08803937  0.22345072  0.16024294  1
  O  O34  1  0.98649699  0.80300088  0.58310916  1
  O  O35  1  0.90836563  0.74459986  0.32647413  1
  O  O36  1  0.79783573  0.98998029  0.08117139  1
  O  O37  1  0.74519992  0.91675080  0.83312847  1
  O  O38  1  0.89405979  0.62540553  0.83152500  1
  O  O39  1  0.81399789  0.66761541  0.16291751  1
  O  O40  1  0.91566807  0.46673052  0.32795778  1
  O  O41  1  0.99424267  0.21483028  0.08019242  1
  O  O42  1  0.91741251  0.33832619  0.83176560  1
  O  O43  1  0.66111927  0.81946041  0.67064139  1
  O  O44  1  0.61462378  0.91532409  0.32577231  1
  O  O45  1  0.81685941  0.52138504  0.67030855  1
  O  O46  1  0.66213769  0.66124905  0.02125274  1
  O  O47  1  0.66538884  0.67149761  0.52338964  1
  O  O48  1  0.66586784  0.51611180  0.17025629  1
  O  O49  1  0.48120632  0.89278796  0.83079325  1
  O  O50  1  0.51381365  0.81372171  0.16582490  1
  O  O51  1  0.74989675  0.33753292  0.33533888  1
  O  O52  1  0.77934334  0.20406857  0.76076094  1
  O  O53  1  0.80034198  0.21047656  0.58151315  1
  O  O54  1  0.78173166  0.23477932  0.93702338  1
  O  O55  1  0.62581231  0.47997319  0.83112273  1
  O  O56  1  0.51920476  0.66372459  0.67029188  1
  O  O57  1  0.66250634  0.25839486  0.15713772  1
  O  O58  1  0.47111334  0.62085790  0.33146192  1
  O  O59  1  0.33352353  0.91978397  0.33331159  1
  O  O60  1  0.78343806  0.01825544  0.25947188  1
  O  O61  1  0.78349437  0.97610765  0.43572881  1
  O  O62  1  0.23449997  0.99830853  0.57202724  1
  O  O63  1  0.66377507  0.08011345  0.65830548  1
  O  O64  1  0.53030341  0.37346613  0.66523811  1
  O  O65  1  0.34040742  0.74166470  0.83308891  1
  O  O66  1  0.48026676  0.33185366  0.32382166  1
  O  O67  1  0.37441860  0.52978745  0.16830039  1
  O  O68  1  0.21299430  0.79851243  0.08179946  1
  O  O69  1  0.23027715  0.78695469  0.43720752  1
  O  O70  1  0.19879224  0.78504197  0.25997219  1
  O  O71  1  0.25684557  0.66320512  0.65709655  1
  O  O72  1  0.47399347  0.18014535  0.82703015  1
  O  O73  1  0.52884714  0.10077084  0.16790409  1
  O  O74  1  0.34691593  0.47111194  0.82397503  1
  O  O75  1  0.33140644  0.33343534  0.97459490  1
  O  O76  1  0.33286030  0.32988343  0.47380197  1
  O  O77  1  0.18926913  0.47937251  0.32238371  1
  O  O78  1  0.37433141  0.10850281  0.66942595  1
  O  O79  1  0.32858623  0.18370487  0.33056322  1
  O  O80  1  0.08262163  0.66070233  0.15742731  1
  O  O81  1  0.01771396  0.77904817  0.76117006  1
  O  O82  1  0.98467224  0.77838499  0.93722293  1
  O  O83  1  0.09576263  0.53183217  0.66546454  1
  O  O84  1  0.18146313  0.34602686  0.82426720  1
  O  O85  1  0.09724087  0.37628492  0.16772859  1
  O  O86  1  0.26201438  0.08493296  0.15752813  1
  O  O87  1  0.23211326  0.98641984  0.93196570  1
  O  O88  1  0.21083432  0.00615676  0.75214400  1
  O  O89  1  0.08049250  0.25753831  0.65679994  1
  O  O90  1  0.99723997  0.22785090  0.43425274  1
  O  O91  1  0.02000404  0.19732806  0.25841951  1
