# generated using pymatgen
data_Li6V3P8O29
_symmetry_space_group_name_H-M   'P 1'
_cell_length_a   9.82615192
_cell_length_b   9.84997477
_cell_length_c   14.01012253
_cell_angle_alpha   89.96972748
_cell_angle_beta   89.94650632
_cell_angle_gamma   59.82505479
_symmetry_Int_Tables_number   1
_chemical_formula_structural   Li6V3P8O29
_chemical_formula_sum   'Li12 V6 P16 O58'
_cell_volume   1172.25653696
_cell_formula_units_Z   2
loop_
 _symmetry_equiv_pos_site_id
 _symmetry_equiv_pos_as_xyz
  1  'x, y, z'
loop_
 _atom_site_type_symbol
 _atom_site_label
 _atom_site_symmetry_multiplicity
 _atom_site_fract_x
 _atom_site_fract_y
 _atom_site_fract_z
 _atom_site_occupancy
  Li  Li0  1  0.92066227  0.77654622  0.06226307  1
  Li  Li1  1  0.76230428  0.90395774  0.55905512  1
  Li  Li2  1  0.89878342  0.33450811  0.55646084  1
  Li  Li3  1  0.65942643  0.66744343  0.88817506  1
  Li  Li4  1  0.77120374  0.31814758  0.06571959  1
  Li  Li5  1  0.30859770  0.91473385  0.05901507  1
  Li  Li6  1  0.33087642  0.76399999  0.55970904  1
  Li  Li7  1  0.68397381  0.09164863  0.94288404  1
  Li  Li8  1  0.10073069  0.66458934  0.43763347  1
  Li  Li9  1  0.23231867  0.10018819  0.43827031  1
  Li  Li10  1  0.09178325  0.22372536  0.94148393  1
  Li  Li11  1  0.94984413  0.03470609  0.48980514  1
  V  V12  1  0.56413515  0.43186689  0.25329241  1
  V  V13  1  0.43492350  0.56423980  0.75143401  1
  V  V14  1  0.56652270  0.00053405  0.74648366  1
  V  V15  1  0.43628445  0.99970139  0.25195268  1
  V  V16  1  0.00404991  0.56499764  0.24708264  1
  V  V17  1  0.00024419  0.43636810  0.74908477  1
  P  P18  1  0.90665902  0.77048193  0.84312719  1
  P  P19  1  0.77646802  0.90989424  0.34207787  1
  P  P20  1  0.91128471  0.31766454  0.33924017  1
  P  P21  1  0.66723772  0.66802785  0.12918207  1
  P  P22  1  0.66682380  0.66553712  0.62839365  1
  P  P23  1  0.77026595  0.31901205  0.84484520  1
  P  P24  1  0.69263776  0.22519632  0.65884566  1
  P  P25  1  0.32214864  0.90888440  0.84099776  1
  P  P26  1  0.68112421  0.08845558  0.16050114  1
  P  P27  1  0.31213498  0.77248191  0.34534465  1
  P  P28  1  0.23169863  0.68514368  0.15993404  1
  P  P29  1  0.33312794  0.33090830  0.37055901  1
  P  P30  1  0.33513817  0.33180117  0.86906918  1
  P  P31  1  0.08553499  0.68723873  0.65978702  1
  P  P32  1  0.22734299  0.08675510  0.65715809  1
  P  P33  1  0.08968107  0.23037556  0.15727342  1
  O  O34  1  0.99588830  0.77303471  0.57089683  1
  O  O35  1  0.92100979  0.74066635  0.33537583  1
  O  O36  1  0.75945190  0.99892906  0.07050615  1
  O  O37  1  0.74038605  0.92117198  0.83929558  1
  O  O38  1  0.88271395  0.62729423  0.82432847  1
  O  O39  1  0.81587224  0.67323741  0.16559092  1
  O  O40  1  0.91373346  0.47043634  0.32992357  1
  O  O41  1  0.99685933  0.24727834  0.06794528  1
  O  O42  1  0.92173801  0.32941251  0.84326904  1
  O  O43  1  0.67793338  0.81034141  0.66660231  1
  O  O44  1  0.62201646  0.90793219  0.33264774  1
  O  O45  1  0.81554796  0.51124872  0.66958123  1
  O  O46  1  0.66034961  0.67792959  0.02151334  1
  O  O47  1  0.66811076  0.66113938  0.52183073  1
  O  O48  1  0.67084871  0.51697236  0.16527431  1
  O  O49  1  0.48802211  0.88837952  0.82280964  1
  O  O50  1  0.51734411  0.81751215  0.17236552  1
  O  O51  1  0.74327505  0.34480416  0.33377999  1
  O  O52  1  0.78483866  0.20532021  0.75905703  1
  O  O53  1  0.80378127  0.20613854  0.57917250  1
  O  O54  1  0.75022532  0.24958852  0.93591145  1
  O  O55  1  0.62910827  0.48700832  0.82610013  1
  O  O56  1  0.51436546  0.67363638  0.67057230  1
  O  O57  1  0.66649063  0.25194587  0.16059498  1
  O  O58  1  0.46897325  0.62089300  0.33196361  1
  O  O59  1  0.33064306  0.91882603  0.34277667  1
  O  O60  1  0.79477960  0.99849052  0.25047756  1
  O  O61  1  0.79152438  0.98354056  0.43272944  1
  O  O62  1  0.22974621  0.99771833  0.56863750  1
  O  O63  1  0.66409506  0.08387341  0.65864140  1
  O  O64  1  0.54011762  0.38394371  0.66420476  1
  O  O65  1  0.34226218  0.74512441  0.83995696  1
  O  O66  1  0.48291413  0.32143036  0.32740909  1
  O  O67  1  0.38367779  0.52561516  0.17726783  1
  O  O68  1  0.23865924  0.77270086  0.07563074  1
  O  O69  1  0.22301074  0.77517210  0.43502428  1
  O  O70  1  0.20184068  0.78872538  0.25585054  1
  O  O71  1  0.25030382  0.66928353  0.66048128  1
  O  O72  1  0.48338072  0.18331831  0.82806264  1
  O  O73  1  0.52083239  0.10119830  0.17695147  1
  O  O74  1  0.34151211  0.47450513  0.82163840  1
  O  O75  1  0.33238260  0.33206131  0.97499472  1
  O  O76  1  0.32366829  0.32504009  0.47685724  1
  O  O77  1  0.18888661  0.48591553  0.33033855  1
  O  O78  1  0.38356825  0.08692478  0.67053845  1
  O  O79  1  0.32448123  0.18303602  0.32832365  1
  O  O80  1  0.08783914  0.66005795  0.15770551  1
  O  O81  1  0.99672251  0.79078254  0.75293147  1
  O  O82  1  0.98992006  0.75799955  0.93376104  1
  O  O83  1  0.09322197  0.52807034  0.67193084  1
  O  O84  1  0.18139331  0.33747028  0.82711658  1
  O  O85  1  0.10162678  0.37840004  0.17632880  1
  O  O86  1  0.25257376  0.08229831  0.15646121  1
  O  O87  1  0.24712098  0.00355870  0.92956207  1
  O  O88  1  0.20972479  0.00251654  0.75111629  1
  O  O89  1  0.08430105  0.25355248  0.65655728  1
  O  O90  1  0.99370498  0.22351787  0.42848974  1
  O  O91  1  0.00023662  0.20916046  0.24782453  1
