# generated using pymatgen
data_Li6MnV3(PO4)6
_symmetry_space_group_name_H-M   'P 1'
_cell_length_a   8.57249703
_cell_length_b   12.06310860
_cell_length_c   8.76967301
_cell_angle_alpha   89.72092319
_cell_angle_beta   89.86252388
_cell_angle_gamma   91.09426348
_symmetry_Int_Tables_number   1
_chemical_formula_structural   Li6MnV3(PO4)6
_chemical_formula_sum   'Li12 Mn2 V6 P12 O48'
_cell_volume   906.70136653
_cell_formula_units_Z   2
loop_
 _symmetry_equiv_pos_site_id
 _symmetry_equiv_pos_as_xyz
  1  'x, y, z'
loop_
 _atom_site_type_symbol
 _atom_site_label
 _atom_site_symmetry_multiplicity
 _atom_site_fract_x
 _atom_site_fract_y
 _atom_site_fract_z
 _atom_site_occupancy
  Li  Li0  1  0.06511294  0.34678954  0.51344494  1
  Li  Li1  1  0.07993492  0.69046703  0.08648593  1
  Li  Li2  1  0.17998471  0.17757415  0.78064646  1
  Li  Li3  1  0.31963895  0.32171882  0.27889155  1
  Li  Li4  1  0.41999932  0.80998728  0.58716467  1
  Li  Li5  1  0.43411015  0.15373707  0.01159909  1
  Li  Li6  1  0.56539167  0.84675138  0.98593972  1
  Li  Li7  1  0.58003536  0.19091197  0.41387829  1
  Li  Li8  1  0.68040599  0.67851620  0.72123323  1
  Li  Li9  1  0.82068504  0.82272308  0.22005637  1
  Li  Li10  1  0.92048326  0.30935489  0.91446253  1
  Li  Li11  1  0.93515511  0.65288193  0.48663952  1
  Mn  Mn12  1  0.75398394  0.89098207  0.53651510  1
  Mn  Mn13  1  0.75222081  0.10634694  0.97149912  1
  V  V14  1  0.24349662  0.89579271  0.02704271  1
  V  V15  1  0.24438599  0.10800660  0.46488977  1
  V  V16  1  0.25472062  0.60554049  0.52871884  1
  V  V17  1  0.25505092  0.39116575  0.96587853  1
  V  V18  1  0.74514617  0.60923111  0.03416112  1
  V  V19  1  0.74479196  0.39511870  0.47220060  1
  P  P20  1  0.03986320  0.49067041  0.24899112  1
  P  P21  1  0.11440263  0.84634823  0.38184530  1
  P  P22  1  0.11435261  0.14670659  0.11133526  1
  P  P23  1  0.38669210  0.65249500  0.88279500  1
  P  P24  1  0.38558697  0.35304915  0.61036397  1
  P  P25  1  0.45705327  0.00981923  0.74850949  1
  P  P26  1  0.54271431  0.98979433  0.24968364  1
  P  P27  1  0.61605642  0.64865981  0.38964655  1
  P  P28  1  0.61330447  0.34896877  0.11760495  1
  P  P29  1  0.88491126  0.85282948  0.88913891  1
  P  P30  1  0.88373735  0.14954150  0.61875675  1
  P  P31  1  0.95988791  0.50936155  0.75102543  1
  O  O32  1  0.05223397  0.89787301  0.89011914  1
  O  O33  1  0.05085654  0.44500919  0.87205742  1
  O  O34  1  0.05542336  0.60016395  0.66547426  1
  O  O35  1  0.05599301  0.18738312  0.57999913  1
  O  O36  1  0.09826961  0.58191821  0.36023845  1
  O  O37  1  0.12688520  0.83038462  0.20514985  1
  O  O38  1  0.13949433  0.96890241  0.42098767  1
  O  O39  1  0.12738876  0.24629513  0.99391631  1
  O  O40  1  0.17354410  0.18740360  0.26962583  1
  O  O41  1  0.18470749  0.43384979  0.17756647  1
  O  O42  1  0.23134549  0.77465269  0.47120821  1
  O  O43  1  0.23664685  0.06294740  0.04965151  1
  O  O44  1  0.26542614  0.43913253  0.55017949  1
  O  O45  1  0.27024837  0.72378383  0.97151539  1
  O  O46  1  0.31134012  0.06617253  0.67686668  1
  O  O47  1  0.32725696  0.31274400  0.76903023  1
  O  O48  1  0.36195650  0.52967097  0.92086235  1
  O  O49  1  0.37144071  0.25453563  0.49342936  1
  O  O50  1  0.37831659  0.66977784  0.70592272  1
  O  O51  1  0.39980632  0.91780788  0.86123421  1
  O  O52  1  0.44599566  0.90061319  0.16492278  1
  O  O53  1  0.44136284  0.31086406  0.07928114  1
  O  O54  1  0.44852227  0.60503690  0.39198356  1
  O  O55  1  0.45109358  0.05624674  0.36812528  1
  O  O56  1  0.54602235  0.94592368  0.62721215  1
  O  O57  1  0.55310261  0.39728553  0.60987431  1
  O  O58  1  0.55892664  0.68945607  0.92175139  1
  O  O59  1  0.55130505  0.10183240  0.83111813  1
  O  O60  1  0.60187503  0.08360976  0.13648422  1
  O  O61  1  0.62329216  0.33057415  0.29458020  1
  O  O62  1  0.63011866  0.74815352  0.50749499  1
  O  O63  1  0.63644753  0.47167228  0.08019188  1
  O  O64  1  0.67271557  0.68852999  0.23067358  1
  O  O65  1  0.68746083  0.93471418  0.32143265  1
  O  O66  1  0.73016649  0.27910579  0.02800121  1
  O  O67  1  0.73557789  0.56271338  0.45060539  1
  O  O68  1  0.76250103  0.93515173  0.95019264  1
  O  O69  1  0.76893182  0.22324076  0.53066860  1
  O  O70  1  0.81498606  0.56570327  0.82224323  1
  O  O71  1  0.82952232  0.81157167  0.72967751  1
  O  O72  1  0.87405025  0.75245605  0.00543818  1
  O  O73  1  0.86167611  0.02689272  0.58055467  1
  O  O74  1  0.87576047  0.16618067  0.79711031  1
  O  O75  1  0.90155378  0.41745036  0.63955850  1
  O  O76  1  0.94360002  0.80782176  0.41816829  1
  O  O77  1  0.94438108  0.39946668  0.33501057  1
  O  O78  1  0.94881946  0.55439152  0.12778569  1
  O  O79  1  0.94835506  0.10109207  0.11377979  1
