# generated using pymatgen
data_Li47(CoO4)8
_symmetry_space_group_name_H-M   'P 1'
_cell_length_a   9.39689057
_cell_length_b   9.27517315
_cell_length_c   9.40974209
_cell_angle_alpha   90.03243211
_cell_angle_beta   89.88635449
_cell_angle_gamma   90.06283891
_symmetry_Int_Tables_number   1
_chemical_formula_structural   Li47(CoO4)8
_chemical_formula_sum   'Li47 Co8 O32'
_cell_volume   820.13006104
_cell_formula_units_Z   1
loop_
 _symmetry_equiv_pos_site_id
 _symmetry_equiv_pos_as_xyz
  1  'x, y, z'
loop_
 _atom_site_type_symbol
 _atom_site_label
 _atom_site_symmetry_multiplicity
 _atom_site_fract_x
 _atom_site_fract_y
 _atom_site_fract_z
 _atom_site_occupancy
  Li  Li0  1  0.89425566  0.11181963  0.61414360  1
  Li  Li1  1  0.60571946  0.11379253  0.11440309  1
  Li  Li2  1  0.36583783  0.11154352  0.14875282  1
  Li  Li3  1  0.13315874  0.11297616  0.64889164  1
  Li  Li4  1  0.88973085  0.11988402  0.86083808  1
  Li  Li5  1  0.61144042  0.12109938  0.36078256  1
  Li  Li6  1  0.35233847  0.13250059  0.87849654  1
  Li  Li7  1  0.14611799  0.13233706  0.37922511  1
  Li  Li8  1  0.12652078  0.13411956  0.10640726  1
  Li  Li9  1  0.37233063  0.13471897  0.60563241  1
  Li  Li10  1  0.61964746  0.15757233  0.87469958  1
  Li  Li11  1  0.87877576  0.16360313  0.37571701  1
  Li  Li12  1  0.12028953  0.34197889  0.87589420  1
  Li  Li13  1  0.37890140  0.34147437  0.37237048  1
  Li  Li14  1  0.62405253  0.36587723  0.10480713  1
  Li  Li15  1  0.87895061  0.36227551  0.61081816  1
  Li  Li16  1  0.64022995  0.38286382  0.37564000  1
  Li  Li17  1  0.85226760  0.36712200  0.88020866  1
  Li  Li18  1  0.39121326  0.37882444  0.85933891  1
  Li  Li19  1  0.10890263  0.37919760  0.36360993  1
  Li  Li20  1  0.86246278  0.38693260  0.14903506  1
  Li  Li21  1  0.63556693  0.38427501  0.65032206  1
  Li  Li22  1  0.10351447  0.38663160  0.11576409  1
  Li  Li23  1  0.39522473  0.38766604  0.61334383  1
  Li  Li24  1  0.89394952  0.61284841  0.88464210  1
  Li  Li25  1  0.39417608  0.61188351  0.36207951  1
  Li  Li26  1  0.13363908  0.61218093  0.85184759  1
  Li  Li27  1  0.89346177  0.61925115  0.64238097  1
  Li  Li28  1  0.60891404  0.61844715  0.15458648  1
  Li  Li29  1  0.35126836  0.63519674  0.62272205  1
  Li  Li30  1  0.15303159  0.63532170  0.12041575  1
  Li  Li31  1  0.13188099  0.63201859  0.39047371  1
  Li  Li32  1  0.37271064  0.63378382  0.89479223  1
  Li  Li33  1  0.88432694  0.65721912  0.12002612  1
  Li  Li34  1  0.61641141  0.65352689  0.60860410  1
  Li  Li35  1  0.38007546  0.84110300  0.12621464  1
  Li  Li36  1  0.12060485  0.84323604  0.62433486  1
  Li  Li37  1  0.62486996  0.85274334  0.39552929  1
  Li  Li38  1  0.87300097  0.86532794  0.89307261  1
  Li  Li39  1  0.84872007  0.86698042  0.62211070  1
  Li  Li40  1  0.64759198  0.86856900  0.11720361  1
  Li  Li41  1  0.38878519  0.88123623  0.64097402  1
  Li  Li42  1  0.10994808  0.88051004  0.13828595  1
  Li  Li43  1  0.86702274  0.89757789  0.35085252  1
  Li  Li44  1  0.63377999  0.88698094  0.84834322  1
  Li  Li45  1  0.39425259  0.88685906  0.88677437  1
  Li  Li46  1  0.10655952  0.88540781  0.38244816  1
  Co  Co47  1  0.86830536  0.10834488  0.12148533  1
  Co  Co48  1  0.63074238  0.10736154  0.62057028  1
  Co  Co49  1  0.36591795  0.38940469  0.11856169  1
  Co  Co50  1  0.13387576  0.39232399  0.62213002  1
  Co  Co51  1  0.85254883  0.61529107  0.37831186  1
  Co  Co52  1  0.63122072  0.60910794  0.87864299  1
  Co  Co53  1  0.36795543  0.89312561  0.37975422  1
  Co  Co54  1  0.13099402  0.89233052  0.87850079  1
  O  O55  1  0.75774282  0.00799555  0.48724155  1
  O  O56  1  0.74299827  0.00834868  0.98550862  1
  O  O57  1  0.00556449  0.01909537  0.25537410  1
  O  O58  1  0.49430495  0.01878803  0.75610342  1
  O  O59  1  0.98210485  0.25371800  0.00792938  1
  O  O60  1  0.51914715  0.25567391  0.50856967  1
  O  O61  1  0.73754321  0.23830749  0.23485704  1
  O  O62  1  0.76312971  0.23720737  0.73570418  1
  O  O63  1  0.23341974  0.26203524  0.23548777  1
  O  O64  1  0.26243280  0.26189606  0.73590761  1
  O  O65  1  0.48190769  0.24439903  0.00544058  1
  O  O66  1  0.01841660  0.24616705  0.50929540  1
  O  O67  1  0.99576819  0.48144412  0.75675063  1
  O  O68  1  0.50175013  0.47259535  0.24872708  1
  O  O69  1  0.25945226  0.49116570  0.48705687  1
  O  O70  1  0.23921981  0.49126767  0.98620732  1
  O  O71  1  0.76239523  0.50601563  0.51220038  1
  O  O72  1  0.75859806  0.51028863  0.01393282  1
  O  O73  1  0.99525159  0.52096853  0.25311126  1
  O  O74  1  0.49667211  0.51741516  0.74191892  1
  O  O75  1  0.97687796  0.74884303  0.48747773  1
  O  O76  1  0.51760144  0.75283353  0.99386311  1
  O  O77  1  0.75481930  0.74150896  0.26176181  1
  O  O78  1  0.76295608  0.73599169  0.76202892  1
  O  O79  1  0.23739203  0.76388537  0.26335194  1
  O  O80  1  0.26073374  0.76239771  0.76579170  1
  O  O81  1  0.47594564  0.75596174  0.49962138  1
  O  O82  1  0.01808208  0.74630235  0.99145929  1
  O  O83  1  0.50711619  0.97980941  0.24320741  1
  O  O84  1  0.99378147  0.98007617  0.74351010  1
  O  O85  1  0.23840327  0.99145024  0.51389730  1
  O  O86  1  0.25666236  0.99101925  0.01298879  1
