# generated using pymatgen
data_Li6V3P8O29
_symmetry_space_group_name_H-M   'P 1'
_cell_length_a   9.81168215
_cell_length_b   9.81811664
_cell_length_c   13.94155557
_cell_angle_alpha   90.12647506
_cell_angle_beta   90.03546019
_cell_angle_gamma   60.00148846
_symmetry_Int_Tables_number   1
_chemical_formula_structural   Li6V3P8O29
_chemical_formula_sum   'Li12 V6 P16 O58'
_cell_volume   1163.10496981
_cell_formula_units_Z   2
loop_
 _symmetry_equiv_pos_site_id
 _symmetry_equiv_pos_as_xyz
  1  'x, y, z'
loop_
 _atom_site_type_symbol
 _atom_site_label
 _atom_site_symmetry_multiplicity
 _atom_site_fract_x
 _atom_site_fract_y
 _atom_site_fract_z
 _atom_site_occupancy
  Li  Li0  1  0.90287727  0.77056282  0.05983221  1
  Li  Li1  1  0.90466962  0.32312831  0.56299621  1
  Li  Li2  1  0.66995022  0.66877340  0.88361422  1
  Li  Li3  1  0.76530057  0.33012604  0.06128906  1
  Li  Li4  1  0.32413799  0.90970687  0.06122103  1
  Li  Li5  1  0.68690428  0.22323703  0.44201802  1
  Li  Li6  1  0.31925900  0.77070328  0.56031538  1
  Li  Li7  1  0.23412354  0.66733224  0.93882211  1
  Li  Li8  1  0.33482625  0.32908210  0.61471385  1
  Li  Li9  1  0.08206993  0.69237099  0.43864493  1
  Li  Li10  1  0.22706015  0.08896833  0.43914749  1
  Li  Li11  1  0.97291998  0.03834939  0.99304012  1
  V  V12  1  0.56903875  0.43049089  0.24967483  1
  V  V13  1  0.43601295  0.56330078  0.75031819  1
  V  V14  1  0.56785740  0.00119884  0.75109589  1
  V  V15  1  0.43660827  0.99906977  0.24896752  1
  V  V16  1  0.99736762  0.56732691  0.24920416  1
  V  V17  1  0.00490247  0.43225336  0.75268090  1
  P  P18  1  0.91147566  0.77420762  0.84032923  1
  P  P19  1  0.76897681  0.91528411  0.34320171  1
  P  P20  1  0.91315632  0.32022350  0.34416555  1
  P  P21  1  0.66618378  0.66561601  0.12505840  1
  P  P22  1  0.66717783  0.66685511  0.62840245  1
  P  P23  1  0.77568655  0.31622296  0.84400098  1
  P  P24  1  0.68069785  0.22733729  0.65934175  1
  P  P25  1  0.31566040  0.91015465  0.84583538  1
  P  P26  1  0.69123606  0.08340041  0.15604841  1
  P  P27  1  0.32112296  0.76751450  0.34069592  1
  P  P28  1  0.22904329  0.68183248  0.15775843  1
  P  P29  1  0.33262070  0.33456473  0.37150574  1
  P  P30  1  0.33396138  0.33334234  0.87328487  1
  P  P31  1  0.09171421  0.67864868  0.65407168  1
  P  P32  1  0.23013603  0.08819553  0.65831227  1
  P  P33  1  0.08525912  0.22476027  0.15881333  1
  O  O34  1  0.00485577  0.75496210  0.56492698  1
  O  O35  1  0.91467499  0.74731432  0.34050269  1
  O  O36  1  0.79312586  0.99896223  0.07162199  1
  O  O37  1  0.74762375  0.91875368  0.83886949  1
  O  O38  1  0.89444711  0.62506410  0.83096604  1
  O  O39  1  0.80981836  0.67865018  0.16365949  1
  O  O40  1  0.89915829  0.48171276  0.32289873  1
  O  O41  1  0.99493435  0.20846157  0.07745609  1
  O  O42  1  0.91684464  0.34115415  0.83741383  1
  O  O43  1  0.65617706  0.81696506  0.67624769  1
  O  O44  1  0.61791344  0.90414415  0.32218044  1
  O  O45  1  0.81909191  0.51972958  0.66967803  1
  O  O46  1  0.66681907  0.66379768  0.01702159  1
  O  O47  1  0.66101437  0.66604847  0.52227569  1
  O  O48  1  0.67855642  0.50991843  0.16394402  1
  O  O49  1  0.48045118  0.89394878  0.83496807  1
  O  O50  1  0.51050994  0.80986200  0.16351659  1
  O  O51  1  0.74866234  0.33527944  0.34257099  1
  O  O52  1  0.78612086  0.21307542  0.75132122  1
  O  O53  1  0.75659514  0.24725346  0.57082756  1
  O  O54  1  0.77997138  0.23080074  0.93395230  1
  O  O55  1  0.62344947  0.48007858  0.83311345  1
  O  O56  1  0.51937385  0.66005995  0.67156609  1
  O  O57  1  0.66326335  0.25509587  0.16187508  1
  O  O58  1  0.48177947  0.61821736  0.32067712  1
  O  O59  1  0.33648256  0.91634910  0.34079859  1
  O  O60  1  0.79276693  0.00003581  0.25096223  1
  O  O61  1  0.75853485  0.00594283  0.43043455  1
  O  O62  1  0.24363124  0.99499428  0.56927527  1
  O  O63  1  0.66337445  0.08175171  0.65980830  1
  O  O64  1  0.51266171  0.37339075  0.67375122  1
  O  O65  1  0.33378989  0.74411511  0.84151957  1
  O  O66  1  0.48734384  0.32784569  0.33401910  1
  O  O67  1  0.37915985  0.52420730  0.17124311  1
  O  O68  1  0.22538431  0.77073165  0.06866946  1
  O  O69  1  0.24550451  0.75385197  0.43084323  1
  O  O70  1  0.20873545  0.79008372  0.25040864  1
  O  O71  1  0.25626516  0.66498893  0.65750471  1
  O  O72  1  0.47693356  0.18516189  0.82712365  1
  O  O73  1  0.53399818  0.08732000  0.16671930  1
  O  O74  1  0.33428044  0.48422839  0.83128009  1
  O  O75  1  0.32865754  0.34158860  0.97907659  1
  O  O76  1  0.33113910  0.33683871  0.47940808  1
  O  O77  1  0.18531415  0.48748866  0.33185782  1
  O  O78  1  0.37302040  0.11290123  0.67124335  1
  O  O79  1  0.32787120  0.18589191  0.33363935  1
  O  O80  1  0.08095976  0.66261412  0.16064074  1
  O  O81  1  0.00372899  0.78303995  0.74791434  1
  O  O82  1  0.00262369  0.76934779  0.92931367  1
  O  O83  1  0.11516685  0.51138474  0.67074667  1
  O  O84  1  0.18391497  0.33860604  0.82678638  1
  O  O85  1  0.08638495  0.37958987  0.16809085  1
  O  O86  1  0.25654273  0.08203182  0.16185993  1
  O  O87  1  0.22652717  0.99298965  0.93458055  1
  O  O88  1  0.21567848  0.99889221  0.75094216  1
  O  O89  1  0.07902800  0.25074456  0.65756774  1
  O  O90  1  -0.00018094  0.24848246  0.43576112  1
  O  O91  1  0.00865946  0.20444895  0.25763318  1
