# generated using pymatgen
data_Li7Fe4(PO4)6
_symmetry_space_group_name_H-M   'P 1'
_cell_length_a   8.50060713
_cell_length_b   8.49246831
_cell_length_c   9.03555997
_cell_angle_alpha   61.73840037
_cell_angle_beta   117.81766414
_cell_angle_gamma   120.08315348
_symmetry_Int_Tables_number   1
_chemical_formula_structural   Li7Fe4(PO4)6
_chemical_formula_sum   'Li7 Fe4 P6 O24'
_cell_volume   474.10489008
_cell_formula_units_Z   1
loop_
 _symmetry_equiv_pos_site_id
 _symmetry_equiv_pos_as_xyz
  1  'x, y, z'
loop_
 _atom_site_type_symbol
 _atom_site_label
 _atom_site_symmetry_multiplicity
 _atom_site_fract_x
 _atom_site_fract_y
 _atom_site_fract_z
 _atom_site_occupancy
  Li  Li0  1  0.92021709  0.71640120  0.35797952  1
  Li  Li1  1  0.73920515  0.59570499  0.86609632  1
  Li  Li2  1  0.20537159  0.00239464  0.55661028  1
  Li  Li3  1  0.40217602  0.75402096  0.85657682  1
  Li  Li4  1  0.66239572  0.07417973  0.35007512  1
  Li  Li5  1  0.23297234  0.42750429  0.16152658  1
  Li  Li6  1  0.09739112  0.28536554  0.64787264  1
  Fe  Fe7  1  0.85270863  0.14364960  0.06372626  1
  Fe  Fe8  1  0.36255604  0.65689545  0.54780464  1
  Fe  Fe9  1  0.64435924  0.33940646  0.45498094  1
  Fe  Fe10  1  0.15271702  0.85710252  0.94037649  1
  P  P11  1  0.76833517  0.96965160  0.75139008  1
  P  P12  1  0.95324756  0.45202011  0.25452714  1
  P  P13  1  0.54216383  0.74324587  0.24405145  1
  P  P14  1  0.46855578  0.24463422  0.75550088  1
  P  P15  1  0.04106106  0.54135481  0.75161663  1
  P  P16  1  0.25157633  0.03714902  0.25441694  1
  O  O17  1  0.89664799  0.87135225  0.77858101  1
  O  O18  1  0.74311818  0.86340593  0.21803739  1
  O  O19  1  0.98595963  0.60670575  0.07848733  1
  O  O20  1  0.56497411  0.81645211  0.73343984  1
  O  O21  1  0.85762051  0.52176633  0.59247717  1
  O  O22  1  0.52536266  0.80419882  0.36929376  1
  O  O23  1  0.81020673  0.48354875  0.28985206  1
  O  O24  1  0.86435531  0.24937670  0.23445877  1
  O  O25  1  0.20751261  0.99058460  0.09193269  1
  O  O26  1  0.38039662  0.76569924  0.06222099  1
  O  O27  1  0.20457845  0.85279697  0.41212675  1
  O  O28  1  0.50671773  0.52605623  0.30758060  1
  O  O29  1  0.51171525  0.45684244  0.71430433  1
  O  O30  1  0.78658250  0.14620811  0.58038788  1
  O  O31  1  0.60402220  0.17208207  0.93448829  1
  O  O32  1  0.83769004  0.03910765  0.90592041  1
  O  O33  1  0.13077335  0.75456113  0.75208458  1
  O  O34  1  0.19338514  0.50524732  0.73635812  1
  O  O35  1  0.47728957  0.20117447  0.60923993  1
  O  O36  1  0.13997883  0.46225340  0.40856849  1
  O  O37  1  0.46443327  0.16677759  0.30323335  1
  O  O38  1  0.00219015  0.40998511  0.93000946  1
  O  O39  1  0.25651698  0.12040156  0.75787511  1
  O  O40  1  0.12873449  0.14530148  0.22310198  1
