# generated using pymatgen
data_Fe4P9O32
_symmetry_space_group_name_H-M   'P 1'
_cell_length_a   14.16400361
_cell_length_b   14.16400361
_cell_length_c   6.39979331
_cell_angle_alpha   90.00000000
_cell_angle_beta   90.00000000
_cell_angle_gamma   90.00000000
_symmetry_Int_Tables_number   1
_chemical_formula_structural   Fe4P9O32
_chemical_formula_sum   'Fe8 P18 O64'
_cell_volume   1283.92012295
_cell_formula_units_Z   2
loop_
 _symmetry_equiv_pos_site_id
 _symmetry_equiv_pos_as_xyz
  1  'x, y, z'
loop_
 _atom_site_type_symbol
 _atom_site_label
 _atom_site_symmetry_multiplicity
 _atom_site_fract_x
 _atom_site_fract_y
 _atom_site_fract_z
 _atom_site_occupancy
  Fe  Fe0  1  0.61909469  0.30131202  0.87490640  1
  Fe  Fe1  1  0.19868798  0.88090531  0.37490640  1
  Fe  Fe2  1  0.80131202  0.11909469  0.37490640  1
  Fe  Fe3  1  0.38090531  0.69868798  0.87490640  1
  Fe  Fe4  1  0.30131202  0.38090531  0.12509360  1
  Fe  Fe5  1  0.69868798  0.61909469  0.12509360  1
  Fe  Fe6  1  0.11909469  0.19868798  0.62509360  1
  Fe  Fe7  1  0.88090531  0.80131202  0.62509360  1
  P  P8  1  0.24674613  0.89245474  0.86470761  1
  P  P9  1  0.70026576  0.94039152  0.61652302  1
  P  P10  1  0.05960848  0.70026576  0.38347698  1
  P  P11  1  0.10754526  0.24674613  0.13529239  1
  P  P12  1  0.44039152  0.20026576  0.11652302  1
  P  P13  1  0.55960848  0.79973424  0.11652302  1
  P  P14  1  0.50000000  0.50000000  0.00000000  1
  P  P15  1  0.79973424  0.44039152  0.88347698  1
  P  P16  1  0.25325387  0.39245474  0.63529239  1
  P  P17  1  0.94039152  0.29973424  0.38347698  1
  P  P18  1  0.20026576  0.55960848  0.88347698  1
  P  P19  1  0.89245474  0.75325387  0.13529239  1
  P  P20  1  0.39245474  0.74674613  0.36470761  1
  P  P21  1  0.74674613  0.60754526  0.63529239  1
  P  P22  1  0.75325387  0.10754526  0.86470761  1
  P  P23  1  0.00000000  -0.00000000  0.50000000  1
  P  P24  1  0.29973424  0.05960848  0.61652302  1
  P  P25  1  0.60754526  0.25325387  0.36470761  1
  O  O26  1  0.83366987  0.66281003  0.12596824  1
  O  O27  1  0.93394532  0.06097590  0.36087432  1
  O  O28  1  0.50719936  0.75916505  0.92764818  1
  O  O29  1  0.22102482  0.50073600  0.67267683  1
  O  O30  1  0.27897518  0.00073600  0.82732317  1
  O  O31  1  0.16281003  0.33366987  0.62596824  1
  O  O32  1  0.86560251  0.81791297  0.31838431  1
  O  O33  1  0.99926400  0.27897518  0.17267683  1
  O  O34  1  0.16633013  0.33718997  0.12596824  1
  O  O35  1  0.13439749  0.18208703  0.31838431  1
  O  O36  1  0.31791297  0.36560251  0.81838431  1
  O  O37  1  0.33366987  0.83718997  0.37403176  1
  O  O38  1  0.80812167  0.10614328  0.06854882  1
  O  O39  1  0.74485235  0.84343037  0.64989326  1
  O  O40  1  0.81791297  0.13439749  0.68161569  1
  O  O41  1  0.69187833  0.60614328  0.43145118  1
  O  O42  1  0.66281003  0.16633013  0.87403176  1
  O  O43  1  0.25514765  0.15656963  0.64989326  1
  O  O44  1  0.09308727  0.57133980  0.90608731  1
  O  O45  1  0.59308727  0.92866020  0.59391269  1
  O  O46  1  0.40691273  0.07133980  0.59391269  1
  O  O47  1  0.57133980  0.90691273  0.09391269  1
  O  O48  1  0.00719936  0.74083495  0.57235182  1
  O  O49  1  0.50073600  0.77897518  0.32732317  1
  O  O50  1  0.99280064  0.25916505  0.57235182  1
  O  O51  1  0.49280064  0.24083495  0.92764818  1
  O  O52  1  0.06605468  0.93902410  0.36087432  1
  O  O53  1  0.42866020  0.09308727  0.09391269  1
  O  O54  1  0.93902410  0.93394532  0.63912568  1
  O  O55  1  0.83718997  0.66633013  0.62596824  1
  O  O56  1  0.56605468  0.56097590  0.13912568  1
  O  O57  1  0.18208703  0.86560251  0.68161569  1
  O  O58  1  0.92866020  0.40691273  0.40608731  1
  O  O59  1  0.60614328  0.30812167  0.56854882  1
  O  O60  1  0.75514765  0.34343037  0.85010674  1
  O  O61  1  0.34343037  0.24485235  0.14989326  1
  O  O62  1  0.19187833  0.89385672  0.06854882  1
  O  O63  1  0.68208703  0.63439749  0.81838431  1
  O  O64  1  0.72102482  0.99926400  0.82732317  1
  O  O65  1  0.10614328  0.19187833  0.93145118  1
  O  O66  1  0.25916505  0.00719936  0.42764818  1
  O  O67  1  0.89385672  0.80812167  0.93145118  1
  O  O68  1  0.07133980  0.59308727  0.40608731  1
  O  O69  1  0.39385672  0.69187833  0.56854882  1
  O  O70  1  0.24083495  0.50719936  0.07235182  1
  O  O71  1  0.90691273  0.42866020  0.90608731  1
  O  O72  1  0.33718997  0.83366987  0.87403176  1
  O  O73  1  0.65656963  0.75514765  0.14989326  1
  O  O74  1  0.36560251  0.68208703  0.18161569  1
  O  O75  1  0.30812167  0.39385672  0.43145118  1
  O  O76  1  0.24485235  0.65656963  0.85010674  1
  O  O77  1  0.66633013  0.16281003  0.37403176  1
  O  O78  1  0.00073600  0.72102482  0.17267683  1
  O  O79  1  0.43394532  0.43902410  0.13912568  1
  O  O80  1  0.63439749  0.31791297  0.18161569  1
  O  O81  1  0.75916505  0.49280064  0.07235182  1
  O  O82  1  0.56097590  0.43394532  0.86087432  1
  O  O83  1  0.06097590  0.06605468  0.63912568  1
  O  O84  1  0.43902410  0.56605468  0.86087432  1
  O  O85  1  0.49926400  0.22102482  0.32732317  1
  O  O86  1  0.84343037  0.25514765  0.35010674  1
  O  O87  1  0.15656963  0.74485235  0.35010674  1
  O  O88  1  0.77897518  0.49926400  0.67267683  1
  O  O89  1  0.74083495  0.99280064  0.42764818  1
