# generated using pymatgen
data_Li6MnV3(PO4)6
_symmetry_space_group_name_H-M   'P 1'
_cell_length_a   8.57650335
_cell_length_b   12.05987696
_cell_length_c   8.77145912
_cell_angle_alpha   89.75593584
_cell_angle_beta   89.47651117
_cell_angle_gamma   91.11118308
_symmetry_Int_Tables_number   1
_chemical_formula_structural   Li6MnV3(PO4)6
_chemical_formula_sum   'Li12 Mn2 V6 P12 O48'
_cell_volume   907.02843025
_cell_formula_units_Z   2
loop_
 _symmetry_equiv_pos_site_id
 _symmetry_equiv_pos_as_xyz
  1  'x, y, z'
loop_
 _atom_site_type_symbol
 _atom_site_label
 _atom_site_symmetry_multiplicity
 _atom_site_fract_x
 _atom_site_fract_y
 _atom_site_fract_z
 _atom_site_occupancy
  Li  Li0  1  0.06534170  0.34748609  0.51337301  1
  Li  Li1  1  0.07922880  0.68999152  0.08649996  1
  Li  Li2  1  0.18058644  0.17807729  0.77984327  1
  Li  Li3  1  0.32006027  0.32221077  0.27918351  1
  Li  Li4  1  0.41953305  0.80927277  0.58697578  1
  Li  Li5  1  0.43454679  0.15418954  0.01145099  1
  Li  Li6  1  0.56483153  0.84655468  0.98562812  1
  Li  Li7  1  0.58055278  0.19131983  0.41400888  1
  Li  Li8  1  0.68026305  0.67760001  0.72193752  1
  Li  Li9  1  0.82024137  0.82165034  0.21975342  1
  Li  Li10  1  0.92087331  0.30964075  0.91424975  1
  Li  Li11  1  0.93473321  0.65257373  0.48700275  1
  Mn  Mn12  1  0.74701794  0.60869618  0.03545427  1
  Mn  Mn13  1  0.75239531  0.10660435  0.97143575  1
  V  V14  1  0.24409855  0.89490494  0.02776452  1
  V  V15  1  0.24503280  0.10871333  0.46479143  1
  V  V16  1  0.25501619  0.60492332  0.52829153  1
  V  V17  1  0.25547203  0.39183677  0.96588953  1
  V  V18  1  0.74535776  0.39513400  0.47220046  1
  V  V19  1  0.75550937  0.89012334  0.53531668  1
  P  P20  1  0.04210190  0.49036557  0.25001674  1
  P  P21  1  0.11360602  0.84753490  0.38288171  1
  P  P22  1  0.11436533  0.14629709  0.11169704  1
  P  P23  1  0.38582112  0.65367620  0.88186292  1
  P  P24  1  0.38519194  0.35267877  0.61019996  1
  P  P25  1  0.45902071  0.00955254  0.74750578  1
  P  P26  1  0.54242445  0.98964878  0.24948164  1
  P  P27  1  0.61431152  0.64694631  0.38905822  1
  P  P28  1  0.61478552  0.35087210  0.11722482  1
  P  P29  1  0.88310141  0.85108074  0.88971221  1
  P  P30  1  0.88518396  0.15162574  0.61907626  1
  P  P31  1  0.95949241  0.50913069  0.75126301  1
  O  O32  1  0.05074239  0.89507025  0.89141774  1
  O  O33  1  0.05032373  0.44495928  0.87156728  1
  O  O34  1  0.05531555  0.60028507  0.66529757  1
  O  O35  1  0.05752712  0.18954025  0.58062956  1
  O  O36  1  0.09973276  0.58181340  0.36188291  1
  O  O37  1  0.12223598  0.83011909  0.20624167  1
  O  O38  1  0.13882543  0.97004870  0.42053427  1
  O  O39  1  0.12873314  0.24517302  0.99384603  1
  O  O40  1  0.17428595  0.18704793  0.26909715  1
  O  O41  1  0.18676045  0.43281247  0.17884736  1
  O  O42  1  0.22965965  0.77603476  0.47127072  1
  O  O43  1  0.23626289  0.06098281  0.05058177  1
  O  O44  1  0.26478802  0.43756723  0.54967120  1
  O  O45  1  0.26855814  0.72527632  0.97156244  1
  O  O46  1  0.31357724  0.06490883  0.67559807  1
  O  O47  1  0.32758525  0.31237945  0.76938615  1
  O  O48  1  0.36127312  0.53116163  0.92133454  1
  O  O49  1  0.37253953  0.25376339  0.49332805  1
  O  O50  1  0.37396677  0.66985175  0.70504022  1
  O  O51  1  0.40137429  0.91739819  0.85971415  1
  O  O52  1  0.44614230  0.90030922  0.16492866  1
  O  O53  1  0.44311546  0.31307258  0.07863913  1
  O  O54  1  0.44713380  0.60255820  0.39046257  1
  O  O55  1  0.45077225  0.05611150  0.36821481  1
  O  O56  1  0.55067665  0.94559235  0.62596592  1
  O  O57  1  0.55266127  0.39714974  0.60953059  1
  O  O58  1  0.55632191  0.69251244  0.91769988  1
  O  O59  1  0.55199499  0.10180736  0.83045177  1
  O  O60  1  0.60197212  0.08373076  0.13683674  1
  O  O61  1  0.62450234  0.33137624  0.29377912  1
  O  O62  1  0.62770610  0.74564552  0.50649042  1
  O  O63  1  0.63615592  0.47477355  0.08142125  1
  O  O64  1  0.67228481  0.68857085  0.23032974  1
  O  O65  1  0.68574501  0.93402442  0.32205344  1
  O  O66  1  0.73119625  0.28019395  0.02743769  1
  O  O67  1  0.73499737  0.56187068  0.44925799  1
  O  O68  1  0.76176733  0.93408400  0.95153273  1
  O  O69  1  0.76996884  0.22410985  0.53085893  1
  O  O70  1  0.81305466  0.56494319  0.82150601  1
  O  O71  1  0.82906191  0.81141914  0.73011735  1
  O  O72  1  0.87154587  0.74976002  0.00660715  1
  O  O73  1  0.86064378  0.02961196  0.57956355  1
  O  O74  1  0.87690207  0.16703381  0.79765485  1
  O  O75  1  0.90178480  0.41760381  0.63922521  1
  O  O76  1  0.94099660  0.81048592  0.42251109  1
  O  O77  1  0.94534798  0.39940495  0.33552400  1
  O  O78  1  0.95348894  0.55443245  0.12901078  1
  O  O79  1  0.94789370  0.10070471  0.11450832  1
