# generated using pymatgen
data_Li3Mn2P2(CO7)2
_symmetry_space_group_name_H-M   'P 1'
_cell_length_a   9.55762530
_cell_length_b   8.20413078
_cell_length_c   8.23713051
_cell_angle_alpha   76.04872352
_cell_angle_beta   72.51622902
_cell_angle_gamma   106.43297468
_symmetry_Int_Tables_number   1
_chemical_formula_structural   Li3Mn2P2(CO7)2
_chemical_formula_sum   'Li6 Mn4 P4 C4 O28'
_cell_volume   552.07528713
_cell_formula_units_Z   2
loop_
 _symmetry_equiv_pos_site_id
 _symmetry_equiv_pos_as_xyz
  1  'x, y, z'
loop_
 _atom_site_type_symbol
 _atom_site_label
 _atom_site_symmetry_multiplicity
 _atom_site_fract_x
 _atom_site_fract_y
 _atom_site_fract_z
 _atom_site_occupancy
  Li  Li0  1  0.73551182  0.77985124  0.27100208  1
  Li  Li1  1  0.75699655  0.50919301  0.98440005  1
  Li  Li2  1  0.77555169  0.27025757  0.72300015  1
  Li  Li3  1  0.27273831  0.53223135  0.03639141  1
  Li  Li4  1  0.23380942  0.22100119  0.77698412  1
  Li  Li5  1  0.22062753  0.97187118  0.51923656  1
  Mn  Mn6  1  0.66211185  0.30612511  0.43839493  1
  Mn  Mn7  1  0.66339042  0.81625254  0.93088623  1
  Mn  Mn8  1  0.33345839  0.18238134  0.06830441  1
  Mn  Mn9  1  0.34201991  0.69174221  0.55484651  1
  P  P10  1  0.58066159  0.05930320  0.20210862  1
  P  P11  1  0.57329689  0.53891106  0.69856936  1
  P  P12  1  0.42090012  0.94477818  0.79519646  1
  P  P13  1  0.42687073  0.45579399  0.30346525  1
  C  C14  1  0.94283456  0.48607604  0.25371510  1
  C  C15  1  0.94734087  0.99570065  0.76437999  1
  C  C16  1  0.05174871  0.00288741  0.24377289  1
  C  C17  1  0.05742680  0.51865493  0.73404350  1
  O  O18  1  0.88238170  0.83490798  0.89631683  1
  O  O19  1  0.88648724  0.34696777  0.40698736  1
  O  O20  1  0.91048542  0.89987895  0.32303748  1
  O  O21  1  0.82371235  0.52458705  0.22390514  1
  O  O22  1  0.91112810  0.42859275  0.82315921  1
  O  O23  1  0.84026432  0.05390361  0.73437528  1
  O  O24  1  0.67508731  0.95806469  0.11670555  1
  O  O25  1  0.67319097  0.44336756  0.60103015  1
  O  O26  1  0.66905107  0.62964301  0.79361031  1
  O  O27  1  0.68571426  0.17666860  0.27583149  1
  O  O28  1  0.59274986  0.59791226  0.16330882  1
  O  O29  1  0.54599880  0.67602123  0.55254710  1
  O  O30  1  0.54601669  0.18829517  0.05918315  1
  O  O31  1  0.58608856  0.08898204  0.65337420  1
  O  O32  1  0.41747778  0.92461036  0.35635574  1
  O  O33  1  0.45518136  0.80348550  0.92705429  1
  O  O34  1  0.45575610  0.31108136  0.44041810  1
  O  O35  1  0.40538506  0.39996525  0.83776683  1
  O  O36  1  0.32180453  0.84128256  0.70598085  1
  O  O37  1  0.32641527  0.54434047  0.40869871  1
  O  O38  1  0.32922469  0.36885462  0.20776713  1
  O  O39  1  0.31917157  0.03281459  0.89256707  1
  O  O40  1  0.16525190  0.98491698  0.29887218  1
  O  O41  1  0.08343460  0.56837183  0.14802474  1
  O  O42  1  0.16940876  0.47145566  0.76874830  1
  O  O43  1  0.09494782  0.07922488  0.67865317  1
  O  O44  1  0.11287346  0.14503684  0.08948079  1
  O  O45  1  0.11801728  0.66994022  0.59372642  1
