# generated using pymatgen
data_K2FeO4
_symmetry_space_group_name_H-M   'P 1'
_cell_length_a   5.99232060
_cell_length_b   8.62812674
_cell_length_c   11.77559657
_cell_angle_alpha   90.00000000
_cell_angle_beta   121.06385700
_cell_angle_gamma   90.00000000
_symmetry_Int_Tables_number   1
_chemical_formula_structural   K2FeO4
_chemical_formula_sum   'K8 Fe4 O16'
_cell_volume   521.51747994
_cell_formula_units_Z   4
loop_
 _symmetry_equiv_pos_site_id
 _symmetry_equiv_pos_as_xyz
  1  'x, y, z'
loop_
 _atom_site_type_symbol
 _atom_site_label
 _atom_site_symmetry_multiplicity
 _atom_site_fract_x
 _atom_site_fract_y
 _atom_site_fract_z
 _atom_site_occupancy
  K  K0  1  0.21572024  0.71502206  0.90670602  1
  K  K1  1  0.43130567  0.49112488  0.70973503  1
  K  K2  1  0.21572024  0.78497794  0.40670602  1
  K  K3  1  0.56869433  0.99112488  0.79026497  1
  K  K4  1  0.43130567  0.00887512  0.20973503  1
  K  K5  1  0.78427976  0.21502206  0.59329398  1
  K  K6  1  0.56869433  0.50887512  0.29026497  1
  K  K7  1  0.78427976  0.28497794  0.09329398  1
  Fe  Fe8  1  0.12432088  0.27181314  0.93515706  1
  Fe  Fe9  1  0.12432088  0.22818686  0.43515706  1
  Fe  Fe10  1  0.87567912  0.77181314  0.56484294  1
  Fe  Fe11  1  0.87567912  0.72818686  0.06484294  1
  O  O12  1  0.21518758  0.09743709  0.91440916  1
  O  O13  1  0.23588448  0.40591718  0.87600055  1
  O  O14  1  0.24857065  0.20236651  0.59707730  1
  O  O15  1  0.20002479  0.77757267  0.64262156  1
  O  O16  1  0.21518758  0.40256291  0.41440916  1
  O  O17  1  0.23588448  0.09408282  0.37600055  1
  O  O18  1  0.79997521  0.27757267  0.85737844  1
  O  O19  1  0.75142935  0.70236651  0.90292270  1
  O  O20  1  0.24857065  0.29763349  0.09707730  1
  O  O21  1  0.20002479  0.72242733  0.14262156  1
  O  O22  1  0.76411552  0.90591718  0.62399945  1
  O  O23  1  0.78481242  0.59743709  0.58559084  1
  O  O24  1  0.79997521  0.22242733  0.35737844  1
  O  O25  1  0.75142935  0.79763349  0.40292270  1
  O  O26  1  0.76411552  0.59408282  0.12399945  1
  O  O27  1  0.78481242  0.90256291  0.08559084  1
