# generated using pymatgen
data_Li2MnF4
_symmetry_space_group_name_H-M   'P 1'
_cell_length_a   5.97239409
_cell_length_b   5.38579425
_cell_length_c   6.16360089
_cell_angle_alpha   90.00000000
_cell_angle_beta   125.92343401
_cell_angle_gamma   90.00000000
_symmetry_Int_Tables_number   1
_chemical_formula_structural   Li2MnF4
_chemical_formula_sum   'Li4 Mn2 F8'
_cell_volume   160.55041537
_cell_formula_units_Z   2
loop_
 _symmetry_equiv_pos_site_id
 _symmetry_equiv_pos_as_xyz
  1  'x, y, z'
loop_
 _atom_site_type_symbol
 _atom_site_label
 _atom_site_symmetry_multiplicity
 _atom_site_fract_x
 _atom_site_fract_y
 _atom_site_fract_z
 _atom_site_occupancy
  Li  Li0  1  0.97457180  0.20961366  0.62761822  1
  Li  Li1  1  0.47446782  0.64253450  0.12745303  1
  Li  Li2  1  0.52553218  0.14253450  0.87254697  1
  Li  Li3  1  0.02542820  0.70961366  0.37238178  1
  Mn  Mn4  1  0.25116927  0.17519212  0.25066708  1
  Mn  Mn5  1  0.74883073  0.67519212  0.74933292  1
  F  F6  1  0.15203325  0.83323616  0.02619966  1
  F  F7  1  0.18064563  0.02699875  0.52958793  1
  F  F8  1  0.34677593  0.51220231  0.48102619  1
  F  F9  1  0.32144529  0.32334250  0.97204863  1
  F  F10  1  0.67855471  0.82334250  0.02795137  1
  F  F11  1  0.65322407  0.01220231  0.51897381  1
  F  F12  1  0.81935437  0.52699875  0.47041207  1
  F  F13  1  0.84796675  0.33323616  0.97380034  1
