# generated using pymatgen
data_Li2VF6
_symmetry_space_group_name_H-M   'P 1'
_cell_length_a   8.59770545
_cell_length_b   8.63922079
_cell_length_c   10.25748250
_cell_angle_alpha   84.47357133
_cell_angle_beta   95.84528589
_cell_angle_gamma   119.01505964
_symmetry_Int_Tables_number   1
_chemical_formula_structural   Li2VF6
_chemical_formula_sum   'Li12 V6 F36'
_cell_volume   661.84707157
_cell_formula_units_Z   6
loop_
 _symmetry_equiv_pos_site_id
 _symmetry_equiv_pos_as_xyz
  1  'x, y, z'
loop_
 _atom_site_type_symbol
 _atom_site_label
 _atom_site_symmetry_multiplicity
 _atom_site_fract_x
 _atom_site_fract_y
 _atom_site_fract_z
 _atom_site_occupancy
  Li  Li0  1  0.06091299  0.66590945  0.92488783  1
  Li  Li1  1  0.12328516  0.45717311  0.45713301  1
  Li  Li2  1  0.54062924  0.86328970  0.94998178  1
  Li  Li3  1  0.33788001  0.37779937  0.97119385  1
  Li  Li4  1  0.37014960  0.33056697  0.52537063  1
  Li  Li5  1  0.71348635  0.99459071  0.22816458  1
  Li  Li6  1  0.79970523  0.80271521  0.74520832  1
  Li  Li7  1  0.45314950  0.11953414  0.04475053  1
  Li  Li8  1  0.87072303  0.55133667  0.54750901  1
  Li  Li9  1  0.65200377  0.05372818  0.56594775  1
  Li  Li10  1  0.00169220  0.72262849  0.28104072  1
  Li  Li11  1  0.94143593  0.34331323  0.06874567  1
  V  V12  1  0.00954817  0.00310055  0.50097192  1
  V  V13  1  0.33437498  0.66365504  0.70325199  1
  V  V14  1  0.99965250  0.00400512  0.99927942  1
  V  V15  1  0.33535161  0.66036511  0.20931285  1
  V  V16  1  0.65988218  0.33087869  0.79465954  1
  V  V17  1  0.65828511  0.33336439  0.29433557  1
  F  F18  1  0.05531599  0.91849369  0.66102391  1
  F  F19  1  0.05995966  0.91881472  0.15496802  1
  F  F20  1  0.10850442  0.58172879  0.60928945  1
  F  F21  1  0.11307935  0.58631848  0.10445698  1
  F  F22  1  0.27286429  0.75637417  0.84144508  1
  F  F23  1  0.22646237  0.72351034  0.32945571  1
  F  F24  1  0.09327209  0.23805632  0.55162762  1
  F  F25  1  0.41922615  0.87857583  0.61383615  1
  F  F26  1  0.25856348  0.45706582  0.80591149  1
  F  F27  1  0.08469926  0.23888767  0.05235828  1
  F  F28  1  0.42810789  0.88902986  0.10977914  1
  F  F29  1  0.24579566  0.44335086  0.30453637  1
  F  F30  1  0.39323368  0.56133496  0.57396848  1
  F  F31  1  0.23573037  0.09217242  0.94925356  1
  F  F32  1  0.56521440  0.75437260  0.79890395  1
  F  F33  1  0.40943275  0.58672110  0.07212153  1
  F  F34  1  0.23717729  0.09069018  0.44592212  1
  F  F35  1  0.54893100  0.75765546  0.30172982  1
  F  F36  1  0.45205467  0.25701407  0.69630461  1
  F  F37  1  0.77700488  0.92429841  0.57064647  1
  F  F38  1  0.56392066  0.39436919  0.92536488  1
  F  F39  1  0.44723376  0.25180353  0.18949880  1
  F  F40  1  0.76953978  0.93555895  0.06451144  1
  F  F41  1  0.58619938  0.41220592  0.42833512  1
  F  F42  1  0.75884860  0.56046793  0.70368864  1
  F  F43  1  0.58671289  0.11193447  0.89439462  1
  F  F44  1  0.92129944  0.77734024  0.92797445  1
  F  F45  1  0.76112855  0.54493788  0.20011417  1
  F  F46  1  0.60246060  0.12115857  0.38658445  1
  F  F47  1  0.93189277  0.77067634  0.43663569  1
  F  F48  1  0.75221083  0.26444625  0.66288093  1
  F  F49  1  0.73648650  0.23113228  0.16554445  1
  F  F50  1  0.88109988  0.41826922  0.89531989  1
  F  F51  1  0.89061588  0.43106407  0.39268293  1
  F  F52  1  0.91861803  0.05725259  0.84076308  1
  F  F53  1  0.91882024  0.06144071  0.34435772  1
