# generated using pymatgen
data_Li2VF6
_symmetry_space_group_name_H-M   'P 1'
_cell_length_a   8.69137799
_cell_length_b   8.72065650
_cell_length_c   10.25374746
_cell_angle_alpha   83.86202555
_cell_angle_beta   96.26484865
_cell_angle_gamma   119.58333537
_symmetry_Int_Tables_number   1
_chemical_formula_structural   Li2VF6
_chemical_formula_sum   'Li12 V6 F36'
_cell_volume   670.56139124
_cell_formula_units_Z   6
loop_
 _symmetry_equiv_pos_site_id
 _symmetry_equiv_pos_as_xyz
  1  'x, y, z'
loop_
 _atom_site_type_symbol
 _atom_site_label
 _atom_site_symmetry_multiplicity
 _atom_site_fract_x
 _atom_site_fract_y
 _atom_site_fract_z
 _atom_site_occupancy
  Li  Li0  1  0.06372066  0.66707326  0.93007782  1
  Li  Li1  1  0.34092902  0.94088998  0.43171391  1
  Li  Li2  1  0.11743669  0.44844536  0.45571624  1
  Li  Li3  1  0.55301956  0.86855932  0.95822698  1
  Li  Li4  1  0.33544639  0.37126985  0.97516108  1
  Li  Li5  1  0.37480778  0.33645891  0.52458754  1
  Li  Li6  1  0.80695009  0.80534276  0.74841602  1
  Li  Li7  1  0.45448313  0.11602963  0.04560104  1
  Li  Li8  1  0.86537357  0.54895314  0.54665335  1
  Li  Li9  1  0.67013297  0.06211416  0.57371646  1
  Li  Li10  1  0.99090286  0.71638705  0.27411233  1
  Li  Li11  1  0.93908688  0.33243482  0.07681805  1
  V  V12  1  0.00381699  0.00149665  0.49648570  1
  V  V13  1  0.33337579  0.66016596  0.70437233  1
  V  V14  1  0.99918703  0.00342999  0.99898016  1
  V  V15  1  0.33986726  0.66494567  0.20707077  1
  V  V16  1  0.66108947  0.33320055  0.79652321  1
  V  V17  1  0.65863863  0.33313331  0.29270127  1
  F  F18  1  0.05377303  0.91801878  0.65757753  1
  F  F19  1  0.06023295  0.91712066  0.15606916  1
  F  F20  1  0.11322461  0.58642059  0.60433266  1
  F  F21  1  0.10981174  0.58225804  0.11032689  1
  F  F22  1  0.26735593  0.75225229  0.83431813  1
  F  F23  1  0.23170247  0.74148286  0.32804982  1
  F  F24  1  0.09760628  0.23645781  0.54890573  1
  F  F25  1  0.42138240  0.87878123  0.60245732  1
  F  F26  1  0.26067757  0.45638728  0.80568314  1
  F  F27  1  0.08329883  0.23765617  0.04941494  1
  F  F28  1  0.41370577  0.88062522  0.09933942  1
  F  F29  1  0.24150812  0.44848671  0.30685787  1
  F  F30  1  0.39233358  0.56105443  0.57610338  1
  F  F31  1  0.23918435  0.09751437  0.95398791  1
  F  F32  1  0.56317298  0.76146364  0.79612567  1
  F  F33  1  0.40870048  0.58602918  0.07259544  1
  F  F34  1  0.24116179  0.08403464  0.44992602  1
  F  F35  1  0.54110828  0.75251456  0.30415174  1
  F  F36  1  0.45651872  0.26055023  0.69408748  1
  F  F37  1  0.77896722  0.92487389  0.57037457  1
  F  F38  1  0.56184398  0.39288080  0.92376662  1
  F  F39  1  0.44352319  0.24426829  0.19333186  1
  F  F40  1  0.77352484  0.92959183  0.05547123  1
  F  F41  1  0.58782519  0.41141546  0.42845186  1
  F  F42  1  0.76023618  0.56242054  0.70452408  1
  F  F43  1  0.58735489  0.11334093  0.89399464  1
  F  F44  1  0.92719119  0.77925289  0.92736250  1
  F  F45  1  0.75324356  0.54825137  0.20461010  1
  F  F46  1  0.58514256  0.11799901  0.39573820  1
  F  F47  1  0.93833685  0.77090023  0.43532351  1
  F  F48  1  0.75350791  0.26977027  0.66366941  1
  F  F49  1  0.73115028  0.24514807  0.16397632  1
  F  F50  1  0.87959788  0.41962662  0.89815957  1
  F  F51  1  0.88852115  0.42658058  0.39264795  1
  F  F52  1  0.92755818  0.05719929  0.83593665  1
  F  F53  1  0.92269529  0.06066990  0.34345645  1
