# generated using pymatgen
data_CeSiPd2
_symmetry_space_group_name_H-M   'P 1'
_cell_length_a   7.69892399
_cell_length_b   6.87625255
_cell_length_c   5.62162063
_cell_angle_alpha   90.00000000
_cell_angle_beta   90.00000000
_cell_angle_gamma   90.00000000
_symmetry_Int_Tables_number   1
_chemical_formula_structural   CeSiPd2
_chemical_formula_sum   'Ce4 Si4 Pd8'
_cell_volume   297.60716668
_cell_formula_units_Z   4
loop_
 _symmetry_equiv_pos_site_id
 _symmetry_equiv_pos_as_xyz
  1  'x, y, z'
loop_
 _atom_site_type_symbol
 _atom_site_label
 _atom_site_symmetry_multiplicity
 _atom_site_fract_x
 _atom_site_fract_y
 _atom_site_fract_z
 _atom_site_occupancy
  Ce  Ce0  1  0.53336377  0.25000000  0.85347125  1
  Ce  Ce1  1  0.03336377  0.25000000  0.64652875  1
  Ce  Ce2  1  0.46663623  0.75000000  0.14652875  1
  Ce  Ce3  1  0.96663623  0.75000000  0.35347125  1
  Si  Si4  1  0.87793389  0.25000000  0.15384501  1
  Si  Si5  1  0.37793389  0.25000000  0.34615499  1
  Si  Si6  1  0.12206611  0.75000000  0.84615499  1
  Si  Si7  1  0.62206611  0.75000000  0.65384501  1
  Pd  Pd8  1  0.67549128  0.05000717  0.40625387  1
  Pd  Pd9  1  0.17549128  0.44999283  0.09374613  1
  Pd  Pd10  1  0.32450872  0.55000717  0.59374613  1
  Pd  Pd11  1  0.82450872  0.94999283  0.90625387  1
  Pd  Pd12  1  0.32450872  0.94999283  0.59374613  1
  Pd  Pd13  1  0.82450872  0.55000717  0.90625387  1
  Pd  Pd14  1  0.67549128  0.44999283  0.40625387  1
  Pd  Pd15  1  0.17549128  0.05000717  0.09374613  1
