# generated using pymatgen
data_CsVH12(C2O7)2
_symmetry_space_group_name_H-M   'P 1'
_cell_length_a   6.03374599
_cell_length_b   6.03374599
_cell_length_c   10.36406330
_cell_angle_alpha   80.83016397
_cell_angle_beta   99.16983603
_cell_angle_gamma   102.03210246
_symmetry_Int_Tables_number   1
_chemical_formula_structural   CsVH12(C2O7)2
_chemical_formula_sum   'Cs1 V1 H12 C4 O14'
_cell_volume   361.18736228
_cell_formula_units_Z   1
loop_
 _symmetry_equiv_pos_site_id
 _symmetry_equiv_pos_as_xyz
  1  'x, y, z'
loop_
 _atom_site_type_symbol
 _atom_site_label
 _atom_site_symmetry_multiplicity
 _atom_site_fract_x
 _atom_site_fract_y
 _atom_site_fract_z
 _atom_site_occupancy
  Cs  Cs0  1  -0.00000000  0.00000000  -0.00000000  1
  V  V1  1  0.50000000  0.50000000  0.50000000  1
  H  H2  1  0.70389554  0.29610446  0.35213378  1
  H  H3  1  0.29610446  0.70389554  0.64786622  1
  H  H4  1  0.78940654  0.21059346  0.51547831  1
  H  H5  1  0.21059346  0.78940654  0.48452169  1
  H  H6  1  0.83634221  0.37458646  0.16360607  1
  H  H7  1  0.62541354  0.16365779  0.16360607  1
  H  H8  1  0.16365779  0.62541354  0.83639393  1
  H  H9  1  0.37458646  0.83634221  0.83639393  1
  H  H10  1  0.09844390  0.11123882  0.65422416  1
  H  H11  1  0.88876118  0.90155610  0.65422416  1
  H  H12  1  0.90155610  0.88876118  0.34577584  1
  H  H13  1  0.11123882  0.09844390  0.34577584  1
  C  C14  1  0.73488359  0.47053466  0.76116190  1
  C  C15  1  0.52946534  0.26511641  0.76116190  1
  C  C16  1  0.26511641  0.52946534  0.23883810  1
  C  C17  1  0.47053466  0.73488359  0.23883810  1
  O  O18  1  0.69504815  0.30495185  0.44918575  1
  O  O19  1  0.30495185  0.69504815  0.55081425  1
  O  O20  1  0.74466592  0.60387755  0.64994212  1
  O  O21  1  0.39612245  0.25533408  0.64994212  1
  O  O22  1  0.25533408  0.39612245  0.35005788  1
  O  O23  1  0.60387755  0.74466592  0.35005788  1
  O  O24  1  0.87497056  0.49519644  0.86215495  1
  O  O25  1  0.50480356  0.12502944  0.86215495  1
  O  O26  1  0.12502944  0.50480356  0.13784505  1
  O  O27  1  0.49519644  0.87497056  0.13784505  1
  O  O28  1  0.68843895  0.31156105  0.19782975  1
  O  O29  1  0.31156105  0.68843895  0.80217025  1
  O  O30  1  0.93048712  0.06951288  0.65173991  1
  O  O31  1  0.06951288  0.93048712  0.34826009  1
