# generated using pymatgen
data_BaSrI4
_symmetry_space_group_name_H-M   'P 1'
_cell_length_a   8.22801313
_cell_length_b   8.22801313
_cell_length_c   10.05875626
_cell_angle_alpha   65.85812266
_cell_angle_beta   65.85812266
_cell_angle_gamma   90.00000000
_symmetry_Int_Tables_number   1
_chemical_formula_structural   BaSrI4
_chemical_formula_sum   'Ba2 Sr2 I8'
_cell_volume   555.50676131
_cell_formula_units_Z   2
loop_
 _symmetry_equiv_pos_site_id
 _symmetry_equiv_pos_as_xyz
  1  'x, y, z'
loop_
 _atom_site_type_symbol
 _atom_site_label
 _atom_site_symmetry_multiplicity
 _atom_site_fract_x
 _atom_site_fract_y
 _atom_site_fract_z
 _atom_site_occupancy
  Ba  Ba0  1  0.12500000  0.37500000  0.25000000  1
  Ba  Ba1  1  0.87500000  0.62500000  0.75000000  1
  Sr  Sr2  1  0.37500000  0.12500000  0.75000000  1
  Sr  Sr3  1  0.62500000  0.87500000  0.25000000  1
  I  I4  1  0.99654983  0.23498821  0.01145376  1
  I  I5  1  0.26501179  0.00800360  0.48854624  1
  I  I6  1  0.74644198  0.50345017  0.48854624  1
  I  I7  1  0.50800360  0.24644198  0.98854624  1
  I  I8  1  0.49199640  0.75355802  0.01145376  1
  I  I9  1  0.25355802  0.49654983  0.51145376  1
  I  I10  1  0.73498821  0.99199640  0.51145376  1
  I  I11  1  0.00345017  0.76501179  0.98854624  1
