# generated using pymatgen
data_Fe10OF19
_symmetry_space_group_name_H-M   'P 1'
_cell_length_a   4.79219054
_cell_length_b   8.16531641
_cell_length_c   10.13370294
_cell_angle_alpha   106.91121282
_cell_angle_beta   89.47798387
_cell_angle_gamma   90.31925758
_symmetry_Int_Tables_number   1
_chemical_formula_structural   Fe10OF19
_chemical_formula_sum   'Fe10 O1 F19'
_cell_volume   379.36452417
_cell_formula_units_Z   1
loop_
 _symmetry_equiv_pos_site_id
 _symmetry_equiv_pos_as_xyz
  1  'x, y, z'
loop_
 _atom_site_type_symbol
 _atom_site_label
 _atom_site_symmetry_multiplicity
 _atom_site_fract_x
 _atom_site_fract_y
 _atom_site_fract_z
 _atom_site_occupancy
  Fe  Fe0  1  0.50056653  0.30045148  0.90045726  1
  Fe  Fe1  1  0.50137559  0.09944710  0.30063736  1
  Fe  Fe2  1  0.52267199  0.90522175  0.68910798  1
  Fe  Fe3  1  0.49861975  0.70019822  0.10124863  1
  Fe  Fe4  1  0.49733901  0.49863263  0.50012550  1
  Fe  Fe5  1  0.00546711  0.60163354  0.79907634  1
  Fe  Fe6  1  0.98527817  0.19061643  0.60049010  1
  Fe  Fe7  1  0.98530275  0.80500098  0.40748217  1
  Fe  Fe8  1  0.00044817  0.40121934  0.20078244  1
  Fe  Fe9  1  0.00436395  0.99822226  0.99865657  1
  O  O10  1  0.79380311  0.95854288  0.58307747  1
  F  F11  1  0.80242004  0.75972156  0.97819666  1
  F  F12  1  0.79922847  0.55916751  0.38089892  1
  F  F13  1  0.80033063  0.36239920  0.78152364  1
  F  F14  1  0.80079082  0.15963749  0.17775572  1
  F  F15  1  0.69196509  0.05094687  0.87589519  1
  F  F16  1  0.69168886  0.66891334  0.68503991  1
  F  F17  1  0.69992341  0.45963596  0.07950065  1
  F  F18  1  0.70001634  0.85941638  0.27662827  1
  F  F19  1  0.69947112  0.26337036  0.47895986  1
  F  F20  1  0.30467300  0.13095863  0.72090282  1
  F  F21  1  0.30454664  0.74508209  0.52807710  1
  F  F22  1  0.30052456  0.34015620  0.31942627  1
  F  F23  1  0.30080729  0.93986468  0.11904087  1
  F  F24  1  0.30077465  0.53992781  0.92009251  1
  F  F25  1  0.19695479  0.43756741  0.62055918  1
  F  F26  1  0.20113579  0.04041264  0.41951563  1
  F  F27  1  0.21390096  0.84247251  0.81461164  1
  F  F28  1  0.19829950  0.23902763  0.01888321  1
  F  F29  1  0.19731191  0.64213410  0.22334912  1
