# generated using pymatgen
data_Tl2SO3
_symmetry_space_group_name_H-M   'P 1'
_cell_length_a   6.04467611
_cell_length_b   8.25059787
_cell_length_c   10.14903522
_cell_angle_alpha   90.00000000
_cell_angle_beta   85.66800667
_cell_angle_gamma   90.00000000
_symmetry_Int_Tables_number   1
_chemical_formula_structural   Tl2SO3
_chemical_formula_sum   'Tl8 S4 O12'
_cell_volume   504.70860370
_cell_formula_units_Z   4
loop_
 _symmetry_equiv_pos_site_id
 _symmetry_equiv_pos_as_xyz
  1  'x, y, z'
loop_
 _atom_site_type_symbol
 _atom_site_label
 _atom_site_symmetry_multiplicity
 _atom_site_fract_x
 _atom_site_fract_y
 _atom_site_fract_z
 _atom_site_occupancy
  Tl  Tl0  1  0.24313698  0.02938538  0.70197098  1
  Tl  Tl1  1  0.25587653  0.18397351  0.07242169  1
  Tl  Tl2  1  0.25686302  0.52938538  0.79802902  1
  Tl  Tl3  1  0.24412347  0.68397351  0.42757831  1
  Tl  Tl4  1  0.75587653  0.31602649  0.57242169  1
  Tl  Tl5  1  0.74313698  0.47061462  0.20197098  1
  Tl  Tl6  1  0.74412347  0.81602649  0.92757831  1
  Tl  Tl7  1  0.75686302  0.97061462  0.29802902  1
  S  S8  1  0.24232161  0.70780636  0.10093198  1
  S  S9  1  0.25767839  0.20780636  0.39906802  1
  S  S10  1  0.75767839  0.29219364  0.89906802  1
  S  S11  1  0.74232161  0.79219364  0.60093198  1
  O  O12  1  0.03102465  0.24015306  0.34322712  1
  O  O13  1  0.23789298  0.52604676  0.06765448  1
  O  O14  1  0.25047441  0.79705531  0.96666618  1
  O  O15  1  0.26210702  0.02604676  0.43234552  1
  O  O16  1  0.24952559  0.29705531  0.53333382  1
  O  O17  1  0.46897535  0.74015306  0.15677288  1
  O  O18  1  0.53102465  0.25984694  0.84322712  1
  O  O19  1  0.74952559  0.20294469  0.03333382  1
  O  O20  1  0.76210702  0.47395324  0.93234552  1
  O  O21  1  0.75047441  0.70294469  0.46666618  1
  O  O22  1  0.73789298  0.97395324  0.56765448  1
  O  O23  1  0.96897535  0.75984694  0.65677288  1
