# generated using pymatgen
data_CoCuP2O7
_symmetry_space_group_name_H-M   'P 1'
_cell_length_a   4.58536665
_cell_length_b   5.39790434
_cell_length_c   5.39108616
_cell_angle_alpha   100.90532391
_cell_angle_beta   101.14792590
_cell_angle_gamma   101.34357595
_symmetry_Int_Tables_number   1
_chemical_formula_structural   CoCuP2O7
_chemical_formula_sum   'Co1 Cu1 P2 O7'
_cell_volume   124.72949308
_cell_formula_units_Z   1
loop_
 _symmetry_equiv_pos_site_id
 _symmetry_equiv_pos_as_xyz
  1  'x, y, z'
loop_
 _atom_site_type_symbol
 _atom_site_label
 _atom_site_symmetry_multiplicity
 _atom_site_fract_x
 _atom_site_fract_y
 _atom_site_fract_z
 _atom_site_occupancy
  Co  Co0  1  0.72290284  0.09736265  0.28934408  1
  Cu  Cu1  1  0.72473073  0.47654949  0.91486168  1
  P  P2  1  0.31665956  0.58436018  0.39949301  1
  P  P3  1  0.13043828  0.99322358  0.80680801  1
  O  O4  1  0.49532351  0.42514939  0.55109949  1
  O  O5  1  0.94629128  0.14826776  0.66003392  1
  O  O6  1  0.50134125  0.73008613  0.24375268  1
  O  O7  1  0.00822248  0.40999149  0.22394675  1
  O  O8  1  0.44003034  0.16775920  0.97992795  1
  O  O9  1  0.95167475  0.84282940  0.96731397  1
  O  O10  1  0.22248497  0.79152072  0.59961847  1
