# generated using pymatgen
data_BaSrI4
_symmetry_space_group_name_H-M   'P 1'
_cell_length_a   8.21246708
_cell_length_b   10.08968652
_cell_length_c   8.21246708
_cell_angle_alpha   65.98515325
_cell_angle_beta   90.00000000
_cell_angle_gamma   114.01484675
_symmetry_Int_Tables_number   1
_chemical_formula_structural   BaSrI4
_chemical_formula_sum   'Ba2 Sr2 I8'
_cell_volume   556.48742476
_cell_formula_units_Z   2
loop_
 _symmetry_equiv_pos_site_id
 _symmetry_equiv_pos_as_xyz
  1  'x, y, z'
loop_
 _atom_site_type_symbol
 _atom_site_label
 _atom_site_symmetry_multiplicity
 _atom_site_fract_x
 _atom_site_fract_y
 _atom_site_fract_z
 _atom_site_occupancy
  Ba  Ba0  1  0.50000000  0.00000000  0.00000000  1
  Ba  Ba1  1  0.00000000  0.00000000  0.50000000  1
  Sr  Sr2  1  0.75000000  0.50000000  0.25000000  1
  Sr  Sr3  1  0.25000000  0.50000000  0.75000000  1
  I  I4  1  0.88132479  0.25794509  0.12337970  1
  I  I5  1  0.38132479  0.25794509  0.11867521  1
  I  I6  1  0.62337970  0.74205491  0.38132479  1
  I  I7  1  0.87662030  0.25794509  0.62337970  1
  I  I8  1  0.12337970  0.74205491  0.37662030  1
  I  I9  1  0.37662030  0.25794509  0.61867521  1
  I  I10  1  0.61867521  0.74205491  0.88132479  1
  I  I11  1  0.11867521  0.74205491  0.87662030  1
