# generated using pymatgen
data_Cs2(B2O3)9
_symmetry_space_group_name_H-M   'P 1'
_cell_length_a   8.89378828
_cell_length_b   8.89040235
_cell_length_c   15.39216796
_cell_angle_alpha   90.00000000
_cell_angle_beta   90.00000000
_cell_angle_gamma   86.70549439
_symmetry_Int_Tables_number   1
_chemical_formula_structural   Cs2(B2O3)9
_chemical_formula_sum   'Cs4 B36 O54'
_cell_volume   1215.03743397
_cell_formula_units_Z   2
loop_
 _symmetry_equiv_pos_site_id
 _symmetry_equiv_pos_as_xyz
  1  'x, y, z'
loop_
 _atom_site_type_symbol
 _atom_site_label
 _atom_site_symmetry_multiplicity
 _atom_site_fract_x
 _atom_site_fract_y
 _atom_site_fract_z
 _atom_site_occupancy
  Cs  Cs0  1  0.99468583  0.48417913  0.00690701  1
  Cs  Cs1  1  0.00531417  0.51582087  0.50690701  1
  Cs  Cs2  1  0.48407932  0.99484864  0.74247204  1
  Cs  Cs3  1  0.51592068  0.00515136  0.24247204  1
  B  B4  1  0.08245256  0.15934128  0.82650268  1
  B  B5  1  0.03611322  0.83544858  0.68944177  1
  B  B6  1  0.14746515  0.31720631  0.70429343  1
  B  B7  1  0.11843354  0.68166722  0.81009085  1
  B  B8  1  0.14858894  0.28404532  0.27654955  1
  B  B9  1  0.11498753  0.73528935  0.22906388  1
  B  B10  1  0.15938596  0.08218635  0.92335494  1
  B  B11  1  0.16454261  0.96252267  0.55977032  1
  B  B12  1  0.28447621  0.14789348  0.47344619  1
  B  B13  1  0.26462970  0.88449788  0.02076748  1
  B  B14  1  0.31677659  0.14698130  0.04563829  1
  B  B15  1  0.31987774  0.88095596  0.43961512  1
  B  B16  1  0.36001343  0.35938385  0.37506757  1
  B  B17  1  0.33458758  0.66473617  0.12490687  1
  B  B18  1  0.37613442  0.57181291  0.86650708  1
  B  B19  1  0.39551799  0.42406941  0.64172415  1
  B  B20  1  0.42332192  0.39491515  0.10833795  1
  B  B21  1  0.43008449  0.62304119  0.38404240  1
  B  B22  1  0.56991551  0.37695881  0.88404240  1
  B  B23  1  0.57667808  0.60508485  0.60833795  1
  B  B24  1  0.62386558  0.42818709  0.36650708  1
  B  B25  1  0.60448201  0.57593059  0.14172415  1
  B  B26  1  0.66541242  0.33526383  0.62490687  1
  B  B27  1  0.63998657  0.64061615  0.87506757  1
  B  B28  1  0.68012226  0.11904404  0.93961512  1
  B  B29  1  0.68322341  0.85301870  0.54563829  1
  B  B30  1  0.73537030  0.11550212  0.52076748  1
  B  B31  1  0.71552379  0.85210652  0.97344619  1
  B  B32  1  0.83545739  0.03747733  0.05977032  1
  B  B33  1  0.84061404  0.91781365  0.42335494  1
  B  B34  1  0.88501247  0.26471065  0.72906388  1
  B  B35  1  0.85141106  0.71595468  0.77654955  1
  B  B36  1  0.88156646  0.31833278  0.31009085  1
  B  B37  1  0.85253485  0.68279369  0.20429343  1
  B  B38  1  0.96388678  0.16455142  0.18944177  1
  B  B39  1  0.91754744  0.84065872  0.32650268  1
  O  O40  1  0.03053363  0.34408311  0.32793639  1
  O  O41  1  0.00390559  0.66087019  0.18418461  1
  O  O42  1  0.06468751  0.93348167  0.62411286  1
  O  O43  1  0.11018164  0.20092262  0.20268218  1
  O  O44  1  0.06787582  0.81921131  0.30427042  1
  O  O45  1  0.15187145  0.77972006  0.74288115  1
  O  O46  1  0.18961921  0.21649932  0.77075471  1
  O  O47  1  0.20133085  0.10895945  0.54722027  1
  O  O48  1  0.18097954  0.93180995  0.94552302  1
  O  O49  1  0.21615539  0.18936016  0.97922825  1
  O  O50  1  0.22120801  0.84708133  0.50641033  1
  O  O51  1  0.24511783  0.40318812  0.66185631  1
  O  O52  1  0.22214462  0.60225683  0.85743606  1
  O  O53  1  0.29301844  0.29758810  0.29542037  1
  O  O54  1  0.25845018  0.72981128  0.20369117  1
  O  O55  1  0.29749141  0.29248219  0.45457151  1
  O  O56  1  0.26999136  0.74087414  0.04599229  1
  O  O57  1  0.30929821  0.50187089  0.11300282  1
  O  O58  1  0.32236157  0.52312651  0.38253130  1
  O  O59  1  0.34514933  0.03014517  0.42199857  1
  O  O60  1  0.33882088  0.99556859  0.06577276  1
  O  O61  1  0.40284455  0.24455852  0.08801209  1
  O  O62  1  0.40008425  0.77734261  0.39250057  1
  O  O63  1  0.41804347  0.41977581  0.87565335  1
  O  O64  1  0.42777693  0.57302721  0.62518733  1
  O  O65  1  0.47645870  0.67915724  0.86768746  1
  O  O66  1  0.50256316  0.31016625  0.63688928  1
  O  O67  1  0.52354130  0.32084276  0.36768746  1
  O  O68  1  0.49743684  0.68983375  0.13688928  1
  O  O69  1  0.57222307  0.42697279  0.12518733  1
  O  O70  1  0.58195653  0.58022419  0.37565335  1
  O  O71  1  0.59991575  0.22265739  0.89250057  1
  O  O72  1  0.59715545  0.75544148  0.58801209  1
  O  O73  1  0.66117912  0.00443141  0.56577276  1
  O  O74  1  0.65485067  0.96985483  0.92199857  1
  O  O75  1  0.67763843  0.47687349  0.88253130  1
  O  O76  1  0.69070179  0.49812911  0.61300282  1
  O  O77  1  0.73000864  0.25912586  0.54599229  1
  O  O78  1  0.70250859  0.70751781  0.95457151  1
  O  O79  1  0.74154982  0.27018872  0.70369117  1
  O  O80  1  0.70698156  0.70241190  0.79542037  1
  O  O81  1  0.77785538  0.39774317  0.35743606  1
  O  O82  1  0.75488217  0.59681188  0.16185631  1
  O  O83  1  0.77879199  0.15291867  0.00641033  1
  O  O84  1  0.78384461  0.81063984  0.47922825  1
  O  O85  1  0.81902046  0.06819005  0.44552302  1
  O  O86  1  0.79866915  0.89104055  0.04722027  1
  O  O87  1  0.84812855  0.22027994  0.24288115  1
  O  O88  1  0.81038079  0.78350068  0.27075471  1
  O  O89  1  0.93212418  0.18078869  0.80427042  1
  O  O90  1  0.88981836  0.79907738  0.70268218  1
  O  O91  1  0.93531249  0.06651833  0.12411286  1
  O  O92  1  0.99609441  0.33912981  0.68418461  1
  O  O93  1  0.96946637  0.65591689  0.82793639  1
