# generated using pymatgen
data_MgSi
_symmetry_space_group_name_H-M   'P 1'
_cell_length_a   14.80564428
_cell_length_b   4.44475024
_cell_length_c   7.23533824
_cell_angle_alpha   90.16653095
_cell_angle_beta   76.72484818
_cell_angle_gamma   94.10656312
_symmetry_Int_Tables_number   1
_chemical_formula_structural   MgSi
_chemical_formula_sum   'Mg12 Si12'
_cell_volume   462.18089000
_cell_formula_units_Z   12
loop_
 _symmetry_equiv_pos_site_id
 _symmetry_equiv_pos_as_xyz
  1  'x, y, z'
loop_
 _atom_site_type_symbol
 _atom_site_label
 _atom_site_symmetry_multiplicity
 _atom_site_fract_x
 _atom_site_fract_y
 _atom_site_fract_z
 _atom_site_occupancy
  Mg  Mg0  1  0.01063689  0.39514133  0.74527922  1
  Mg  Mg1  1  0.34404666  0.06207372  0.07856937  1
  Mg  Mg2  1  0.67725445  0.72888174  0.41158640  1
  Mg  Mg3  1  0.01063689  0.39514033  0.24527922  1
  Mg  Mg4  1  0.34404666  0.06207372  0.57856837  1
  Mg  Mg5  1  0.67725445  0.72888174  0.91158640  1
  Mg  Mg6  1  0.15501025  0.93211910  0.92181383  1
  Mg  Mg7  1  0.48833579  0.59916153  0.25454858  1
  Mg  Mg8  1  0.82163501  0.26524205  0.58813417  1
  Mg  Mg9  1  0.15501025  0.93211810  0.42181383  1
  Mg  Mg10  1  0.48833579  0.59916153  0.75454758  1
  Mg  Mg11  1  0.82163501  0.26524205  0.08813417  1
  Si  Si12  1  0.96719029  0.90250714  0.51754955  1
  Si  Si13  1  0.30054980  0.56939540  0.85091445  1
  Si  Si14  1  0.63386343  0.23664811  0.18377927  1
  Si  Si15  1  0.96719029  0.90250714  0.01754855  1
  Si  Si16  1  0.30054980  0.56939540  0.35091445  1
  Si  Si17  1  0.63386343  0.23664811  0.68377927  1
  Si  Si18  1  0.19844862  0.42459145  0.64947952  1
  Si  Si19  1  0.53178625  0.09148823  0.98229851  1
  Si  Si20  1  0.86508655  0.75787620  0.81595813  1
  Si  Si21  1  0.19844862  0.42459145  0.14948052  1
  Si  Si22  1  0.53178625  0.09148823  0.48229851  1
  Si  Si23  1  0.86508655  0.75787720  0.31595813  1
