# generated using pymatgen
data_TeO2
_symmetry_space_group_name_H-M   'P 1'
_cell_length_a   3.57763656
_cell_length_b   5.85566715
_cell_length_c   8.02400834
_cell_angle_alpha   90.00000000
_cell_angle_beta   90.00000000
_cell_angle_gamma   90.00000000
_symmetry_Int_Tables_number   1
_chemical_formula_structural   TeO2
_chemical_formula_sum   'Te4 O8'
_cell_volume   168.09855252
_cell_formula_units_Z   4
loop_
 _symmetry_equiv_pos_site_id
 _symmetry_equiv_pos_as_xyz
  1  'x, y, z'
loop_
 _atom_site_type_symbol
 _atom_site_label
 _atom_site_symmetry_multiplicity
 _atom_site_fract_x
 _atom_site_fract_y
 _atom_site_fract_z
 _atom_site_occupancy
  Te  Te0  1  0.75000000  0.26057325  0.06120423  1
  Te  Te1  1  0.75000000  0.76057325  0.43879577  1
  Te  Te2  1  0.25000000  0.73942675  0.93879577  1
  Te  Te3  1  0.25000000  0.23942675  0.56120423  1
  O  O4  1  0.75000000  0.36804992  0.46112552  1
  O  O5  1  0.75000000  0.86804992  0.03887448  1
  O  O6  1  0.25000000  0.63195008  0.53887448  1
  O  O7  1  0.25000000  0.13195008  0.96112552  1
  O  O8  1  0.75000000  0.45945713  0.86973489  1
  O  O9  1  0.75000000  0.95945713  0.63026511  1
  O  O10  1  0.25000000  0.54054287  0.13026511  1
  O  O11  1  0.25000000  0.04054287  0.36973489  1
