# generated using pymatgen
data_Cd3Pd
_symmetry_space_group_name_H-M   'P 1'
_cell_length_a   6.00986562
_cell_length_b   6.00986610
_cell_length_c   4.94933396
_cell_angle_alpha   90.00000000
_cell_angle_beta   90.00000000
_cell_angle_gamma   119.99999733
_symmetry_Int_Tables_number   1
_chemical_formula_structural   Cd3Pd
_chemical_formula_sum   'Cd6 Pd2'
_cell_volume   154.81283375
_cell_formula_units_Z   2
loop_
 _symmetry_equiv_pos_site_id
 _symmetry_equiv_pos_as_xyz
  1  'x, y, z'
loop_
 _atom_site_type_symbol
 _atom_site_label
 _atom_site_symmetry_multiplicity
 _atom_site_fract_x
 _atom_site_fract_y
 _atom_site_fract_z
 _atom_site_occupancy
  Cd  Cd0  1  0.17080732  0.34161564  0.24999900  1
  Cd  Cd1  1  0.65838636  0.82919368  0.24999900  1
  Cd  Cd2  1  0.17080732  0.82919368  0.24999900  1
  Cd  Cd3  1  0.82919268  0.65838536  0.74999900  1
  Cd  Cd4  1  0.34161564  0.17080732  0.74999900  1
  Cd  Cd5  1  0.82919268  0.17080732  0.74999900  1
  Pd  Pd6  1  0.33333400  0.66666700  0.74999900  1
  Pd  Pd7  1  0.66666700  0.33333200  0.24999900  1
