# generated using pymatgen
data_Hg
_symmetry_space_group_name_H-M   'P 1'
_cell_length_a   4.31304956
_cell_length_b   4.31304997
_cell_length_c   4.72003340
_cell_angle_alpha   117.18644850
_cell_angle_beta   117.18644504
_cell_angle_gamma   60.00001125
_symmetry_Int_Tables_number   1
_chemical_formula_structural   Hg
_chemical_formula_sum   Hg2
_cell_volume   64.59732369
_cell_formula_units_Z   2
loop_
 _symmetry_equiv_pos_site_id
 _symmetry_equiv_pos_as_xyz
  1  'x, y, z'
loop_
 _atom_site_type_symbol
 _atom_site_label
 _atom_site_symmetry_multiplicity
 _atom_site_fract_x
 _atom_site_fract_y
 _atom_site_fract_z
 _atom_site_occupancy
  Hg  Hg0  1  0.74990625  0.74990625  0.24972074  1
  Hg  Hg1  1  0.25009375  0.25009375  0.75028026  1
