# generated using pymatgen
data_Hg
_symmetry_space_group_name_H-M   'P 1'
_cell_length_a   3.27539380
_cell_length_b   4.68321252
_cell_length_c   4.68321252
_cell_angle_alpha   97.02408990
_cell_angle_beta   69.53133421
_cell_angle_gamma   110.46866579
_symmetry_Int_Tables_number   1
_chemical_formula_structural   Hg
_chemical_formula_sum   Hg2
_cell_volume   63.05273941
_cell_formula_units_Z   2
loop_
 _symmetry_equiv_pos_site_id
 _symmetry_equiv_pos_as_xyz
  1  'x, y, z'
loop_
 _atom_site_type_symbol
 _atom_site_label
 _atom_site_symmetry_multiplicity
 _atom_site_fract_x
 _atom_site_fract_y
 _atom_site_fract_z
 _atom_site_occupancy
  Hg  Hg0  1  -0.00000000  -0.00000000  -0.00000000  1
  Hg  Hg1  1  0.25000200  0.49999900  0.49999900  1
