# generated using pymatgen
data_Hg2P2O7
_symmetry_space_group_name_H-M   'P 1'
_cell_length_a   6.69145155
_cell_length_b   6.78893768
_cell_length_c   6.85044048
_cell_angle_alpha   96.50631656
_cell_angle_beta   111.53762613
_cell_angle_gamma   84.95411086
_symmetry_Int_Tables_number   1
_chemical_formula_structural   Hg2P2O7
_chemical_formula_sum   'Hg4 P4 O14'
_cell_volume   287.24530733
_cell_formula_units_Z   2
loop_
 _symmetry_equiv_pos_site_id
 _symmetry_equiv_pos_as_xyz
  1  'x, y, z'
loop_
 _atom_site_type_symbol
 _atom_site_label
 _atom_site_symmetry_multiplicity
 _atom_site_fract_x
 _atom_site_fract_y
 _atom_site_fract_z
 _atom_site_occupancy
  Hg  Hg0  1  0.09620936  0.13551270  0.73400195  1
  Hg  Hg1  1  0.90378964  0.86448630  0.26599705  1
  Hg  Hg2  1  0.26050957  0.39816065  0.28942479  1
  Hg  Hg3  1  0.73949143  0.60183935  0.71057621  1
  P  P4  1  0.23419253  0.63288335  0.78023752  1
  P  P5  1  0.76580847  0.36711665  0.21976248  1
  P  P6  1  0.37208255  0.88795383  0.19096317  1
  P  P7  1  0.62791745  0.11204717  0.80903583  1
  O  O8  1  0.23973685  0.76533045  0.27270485  1
  O  O9  1  0.76026315  0.23466955  0.72729615  1
  O  O10  1  0.13760888  0.47940726  0.86617969  1
  O  O11  1  0.86239312  0.52059274  0.13382031  1
  O  O12  1  0.24823911  0.08499703  0.11460951  1
  O  O13  1  0.75175989  0.91500397  0.88539149  1
  O  O14  1  0.37863468  0.54097577  0.65989753  1
  O  O15  1  0.62136332  0.45902423  0.34010147  1
  O  O16  1  0.60331613  0.91061958  0.34309309  1
  O  O17  1  0.39668587  0.08937942  0.65690791  1
  O  O18  1  0.04704076  0.77170290  0.65117602  1
  O  O19  1  0.95295924  0.22829710  0.34882398  1
  O  O20  1  0.39360386  0.76249705  0.98042590  1
  O  O21  1  0.60639514  0.23750195  0.01957310  1
