# generated using pymatgen
data_Mg17Al11Zn
_symmetry_space_group_name_H-M   'P 1'
_cell_length_a   9.10975421
_cell_length_b   9.10338380
_cell_length_c   9.09713423
_cell_angle_alpha   109.43290765
_cell_angle_beta   109.47216409
_cell_angle_gamma   109.55052983
_symmetry_Int_Tables_number   1
_chemical_formula_structural   Mg17Al11Zn
_chemical_formula_sum   'Mg17 Al11 Zn1'
_cell_volume   580.45275577
_cell_formula_units_Z   1
loop_
 _symmetry_equiv_pos_site_id
 _symmetry_equiv_pos_as_xyz
  1  'x, y, z'
loop_
 _atom_site_type_symbol
 _atom_site_label
 _atom_site_symmetry_multiplicity
 _atom_site_fract_x
 _atom_site_fract_y
 _atom_site_fract_z
 _atom_site_occupancy
  Mg  Mg0  1  0.00067311  0.34482961  0.00000287  1
  Mg  Mg1  1  0.31552401  0.60245594  0.00000381  1
  Mg  Mg2  1  0.99964208  0.99891860  -0.00001025  1
  Mg  Mg3  1  0.60387795  0.31895511  0.00000884  1
  Mg  Mg4  1  0.34590786  0.00087393  -0.00000240  1
  Mg  Mg5  1  0.68417065  0.68418651  0.28478612  1
  Mg  Mg6  1  0.99853717  0.60206334  0.31323054  1
  Mg  Mg7  1  0.60113002  0.99961944  0.31551908  1
  Mg  Mg8  1  0.99960715  0.99893627  0.34414990  1
  Mg  Mg9  1  0.39798041  0.71390563  0.39803295  1
  Mg  Mg10  1  0.71434211  0.39864737  0.39839010  1
  Mg  Mg11  1  0.31593685  0.00027227  0.60160030  1
  Mg  Mg12  1  0.99994884  0.31587018  0.60196252  1
  Mg  Mg13  1  0.65546010  0.65478477  0.65585735  1
  Mg  Mg14  1  0.28559999  0.68407632  0.68447069  1
  Mg  Mg15  1  0.68531150  0.28885034  0.68676062  1
  Mg  Mg16  1  0.39936645  0.39938693  0.71520613  1
  Al  Al17  1  0.63578887  0.81209719  0.00002088  1
  Al  Al18  1  0.36678415  0.36674510  0.18146137  1
  Al  Al19  1  0.18245508  0.81713027  0.18356146  1
  Al  Al20  1  0.81819529  0.18450297  0.18476279  1
  Al  Al21  1  0.18122707  0.36629423  0.36627826  1
  Al  Al22  1  0.36623125  0.18064619  0.36612671  1
  Al  Al23  1  0.00013571  0.81456789  0.63390680  1
  Al  Al24  1  0.81496298  0.00001987  0.63374072  1
  Al  Al25  1  0.63345528  0.99974052  0.81523950  1
  Al  Al26  1  0.99886585  0.63354700  0.81643548  1
  Al  Al27  1  0.18532868  0.18527399  0.81851669  1
  Zn  Zn28  1  0.81355452  0.63280622  0.99998316  1
