# generated using pymatgen
data_Li(Mg4Al3)4
_symmetry_space_group_name_H-M   'P 1'
_cell_length_a   9.08163712
_cell_length_b   9.11544250
_cell_length_c   9.11544307
_cell_angle_alpha   109.54622689
_cell_angle_beta   109.39612135
_cell_angle_gamma   109.39610374
_symmetry_Int_Tables_number   1
_chemical_formula_structural   Li(Mg4Al3)4
_chemical_formula_sum   'Li1 Mg16 Al12'
_cell_volume   581.43276474
_cell_formula_units_Z   1
loop_
 _symmetry_equiv_pos_site_id
 _symmetry_equiv_pos_as_xyz
  1  'x, y, z'
loop_
 _atom_site_type_symbol
 _atom_site_label
 _atom_site_symmetry_multiplicity
 _atom_site_fract_x
 _atom_site_fract_y
 _atom_site_fract_z
 _atom_site_occupancy
  Li  Li0  1  0.33303831  0.00000000  0.00000100  1
  Mg  Mg1  1  0.59728469  0.30990545  0.00000000  1
  Mg  Mg2  1  0.99959472  0.34348119  0.00000100  1
  Mg  Mg3  1  0.00416000  1.00000000  0.00000100  1
  Mg  Mg4  1  0.31543189  0.59980530  0.00000100  1
  Mg  Mg5  1  0.68559292  0.68522948  0.28578044  1
  Mg  Mg6  1  0.59728469  1.00000000  0.30990545  1
  Mg  Mg7  1  0.00036344  0.60055096  0.31477052  1
  Mg  Mg8  1  0.99959472  1.00000000  0.34348119  1
  Mg  Mg9  1  0.39981248  0.71421956  0.39945004  1
  Mg  Mg10  1  0.71562759  0.40019570  0.40019570  1
  Mg  Mg11  1  0.31543189  0.00000000  0.59980530  1
  Mg  Mg12  1  0.00036344  0.31477052  0.60055096  1
  Mg  Mg13  1  0.65611252  0.65651781  0.65651781  1
  Mg  Mg14  1  0.68559192  0.28578044  0.68522948  1
  Mg  Mg15  1  0.28738024  0.69009555  0.69009455  1
  Mg  Mg16  1  0.39981248  0.39944904  0.71422056  1
  Al  Al17  1  0.63627251  0.81498519  0.99999900  1
  Al  Al18  1  0.81404904  0.63081571  1.00000000  1
  Al  Al19  1  0.36618058  0.36578072  0.18157788  1
  Al  Al20  1  0.18460070  0.81842012  0.18420084  1
  Al  Al21  1  0.82128533  0.18501281  0.18501281  1
  Al  Al22  1  0.36618058  0.18157788  0.36578072  1
  Al  Al23  1  0.18323333  0.36918529  0.36918429  1
  Al  Al24  1  0.81405104  0.00000000  0.63081571  1
  Al  Al25  1  0.00040086  0.81579916  0.63422028  1
  Al  Al26  1  0.63627251  0.99999800  0.81498519  1
  Al  Al27  1  0.00039986  0.63422028  0.81579916  1
  Al  Al28  1  0.18460070  0.18420184  0.81841912  1
