# generated using pymatgen
data_Gd2PdRh
_symmetry_space_group_name_H-M   'P 1'
_cell_length_a   4.97120464
_cell_length_b   4.97121972
_cell_length_c   4.97121563
_cell_angle_alpha   60.00000809
_cell_angle_beta   59.99977194
_cell_angle_gamma   59.99997981
_symmetry_Int_Tables_number   1
_chemical_formula_structural   Gd2PdRh
_chemical_formula_sum   'Gd2 Pd1 Rh1'
_cell_volume   86.87031881
_cell_formula_units_Z   1
loop_
 _symmetry_equiv_pos_site_id
 _symmetry_equiv_pos_as_xyz
  1  'x, y, z'
loop_
 _atom_site_type_symbol
 _atom_site_label
 _atom_site_symmetry_multiplicity
 _atom_site_fract_x
 _atom_site_fract_y
 _atom_site_fract_z
 _atom_site_occupancy
  Gd  Gd0  1  0.00000009  -0.00000010  -0.00000001  1
  Gd  Gd1  1  0.49999994  0.50000010  0.50000002  1
  Pd  Pd2  1  0.25000106  0.25000096  0.25000106  1
  Rh  Rh3  1  0.75000090  0.75000105  0.75000094  1
