# generated using pymatgen
data_PmRh3
_symmetry_space_group_name_H-M   'P 1'
_cell_length_a   5.93214569
_cell_length_b   5.93214626
_cell_length_c   4.64222344
_cell_angle_alpha   90.00000000
_cell_angle_beta   90.00000000
_cell_angle_gamma   120.00000211
_symmetry_Int_Tables_number   1
_chemical_formula_structural   PmRh3
_chemical_formula_sum   'Pm2 Rh6'
_cell_volume   141.47520167
_cell_formula_units_Z   2
loop_
 _symmetry_equiv_pos_site_id
 _symmetry_equiv_pos_as_xyz
  1  'x, y, z'
loop_
 _atom_site_type_symbol
 _atom_site_label
 _atom_site_symmetry_multiplicity
 _atom_site_fract_x
 _atom_site_fract_y
 _atom_site_fract_z
 _atom_site_occupancy
  Pm  Pm0  1  0.33333300  0.66666500  0.75000000  1
  Pm  Pm1  1  0.66666700  0.33333400  0.25000000  1
  Rh  Rh2  1  0.15446303  0.30892606  0.25000000  1
  Rh  Rh3  1  0.69107394  0.84553797  0.25000000  1
  Rh  Rh4  1  0.15446403  0.84553797  0.25000000  1
  Rh  Rh5  1  0.84553597  0.69107294  0.75000000  1
  Rh  Rh6  1  0.30892706  0.15446303  0.75000000  1
  Rh  Rh7  1  0.84553897  0.15446303  0.75000000  1
