# generated using pymatgen
data_Zn2SnO4
_symmetry_space_group_name_H-M   'P 1'
_cell_length_a   6.19975577
_cell_length_b   6.19975577
_cell_length_c   6.19975577
_cell_angle_alpha   60.00000000
_cell_angle_beta   60.00000000
_cell_angle_gamma   60.00000000
_symmetry_Int_Tables_number   1
_chemical_formula_structural   Zn2SnO4
_chemical_formula_sum   'Zn4 Sn2 O8'
_cell_volume   168.50343073
_cell_formula_units_Z   2
loop_
 _symmetry_equiv_pos_site_id
 _symmetry_equiv_pos_as_xyz
  1  'x, y, z'
loop_
 _atom_site_type_symbol
 _atom_site_label
 _atom_site_symmetry_multiplicity
 _atom_site_fract_x
 _atom_site_fract_y
 _atom_site_fract_z
 _atom_site_occupancy
  Zn  Zn0  1  0.50000000  0.50000000  -0.00000000  1
  Zn  Zn1  1  0.50000000  0.00000000  0.50000000  1
  Zn  Zn2  1  -0.00000000  0.50000000  0.50000000  1
  Zn  Zn3  1  0.50000000  0.50000000  0.50000000  1
  Sn  Sn4  1  0.12500000  0.12500000  0.12500000  1
  Sn  Sn5  1  0.87500000  0.87500000  0.87500000  1
  O  O6  1  0.25690544  0.25690544  0.72928368  1
  O  O7  1  0.25690544  0.72928368  0.25690544  1
  O  O8  1  0.72928368  0.25690544  0.25690544  1
  O  O9  1  0.25690544  0.25690544  0.25690544  1
  O  O10  1  0.74309456  0.74309456  0.27071632  1
  O  O11  1  0.74309456  0.27071632  0.74309456  1
  O  O12  1  0.27071632  0.74309456  0.74309456  1
  O  O13  1  0.74309456  0.74309456  0.74309456  1
