# generated using pymatgen
data_TmGe2Pt
_symmetry_space_group_name_H-M   'P 1'
_cell_length_a   4.33556509
_cell_length_b   8.76915392
_cell_length_c   9.49433600
_cell_angle_alpha   117.50394932
_cell_angle_beta   103.19840490
_cell_angle_gamma   90.00000000
_symmetry_Int_Tables_number   1
_chemical_formula_structural   TmGe2Pt
_chemical_formula_sum   'Tm4 Ge8 Pt4'
_cell_volume   309.38087687
_cell_formula_units_Z   4
loop_
 _symmetry_equiv_pos_site_id
 _symmetry_equiv_pos_as_xyz
  1  'x, y, z'
loop_
 _atom_site_type_symbol
 _atom_site_label
 _atom_site_symmetry_multiplicity
 _atom_site_fract_x
 _atom_site_fract_y
 _atom_site_fract_z
 _atom_site_occupancy
  Tm  Tm0  1  -0.00000000  0.26351863  -0.00000000  1
  Tm  Tm1  1  -0.00000000  0.73648137  -0.00000000  1
  Tm  Tm2  1  0.79691980  0.29691980  0.59383959  1
  Tm  Tm3  1  0.20308020  0.70308020  0.40616041  1
  Ge  Ge4  1  0.42619469  0.92619469  0.85238939  1
  Ge  Ge5  1  0.57380531  0.07380531  0.14761061  1
  Ge  Ge6  1  0.42572209  0.42572209  0.85144419  1
  Ge  Ge7  1  0.57427791  0.57427791  0.14855581  1
  Ge  Ge8  1  0.19944527  0.04873864  0.39889055  1
  Ge  Ge9  1  0.80055473  0.95126136  0.60110945  1
  Ge  Ge10  1  0.19944527  0.35015191  0.39889055  1
  Ge  Ge11  1  0.80055473  0.64984809  0.60110945  1
  Pt  Pt12  1  0.35266484  0.10311704  0.70532968  1
  Pt  Pt13  1  0.64733516  0.89688296  0.29467032  1
  Pt  Pt14  1  0.35266484  0.60221264  0.70532968  1
  Pt  Pt15  1  0.64733516  0.39778736  0.29467032  1
