# generated using pymatgen
data_TaOs3
_symmetry_space_group_name_H-M   'P 1'
_cell_length_a   5.61023388
_cell_length_b   5.61023413
_cell_length_c   4.46260323
_cell_angle_alpha   90.00000000
_cell_angle_beta   90.00000000
_cell_angle_gamma   120.00000509
_symmetry_Int_Tables_number   1
_chemical_formula_structural   TaOs3
_chemical_formula_sum   'Ta2 Os6'
_cell_volume   121.64123966
_cell_formula_units_Z   2
loop_
 _symmetry_equiv_pos_site_id
 _symmetry_equiv_pos_as_xyz
  1  'x, y, z'
loop_
 _atom_site_type_symbol
 _atom_site_label
 _atom_site_symmetry_multiplicity
 _atom_site_fract_x
 _atom_site_fract_y
 _atom_site_fract_z
 _atom_site_occupancy
  Ta  Ta0  1  0.33333300  0.66666700  0.75000000  1
  Ta  Ta1  1  0.66666500  0.33333200  0.24999900  1
  Os  Os2  1  0.16550228  0.33100455  0.24999900  1
  Os  Os3  1  0.66899745  0.83449972  0.24999900  1
  Os  Os4  1  0.16550228  0.83449972  0.24999900  1
  Os  Os5  1  0.83449772  0.66899645  0.75000000  1
  Os  Os6  1  0.33100455  0.16550128  0.75000000  1
  Os  Os7  1  0.83449672  0.16550128  0.75000000  1
