# generated using pymatgen
data_YbGdZn2
_symmetry_space_group_name_H-M   'P 1'
_cell_length_a   4.96654142
_cell_length_b   4.99960821
_cell_length_c   4.89626111
_cell_angle_alpha   61.11891795
_cell_angle_beta   59.98364669
_cell_angle_gamma   59.04983678
_symmetry_Int_Tables_number   1
_chemical_formula_structural   YbGdZn2
_chemical_formula_sum   'Yb1 Gd1 Zn2'
_cell_volume   86.01119862
_cell_formula_units_Z   1
loop_
 _symmetry_equiv_pos_site_id
 _symmetry_equiv_pos_as_xyz
  1  'x, y, z'
loop_
 _atom_site_type_symbol
 _atom_site_label
 _atom_site_symmetry_multiplicity
 _atom_site_fract_x
 _atom_site_fract_y
 _atom_site_fract_z
 _atom_site_occupancy
  Yb  Yb0  1  0.75001188  0.74999942  0.74999449  1
  Gd  Gd1  1  0.24997428  0.25000883  0.25000736  1
  Zn  Zn2  1  0.99980343  0.00010719  0.00029998  1
  Zn  Zn3  1  0.50021241  0.49988656  0.49970118  1
