# generated using pymatgen
data_La5CuPb3
_symmetry_space_group_name_H-M   'P 1'
_cell_length_a   7.13407720
_cell_length_b   9.75414378
_cell_length_c   9.75515272
_cell_angle_alpha   120.00290509
_cell_angle_beta   90.00011640
_cell_angle_gamma   90.00008950
_symmetry_Int_Tables_number   1
_chemical_formula_structural   La5CuPb3
_chemical_formula_sum   'La10 Cu2 Pb6'
_cell_volume   587.86681927
_cell_formula_units_Z   2
loop_
 _symmetry_equiv_pos_site_id
 _symmetry_equiv_pos_as_xyz
  1  'x, y, z'
loop_
 _atom_site_type_symbol
 _atom_site_label
 _atom_site_symmetry_multiplicity
 _atom_site_fract_x
 _atom_site_fract_y
 _atom_site_fract_z
 _atom_site_occupancy
  La  La0  1  0.75003563  0.25246103  0.00006557  1
  La  La1  1  0.74998886  0.74751122  0.74756067  1
  La  La2  1  0.74998370  0.00000893  0.25240571  1
  La  La3  1  0.25002170  0.74753553  0.99993463  1
  La  La4  1  0.25000422  0.25248469  0.25244521  1
  La  La5  1  0.24997122  -0.00000198  0.74758977  1
  La  La6  1  0.50000183  0.33335398  0.66665647  1
  La  La7  1  0.50000341  0.66663685  0.33333748  1
  La  La8  1  0.00000170  0.66664023  0.33334251  1
  La  La9  1  0.00000111  0.33336840  0.66666332  1
  Cu  Cu10  1  0.49999348  0.00000716  0.99998543  1
  Cu  Cu11  1  0.00000303  -0.00002850  -0.00000625  1
  Pb  Pb12  1  0.74996597  0.60567724  0.00006791  1
  Pb  Pb13  1  0.75000665  0.39429436  0.39433795  1
  Pb  Pb14  1  0.75002412  0.00002349  0.60569987  1
  Pb  Pb15  1  0.24996671  0.39434180  -0.00003919  1
  Pb  Pb16  1  0.25000465  0.60571144  0.60565320  1
  Pb  Pb17  1  0.25002201  0.99997414  0.39429975  1
