# generated using pymatgen
data_K3Zn2Cl7
_symmetry_space_group_name_H-M   'P 1'
_cell_length_a   7.06303771
_cell_length_b   10.93872414
_cell_length_c   11.04393213
_cell_angle_alpha   118.52062875
_cell_angle_beta   107.53140671
_cell_angle_gamma   90.60645925
_symmetry_Int_Tables_number   1
_chemical_formula_structural   K3Zn2Cl7
_chemical_formula_sum   'K6 Zn4 Cl14'
_cell_volume   702.64486352
_cell_formula_units_Z   2
loop_
 _symmetry_equiv_pos_site_id
 _symmetry_equiv_pos_as_xyz
  1  'x, y, z'
loop_
 _atom_site_type_symbol
 _atom_site_label
 _atom_site_symmetry_multiplicity
 _atom_site_fract_x
 _atom_site_fract_y
 _atom_site_fract_z
 _atom_site_occupancy
  K  K0  1  0.61182438  0.09189575  0.21688635  1
  K  K1  1  0.38817562  0.90810425  0.78311365  1
  K  K2  1  0.09242376  0.81227457  0.22127514  1
  K  K3  1  0.90757624  0.18772543  0.77872486  1
  K  K4  1  0.86885853  0.58946909  0.71415076  1
  K  K5  1  0.13114147  0.41053091  0.28584924  1
  Zn  Zn6  1  0.49569056  0.66267025  0.99348732  1
  Zn  Zn7  1  0.50430944  0.33732975  0.00651268  1
  Zn  Zn8  1  0.35872851  0.27114783  0.56482147  1
  Zn  Zn9  1  0.64127149  0.72885217  0.43517853  1
  Cl  Cl10  1  0.33131968  0.17012433  0.70114514  1
  Cl  Cl11  1  0.66868032  0.82987567  0.29885486  1
  Cl  Cl12  1  0.30706479  0.49986345  0.65663178  1
  Cl  Cl13  1  0.69293521  0.50013655  0.34336822  1
  Cl  Cl14  1  0.72234591  0.80306132  0.97131752  1
  Cl  Cl15  1  0.27765409  0.19693868  0.02868248  1
  Cl  Cl16  1  0.72601352  0.49648225  0.98921130  1
  Cl  Cl17  1  0.27398648  0.50351775  0.01078870  1
  Cl  Cl18  1  0.25237343  0.80550615  0.98341743  1
  Cl  Cl19  1  0.74762657  0.19449385  0.01658257  1
  Cl  Cl20  1  0.67871716  0.26919820  0.55062213  1
  Cl  Cl21  1  0.32128284  0.73080180  0.44937787  1
  Cl  Cl22  1  0.13512710  0.14024973  0.32774347  1
  Cl  Cl23  1  0.86487290  0.85975027  0.67225653  1
