# generated using pymatgen
data_La5ZnPb3
_symmetry_space_group_name_H-M   'P 1'
_cell_length_a   6.93621423
_cell_length_b   9.87131647
_cell_length_c   9.82996210
_cell_angle_alpha   120.13926748
_cell_angle_beta   90.00000000
_cell_angle_gamma   90.00000000
_symmetry_Int_Tables_number   1
_chemical_formula_structural   La5ZnPb3
_chemical_formula_sum   'La10 Zn2 Pb6'
_cell_volume   582.06149289
_cell_formula_units_Z   2
loop_
 _symmetry_equiv_pos_site_id
 _symmetry_equiv_pos_as_xyz
  1  'x, y, z'
loop_
 _atom_site_type_symbol
 _atom_site_label
 _atom_site_symmetry_multiplicity
 _atom_site_fract_x
 _atom_site_fract_y
 _atom_site_fract_z
 _atom_site_occupancy
  La  La0  1  0.75043466  0.26934175  -0.00000000  1
  La  La1  1  0.74990259  0.73106489  0.73136075  1
  La  La2  1  0.74990259  -0.00029586  0.26863925  1
  La  La3  1  0.25043466  0.73065825  0.00000000  1
  La  La4  1  0.24990259  0.26893511  0.26863925  1
  La  La5  1  0.24990259  0.00029586  0.73136075  1
  La  La6  1  0.49999917  0.33345730  0.66712986  1
  La  La7  1  0.49999917  0.66632745  0.33287014  1
  La  La8  1  -0.00000083  0.66654270  0.33287014  1
  La  La9  1  -0.00000083  0.33367255  0.66712986  1
  Zn  Zn10  1  0.49996702  0.00009484  -0.00000000  1
  Zn  Zn11  1  0.99996702  -0.00009484  0.00000000  1
  Pb  Pb12  1  0.74995301  0.62145111  0.00000000  1
  Pb  Pb13  1  0.74992089  0.37791991  0.37870347  1
  Pb  Pb14  1  0.74992089  0.99921644  0.62129653  1
  Pb  Pb15  1  0.24995301  0.37854889  1.00000000  1
  Pb  Pb16  1  0.24992089  0.62208009  0.62129653  1
  Pb  Pb17  1  0.24992089  0.00078356  0.37870347  1
