# generated using pymatgen
data_Nd2Mn3(SbS3)4
_symmetry_space_group_name_H-M   'P 1'
_cell_length_a   3.88614208
_cell_length_b   10.16650188
_cell_length_c   12.19480095
_cell_angle_alpha   82.85613354
_cell_angle_beta   80.83164148
_cell_angle_gamma   78.98156418
_symmetry_Int_Tables_number   1
_chemical_formula_structural   Nd2Mn3(SbS3)4
_chemical_formula_sum   'Nd2 Mn3 Sb4 S12'
_cell_volume   464.67705920
_cell_formula_units_Z   1
loop_
 _symmetry_equiv_pos_site_id
 _symmetry_equiv_pos_as_xyz
  1  'x, y, z'
loop_
 _atom_site_type_symbol
 _atom_site_label
 _atom_site_symmetry_multiplicity
 _atom_site_fract_x
 _atom_site_fract_y
 _atom_site_fract_z
 _atom_site_occupancy
  Nd  Nd0  1  0.24063313  0.65602389  0.86270985  1
  Nd  Nd1  1  0.75936687  0.34397611  0.13729015  1
  Mn  Mn2  1  0.19811296  0.98247260  0.62130149  1
  Mn  Mn3  1  0.80188704  0.01752740  0.37869851  1
  Mn  Mn4  1  0.00000000  -0.00000000  -0.00000000  1
  Sb  Sb5  1  0.10666977  0.33526668  0.45139377  1
  Sb  Sb6  1  0.89333023  0.66473332  0.54860623  1
  Sb  Sb7  1  0.46076616  0.26298565  0.81548203  1
  Sb  Sb8  1  0.53923384  0.73701435  0.18451797  1
  S  S9  1  0.05778081  0.08220993  0.80222845  1
  S  S10  1  0.94221919  0.91779007  0.19777155  1
  S  S11  1  0.60085738  0.82081710  0.97746814  1
  S  S12  1  0.39914262  0.17918290  0.02253186  1
  S  S13  1  0.83116767  0.44123496  0.89642970  1
  S  S14  1  0.16883233  0.55876504  0.10357030  1
  S  S15  1  0.41078440  0.52744554  0.65098566  1
  S  S16  1  0.58921560  0.47255446  0.34901434  1
  S  S17  1  0.25751480  0.19304653  0.29192388  1
  S  S18  1  0.74248520  0.80695347  0.70807612  1
  S  S19  1  0.34285172  0.86154788  0.45274867  1
  S  S20  1  0.65714828  0.13845212  0.54725133  1
