# generated using pymatgen
data_CoH5CN(ClO)2
_symmetry_space_group_name_H-M   'P 1'
_cell_length_a   7.04917473
_cell_length_b   7.04917473
_cell_length_c   6.83337475
_cell_angle_alpha   98.78556537
_cell_angle_beta   98.78556537
_cell_angle_gamma   109.75618297
_symmetry_Int_Tables_number   1
_chemical_formula_structural   CoH5CN(ClO)2
_chemical_formula_sum   'Co2 H10 C2 N2 Cl4 O4'
_cell_volume   308.10231278
_cell_formula_units_Z   2
loop_
 _symmetry_equiv_pos_site_id
 _symmetry_equiv_pos_as_xyz
  1  'x, y, z'
loop_
 _atom_site_type_symbol
 _atom_site_label
 _atom_site_symmetry_multiplicity
 _atom_site_fract_x
 _atom_site_fract_y
 _atom_site_fract_z
 _atom_site_occupancy
  Co  Co0  1  -0.00000000  0.00000000  0.50000000  1
  Co  Co1  1  -0.00000000  0.00000000  0.00000000  1
  H  H2  1  0.32153119  0.67846881  0.25000000  1
  H  H3  1  0.67846881  0.32153119  0.75000000  1
  H  H4  1  0.27005781  0.51766109  0.72831231  1
  H  H5  1  0.48233891  0.72994219  0.77168769  1
  H  H6  1  0.72994219  0.48233891  0.27168769  1
  H  H7  1  0.51766109  0.27005781  0.22831231  1
  H  H8  1  0.26118447  0.71943370  0.62192229  1
  H  H9  1  0.28056630  0.73881553  0.87807771  1
  H  H10  1  0.73881553  0.28056630  0.37807771  1
  H  H11  1  0.71943370  0.26118447  0.12192229  1
  C  C12  1  0.22576018  0.77423982  0.25000000  1
  C  C13  1  0.77423982  0.22576018  0.75000000  1
  N  N14  1  0.32360512  0.67639488  0.75000000  1
  N  N15  1  0.67639488  0.32360512  0.25000000  1
  Cl  Cl16  1  0.17781392  0.25894780  0.32177947  1
  Cl  Cl17  1  0.74105220  0.82218608  0.17822053  1
  Cl  Cl18  1  0.82218608  0.74105220  0.67822053  1
  Cl  Cl19  1  0.25894780  0.17781392  0.82177947  1
  O  O20  1  0.16923229  0.81568567  0.41421156  1
  O  O21  1  0.18431433  0.83076771  0.08578844  1
  O  O22  1  0.83076771  0.18431433  0.58578844  1
  O  O23  1  0.81568567  0.16923229  0.91421156  1
