# generated using pymatgen
data_Hf2Mn
_symmetry_space_group_name_H-M   'P 1'
_cell_length_a   8.48781115
_cell_length_b   8.48781115
_cell_length_c   8.48781115
_cell_angle_alpha   60.00000000
_cell_angle_beta   60.00000000
_cell_angle_gamma   60.00000000
_symmetry_Int_Tables_number   1
_chemical_formula_structural   Hf2Mn
_chemical_formula_sum   'Hf16 Mn8'
_cell_volume   432.38650033
_cell_formula_units_Z   8
loop_
 _symmetry_equiv_pos_site_id
 _symmetry_equiv_pos_as_xyz
  1  'x, y, z'
loop_
 _atom_site_type_symbol
 _atom_site_label
 _atom_site_symmetry_multiplicity
 _atom_site_fract_x
 _atom_site_fract_y
 _atom_site_fract_z
 _atom_site_occupancy
  Hf  Hf0  1  -0.00000000  0.00000000  0.50000000  1
  Hf  Hf1  1  -0.00000000  0.50000000  0.00000000  1
  Hf  Hf2  1  0.50000000  0.00000000  0.00000000  1
  Hf  Hf3  1  -0.00000000  0.00000000  0.00000000  1
  Hf  Hf4  1  0.43592858  0.81407142  0.81407142  1
  Hf  Hf5  1  0.81407142  0.43592858  0.43592858  1
  Hf  Hf6  1  0.81407142  0.43592858  0.81407142  1
  Hf  Hf7  1  0.43592858  0.81407142  0.43592858  1
  Hf  Hf8  1  0.81407142  0.81407142  0.43592858  1
  Hf  Hf9  1  0.43592858  0.43592858  0.81407142  1
  Hf  Hf10  1  0.56407142  0.18592858  0.18592858  1
  Hf  Hf11  1  0.18592858  0.56407142  0.56407142  1
  Hf  Hf12  1  0.18592858  0.56407142  0.18592858  1
  Hf  Hf13  1  0.56407142  0.18592858  0.56407142  1
  Hf  Hf14  1  0.18592858  0.18592858  0.56407142  1
  Hf  Hf15  1  0.56407142  0.56407142  0.18592858  1
  Mn  Mn16  1  0.21016974  0.21016974  0.86949078  1
  Mn  Mn17  1  0.21016974  0.86949078  0.21016974  1
  Mn  Mn18  1  0.86949078  0.21016974  0.21016974  1
  Mn  Mn19  1  0.21016974  0.21016974  0.21016974  1
  Mn  Mn20  1  0.78983026  0.78983026  0.13050922  1
  Mn  Mn21  1  0.78983026  0.13050922  0.78983026  1
  Mn  Mn22  1  0.13050922  0.78983026  0.78983026  1
  Mn  Mn23  1  0.78983026  0.78983026  0.78983026  1
