# generated using pymatgen
data_Dy2SnS5
_symmetry_space_group_name_H-M   'P 1'
_cell_length_a   3.82078040
_cell_length_b   7.74016326
_cell_length_c   11.35797742
_cell_angle_alpha   90.00000000
_cell_angle_beta   90.00000000
_cell_angle_gamma   90.00000000
_symmetry_Int_Tables_number   1
_chemical_formula_structural   Dy2SnS5
_chemical_formula_sum   'Dy4 Sn2 S10'
_cell_volume   335.89473721
_cell_formula_units_Z   2
loop_
 _symmetry_equiv_pos_site_id
 _symmetry_equiv_pos_as_xyz
  1  'x, y, z'
loop_
 _atom_site_type_symbol
 _atom_site_label
 _atom_site_symmetry_multiplicity
 _atom_site_fract_x
 _atom_site_fract_y
 _atom_site_fract_z
 _atom_site_occupancy
  Dy  Dy0  1  0.50000000  0.53229640  0.17222047  1
  Dy  Dy1  1  0.50000000  0.46770360  0.82777953  1
  Dy  Dy2  1  0.50000000  0.96770360  0.67222047  1
  Dy  Dy3  1  0.50000000  0.03229640  0.32777953  1
  Sn  Sn4  1  -0.00000000  0.50000000  0.50000000  1
  Sn  Sn5  1  0.00000000  -0.00000000  0.00000000  1
  S  S6  1  0.00000000  -0.00000000  0.50000000  1
  S  S7  1  0.00000000  0.50000000  0.00000000  1
  S  S8  1  0.00000000  0.82484119  0.19606241  1
  S  S9  1  -0.00000000  0.17515881  0.80393759  1
  S  S10  1  -0.00000000  0.67515881  0.69606241  1
  S  S11  1  0.00000000  0.32484119  0.30393759  1
  S  S12  1  0.50000000  0.67158431  0.40229114  1
  S  S13  1  0.50000000  0.32841569  0.59770886  1
  S  S14  1  0.50000000  0.82841569  0.90229114  1
  S  S15  1  0.50000000  0.17158431  0.09770886  1
