# generated using pymatgen
data_SiHg2(O2F3)2
_symmetry_space_group_name_H-M   'P 1'
_cell_length_a   5.23934318
_cell_length_b   5.14913670
_cell_length_c   8.19491260
_cell_angle_alpha   113.03303934
_cell_angle_beta   114.45358629
_cell_angle_gamma   93.52855995
_symmetry_Int_Tables_number   1
_chemical_formula_structural   SiHg2(O2F3)2
_chemical_formula_sum   'Si1 Hg2 O4 F6'
_cell_volume   178.49365434
_cell_formula_units_Z   1
loop_
 _symmetry_equiv_pos_site_id
 _symmetry_equiv_pos_as_xyz
  1  'x, y, z'
loop_
 _atom_site_type_symbol
 _atom_site_label
 _atom_site_symmetry_multiplicity
 _atom_site_fract_x
 _atom_site_fract_y
 _atom_site_fract_z
 _atom_site_occupancy
  Si  Si0  1  0.50000000  0.50000000  0.50000000  1
  Hg  Hg1  1  0.00000000  -0.00000000  -0.00000000  1
  Hg  Hg2  1  0.00000000  -0.00000000  0.50000000  1
  O  O3  1  0.50284118  0.31003308  0.95768286  1
  O  O4  1  0.49715882  0.68996692  0.04231714  1
  O  O5  1  0.76469206  0.85774216  0.15087641  1
  O  O6  1  0.23530794  0.14225784  0.84912359  1
  F  F7  1  0.60553039  0.87536875  0.63674435  1
  F  F8  1  0.39446961  0.12463125  0.36325565  1
  F  F9  1  0.70548143  0.51860532  0.38614604  1
  F  F10  1  0.29451857  0.48139468  0.61385396  1
  F  F11  1  0.79398624  0.47899117  0.68930685  1
  F  F12  1  0.20601376  0.52100883  0.31069315  1
