# generated using pymatgen
data_Er5Pt3
_symmetry_space_group_name_H-M   'P 1'
_cell_length_a   6.11425431
_cell_length_b   8.35662875
_cell_length_c   8.34777640
_cell_angle_alpha   120.03508761
_cell_angle_beta   90.00000000
_cell_angle_gamma   90.00000000
_symmetry_Int_Tables_number   1
_chemical_formula_structural   Er5Pt3
_chemical_formula_sum   'Er10 Pt6'
_cell_volume   369.25160049
_cell_formula_units_Z   2
loop_
 _symmetry_equiv_pos_site_id
 _symmetry_equiv_pos_as_xyz
  1  'x, y, z'
loop_
 _atom_site_type_symbol
 _atom_site_label
 _atom_site_symmetry_multiplicity
 _atom_site_fract_x
 _atom_site_fract_y
 _atom_site_fract_z
 _atom_site_occupancy
  Er  Er0  1  0.49999040  0.33334063  0.66669643  1
  Er  Er1  1  0.49999040  0.66664420  0.33330357  1
  Er  Er2  1  -0.00000960  0.66665937  0.33330357  1
  Er  Er3  1  -0.00000960  0.33335580  0.66669643  1
  Er  Er4  1  0.75005368  0.24617761  0.00000000  1
  Er  Er5  1  0.74999945  0.75369459  0.75335577  1
  Er  Er6  1  0.74999945  0.00033882  0.24664423  1
  Er  Er7  1  0.25005368  0.75382239  1.00000000  1
  Er  Er8  1  0.24999945  0.24630541  0.24664423  1
  Er  Er9  1  0.24999945  0.99966118  0.75335577  1
  Pt  Pt10  1  0.75002571  0.60688132  0.00000000  1
  Pt  Pt11  1  0.74997045  0.39300251  0.39289156  1
  Pt  Pt12  1  0.74997045  0.00011095  0.60710844  1
  Pt  Pt13  1  0.25002571  0.39311868  -0.00000000  1
  Pt  Pt14  1  0.24997045  0.60699749  0.60710844  1
  Pt  Pt15  1  0.24997045  -0.00011095  0.39289156  1
