# generated using pymatgen
data_Nb4CrSi3
_symmetry_space_group_name_H-M   'P 1'
_cell_length_a   4.95006382
_cell_length_b   7.45541255
_cell_length_c   7.45541255
_cell_angle_alpha   83.67262080
_cell_angle_beta   70.61113520
_cell_angle_gamma   70.61113520
_symmetry_Int_Tables_number   1
_chemical_formula_structural   Nb4CrSi3
_chemical_formula_sum   'Nb8 Cr2 Si6'
_cell_volume   244.81726159
_cell_formula_units_Z   2
loop_
 _symmetry_equiv_pos_site_id
 _symmetry_equiv_pos_as_xyz
  1  'x, y, z'
loop_
 _atom_site_type_symbol
 _atom_site_label
 _atom_site_symmetry_multiplicity
 _atom_site_fract_x
 _atom_site_fract_y
 _atom_site_fract_z
 _atom_site_occupancy
  Nb  Nb0  1  0.72067389  0.85985747  0.69879474  1
  Nb  Nb1  1  0.27932611  0.14014253  0.30120526  1
  Nb  Nb2  1  0.77932611  0.30120526  0.14014253  1
  Nb  Nb3  1  0.22067389  0.69879474  0.85985747  1
  Nb  Nb4  1  0.58053137  0.69879474  0.14014253  1
  Nb  Nb5  1  0.41946863  0.30120526  0.85985747  1
  Nb  Nb6  1  0.08053137  0.14014253  0.69879474  1
  Nb  Nb7  1  0.91946863  0.85985747  0.30120526  1
  Cr  Cr8  1  0.75000000  0.50000000  0.50000000  1
  Cr  Cr9  1  0.25000000  0.50000000  0.50000000  1
  Si  Si10  1  0.15396058  0.50000000  0.19207883  1
  Si  Si11  1  0.84603942  0.50000000  0.80792117  1
  Si  Si12  1  0.34603942  0.80792117  0.50000000  1
  Si  Si13  1  0.65396058  0.19207883  0.50000000  1
  Si  Si14  1  0.25000000  -0.00000000  0.00000000  1
  Si  Si15  1  0.75000000  -0.00000000  0.00000000  1
