# generated using pymatgen
data_ThCrS3
_symmetry_space_group_name_H-M   'P 1'
_cell_length_a   6.21030108
_cell_length_b   7.42236729
_cell_length_c   8.91247201
_cell_angle_alpha   90.00000000
_cell_angle_beta   90.00000000
_cell_angle_gamma   90.00000000
_symmetry_Int_Tables_number   1
_chemical_formula_structural   ThCrS3
_chemical_formula_sum   'Th4 Cr4 S12'
_cell_volume   410.82160581
_cell_formula_units_Z   4
loop_
 _symmetry_equiv_pos_site_id
 _symmetry_equiv_pos_as_xyz
  1  'x, y, z'
loop_
 _atom_site_type_symbol
 _atom_site_label
 _atom_site_symmetry_multiplicity
 _atom_site_fract_x
 _atom_site_fract_y
 _atom_site_fract_z
 _atom_site_occupancy
  Th  Th0  1  0.44838024  0.88300850  0.25000000  1
  Th  Th1  1  0.05161976  0.38300850  0.25000000  1
  Th  Th2  1  0.55161976  0.11699150  0.75000000  1
  Th  Th3  1  0.94838024  0.61699150  0.75000000  1
  Cr  Cr4  1  0.50000000  0.50000000  -0.00000000  1
  Cr  Cr5  1  -0.00000000  -0.00000000  0.50000000  1
  Cr  Cr6  1  0.50000000  0.50000000  0.50000000  1
  Cr  Cr7  1  0.00000000  0.00000000  -0.00000000  1
  S  S8  1  0.63428250  0.53899667  0.25000000  1
  S  S9  1  0.86571750  0.03899667  0.25000000  1
  S  S10  1  0.36571750  0.46100333  0.75000000  1
  S  S11  1  0.13428250  0.96100333  0.75000000  1
  S  S12  1  0.67262232  0.82832758  0.55531723  1
  S  S13  1  0.82737768  0.32832758  0.94468277  1
  S  S14  1  0.32737768  0.17167242  0.05531723  1
  S  S15  1  0.17262232  0.67167242  0.44468277  1
  S  S16  1  0.32737768  0.17167242  0.44468277  1
  S  S17  1  0.17262232  0.67167242  0.05531723  1
  S  S18  1  0.67262232  0.82832758  0.94468277  1
  S  S19  1  0.82737768  0.32832758  0.55531723  1
