# generated using pymatgen
data_Cs4Tl2O
_symmetry_space_group_name_H-M   'P 1'
_cell_length_a   9.99909887
_cell_length_b   9.99909887
_cell_length_c   9.99909829
_cell_angle_alpha   76.83080275
_cell_angle_beta   76.83080275
_cell_angle_gamma   76.83080466
_symmetry_Int_Tables_number   1
_chemical_formula_structural   Cs4Tl2O
_chemical_formula_sum   'Cs12 Tl6 O3'
_cell_volume   931.37835857
_cell_formula_units_Z   3
loop_
 _symmetry_equiv_pos_site_id
 _symmetry_equiv_pos_as_xyz
  1  'x, y, z'
loop_
 _atom_site_type_symbol
 _atom_site_label
 _atom_site_symmetry_multiplicity
 _atom_site_fract_x
 _atom_site_fract_y
 _atom_site_fract_z
 _atom_site_occupancy
  Cs  Cs0  1  0.71254371  0.01502074  0.01502074  1
  Cs  Cs1  1  0.01502074  0.01502074  0.71254371  1
  Cs  Cs2  1  0.01502074  0.71254371  0.01502074  1
  Cs  Cs3  1  0.28745629  0.98497926  0.98497926  1
  Cs  Cs4  1  0.98497926  0.98497926  0.28745629  1
  Cs  Cs5  1  0.98497926  0.28745629  0.98497926  1
  Cs  Cs6  1  0.96195994  0.63256604  0.63256604  1
  Cs  Cs7  1  0.63256604  0.63256604  0.96195994  1
  Cs  Cs8  1  0.63256604  0.96195994  0.63256604  1
  Cs  Cs9  1  0.03804006  0.36743396  0.36743396  1
  Cs  Cs10  1  0.36743396  0.36743396  0.03804006  1
  Cs  Cs11  1  0.36743396  0.03804006  0.36743396  1
  Tl  Tl12  1  0.61272261  0.34794367  0.34794367  1
  Tl  Tl13  1  0.34794367  0.34794367  0.61272261  1
  Tl  Tl14  1  0.34794367  0.61272261  0.34794367  1
  Tl  Tl15  1  0.38727739  0.65205633  0.65205633  1
  Tl  Tl16  1  0.65205633  0.65205633  0.38727739  1
  Tl  Tl17  1  0.65205633  0.38727739  0.65205633  1
  O  O18  1  0.18022558  0.18022558  0.18022558  1
  O  O19  1  0.81977442  0.81977442  0.81977442  1
  O  O20  1  0.00000000  0.00000000  0.00000000  1
