# generated using pymatgen
data_Pr2Mn3(SbS3)4
_symmetry_space_group_name_H-M   'P 1'
_cell_length_a   3.90410627
_cell_length_b   10.20327486
_cell_length_c   12.25805992
_cell_angle_alpha   82.93762463
_cell_angle_beta   80.83683453
_cell_angle_gamma   78.97038324
_symmetry_Int_Tables_number   1
_chemical_formula_structural   Pr2Mn3(SbS3)4
_chemical_formula_sum   'Pr2 Mn3 Sb4 S12'
_cell_volume   471.00008588
_cell_formula_units_Z   1
loop_
 _symmetry_equiv_pos_site_id
 _symmetry_equiv_pos_as_xyz
  1  'x, y, z'
loop_
 _atom_site_type_symbol
 _atom_site_label
 _atom_site_symmetry_multiplicity
 _atom_site_fract_x
 _atom_site_fract_y
 _atom_site_fract_z
 _atom_site_occupancy
  Pr  Pr0  1  0.24045751  0.65630956  0.86277541  1
  Pr  Pr1  1  0.75954249  0.34369044  0.13722459  1
  Mn  Mn2  1  0.19930448  0.98111896  0.62027208  1
  Mn  Mn3  1  0.80069552  0.01888104  0.37972792  1
  Mn  Mn4  1  -0.00000000  0.00000000  -0.00000000  1
  Sb  Sb5  1  0.10643669  0.33499987  0.45212674  1
  Sb  Sb6  1  0.89356331  0.66500013  0.54787326  1
  Sb  Sb7  1  0.46154082  0.26237403  0.81454433  1
  Sb  Sb8  1  0.53845918  0.73762597  0.18545567  1
  S  S9  1  0.05817563  0.08156650  0.80208225  1
  S  S10  1  0.94182437  0.91843350  0.19791775  1
  S  S11  1  0.59956605  0.82191201  0.97895589  1
  S  S12  1  0.40043395  0.17808799  0.02104411  1
  S  S13  1  0.83247654  0.44014443  0.89490249  1
  S  S14  1  0.16752346  0.55985557  0.10509751  1
  S  S15  1  0.41116556  0.52762374  0.65004514  1
  S  S16  1  0.58883444  0.47237626  0.34995486  1
  S  S17  1  0.25742874  0.19204511  0.29309741  1
  S  S18  1  0.74257126  0.80795489  0.70690259  1
  S  S19  1  0.34281725  0.86192750  0.45243800  1
  S  S20  1  0.65718275  0.13807250  0.54756200  1
