# generated using pymatgen
data_Nd4PClO8
_symmetry_space_group_name_H-M   'P 1'
_cell_length_a   5.87024438
_cell_length_b   5.84235768
_cell_length_c   13.10444199
_cell_angle_alpha   90.00000000
_cell_angle_beta   90.00000000
_cell_angle_gamma   90.00000000
_symmetry_Int_Tables_number   1
_chemical_formula_structural   Nd4PClO8
_chemical_formula_sum   'Nd8 P2 Cl2 O16'
_cell_volume   449.43082490
_cell_formula_units_Z   2
loop_
 _symmetry_equiv_pos_site_id
 _symmetry_equiv_pos_as_xyz
  1  'x, y, z'
loop_
 _atom_site_type_symbol
 _atom_site_label
 _atom_site_symmetry_multiplicity
 _atom_site_fract_x
 _atom_site_fract_y
 _atom_site_fract_z
 _atom_site_occupancy
  Nd  Nd0  1  0.01683606  0.43894400  0.66239804  1
  Nd  Nd1  1  0.01683606  0.43894400  0.33760196  1
  Nd  Nd2  1  0.98316394  0.93894400  0.83760196  1
  Nd  Nd3  1  0.98316394  0.93894400  0.16239804  1
  Nd  Nd4  1  0.51268348  0.46834369  0.83202824  1
  Nd  Nd5  1  0.51268348  0.46834369  0.16797176  1
  Nd  Nd6  1  0.48731652  0.96834369  0.66797176  1
  Nd  Nd7  1  0.48731652  0.96834369  0.33202824  1
  P  P8  1  0.54258850  0.49568557  0.50000000  1
  P  P9  1  0.45741150  0.99568557  -0.00000000  1
  Cl  Cl10  1  0.94735420  0.50618244  -0.00000000  1
  Cl  Cl11  1  0.05264580  0.00618244  0.50000000  1
  O  O12  1  0.75730062  0.20650949  0.75009615  1
  O  O13  1  0.75730062  0.20650949  0.24990385  1
  O  O14  1  0.24269938  0.70650949  0.74990385  1
  O  O15  1  0.24269938  0.70650949  0.25009615  1
  O  O16  1  0.24286754  0.20087433  0.76839852  1
  O  O17  1  0.24286754  0.20087433  0.23160148  1
  O  O18  1  0.75713246  0.70087433  0.73160148  1
  O  O19  1  0.75713246  0.70087433  0.26839852  1
  O  O20  1  0.80562089  0.45582766  0.50000000  1
  O  O21  1  0.19437911  0.95582766  -0.00000000  1
  O  O22  1  0.43318021  0.38477586  0.40449771  1
  O  O23  1  0.43318021  0.38477586  0.59550229  1
  O  O24  1  0.56681979  0.88477586  0.09550229  1
  O  O25  1  0.56681979  0.88477586  0.90449771  1
  O  O26  1  0.50222214  0.76012959  0.50000000  1
  O  O27  1  0.49777786  0.26012959  -0.00000000  1
