# generated using pymatgen
data_Ce2Ga9CoGe2
_symmetry_space_group_name_H-M   'P 1'
_cell_length_a   5.94918841
_cell_length_b   5.94918841
_cell_length_c   15.20693349
_cell_angle_alpha   90.00000000
_cell_angle_beta   90.00000000
_cell_angle_gamma   90.00000000
_symmetry_Int_Tables_number   1
_chemical_formula_structural   Ce2Ga9CoGe2
_chemical_formula_sum   'Ce4 Ga18 Co2 Ge4'
_cell_volume   538.21660553
_cell_formula_units_Z   2
loop_
 _symmetry_equiv_pos_site_id
 _symmetry_equiv_pos_as_xyz
  1  'x, y, z'
loop_
 _atom_site_type_symbol
 _atom_site_label
 _atom_site_symmetry_multiplicity
 _atom_site_fract_x
 _atom_site_fract_y
 _atom_site_fract_z
 _atom_site_occupancy
  Ce  Ce0  1  0.75000000  0.25000000  0.75568421  1
  Ce  Ce1  1  0.25000000  0.75000000  0.75568421  1
  Ce  Ce2  1  0.25000000  0.75000000  0.24431579  1
  Ce  Ce3  1  0.75000000  0.25000000  0.24431579  1
  Ga  Ga4  1  0.51081410  0.51081410  0.91511284  1
  Ga  Ga5  1  0.98918590  0.51081410  0.91511284  1
  Ga  Ga6  1  0.51081410  0.98918590  0.91511284  1
  Ga  Ga7  1  0.98918590  0.98918590  0.91511284  1
  Ga  Ga8  1  0.48918590  0.48918590  0.08488716  1
  Ga  Ga9  1  0.01081410  0.48918590  0.08488716  1
  Ga  Ga10  1  0.48918590  0.01081410  0.08488716  1
  Ga  Ga11  1  0.01081410  0.01081410  0.08488716  1
  Ga  Ga12  1  0.53004659  0.53004659  0.58352968  1
  Ga  Ga13  1  0.96995341  0.53004659  0.58352968  1
  Ga  Ga14  1  0.53004659  0.96995341  0.58352968  1
  Ga  Ga15  1  0.96995341  0.96995341  0.58352968  1
  Ga  Ga16  1  0.46995341  0.46995341  0.41647032  1
  Ga  Ga17  1  0.03004659  0.46995341  0.41647032  1
  Ga  Ga18  1  0.46995341  0.03004659  0.41647032  1
  Ga  Ga19  1  0.03004659  0.03004659  0.41647032  1
  Ga  Ga20  1  0.75000000  0.75000000  0.34708904  1
  Ga  Ga21  1  0.25000000  0.25000000  0.65291096  1
  Co  Co22  1  0.75000000  0.25000000  -0.00000000  1
  Co  Co23  1  0.25000000  0.75000000  -0.00000000  1
  Ge  Ge24  1  0.75000000  0.75000000  0.18693420  1
  Ge  Ge25  1  0.25000000  0.25000000  0.81306580  1
  Ge  Ge26  1  0.75000000  0.75000000  0.77811780  1
  Ge  Ge27  1  0.25000000  0.25000000  0.22188220  1
