# generated using pymatgen
data_Rb2In(IO3)6
_symmetry_space_group_name_H-M   'P 1'
_cell_length_a   7.90381278
_cell_length_b   7.89765232
_cell_length_c   7.89075924
_cell_angle_alpha   97.39257546
_cell_angle_beta   97.30345384
_cell_angle_gamma   98.31134588
_symmetry_Int_Tables_number   1
_chemical_formula_structural   Rb2In(IO3)6
_chemical_formula_sum   'Rb2 In1 I6 O18'
_cell_volume   477.96986819
_cell_formula_units_Z   1
loop_
 _symmetry_equiv_pos_site_id
 _symmetry_equiv_pos_as_xyz
  1  'x, y, z'
loop_
 _atom_site_type_symbol
 _atom_site_label
 _atom_site_symmetry_multiplicity
 _atom_site_fract_x
 _atom_site_fract_y
 _atom_site_fract_z
 _atom_site_occupancy
  Rb  Rb0  1  0.32515714  0.83917343  0.83621005  1
  Rb  Rb1  1  0.67484286  0.16082657  0.16378995  1
  In  In2  1  -0.00000000  0.50000000  0.50000000  1
  I  I3  1  0.16793113  0.31340228  0.88176802  1
  I  I4  1  0.83206887  0.68659772  0.11823198  1
  I  I5  1  0.63007195  0.32993407  0.69731859  1
  I  I6  1  0.36992805  0.67006593  0.30268141  1
  I  I7  1  0.79277428  0.87028737  0.66519784  1
  I  I8  1  0.20722572  0.12971263  0.33480216  1
  O  O9  1  0.17460134  0.47033581  0.72570074  1
  O  O10  1  0.82539866  0.52966419  0.27429926  1
  O  O11  1  0.12417497  0.11468529  0.72390256  1
  O  O12  1  0.87582503  0.88531471  0.27609744  1
  O  O13  1  0.40351298  0.33662307  0.93389518  1
  O  O14  1  0.59648702  0.66337693  0.06610482  1
  O  O15  1  0.57097696  0.09803573  0.69406125  1
  O  O16  1  0.42902304  0.90196427  0.30593875  1
  O  O17  1  0.78588684  0.31019262  0.54094100  1
  O  O18  1  0.21411316  0.68980738  0.45905900  1
  O  O19  1  0.79202672  0.38703282  0.89356524  1
  O  O20  1  0.20797328  0.61296718  0.10643476  1
  O  O21  1  0.80482253  0.91277555  0.89897943  1
  O  O22  1  0.19517747  0.08722445  0.10102057  1
  O  O23  1  0.59423586  0.71156660  0.60377082  1
  O  O24  1  0.40576414  0.28843340  0.39622918  1
  O  O25  1  0.94750496  0.71500563  0.67268976  1
  O  O26  1  0.05249504  0.28499437  0.32731024  1
