# generated using pymatgen
data_Ni(CO2)2
_symmetry_space_group_name_H-M   'P 1'
_cell_length_a   5.72030978
_cell_length_b   5.08677112
_cell_length_c   5.36429432
_cell_angle_alpha   90.00000000
_cell_angle_beta   113.96935579
_cell_angle_gamma   90.00000000
_symmetry_Int_Tables_number   1
_chemical_formula_structural   Ni(CO2)2
_chemical_formula_sum   'Ni2 C4 O8'
_cell_volume   142.62900356
_cell_formula_units_Z   2
loop_
 _symmetry_equiv_pos_site_id
 _symmetry_equiv_pos_as_xyz
  1  'x, y, z'
loop_
 _atom_site_type_symbol
 _atom_site_label
 _atom_site_symmetry_multiplicity
 _atom_site_fract_x
 _atom_site_fract_y
 _atom_site_fract_z
 _atom_site_occupancy
  Ni  Ni0  1  0.50000000  0.50000000  0.50000000  1
  Ni  Ni1  1  0.00000000  0.00000000  0.00000000  1
  C  C2  1  0.41082884  0.37951280  0.95594807  1
  C  C3  1  0.08917116  0.87951280  0.54405193  1
  C  C4  1  0.58917116  0.62048720  0.04405193  1
  C  C5  1  0.91082884  0.12048720  0.45594807  1
  O  O6  1  0.67855758  0.70744640  0.87739366  1
  O  O7  1  0.82144242  0.20744640  0.62260634  1
  O  O8  1  0.32144242  0.29255360  0.12260634  1
  O  O9  1  0.17855758  0.79255360  0.37739366  1
  O  O10  1  0.36627899  0.28432416  0.72385001  1
  O  O11  1  0.13372101  0.78432416  0.77614999  1
  O  O12  1  0.63372101  0.71567584  0.27614999  1
  O  O13  1  0.86627899  0.21567584  0.22385001  1
