# generated using pymatgen
data_Cs2In(IO3)6
_symmetry_space_group_name_H-M   'P 1'
_cell_length_a   8.05381209
_cell_length_b   8.03498105
_cell_length_c   8.11746832
_cell_angle_alpha   97.04635629
_cell_angle_beta   97.50218326
_cell_angle_gamma   97.19917527
_symmetry_Int_Tables_number   1
_chemical_formula_structural   Cs2In(IO3)6
_chemical_formula_sum   'Cs2 In1 I6 O18'
_cell_volume   511.50934210
_cell_formula_units_Z   1
loop_
 _symmetry_equiv_pos_site_id
 _symmetry_equiv_pos_as_xyz
  1  'x, y, z'
loop_
 _atom_site_type_symbol
 _atom_site_label
 _atom_site_symmetry_multiplicity
 _atom_site_fract_x
 _atom_site_fract_y
 _atom_site_fract_z
 _atom_site_occupancy
  Cs  Cs0  1  0.17056807  0.66181312  0.15917729  1
  Cs  Cs1  1  0.82943193  0.33818688  0.84082271  1
  In  In2  1  0.50000000  -0.00000000  0.50000000  1
  I  I3  1  0.70530537  0.83777267  0.13537259  1
  I  I4  1  0.29469463  0.16222733  0.86462741  1
  I  I5  1  0.32829293  0.62547071  0.68700495  1
  I  I6  1  0.67170707  0.37452929  0.31299505  1
  I  I7  1  0.13429946  0.19970649  0.33352999  1
  I  I8  1  0.86570054  0.80029351  0.66647001  1
  O  O9  1  0.54653399  0.83969892  0.28098124  1
  O  O10  1  0.45346601  0.16030108  0.71901876  1
  O  O11  1  0.89763959  0.90511018  0.28718951  1
  O  O12  1  0.10236041  0.09488982  0.71281049  1
  O  O13  1  0.69841734  0.60850474  0.10459426  1
  O  O14  1  0.30158266  0.39149526  0.89540574  1
  O  O15  1  0.33652027  0.77296835  0.52808173  1
  O  O16  1  0.66347973  0.22703165  0.47191827  1
  O  O17  1  0.38850699  0.77839172  0.87820771  1
  O  O18  1  0.61149301  0.22160828  0.12179229  1
  O  O19  1  0.09894408  0.58634365  0.66987301  1
  O  O20  1  0.90105592  0.41365635  0.33012699  1
  O  O21  1  0.28120842  0.03905895  0.32882387  1
  O  O22  1  0.71879158  0.96094105  0.67117613  1
  O  O23  1  0.09216693  0.19785136  0.10768849  1
  O  O24  1  0.90783307  0.80214864  0.89231151  1
  O  O25  1  0.29300213  0.38951886  0.39592649  1
  O  O26  1  0.70699787  0.61048114  0.60407351  1
