# generated using pymatgen
data_GdWBrO4
_symmetry_space_group_name_H-M   'P 1'
_cell_length_a   7.01847536
_cell_length_b   7.40215487
_cell_length_c   11.24418971
_cell_angle_alpha   105.59468194
_cell_angle_beta   107.61791296
_cell_angle_gamma   92.87453582
_symmetry_Int_Tables_number   1
_chemical_formula_structural   GdWBrO4
_chemical_formula_sum   'Gd4 W4 Br4 O16'
_cell_volume   530.72993802
_cell_formula_units_Z   4
loop_
 _symmetry_equiv_pos_site_id
 _symmetry_equiv_pos_as_xyz
  1  'x, y, z'
loop_
 _atom_site_type_symbol
 _atom_site_label
 _atom_site_symmetry_multiplicity
 _atom_site_fract_x
 _atom_site_fract_y
 _atom_site_fract_z
 _atom_site_occupancy
  Gd  Gd0  1  0.64933430  0.12173987  0.73025324  1
  Gd  Gd1  1  0.35066570  0.87826013  0.26974676  1
  Gd  Gd2  1  0.38791093  0.65170719  0.76859057  1
  Gd  Gd3  1  0.61208907  0.34829281  0.23140943  1
  W  W4  1  0.73213638  0.81414520  0.13351179  1
  W  W5  1  0.26786362  0.18585480  0.86648821  1
  W  W6  1  0.77124738  0.59077109  0.62847451  1
  W  W7  1  0.22875262  0.40922891  0.37152549  1
  Br  Br8  1  0.26111248  0.99176338  0.51754811  1
  Br  Br9  1  0.73888752  0.00823662  0.48245189  1
  Br  Br10  1  0.19521445  0.71741942  0.98109176  1
  Br  Br11  1  0.80478555  0.28258058  0.01890824  1
  O  O12  1  0.66560552  0.72863021  0.95844908  1
  O  O13  1  0.33439448  0.27136979  0.04155092  1
  O  O14  1  0.00282444  0.86724910  0.20685142  1
  O  O15  1  0.99717556  0.13275090  0.79314858  1
  O  O16  1  0.62581328  0.64860324  0.20005780  1
  O  O17  1  0.37418672  0.35139676  0.79994220  1
  O  O18  1  0.39274084  0.97919699  0.81707754  1
  O  O19  1  0.60725916  0.02080301  0.18292246  1
  O  O20  1  0.04051456  0.64510207  0.67442790  1
  O  O21  1  0.95948544  0.35489793  0.32557210  1
  O  O22  1  0.70980948  0.41481307  0.70123943  1
  O  O23  1  0.29019052  0.58518693  0.29876057  1
  O  O24  1  0.67075805  0.50360551  0.45144585  1
  O  O25  1  0.32924195  0.49639449  0.54855415  1
  O  O26  1  0.65643583  0.79466257  0.70051425  1
  O  O27  1  0.34356417  0.20533743  0.29948575  1
