# generated using pymatgen
data_TaH6C2SeCl5
_symmetry_space_group_name_H-M   'P 1'
_cell_length_a   7.60152381
_cell_length_b   7.60152381
_cell_length_c   11.48994267
_cell_angle_alpha   90.00000000
_cell_angle_beta   90.00000000
_cell_angle_gamma   112.64074520
_symmetry_Int_Tables_number   1
_chemical_formula_structural   TaH6C2SeCl5
_chemical_formula_sum   'Ta2 H12 C4 Se2 Cl10'
_cell_volume   612.76097216
_cell_formula_units_Z   2
loop_
 _symmetry_equiv_pos_site_id
 _symmetry_equiv_pos_as_xyz
  1  'x, y, z'
loop_
 _atom_site_type_symbol
 _atom_site_label
 _atom_site_symmetry_multiplicity
 _atom_site_fract_x
 _atom_site_fract_y
 _atom_site_fract_z
 _atom_site_occupancy
  Ta  Ta0  1  0.78940146  0.21059854  0.80647867  1
  Ta  Ta1  1  0.21059854  0.78940146  0.30647867  1
  H  H2  1  0.78731771  0.54325315  0.05911686  1
  H  H3  1  0.45674685  0.21268229  0.05911686  1
  H  H4  1  0.21268229  0.45674685  0.55911686  1
  H  H5  1  0.54325315  0.78731771  0.55911686  1
  H  H6  1  0.84869138  0.71800591  0.94319180  1
  H  H7  1  0.28199409  0.15130862  0.94319180  1
  H  H8  1  0.15130862  0.28199409  0.44319180  1
  H  H9  1  0.71800591  0.84869138  0.44319180  1
  H  H10  1  0.64418766  0.68253702  0.03329536  1
  H  H11  1  0.31746298  0.35581234  0.03329536  1
  H  H12  1  0.35581234  0.31746298  0.53329536  1
  H  H13  1  0.68253702  0.64418766  0.53329536  1
  C  C14  1  0.73304476  0.61465523  0.99331920  1
  C  C15  1  0.38534477  0.26695524  0.99331920  1
  C  C16  1  0.26695524  0.38534477  0.49331920  1
  C  C17  1  0.61465523  0.73304476  0.49331920  1
  Se  Se18  1  0.57248053  0.42751947  0.88121456  1
  Se  Se19  1  0.42751947  0.57248053  0.38121456  1
  Cl  Cl20  1  0.96462639  0.03537361  0.75044181  1
  Cl  Cl21  1  0.03537361  0.96462639  0.25044181  1
  Cl  Cl22  1  0.04468717  0.50768361  0.80864625  1
  Cl  Cl23  1  0.49231639  0.95531283  0.80864625  1
  Cl  Cl24  1  0.95531283  0.49231639  0.30864625  1
  Cl  Cl25  1  0.50768361  0.04468717  0.30864625  1
  Cl  Cl26  1  0.82510248  0.17489752  0.00609005  1
  Cl  Cl27  1  0.17489752  0.82510248  0.50609005  1
  Cl  Cl28  1  0.72041496  0.27958504  0.61661897  1
  Cl  Cl29  1  0.27958504  0.72041496  0.11661897  1
