# generated using pymatgen
data_Ti6Ga16Ir7
_symmetry_space_group_name_H-M   'P 1'
_cell_length_a   8.63477452
_cell_length_b   8.63477452
_cell_length_c   8.63477452
_cell_angle_alpha   60.00000000
_cell_angle_beta   60.00000000
_cell_angle_gamma   60.00000000
_symmetry_Int_Tables_number   1
_chemical_formula_structural   Ti6Ga16Ir7
_chemical_formula_sum   'Ti6 Ga16 Ir7'
_cell_volume   455.23747593
_cell_formula_units_Z   1
loop_
 _symmetry_equiv_pos_site_id
 _symmetry_equiv_pos_as_xyz
  1  'x, y, z'
loop_
 _atom_site_type_symbol
 _atom_site_label
 _atom_site_symmetry_multiplicity
 _atom_site_fract_x
 _atom_site_fract_y
 _atom_site_fract_z
 _atom_site_occupancy
  Ti  Ti0  1  0.69621933  0.30378067  0.30378067  1
  Ti  Ti1  1  0.69621933  0.30378067  0.69621933  1
  Ti  Ti2  1  0.69621933  0.69621933  0.30378067  1
  Ti  Ti3  1  0.30378067  0.69621933  0.69621933  1
  Ti  Ti4  1  0.30378067  0.69621933  0.30378067  1
  Ti  Ti5  1  0.30378067  0.30378067  0.69621933  1
  Ga  Ga6  1  0.63053859  0.12315380  0.12315380  1
  Ga  Ga7  1  0.12315380  0.63053859  0.12315380  1
  Ga  Ga8  1  0.12315380  0.12315380  0.63053859  1
  Ga  Ga9  1  0.12315380  0.12315380  0.12315380  1
  Ga  Ga10  1  0.36946141  0.87684620  0.87684620  1
  Ga  Ga11  1  0.87684620  0.36946141  0.87684620  1
  Ga  Ga12  1  0.87684620  0.87684620  0.36946141  1
  Ga  Ga13  1  0.87684620  0.87684620  0.87684620  1
  Ga  Ga14  1  0.94029565  0.35323478  0.35323478  1
  Ga  Ga15  1  0.35323478  0.94029565  0.35323478  1
  Ga  Ga16  1  0.35323478  0.35323478  0.94029565  1
  Ga  Ga17  1  0.35323478  0.35323478  0.35323478  1
  Ga  Ga18  1  0.05970435  0.64676522  0.64676522  1
  Ga  Ga19  1  0.64676522  0.05970435  0.64676522  1
  Ga  Ga20  1  0.64676522  0.64676522  0.05970435  1
  Ga  Ga21  1  0.64676522  0.64676522  0.64676522  1
  Ir  Ir22  1  0.00000000  0.00000000  -0.00000000  1
  Ir  Ir23  1  0.50000000  0.00000000  -0.00000000  1
  Ir  Ir24  1  0.50000000  0.00000000  0.50000000  1
  Ir  Ir25  1  0.50000000  0.50000000  -0.00000000  1
  Ir  Ir26  1  0.00000000  0.50000000  0.50000000  1
  Ir  Ir27  1  0.00000000  0.50000000  -0.00000000  1
  Ir  Ir28  1  0.00000000  0.00000000  0.50000000  1
