# generated using pymatgen
data_FeCu4BiPbS6
_symmetry_space_group_name_H-M   'P 1'
_cell_length_a   3.88687565
_cell_length_b   10.82936427
_cell_length_c   12.11926288
_cell_angle_alpha   90.00000000
_cell_angle_beta   90.00000000
_cell_angle_gamma   90.00000000
_symmetry_Int_Tables_number   1
_chemical_formula_structural   FeCu4BiPbS6
_chemical_formula_sum   'Fe2 Cu8 Bi2 Pb2 S12'
_cell_volume   510.12876736
_cell_formula_units_Z   2
loop_
 _symmetry_equiv_pos_site_id
 _symmetry_equiv_pos_as_xyz
  1  'x, y, z'
loop_
 _atom_site_type_symbol
 _atom_site_label
 _atom_site_symmetry_multiplicity
 _atom_site_fract_x
 _atom_site_fract_y
 _atom_site_fract_z
 _atom_site_occupancy
  Fe  Fe0  1  -0.00000000  0.70748959  0.18006941  1
  Fe  Fe1  1  -0.00000000  0.29251041  0.68006941  1
  Cu  Cu2  1  0.50000000  0.97933739  0.77510776  1
  Cu  Cu3  1  0.50000000  0.02066261  0.27510776  1
  Cu  Cu4  1  0.00000000  0.51477274  0.57459063  1
  Cu  Cu5  1  -0.00000000  0.48522726  0.07459063  1
  Cu  Cu6  1  0.50000000  0.62189481  0.33714312  1
  Cu  Cu7  1  0.50000000  0.37810519  0.83714312  1
  Cu  Cu8  1  0.50000000  0.78687580  0.04225176  1
  Cu  Cu9  1  0.50000000  0.21312420  0.54225176  1
  Bi  Bi10  1  -0.00000000  0.84808287  0.49339120  1
  Bi  Bi11  1  -0.00000000  0.15191713  0.99339120  1
  Pb  Pb12  1  0.50000000  0.69258777  0.77646022  1
  Pb  Pb13  1  0.50000000  0.30741223  0.27646022  1
  S  S14  1  0.50000000  0.81055629  0.23626221  1
  S  S15  1  0.50000000  0.18944371  0.73626221  1
  S  S16  1  0.50000000  0.97907563  0.96291339  1
  S  S17  1  0.50000000  0.02092437  0.46291339  1
  S  S18  1  -0.00000000  0.52385393  0.26797086  1
  S  S19  1  -0.00000000  0.47614607  0.76797086  1
  S  S20  1  -0.00000000  0.68029538  0.99288879  1
  S  S21  1  -0.00000000  0.31970462  0.49288879  1
  S  S22  1  -0.00000000  0.88803060  0.70785980  1
  S  S23  1  0.00000000  0.11196940  0.20785980  1
  S  S24  1  0.50000000  0.63156170  0.53009085  1
  S  S25  1  0.50000000  0.36843830  0.03009085  1
