# generated using pymatgen
data_H8PdS8(NO13)2
_symmetry_space_group_name_H-M   'P 1'
_cell_length_a   7.74265702
_cell_length_b   9.00519687
_cell_length_c   9.63571056
_cell_angle_alpha   71.54314447
_cell_angle_beta   90.09946680
_cell_angle_gamma   74.14497139
_symmetry_Int_Tables_number   1
_chemical_formula_structural   H8PdS8(NO13)2
_chemical_formula_sum   'H8 Pd1 S8 N2 O26'
_cell_volume   610.16642103
_cell_formula_units_Z   1
loop_
 _symmetry_equiv_pos_site_id
 _symmetry_equiv_pos_as_xyz
  1  'x, y, z'
loop_
 _atom_site_type_symbol
 _atom_site_label
 _atom_site_symmetry_multiplicity
 _atom_site_fract_x
 _atom_site_fract_y
 _atom_site_fract_z
 _atom_site_occupancy
  H  H0  1  0.79774569  0.25677337  0.02279310  1
  H  H1  1  0.20225431  0.74322663  0.97720690  1
  H  H2  1  0.79085099  0.24273145  0.20077282  1
  H  H3  1  0.20914901  0.75726855  0.79922718  1
  H  H4  1  0.87721470  0.38229932  0.08719815  1
  H  H5  1  0.12278530  0.61770068  0.91280185  1
  H  H6  1  0.99031417  0.18210528  0.13608267  1
  H  H7  1  0.00968583  0.81789472  0.86391733  1
  Pd  Pd8  1  0.50000000  0.50000000  0.50000000  1
  S  S9  1  0.33095756  0.35656425  0.29614890  1
  S  S10  1  0.66904244  0.64343575  0.70385110  1
  S  S11  1  0.11954205  0.19391265  0.51876941  1
  S  S12  1  0.88045795  0.80608735  0.48123059  1
  S  S13  1  0.60559268  0.15854239  0.77464608  1
  S  S14  1  0.39440732  0.84145761  0.22535392  1
  S  S15  1  0.21040597  0.22838282  0.80078504  1
  S  S16  1  0.78959403  0.77161718  0.19921496  1
  N  N17  1  0.86437284  0.26622034  0.11141569  1
  N  N18  1  0.13562716  0.73377966  0.88858431  1
  O  O19  1  0.29600657  0.18685730  0.43568650  1
  O  O20  1  0.70399343  0.81314270  0.56431350  1
  O  O21  1  0.30354649  0.48166508  0.37205149  1
  O  O22  1  0.69645351  0.51833492  0.62794851  1
  O  O23  1  0.18857363  0.40528685  0.18104078  1
  O  O24  1  0.81142637  0.59471315  0.81895922  1
  O  O25  1  0.14704725  0.30367487  0.62317691  1
  O  O26  1  0.85295275  0.69632513  0.37682309  1
  O  O27  1  0.96279235  0.29534178  0.42224919  1
  O  O28  1  0.03720765  0.70465822  0.57775081  1
  O  O29  1  0.51332748  0.28520984  0.27360701  1
  O  O30  1  0.48667252  0.71479016  0.72639299  1
  O  O31  1  0.13564337  0.03075628  0.61074753  1
  O  O32  1  0.86435663  0.96924372  0.38925247  1
  O  O33  1  0.56963430  0.25583986  0.61537974  1
  O  O34  1  0.43036570  0.74416014  0.38462026  1
  O  O35  1  0.40245130  0.10409492  0.81083049  1
  O  O36  1  0.59754870  0.89590508  0.18916951  1
  O  O37  1  0.22035191  0.36846319  0.83552690  1
  O  O38  1  0.77964809  0.63153681  0.16447310  1
  O  O39  1  0.09681723  0.13136096  0.87117858  1
  O  O40  1  0.90318277  0.86863904  0.12882142  1
  O  O41  1  0.62167095  0.24570222  0.87359275  1
  O  O42  1  0.37832905  0.75429778  0.12640725  1
  O  O43  1  0.72475925  0.99832135  0.79812486  1
  O  O44  1  0.27524075  0.00167865  0.20187514  1
