# generated using pymatgen
data_Lu2Fe17
_symmetry_space_group_name_H-M   'P 1'
_cell_length_a   8.20269524
_cell_length_b   8.44049805
_cell_length_c   8.44049805
_cell_angle_alpha   119.99009015
_cell_angle_beta   90.00000000
_cell_angle_gamma   90.00000000
_symmetry_Int_Tables_number   1
_chemical_formula_structural   Lu2Fe17
_chemical_formula_sum   'Lu4 Fe34'
_cell_volume   506.13540162
_cell_formula_units_Z   2
loop_
 _symmetry_equiv_pos_site_id
 _symmetry_equiv_pos_as_xyz
  1  'x, y, z'
loop_
 _atom_site_type_symbol
 _atom_site_label
 _atom_site_symmetry_multiplicity
 _atom_site_fract_x
 _atom_site_fract_y
 _atom_site_fract_z
 _atom_site_occupancy
  Lu  Lu0  1  0.75000000  0.99998038  0.00001962  1
  Lu  Lu1  1  0.25000000  0.00001962  0.99998038  1
  Lu  Lu2  1  0.25000000  0.66665955  0.33334045  1
  Lu  Lu3  1  0.75000000  0.33334045  0.66665955  1
  Fe  Fe4  1  0.60550839  0.66666648  0.33333352  1
  Fe  Fe5  1  0.39449161  0.33333352  0.66666648  1
  Fe  Fe6  1  0.10550839  0.33333352  0.66666648  1
  Fe  Fe7  1  0.89449161  0.66666648  0.33333352  1
  Fe  Fe8  1  0.50000000  0.50000000  0.00000000  1
  Fe  Fe9  1  0.50000000  0.50000000  0.50000000  1
  Fe  Fe10  1  0.50000000  0.00000000  0.50000000  1
  Fe  Fe11  1  -0.00000000  0.50000000  0.00000000  1
  Fe  Fe12  1  -0.00000000  0.50000000  0.50000000  1
  Fe  Fe13  1  -0.00000000  0.00000000  0.50000000  1
  Fe  Fe14  1  0.75000000  0.67128101  0.03869188  1
  Fe  Fe15  1  0.75000000  0.36743369  0.32873244  1
  Fe  Fe16  1  0.75000000  0.96128878  0.63254490  1
  Fe  Fe17  1  0.75000000  0.36745510  0.03871122  1
  Fe  Fe18  1  0.75000000  0.96130812  0.32871899  1
  Fe  Fe19  1  0.75000000  0.67126756  0.63256631  1
  Fe  Fe20  1  0.25000000  0.32871899  0.96130812  1
  Fe  Fe21  1  0.25000000  0.63256631  0.67126756  1
  Fe  Fe22  1  0.25000000  0.03871122  0.36745510  1
  Fe  Fe23  1  0.25000000  0.63254490  0.96128878  1
  Fe  Fe24  1  0.25000000  0.03869188  0.67128101  1
  Fe  Fe25  1  0.25000000  0.32873244  0.36743369  1
  Fe  Fe26  1  0.48318140  0.83450398  0.66903786  1
  Fe  Fe27  1  0.48320016  0.83453414  0.16546586  1
  Fe  Fe28  1  0.48318140  0.33096214  0.16549602  1
  Fe  Fe29  1  0.51681860  0.16549602  0.33096214  1
  Fe  Fe30  1  0.51679984  0.16546586  0.83453414  1
  Fe  Fe31  1  0.51681860  0.66903786  0.83450398  1
  Fe  Fe32  1  0.98318140  0.16549602  0.33096214  1
  Fe  Fe33  1  0.98320016  0.16546586  0.83453414  1
  Fe  Fe34  1  0.98318140  0.66903786  0.83450398  1
  Fe  Fe35  1  0.01681860  0.83450398  0.66903786  1
  Fe  Fe36  1  0.01679984  0.83453414  0.16546586  1
  Fe  Fe37  1  0.01681860  0.33096214  0.16549602  1
