# generated using pymatgen
data_GaAs(H2O3)2
_symmetry_space_group_name_H-M   'P 1'
_cell_length_a   9.01892766
_cell_length_b   10.07174593
_cell_length_c   10.49616138
_cell_angle_alpha   90.00000000
_cell_angle_beta   90.00000000
_cell_angle_gamma   90.00000000
_symmetry_Int_Tables_number   1
_chemical_formula_structural   GaAs(H2O3)2
_chemical_formula_sum   'Ga8 As8 H32 O48'
_cell_volume   953.43296728
_cell_formula_units_Z   8
loop_
 _symmetry_equiv_pos_site_id
 _symmetry_equiv_pos_as_xyz
  1  'x, y, z'
loop_
 _atom_site_type_symbol
 _atom_site_label
 _atom_site_symmetry_multiplicity
 _atom_site_fract_x
 _atom_site_fract_y
 _atom_site_fract_z
 _atom_site_occupancy
  Ga  Ga0  1  0.84688143  0.81949184  0.86955615  1
  Ga  Ga1  1  0.34688143  0.68050816  0.13044385  1
  Ga  Ga2  1  0.15311857  0.31949184  0.63044385  1
  Ga  Ga3  1  0.65311857  0.18050816  0.36955615  1
  Ga  Ga4  1  0.15311857  0.18050816  0.13044385  1
  Ga  Ga5  1  0.65311857  0.31949184  0.86955615  1
  Ga  Ga6  1  0.84688143  0.68050816  0.36955615  1
  Ga  Ga7  1  0.34688143  0.81949184  0.63044385  1
  As  As8  1  0.52739032  0.63763110  0.85188388  1
  As  As9  1  0.02739032  0.86236890  0.14811612  1
  As  As10  1  0.47260968  0.13763110  0.64811612  1
  As  As11  1  0.97260968  0.36236890  0.35188388  1
  As  As12  1  0.47260968  0.36236890  0.14811612  1
  As  As13  1  0.97260968  0.13763110  0.85188388  1
  As  As14  1  0.52739032  0.86236890  0.35188388  1
  As  As15  1  0.02739032  0.63763110  0.64811612  1
  H  H16  1  0.66568906  0.90938484  0.68214609  1
  H  H17  1  0.16568906  0.59061516  0.31785391  1
  H  H18  1  0.33431094  0.40938484  0.81785391  1
  H  H19  1  0.83431094  0.09061516  0.18214609  1
  H  H20  1  0.33431094  0.09061516  0.31785391  1
  H  H21  1  0.83431094  0.40938484  0.68214609  1
  H  H22  1  0.66568906  0.59061516  0.18214609  1
  H  H23  1  0.16568906  0.90938484  0.81785391  1
  H  H24  1  0.80672473  0.82211583  0.62912658  1
  H  H25  1  0.30672473  0.67788417  0.37087342  1
  H  H26  1  0.19327527  0.32211583  0.87087342  1
  H  H27  1  0.69327527  0.17788417  0.12912658  1
  H  H28  1  0.19327527  0.17788417  0.37087342  1
  H  H29  1  0.69327527  0.32211583  0.62912658  1
  H  H30  1  0.80672473  0.67788417  0.12912658  1
  H  H31  1  0.30672473  0.82211583  0.87087342  1
  H  H32  1  0.70539442  0.03340186  0.92076650  1
  H  H33  1  0.20539442  0.46659814  0.07923350  1
  H  H34  1  0.29460558  0.53340186  0.57923350  1
  H  H35  1  0.79460558  0.96659814  0.42076650  1
  H  H36  1  0.29460558  0.96659814  0.07923350  1
  H  H37  1  0.79460558  0.53340186  0.92076650  1
  H  H38  1  0.70539442  0.46659814  0.42076650  1
  H  H39  1  0.20539442  0.03340186  0.57923350  1
  H  H40  1  0.58227249  0.91326239  0.92628779  1
  H  H41  1  0.08227249  0.58673761  0.07371221  1
  H  H42  1  0.41772751  0.41326239  0.57371221  1
  H  H43  1  0.91772751  0.08673761  0.42628779  1
  H  H44  1  0.41772751  0.08673761  0.07371221  1
  H  H45  1  0.91772751  0.41326239  0.92628779  1
  H  H46  1  0.58227249  0.58673761  0.42628779  1
  H  H47  1  0.08227249  0.91326239  0.57371221  1
  O  O48  1  0.49314554  0.69923628  0.70334263  1
  O  O49  1  0.99314554  0.80076372  0.29665737  1
  O  O50  1  0.50685446  0.19923628  0.79665737  1
  O  O51  1  0.00685446  0.30076372  0.20334263  1
  O  O52  1  0.50685446  0.30076372  0.29665737  1
  O  O53  1  0.00685446  0.19923628  0.70334263  1
  O  O54  1  0.49314554  0.80076372  0.20334263  1
  O  O55  1  0.99314554  0.69923628  0.79665737  1
  O  O56  1  0.49917025  0.46830676  0.86010812  1
  O  O57  1  0.99917025  0.03169324  0.13989188  1
  O  O58  1  0.50082975  0.96830676  0.63989188  1
  O  O59  1  0.00082975  0.53169324  0.36010812  1
  O  O60  1  0.50082975  0.53169324  0.13989188  1
  O  O61  1  0.00082975  0.96830676  0.86010812  1
  O  O62  1  0.49917025  0.03169324  0.36010812  1
  O  O63  1  0.99917025  0.46830676  0.63989188  1
  O  O64  1  0.41666858  0.72634893  0.95702210  1
  O  O65  1  0.91666858  0.77365107  0.04297790  1
  O  O66  1  0.58333142  0.22634893  0.54297790  1
  O  O67  1  0.08333142  0.27365107  0.45702210  1
  O  O68  1  0.58333142  0.27365107  0.04297790  1
  O  O69  1  0.08333142  0.22634893  0.95702210  1
  O  O70  1  0.41666858  0.77365107  0.45702210  1
  O  O71  1  0.91666858  0.72634893  0.54297790  1
  O  O72  1  0.71153841  0.66410479  0.88812208  1
  O  O73  1  0.21153841  0.83589521  0.11187792  1
  O  O74  1  0.28846159  0.16410479  0.61187792  1
  O  O75  1  0.78846159  0.33589521  0.38812208  1
  O  O76  1  0.28846159  0.33589521  0.11187792  1
  O  O77  1  0.78846159  0.16410479  0.88812208  1
  O  O78  1  0.71153841  0.83589521  0.38812208  1
  O  O79  1  0.21153841  0.66410479  0.61187792  1
  O  O80  1  0.77054889  0.88104304  0.69985164  1
  O  O81  1  0.27054889  0.61895696  0.30014836  1
  O  O82  1  0.22945111  0.38104304  0.80014836  1
  O  O83  1  0.72945111  0.11895696  0.19985164  1
  O  O84  1  0.22945111  0.11895696  0.30014836  1
  O  O85  1  0.72945111  0.38104304  0.69985164  1
  O  O86  1  0.77054889  0.61895696  0.19985164  1
  O  O87  1  0.27054889  0.88104304  0.80014836  1
  O  O88  1  0.68420928  0.93735168  0.94652612  1
  O  O89  1  0.18420928  0.56264832  0.05347388  1
  O  O90  1  0.31579072  0.43735168  0.55347388  1
  O  O91  1  0.81579072  0.06264832  0.44652612  1
  O  O92  1  0.31579072  0.06264832  0.05347388  1
  O  O93  1  0.81579072  0.43735168  0.94652612  1
  O  O94  1  0.68420928  0.56264832  0.44652612  1
  O  O95  1  0.18420928  0.93735168  0.55347388  1
