# generated using pymatgen
data_CaSiP2
_symmetry_space_group_name_H-M   'P 1'
_cell_length_a   7.20456229
_cell_length_b   7.20456229
_cell_length_c   26.32007469
_cell_angle_alpha   90.00000000
_cell_angle_beta   90.00000000
_cell_angle_gamma   90.00000000
_symmetry_Int_Tables_number   1
_chemical_formula_structural   CaSiP2
_chemical_formula_sum   'Ca16 Si16 P32'
_cell_volume   1366.16236908
_cell_formula_units_Z   16
loop_
 _symmetry_equiv_pos_site_id
 _symmetry_equiv_pos_as_xyz
  1  'x, y, z'
loop_
 _atom_site_type_symbol
 _atom_site_label
 _atom_site_symmetry_multiplicity
 _atom_site_fract_x
 _atom_site_fract_y
 _atom_site_fract_z
 _atom_site_occupancy
  Ca  Ca0  1  0.65280730  0.37713407  0.31917884  1
  Ca  Ca1  1  0.34719270  0.62286593  0.81917884  1
  Ca  Ca2  1  0.87713407  0.84719270  0.06917884  1
  Ca  Ca3  1  0.12286593  0.15280730  0.56917884  1
  Ca  Ca4  1  0.62286593  0.34719270  0.18082116  1
  Ca  Ca5  1  0.37713407  0.65280730  0.68082116  1
  Ca  Ca6  1  0.84719270  0.87713407  0.93082116  1
  Ca  Ca7  1  0.15280730  0.12286593  0.43082116  1
  Ca  Ca8  1  0.62795218  0.15454324  0.56448176  1
  Ca  Ca9  1  0.37204782  0.84545676  0.06448176  1
  Ca  Ca10  1  0.65454324  0.87204782  0.31448176  1
  Ca  Ca11  1  0.34545676  0.12795218  0.81448176  1
  Ca  Ca12  1  0.84545676  0.37204782  0.93551824  1
  Ca  Ca13  1  0.15454324  0.62795218  0.43551824  1
  Ca  Ca14  1  0.87204782  0.65454324  0.68551824  1
  Ca  Ca15  1  0.12795218  0.34545676  0.18551824  1
  Si  Si16  1  0.62625102  0.11610126  0.70575885  1
  Si  Si17  1  0.37374898  0.88389874  0.20575885  1
  Si  Si18  1  0.61610126  0.87374898  0.45575885  1
  Si  Si19  1  0.38389874  0.12625102  0.95575885  1
  Si  Si20  1  0.88389874  0.37374898  0.79424115  1
  Si  Si21  1  0.11610126  0.62625102  0.29424115  1
  Si  Si22  1  0.87374898  0.61610126  0.54424115  1
  Si  Si23  1  0.12625102  0.38389874  0.04424115  1
  Si  Si24  1  0.61686547  0.37599702  0.45033661  1
  Si  Si25  1  0.38313453  0.62400298  0.95033661  1
  Si  Si26  1  0.87599702  0.88313453  0.20033661  1
  Si  Si27  1  0.12400298  0.11686547  0.70033661  1
  Si  Si28  1  0.62400298  0.38313453  0.04966339  1
  Si  Si29  1  0.37599702  0.61686547  0.54966339  1
  Si  Si30  1  0.88313453  0.87599702  0.79966339  1
  Si  Si31  1  0.11686547  0.12400298  0.29966339  1
  P  P32  1  0.88807767  0.36692139  0.49204497  1
  P  P33  1  0.11192233  0.63307861  0.99204497  1
  P  P34  1  0.86692139  0.61192233  0.24204497  1
  P  P35  1  0.13307861  0.38807767  0.74204497  1
  P  P36  1  0.63307861  0.11192233  0.00795503  1
  P  P37  1  0.36692139  0.88807767  0.50795503  1
  P  P38  1  0.61192233  0.86692139  0.75795503  1
  P  P39  1  0.38807767  0.13307861  0.25795503  1
  P  P40  1  0.13562703  0.86437297  0.75000000  1
  P  P41  1  0.86437297  0.13562703  0.25000000  1
  P  P42  1  0.36437297  0.36437297  0.50000000  1
  P  P43  1  0.63562703  0.63562703  0.00000000  1
  P  P44  1  0.57296419  0.11838611  0.40246692  1
  P  P45  1  0.42703581  0.88161389  0.90246692  1
  P  P46  1  0.61838611  0.92703581  0.15246692  1
  P  P47  1  0.38161389  0.07296419  0.65246692  1
  P  P48  1  0.88161389  0.42703581  0.09753308  1
  P  P49  1  0.11838611  0.57296419  0.59753308  1
  P  P50  1  0.92703581  0.61838611  0.84753308  1
  P  P51  1  0.07296419  0.38161389  0.34753308  1
  P  P52  1  0.61526167  0.38473833  0.75000000  1
  P  P53  1  0.38473833  0.61526167  0.25000000  1
  P  P54  1  0.88473833  0.88473833  0.50000000  1
  P  P55  1  0.11526167  0.11526167  -0.00000000  1
  P  P56  1  0.86869231  0.06714279  0.65185975  1
  P  P57  1  0.13130769  0.93285721  0.15185975  1
  P  P58  1  0.56714279  0.63130769  0.40185975  1
  P  P59  1  0.43285721  0.36869231  0.90185975  1
  P  P60  1  0.93285721  0.13130769  0.84814025  1
  P  P61  1  0.06714279  0.86869231  0.34814025  1
  P  P62  1  0.63130769  0.56714279  0.59814025  1
  P  P63  1  0.36869231  0.43285721  0.09814025  1
