# generated using pymatgen
data_Gd2(MoO4)3
_symmetry_space_group_name_H-M   'P 1'
_cell_length_a   6.94212818
_cell_length_b   6.94212818
_cell_length_c   11.60274544
_cell_angle_alpha   100.47428912
_cell_angle_beta   100.47428912
_cell_angle_gamma   112.73872707
_symmetry_Int_Tables_number   1
_chemical_formula_structural   Gd2(MoO4)3
_chemical_formula_sum   'Gd4 Mo6 O24'
_cell_volume   487.13791731
_cell_formula_units_Z   2
loop_
 _symmetry_equiv_pos_site_id
 _symmetry_equiv_pos_as_xyz
  1  'x, y, z'
loop_
 _atom_site_type_symbol
 _atom_site_label
 _atom_site_symmetry_multiplicity
 _atom_site_fract_x
 _atom_site_fract_y
 _atom_site_fract_z
 _atom_site_occupancy
  Gd  Gd0  1  0.04789575  0.80252191  0.09155082  1
  Gd  Gd1  1  0.69747809  0.45210425  0.40844918  1
  Gd  Gd2  1  0.95210425  0.19747809  0.90844918  1
  Gd  Gd3  1  0.30252191  0.54789575  0.59155082  1
  Mo  Mo4  1  0.12154307  0.37845693  0.25000000  1
  Mo  Mo5  1  0.87845693  0.62154307  0.75000000  1
  Mo  Mo6  1  0.19948980  0.97956236  0.44185822  1
  Mo  Mo7  1  0.52043764  0.30051020  0.05814178  1
  Mo  Mo8  1  0.80051020  0.02043764  0.55814178  1
  Mo  Mo9  1  0.47956236  0.69948980  0.94185822  1
  O  O10  1  0.40855140  0.48802859  0.28137115  1
  O  O11  1  0.01197141  0.09144860  0.21862885  1
  O  O12  1  0.59144860  0.51197141  0.71862885  1
  O  O13  1  0.98802859  0.90855140  0.78137115  1
  O  O14  1  0.03061411  0.44668066  0.11101156  1
  O  O15  1  0.05331934  0.46938589  0.38898844  1
  O  O16  1  0.96938589  0.55331934  0.88898844  1
  O  O17  1  0.94668066  0.53061411  0.61101156  1
  O  O18  1  0.22186608  0.85327501  0.29856688  1
  O  O19  1  0.64672499  0.27813392  0.20143312  1
  O  O20  1  0.77813392  0.14672499  0.70143312  1
  O  O21  1  0.35327501  0.72186608  0.79856688  1
  O  O22  1  0.36719858  0.27459728  0.45900078  1
  O  O23  1  0.22540272  0.13280142  0.04099922  1
  O  O24  1  0.63280142  0.72540272  0.54099922  1
  O  O25  1  0.77459728  0.86719858  0.95900078  1
  O  O26  1  0.67344383  0.59987811  0.08569144  1
  O  O27  1  0.90012189  0.82655617  0.41430856  1
  O  O28  1  0.32655617  0.40012189  0.91430856  1
  O  O29  1  0.09987811  0.17344383  0.58569144  1
  O  O30  1  0.67943689  0.11474340  0.44790113  1
  O  O31  1  0.38525660  0.82056311  0.05209887  1
  O  O32  1  0.32056311  0.88525660  0.55209887  1
  O  O33  1  0.61474340  0.17943689  0.94790113  1
