# generated using pymatgen
data_K2CdN12
_symmetry_space_group_name_H-M   'P 1'
_cell_length_a   3.87962313
_cell_length_b   8.20074986
_cell_length_c   9.90834953
_cell_angle_alpha   94.20788167
_cell_angle_beta   90.00000001
_cell_angle_gamma   103.68246455
_symmetry_Int_Tables_number   1
_chemical_formula_structural   K2CdN12
_chemical_formula_sum   'K2 Cd1 N12'
_cell_volume   305.42151116
_cell_formula_units_Z   1
loop_
 _symmetry_equiv_pos_site_id
 _symmetry_equiv_pos_as_xyz
  1  'x, y, z'
loop_
 _atom_site_type_symbol
 _atom_site_label
 _atom_site_symmetry_multiplicity
 _atom_site_fract_x
 _atom_site_fract_y
 _atom_site_fract_z
 _atom_site_occupancy
  K  K0  1  0.85080350  0.70160700  0.82174502  1
  K  K1  1  0.14919650  0.29839300  0.17825498  1
  Cd  Cd2  1  -0.00000000  -0.00000000  0.50000000  1
  N  N3  1  0.40708177  0.81416354  0.49488048  1
  N  N4  1  0.59291823  0.18583646  0.50511952  1
  N  N5  1  0.34018719  0.68037437  0.42949897  1
  N  N6  1  0.65981281  0.31962563  0.57050103  1
  N  N7  1  0.27527053  0.55054105  0.36681020  1
  N  N8  1  0.72472947  0.44945895  0.63318980  1
  N  N9  1  0.00937137  0.01874274  0.74031666  1
  N  N10  1  0.99062863  0.98125726  0.25968334  1
  N  N11  1  0.06805919  0.13611837  0.82278290  1
  N  N12  1  0.93194081  0.86388163  0.17721710  1
  N  N13  1  0.12389279  0.24778558  0.90766194  1
  N  N14  1  0.87610721  0.75221442  0.09233806  1
