# generated using pymatgen
data_Mn(BH4)2
_symmetry_space_group_name_H-M   'P 1'
_cell_length_a   7.59327330
_cell_length_b   7.59327330
_cell_length_c   8.21805355
_cell_angle_alpha   117.51542106
_cell_angle_beta   117.51542106
_cell_angle_gamma   90.00000000
_symmetry_Int_Tables_number   1
_chemical_formula_structural   Mn(BH4)2
_chemical_formula_sum   'Mn4 B8 H32'
_cell_volume   358.72004818
_cell_formula_units_Z   4
loop_
 _symmetry_equiv_pos_site_id
 _symmetry_equiv_pos_as_xyz
  1  'x, y, z'
loop_
 _atom_site_type_symbol
 _atom_site_label
 _atom_site_symmetry_multiplicity
 _atom_site_fract_x
 _atom_site_fract_y
 _atom_site_fract_z
 _atom_site_occupancy
  Mn  Mn0  1  0.87500000  0.12500000  0.75000000  1
  Mn  Mn1  1  0.37500000  0.62500000  0.75000000  1
  Mn  Mn2  1  0.12500000  0.87500000  0.25000000  1
  Mn  Mn3  1  0.62500000  0.37500000  0.25000000  1
  B  B4  1  0.25000000  0.27238646  0.00000000  1
  B  B5  1  0.25000000  0.77238646  0.00000000  1
  B  B6  1  0.22761354  0.75000000  0.50000000  1
  B  B7  1  0.77238646  0.25000000  0.50000000  1
  B  B8  1  0.75000000  0.72761354  -0.00000000  1
  B  B9  1  0.75000000  0.22761354  -0.00000000  1
  B  B10  1  0.72761354  0.75000000  0.50000000  1
  B  B11  1  0.27238646  0.25000000  0.50000000  1
  H  H12  1  0.17690781  0.09716444  0.83917862  1
  H  H13  1  0.16227081  0.59716444  0.83917862  1
  H  H14  1  0.24201419  0.66227081  0.33917862  1
  H  H15  1  0.59716444  0.16227081  0.33917862  1
  H  H16  1  0.82309219  0.90283556  0.16082138  1
  H  H17  1  0.83772919  0.40283556  0.16082138  1
  H  H18  1  0.75798581  0.33772919  0.66082138  1
  H  H19  1  0.40283556  0.83772919  0.66082138  1
  H  H20  1  0.67690781  0.74201419  0.83917862  1
  H  H21  1  0.66227081  0.24201419  0.83917862  1
  H  H22  1  0.74201419  0.67690781  0.33917862  1
  H  H23  1  0.09716444  0.17690781  0.33917862  1
  H  H24  1  0.32309219  0.25798581  0.16082138  1
  H  H25  1  0.33772919  0.75798581  0.16082138  1
  H  H26  1  0.25798581  0.32309219  0.66082138  1
  H  H27  1  0.90283556  0.82309219  0.66082138  1
  H  H28  1  0.37657717  0.36813884  0.99509805  1
  H  H29  1  0.11852087  0.86813884  0.99509805  1
  H  H30  1  0.12695921  0.61852087  0.49509805  1
  H  H31  1  0.86813884  0.11852087  0.49509805  1
  H  H32  1  0.62342283  0.63186116  0.00490195  1
  H  H33  1  0.88147913  0.13186116  0.00490195  1
  H  H34  1  0.87304079  0.38147913  0.50490195  1
  H  H35  1  0.13186116  0.88147913  0.50490195  1
  H  H36  1  0.87657717  0.62695921  0.99509805  1
  H  H37  1  0.61852087  0.12695921  0.99509805  1
  H  H38  1  0.62695921  0.87657717  0.49509805  1
  H  H39  1  0.36813884  0.37657717  0.49509805  1
  H  H40  1  0.12342283  0.37304079  0.00490195  1
  H  H41  1  0.38147913  0.87304079  0.00490195  1
  H  H42  1  0.37304079  0.12342283  0.50490195  1
  H  H43  1  0.63186116  0.62342283  0.50490195  1
