# generated using pymatgen
data_Co2H36Pt3(NCl)12
_symmetry_space_group_name_H-M   'P 1'
_cell_length_a   7.88440831
_cell_length_b   7.95918284
_cell_length_c   13.16750102
_cell_angle_alpha   89.09959088
_cell_angle_beta   84.21249745
_cell_angle_gamma   88.01964963
_symmetry_Int_Tables_number   1
_chemical_formula_structural   Co2H36Pt3(NCl)12
_chemical_formula_sum   'Co2 H36 Pt3 N12 Cl12'
_cell_volume   821.54101850
_cell_formula_units_Z   1
loop_
 _symmetry_equiv_pos_site_id
 _symmetry_equiv_pos_as_xyz
  1  'x, y, z'
loop_
 _atom_site_type_symbol
 _atom_site_label
 _atom_site_symmetry_multiplicity
 _atom_site_fract_x
 _atom_site_fract_y
 _atom_site_fract_z
 _atom_site_occupancy
  Co  Co0  1  0.50000000  0.50000000  -0.00000000  1
  Co  Co1  1  -0.00000000  0.00000000  0.50000000  1
  H  H2  1  0.67466667  0.56037267  0.82910558  1
  H  H3  1  0.32533333  0.43962733  0.17089442  1
  H  H4  1  0.74024955  0.67826706  0.91878444  1
  H  H5  1  0.25975045  0.32173294  0.08121556  1
  H  H6  1  0.80217823  0.47738487  0.90940339  1
  H  H7  1  0.19782177  0.52261513  0.09059661  1
  H  H8  1  0.73519799  0.28106406  0.03321537  1
  H  H9  1  0.26480201  0.71893594  0.96678463  1
  H  H10  1  0.71906744  0.41881978  0.12566450  1
  H  H11  1  0.28093256  0.58118022  0.87433550  1
  H  H12  1  0.58098763  0.27119416  0.12818974  1
  H  H13  1  0.41901237  0.72880584  0.87181026  1
  H  H14  1  0.65229876  0.74094882  0.07424327  1
  H  H15  1  0.34770124  0.25905118  0.92575673  1
  H  H16  1  0.44499699  0.78582783  0.08809715  1
  H  H17  1  0.55500301  0.21417217  0.91190285  1
  H  H18  1  0.53078928  0.65284581  0.16799180  1
  H  H19  1  0.46921072  0.34715419  0.83200820  1
  H  H20  1  0.72832723  0.17424321  0.55459454  1
  H  H21  1  0.27167277  0.82575679  0.44540546  1
  H  H22  1  0.72973061  0.13099495  0.43322918  1
  H  H23  1  0.27026939  0.86900505  0.56677082  1
  H  H24  1  0.67473635  0.98522978  0.51990950  1
  H  H25  1  0.32526365  0.01477022  0.48009050  1
  H  H26  1  0.05864644  0.09671088  0.67463560  1
  H  H27  1  0.94135356  0.90328912  0.32536440  1
  H  H28  1  0.86131563  0.03029312  0.68225056  1
  H  H29  1  0.13868437  0.96970688  0.31774944  1
  H  H30  1  0.02475036  0.89299934  0.67826633  1
  H  H31  1  0.97524964  0.10700066  0.32173367  1
  H  H32  1  0.02377701  0.68126629  0.52340277  1
  H  H33  1  0.97622299  0.31873371  0.47659723  1
  H  H34  1  0.83055995  0.74534937  0.56957974  1
  H  H35  1  0.16944005  0.25465063  0.43042026  1
  H  H36  1  0.87220319  0.72587941  0.44635308  1
  H  H37  1  0.12779681  0.27412059  0.55364692  1
  Pt  Pt38  1  0.46208717  0.50370561  0.66188141  1
  Pt  Pt39  1  0.53791283  0.49629439  0.33811859  1
  Pt  Pt40  1  -0.00000000  0.00000000  -0.00000000  1
  N  N41  1  0.69955929  0.55997022  0.90446190  1
  N  N42  1  0.30044071  0.44002978  0.09553810  1
  N  N43  1  0.64841110  0.35280952  0.07936971  1
  N  N44  1  0.35158890  0.64719048  0.92063029  1
  N  N45  1  0.53484901  0.68905237  0.09171343  1
  N  N46  1  0.46515099  0.31094763  0.90828657  1
  N  N47  1  0.75870357  0.07976306  0.50187006  1
  N  N48  1  0.24129643  0.92023694  0.49812994  1
  N  N49  1  0.98346054  0.00656054  0.64947196  1
  N  N50  1  0.01653946  0.99343946  0.35052804  1
  N  N51  1  0.92479113  0.76409507  0.51043032  1
  N  N52  1  0.07520887  0.23590493  0.48956968  1
  Cl  Cl53  1  0.55038607  0.77735364  0.67954457  1
  Cl  Cl54  1  0.44961393  0.22264636  0.32045543  1
  Cl  Cl55  1  0.74394737  0.40651977  0.65434020  1
  Cl  Cl56  1  0.25605263  0.59348023  0.34565980  1
  Cl  Cl57  1  0.37488883  0.22964258  0.64957529  1
  Cl  Cl58  1  0.62511117  0.77035742  0.35042471  1
  Cl  Cl59  1  0.17935746  0.60079345  0.67524263  1
  Cl  Cl60  1  0.82064254  0.39920655  0.32475737  1
  Cl  Cl61  1  0.74715461  0.97973545  0.92492012  1
  Cl  Cl62  1  0.25284539  0.02026455  0.07507988  1
  Cl  Cl63  1  0.97365626  0.72910506  0.06664028  1
  Cl  Cl64  1  0.02634374  0.27089494  0.93335972  1
