# generated using pymatgen
data_Dy15(Fe4C13)2
_symmetry_space_group_name_H-M   'P 1'
_cell_length_a   5.14277107
_cell_length_b   11.91975510
_cell_length_c   11.91615252
_cell_angle_alpha   119.98122707
_cell_angle_beta   89.99116215
_cell_angle_gamma   90.01721200
_symmetry_Int_Tables_number   1
_chemical_formula_structural   Dy15(Fe4C13)2
_chemical_formula_sum   'Dy15 Fe8 C26'
_cell_volume   632.72255165
_cell_formula_units_Z   1
loop_
 _symmetry_equiv_pos_site_id
 _symmetry_equiv_pos_as_xyz
  1  'x, y, z'
loop_
 _atom_site_type_symbol
 _atom_site_label
 _atom_site_symmetry_multiplicity
 _atom_site_fract_x
 _atom_site_fract_y
 _atom_site_fract_z
 _atom_site_occupancy
  Dy  Dy0  1  0.25363067  0.11587483  0.71222359  1
  Dy  Dy1  1  0.25363558  0.28769461  0.40355190  1
  Dy  Dy2  1  0.25366801  0.59628742  0.88413255  1
  Dy  Dy3  1  0.74635471  0.88412125  0.59632252  1
  Dy  Dy4  1  0.74631015  0.40370520  0.28783220  1
  Dy  Dy5  1  0.74640210  0.71231305  0.11586769  1
  Dy  Dy6  1  0.24271904  0.63107724  0.48629972  1
  Dy  Dy7  1  0.24270245  0.51370470  0.14468776  1
  Dy  Dy8  1  0.24269482  0.85543469  0.36891797  1
  Dy  Dy9  1  0.75728719  0.36893421  0.85528504  1
  Dy  Dy10  1  0.75731505  0.14457180  0.51346983  1
  Dy  Dy11  1  0.75729224  0.48623737  0.63096916  1
  Dy  Dy12  1  0.49998943  0.83307307  0.83316504  1
  Dy  Dy13  1  0.50004441  0.16697035  0.00007816  1
  Dy  Dy14  1  0.49996317  -0.00000537  0.16724188  1
  Fe  Fe15  1  -0.00000011  0.74177813  0.74186402  1
  Fe  Fe16  1  0.00002413  0.25818444  0.00019072  1
  Fe  Fe17  1  0.99996284  0.00010125  0.25808866  1
  Fe  Fe18  1  0.99996018  0.12934786  0.12942620  1
  Fe  Fe19  1  0.00017144  0.87061045  0.00014876  1
  Fe  Fe20  1  0.99987576  0.00007030  0.87057842  1
  Fe  Fe21  1  0.26744720  0.33332095  0.66659981  1
  Fe  Fe22  1  0.73255434  0.66666139  0.33327191  1
  C  C23  1  0.22887633  0.31924768  0.92019316  1
  C  C24  1  0.22911772  0.07979556  0.39913454  1
  C  C25  1  0.22882845  0.60084007  0.68070487  1
  C  C26  1  0.77122191  0.68073656  0.60089342  1
  C  C27  1  0.77109004  0.39917228  0.07983662  1
  C  C28  1  0.77086760  0.92020386  0.31928493  1
  C  C29  1  0.25879777  0.35894354  0.83192708  1
  C  C30  1  0.25870862  0.16821029  0.52703716  1
  C  C31  1  0.25880613  0.47297747  0.64103154  1
  C  C32  1  0.74113707  0.64101081  0.47295803  1
  C  C33  1  0.74124326  0.52702026  0.16809619  1
  C  C34  1  0.74129718  0.83180846  0.35882976  1
  C  C35  1  0.17557133  0.88128121  0.70130937  1
  C  C36  1  0.17558098  0.29871181  0.18007288  1
  C  C37  1  0.17562525  0.81991352  0.11852283  1
  C  C38  1  0.82437238  0.11859185  0.81992228  1
  C  C39  1  0.82432176  0.18008384  0.29868069  1
  C  C40  1  0.82455933  0.70133521  0.88130315  1
  C  C41  1  0.23462942  0.87525911  0.58448137  1
  C  C42  1  0.23457638  0.41552793  0.29075696  1
  C  C43  1  0.23468053  0.70930957  0.12482459  1
  C  C44  1  0.76529227  0.12478228  0.70922884  1
  C  C45  1  0.76542557  0.29073253  0.41553907  1
  C  C46  1  0.76537621  0.58454195  0.87524195  1
  C  C47  1  0.22254812  0.99998238  -0.00003384  1
  C  C48  1  0.77744361  0.99991078  0.00000904  1
