# generated using pymatgen
data_CsP2H3N
_symmetry_space_group_name_H-M   'P 1'
_cell_length_a   6.67377657
_cell_length_b   6.95606070
_cell_length_c   13.22020243
_cell_angle_alpha   90.00000000
_cell_angle_beta   90.00000000
_cell_angle_gamma   106.19172000
_symmetry_Int_Tables_number   1
_chemical_formula_structural   CsP2H3N
_chemical_formula_sum   'Cs4 P8 H12 N4'
_cell_volume   589.38005223
_cell_formula_units_Z   4
loop_
 _symmetry_equiv_pos_site_id
 _symmetry_equiv_pos_as_xyz
  1  'x, y, z'
loop_
 _atom_site_type_symbol
 _atom_site_label
 _atom_site_symmetry_multiplicity
 _atom_site_fract_x
 _atom_site_fract_y
 _atom_site_fract_z
 _atom_site_occupancy
  Cs  Cs0  1  0.31160252  0.76531253  0.62061970  1
  Cs  Cs1  1  0.18839748  0.23468747  0.12061970  1
  Cs  Cs2  1  0.68839748  0.23468747  0.37938030  1
  Cs  Cs3  1  0.81160252  0.76531253  0.87938030  1
  P  P4  1  0.14324301  0.20694599  0.52374796  1
  P  P5  1  0.35675699  0.79305401  0.02374796  1
  P  P6  1  0.85675699  0.79305401  0.47625204  1
  P  P7  1  0.64324301  0.20694599  0.97625204  1
  P  P8  1  0.38886995  0.99928337  0.89873288  1
  P  P9  1  0.11113005  0.00071663  0.39873288  1
  P  P10  1  0.61113005  0.00071663  0.10126712  1
  P  P11  1  0.88886995  0.99928337  0.60126712  1
  H  H12  1  0.14184315  0.32149385  0.76424845  1
  H  H13  1  0.35815685  0.67850615  0.26424845  1
  H  H14  1  0.85815685  0.67850615  0.23575155  1
  H  H15  1  0.64184315  0.32149385  0.73575155  1
  H  H16  1  0.98584074  0.35358354  0.85398349  1
  H  H17  1  0.51415926  0.64641646  0.35398349  1
  H  H18  1  0.01415926  0.64641646  0.14601651  1
  H  H19  1  0.48584074  0.35358354  0.64601651  1
  H  H20  1  0.23151133  0.48441767  0.85332316  1
  H  H21  1  0.26848867  0.51558233  0.35332316  1
  H  H22  1  0.76848867  0.51558233  0.14667684  1
  H  H23  1  0.73151133  0.48441767  0.64667684  1
  N  N24  1  0.10567555  0.42930220  0.80712191  1
  N  N25  1  0.39432445  0.57069780  0.30712191  1
  N  N26  1  0.89432445  0.57069780  0.19287809  1
  N  N27  1  0.60567555  0.42930220  0.69287809  1
