# generated using pymatgen
data_HoSeF
_symmetry_space_group_name_H-M   'P 1'
_cell_length_a   4.09926054
_cell_length_b   9.97946657
_cell_length_c   18.95913484
_cell_angle_alpha   90.00000000
_cell_angle_beta   90.00000000
_cell_angle_gamma   90.00000000
_symmetry_Int_Tables_number   1
_chemical_formula_structural   HoSeF
_chemical_formula_sum   'Ho12 Se12 F12'
_cell_volume   775.58850721
_cell_formula_units_Z   12
loop_
 _symmetry_equiv_pos_site_id
 _symmetry_equiv_pos_as_xyz
  1  'x, y, z'
loop_
 _atom_site_type_symbol
 _atom_site_label
 _atom_site_symmetry_multiplicity
 _atom_site_fract_x
 _atom_site_fract_y
 _atom_site_fract_z
 _atom_site_occupancy
  Ho  Ho0  1  0.75000000  0.40798444  0.58357122  1
  Ho  Ho1  1  0.75000000  0.90798444  0.91642878  1
  Ho  Ho2  1  0.25000000  0.59201556  0.41642878  1
  Ho  Ho3  1  0.25000000  0.09201556  0.08357122  1
  Ho  Ho4  1  0.75000000  0.24446035  0.26055335  1
  Ho  Ho5  1  0.75000000  0.74446035  0.23944665  1
  Ho  Ho6  1  0.25000000  0.75553965  0.73944665  1
  Ho  Ho7  1  0.25000000  0.25553965  0.76055335  1
  Ho  Ho8  1  0.75000000  0.42243285  0.91907254  1
  Ho  Ho9  1  0.75000000  0.92243285  0.58092746  1
  Ho  Ho10  1  0.25000000  0.57756715  0.08092746  1
  Ho  Ho11  1  0.25000000  0.07756715  0.41907254  1
  Se  Se12  1  0.75000000  0.16371036  0.65928257  1
  Se  Se13  1  0.75000000  0.66371036  0.84071743  1
  Se  Se14  1  0.25000000  0.83628964  0.34071743  1
  Se  Se15  1  0.25000000  0.33628964  0.15928257  1
  Se  Se16  1  0.75000000  0.16485679  0.98638318  1
  Se  Se17  1  0.75000000  0.66485679  0.51361682  1
  Se  Se18  1  0.25000000  0.83514321  0.01361682  1
  Se  Se19  1  0.25000000  0.33514321  0.48638318  1
  Se  Se20  1  0.75000000  0.00581984  0.17785686  1
  Se  Se21  1  0.75000000  0.50581984  0.32214314  1
  Se  Se22  1  0.25000000  0.99418016  0.82214314  1
  Se  Se23  1  0.25000000  0.49418016  0.67785686  1
  F  F24  1  0.75000000  0.30121653  0.80559415  1
  F  F25  1  0.75000000  0.80121653  0.69440585  1
  F  F26  1  0.25000000  0.69878347  0.19440585  1
  F  F27  1  0.25000000  0.19878347  0.30559415  1
  F  F28  1  0.75000000  0.13689018  0.36482092  1
  F  F29  1  0.75000000  0.63689018  0.13517908  1
  F  F30  1  0.25000000  0.86310982  0.63517908  1
  F  F31  1  0.25000000  0.36310982  0.86482092  1
  F  F32  1  0.75000000  0.02528915  0.47321615  1
  F  F33  1  0.75000000  0.52528915  0.02678385  1
  F  F34  1  0.25000000  0.97471085  0.52678385  1
  F  F35  1  0.25000000  0.47471085  0.97321615  1
