# generated using pymatgen
data_K2PdO4
_symmetry_space_group_name_H-M   'P 1'
_cell_length_a   5.38919171
_cell_length_b   6.95066435
_cell_length_c   7.33267524
_cell_angle_alpha   87.74138099
_cell_angle_beta   107.31900291
_cell_angle_gamma   92.94658403
_symmetry_Int_Tables_number   1
_chemical_formula_structural   K2PdO4
_chemical_formula_sum   'K4 Pd2 O8'
_cell_volume   261.78734407
_cell_formula_units_Z   2
loop_
 _symmetry_equiv_pos_site_id
 _symmetry_equiv_pos_as_xyz
  1  'x, y, z'
loop_
 _atom_site_type_symbol
 _atom_site_label
 _atom_site_symmetry_multiplicity
 _atom_site_fract_x
 _atom_site_fract_y
 _atom_site_fract_z
 _atom_site_occupancy
  K  K0  1  0.81587910  0.87531292  0.41885841  1
  K  K1  1  0.17432200  0.37483383  0.58226828  1
  K  K2  1  0.83223718  0.49451653  0.91179430  1
  K  K3  1  0.18951802  0.98593942  0.08680194  1
  Pd  Pd4  1  0.51272369  0.42018482  0.24169755  1
  Pd  Pd5  1  0.47651048  0.92607421  0.74296920  1
  O  O6  1  0.33189192  0.36767088  0.98482771  1
  O  O7  1  0.67268026  0.86600117  0.00294840  1
  O  O8  1  0.64096187  0.50288515  0.50242325  1
  O  O9  1  0.34017634  0.00875446  0.48628679  1
  O  O10  1  0.26014726  0.60154568  0.25361136  1
  O  O11  1  0.77179423  0.09935126  0.76622455  1
  O  O12  1  0.78350245  0.25126846  0.26916151  1
  O  O13  1  0.19765520  0.75326120  0.75012675  1
