# generated using pymatgen
data_Ba3Fe3O8
_symmetry_space_group_name_H-M   'P 1'
_cell_length_a   5.74088562
_cell_length_b   11.45625284
_cell_length_c   14.01104383
_cell_angle_alpha   114.13131973
_cell_angle_beta   90.00000000
_cell_angle_gamma   90.00000000
_symmetry_Int_Tables_number   1
_chemical_formula_structural   Ba3Fe3O8
_chemical_formula_sum   'Ba12 Fe12 O32'
_cell_volume   840.96437029
_cell_formula_units_Z   4
loop_
 _symmetry_equiv_pos_site_id
 _symmetry_equiv_pos_as_xyz
  1  'x, y, z'
loop_
 _atom_site_type_symbol
 _atom_site_label
 _atom_site_symmetry_multiplicity
 _atom_site_fract_x
 _atom_site_fract_y
 _atom_site_fract_z
 _atom_site_occupancy
  Ba  Ba0  1  0.75000000  0.37314836  0.00000000  1
  Ba  Ba1  1  0.25000000  0.62685164  0.00000000  1
  Ba  Ba2  1  0.75000000  0.87542619  0.00000000  1
  Ba  Ba3  1  0.25000000  0.12457381  0.00000000  1
  Ba  Ba4  1  0.75000000  0.71476464  0.68506337  1
  Ba  Ba5  1  0.25000000  0.97029873  0.68506337  1
  Ba  Ba6  1  0.25000000  0.28523536  0.31493663  1
  Ba  Ba7  1  0.75000000  0.02970127  0.31493663  1
  Ba  Ba8  1  0.75000000  0.21257949  0.68136103  1
  Ba  Ba9  1  0.25000000  0.46878155  0.68136103  1
  Ba  Ba10  1  0.25000000  0.78742051  0.31863897  1
  Ba  Ba11  1  0.75000000  0.53121845  0.31863897  1
  Fe  Fe12  1  0.75000000  0.39347683  0.49216998  1
  Fe  Fe13  1  0.25000000  0.09869315  0.49216998  1
  Fe  Fe14  1  0.25000000  0.60652317  0.50783002  1
  Fe  Fe15  1  0.75000000  0.90130685  0.50783002  1
  Fe  Fe16  1  0.75000000  0.20120376  0.15431138  1
  Fe  Fe17  1  0.25000000  0.95310763  0.15431138  1
  Fe  Fe18  1  0.25000000  0.79879624  0.84568862  1
  Fe  Fe19  1  0.75000000  0.04689237  0.84568862  1
  Fe  Fe20  1  0.75000000  0.69874038  0.15148663  1
  Fe  Fe21  1  0.25000000  0.45274625  0.15148663  1
  Fe  Fe22  1  0.25000000  0.30125962  0.84851337  1
  Fe  Fe23  1  0.75000000  0.54725375  0.84851337  1
  O  O24  1  0.75000000  0.13037824  0.00000000  1
  O  O25  1  0.25000000  0.86962176  0.00000000  1
  O  O26  1  0.75000000  0.62597173  0.00000000  1
  O  O27  1  0.25000000  0.37402827  0.00000000  1
  O  O28  1  0.75000000  0.40019616  0.62281273  1
  O  O29  1  0.25000000  0.22261657  0.62281273  1
  O  O30  1  0.25000000  0.59980384  0.37718727  1
  O  O31  1  0.75000000  0.77738343  0.37718727  1
  O  O32  1  0.75000000  0.92708906  0.64648470  1
  O  O33  1  0.25000000  0.71939564  0.64648470  1
  O  O34  1  0.25000000  0.07291094  0.35351530  1
  O  O35  1  0.75000000  0.28060436  0.35351530  1
  O  O36  1  0.50000000  -0.00000000  0.50000000  1
  O  O37  1  0.50000000  0.50000000  0.50000000  1
  O  O38  1  -0.00000000  -0.00000000  0.50000000  1
  O  O39  1  -0.00000000  0.50000000  0.50000000  1
  O  O40  1  0.50000000  0.41573228  0.83146456  1
  O  O41  1  -0.00000000  0.41573228  0.83146456  1
  O  O42  1  0.50000000  0.58426772  0.16853544  1
  O  O43  1  0.00000000  0.58426772  0.16853544  1
  O  O44  1  0.50000000  0.91758176  0.83516353  1
  O  O45  1  0.00000000  0.91758176  0.83516353  1
  O  O46  1  0.50000000  0.08241824  0.16483647  1
  O  O47  1  -0.00000000  0.08241824  0.16483647  1
  O  O48  1  0.50238017  0.83441864  0.17218884  1
  O  O49  1  0.49761983  0.33777019  0.17218884  1
  O  O50  1  0.99761983  0.83441864  0.17218884  1
  O  O51  1  0.00238017  0.33777019  0.17218884  1
  O  O52  1  0.49761983  0.16558136  0.82781116  1
  O  O53  1  0.50238017  0.66222981  0.82781116  1
  O  O54  1  0.00238017  0.16558136  0.82781116  1
  O  O55  1  0.99761983  0.66222981  0.82781116  1
