# generated using pymatgen
data_Pr6ZnFe13
_symmetry_space_group_name_H-M   'P 1'
_cell_length_a   8.09714876
_cell_length_b   8.09714876
_cell_length_c   12.91748268
_cell_angle_alpha   108.26535150
_cell_angle_beta   108.26535150
_cell_angle_gamma   90.00000000
_symmetry_Int_Tables_number   1
_chemical_formula_structural   Pr6ZnFe13
_chemical_formula_sum   'Pr12 Zn2 Fe26'
_cell_volume   759.18100578
_cell_formula_units_Z   2
loop_
 _symmetry_equiv_pos_site_id
 _symmetry_equiv_pos_as_xyz
  1  'x, y, z'
loop_
 _atom_site_type_symbol
 _atom_site_label
 _atom_site_symmetry_multiplicity
 _atom_site_fract_x
 _atom_site_fract_y
 _atom_site_fract_z
 _atom_site_occupancy
  Pr  Pr0  1  0.97635969  0.47635969  0.62487929  1
  Pr  Pr1  1  0.64851960  0.14851960  0.62487929  1
  Pr  Pr2  1  0.14851960  0.97635969  0.62487929  1
  Pr  Pr3  1  0.47635969  0.64851960  0.62487929  1
  Pr  Pr4  1  0.02364031  0.52364031  0.37512071  1
  Pr  Pr5  1  0.35148040  0.85148040  0.37512071  1
  Pr  Pr6  1  0.85148040  0.02364031  0.37512071  1
  Pr  Pr7  1  0.52364031  0.35148040  0.37512071  1
  Pr  Pr8  1  0.60711910  0.60711910  0.21423820  1
  Pr  Pr9  1  0.10711910  0.10711910  0.21423820  1
  Pr  Pr10  1  0.39288090  0.39288090  0.78576180  1
  Pr  Pr11  1  0.89288090  0.89288090  0.78576180  1
  Zn  Zn12  1  0.25000000  0.25000000  0.50000000  1
  Zn  Zn13  1  0.75000000  0.75000000  0.50000000  1
  Fe  Fe14  1  0.11932082  0.61932082  0.88167825  1
  Fe  Fe15  1  0.76235743  0.26235743  0.88167825  1
  Fe  Fe16  1  0.26235743  0.11932082  0.88167825  1
  Fe  Fe17  1  0.61932082  0.76235743  0.88167825  1
  Fe  Fe18  1  0.88067918  0.38067918  0.11832175  1
  Fe  Fe19  1  0.23764257  0.73764257  0.11832175  1
  Fe  Fe20  1  0.73764257  0.88067918  0.11832175  1
  Fe  Fe21  1  0.38067918  0.23764257  0.11832175  1
  Fe  Fe22  1  0.71032447  0.56645048  0.00000000  1
  Fe  Fe23  1  0.28967553  0.43354952  1.00000000  1
  Fe  Fe24  1  0.78967553  0.06645048  1.00000000  1
  Fe  Fe25  1  0.21032447  0.93354952  0.00000000  1
  Fe  Fe26  1  0.56645048  0.28967553  1.00000000  1
  Fe  Fe27  1  0.43354952  0.71032447  0.00000000  1
  Fe  Fe28  1  0.06645048  0.21032447  0.00000000  1
  Fe  Fe29  1  0.93354952  0.78967553  1.00000000  1
  Fe  Fe30  1  0.29200414  0.79200414  0.81087110  1
  Fe  Fe31  1  0.51886696  0.01886696  0.81087110  1
  Fe  Fe32  1  0.01886696  0.29200414  0.81087110  1
  Fe  Fe33  1  0.79200414  0.51886696  0.81087110  1
  Fe  Fe34  1  0.70799586  0.20799586  0.18912890  1
  Fe  Fe35  1  0.48113304  0.98113304  0.18912890  1
  Fe  Fe36  1  0.98113304  0.70799586  0.18912890  1
  Fe  Fe37  1  0.20799586  0.48113304  0.18912890  1
  Fe  Fe38  1  -0.00000000  0.50000000  -0.00000000  1
  Fe  Fe39  1  0.50000000  -0.00000000  -0.00000000  1
