# generated using pymatgen
data_La2P3(HO2)5
_symmetry_space_group_name_H-M   'P 1'
_cell_length_a   6.79100758
_cell_length_b   11.08923440
_cell_length_c   14.31725478
_cell_angle_alpha   100.72743207
_cell_angle_beta   89.99916721
_cell_angle_gamma   107.82848464
_symmetry_Int_Tables_number   1
_chemical_formula_structural   La2P3(HO2)5
_chemical_formula_sum   'La8 P12 H20 O40'
_cell_volume   1006.60246067
_cell_formula_units_Z   4
loop_
 _symmetry_equiv_pos_site_id
 _symmetry_equiv_pos_as_xyz
  1  'x, y, z'
loop_
 _atom_site_type_symbol
 _atom_site_label
 _atom_site_symmetry_multiplicity
 _atom_site_fract_x
 _atom_site_fract_y
 _atom_site_fract_z
 _atom_site_occupancy
  La  La0  1  0.72819083  0.22469528  0.65478170  1
  La  La1  1  0.50340617  0.77534553  0.84522818  1
  La  La2  1  0.27180454  0.77530593  0.34521850  1
  La  La3  1  0.49658808  0.22465388  0.15477432  1
  La  La4  1  0.72037958  0.43512766  0.91611255  1
  La  La5  1  0.28533059  0.56491134  0.58387361  1
  La  La6  1  0.27962503  0.56487482  0.08389046  1
  La  La7  1  0.71466417  0.43508860  0.41612423  1
  P  P8  1  0.99857049  0.73426455  0.94644308  1
  P  P9  1  0.26431175  0.26571469  0.55357194  1
  P  P10  1  0.00142778  0.26573290  0.05355910  1
  P  P11  1  0.73568521  0.73428592  0.44642803  1
  P  P12  1  0.22716227  0.43734861  0.81754555  1
  P  P13  1  0.78979706  0.56263535  0.68246313  1
  P  P14  1  0.77284048  0.56265047  0.18245611  1
  P  P15  1  0.21020053  0.43736366  0.31753510  1
  P  P16  1  0.48581291  0.12189964  0.88295873  1
  P  P17  1  0.36383474  0.87811022  0.61704788  1
  P  P18  1  0.51418516  0.87810043  0.11704201  1
  P  P19  1  0.63616343  0.12189085  0.38295181  1
  H  H20  1  0.00366628  0.82125522  0.03284179  1
  H  H21  1  0.18240375  0.17874741  0.46715553  1
  H  H22  1  0.99633762  0.17874750  0.96715767  1
  H  H23  1  0.81759816  0.82125245  0.53284531  1
  H  H24  1  0.30438581  0.34667325  0.76061103  1
  H  H25  1  0.95766569  0.65332669  0.73938415  1
  H  H26  1  0.69561730  0.65332741  0.23938897  1
  H  H27  1  0.04233147  0.34667368  0.26061426  1
  H  H28  1  0.26929370  0.07345490  0.86233581  1
  H  H29  1  0.19574729  0.92653443  0.63771620  1
  H  H30  1  0.73070504  0.92654481  0.13766333  1
  H  H31  1  0.80425050  0.07346633  0.36228460  1
  H  H32  1  0.91772454  0.00757727  0.67816750  1
  H  H33  1  0.91013265  0.99242942  0.82182126  1
  H  H34  1  0.08227858  0.99242303  0.32183219  1
  H  H35  1  0.08986667  0.00757014  0.17817847  1
  H  H36  1  0.12306146  0.12671946  0.67749908  1
  H  H37  1  0.99631358  0.87328994  0.82248825  1
  H  H38  1  0.87693959  0.87328091  0.32249970  1
  H  H39  1  0.00368381  0.12671066  0.17751096  1
  O  O40  1  0.52257877  0.21581903  0.98058652  1
  O  O41  1  0.30666637  0.78418276  0.51942490  1
  O  O42  1  0.47741964  0.78417938  0.01941199  1
  O  O43  1  0.69333315  0.21581587  0.48057654  1
  O  O44  1  0.77290833  0.68094471  0.90263570  1
  O  O45  1  0.09198701  0.31906062  0.59737937  1
  O  O46  1  0.22709450  0.31905670  0.09736525  1
  O  O47  1  0.90801139  0.68093898  0.40261914  1
  O  O48  1  0.15336304  0.80645253  0.88242910  1
  O  O49  1  0.34688535  0.19351582  0.61757326  1
  O  O50  1  0.84664125  0.19354961  0.11756903  1
  O  O51  1  0.65311387  0.80648268  0.38242711  1
  O  O52  1  0.36067177  0.47655976  0.91381418  1
  O  O53  1  0.88411826  0.52337101  0.58620602  1
  O  O54  1  0.63933650  0.52344106  0.08618648  1
  O  O55  1  0.11587641  0.47662924  0.41379246  1
  O  O56  1  0.26655286  0.55599335  0.76886465  1
  O  O57  1  0.71045672  0.44403917  0.73118398  1
  O  O58  1  0.73344864  0.44400670  0.23113589  1
  O  O59  1  0.28954315  0.55596252  0.26881571  1
  O  O60  1  0.05108912  0.61668038  0.97067222  1
  O  O61  1  0.43441095  0.38329439  0.52932497  1
  O  O62  1  0.94891401  0.38332115  0.02932635  1
  O  O63  1  0.56559046  0.61670227  0.47067376  1
  O  O64  1  0.56839882  0.00819820  0.87755775  1
  O  O65  1  0.56000487  0.99186545  0.62239255  1
  O  O66  1  0.43160055  0.99179987  0.12244131  1
  O  O67  1  0.43999301  0.00813215  0.37760831  1
  O  O68  1  0.57529274  0.20932942  0.80991925  1
  O  O69  1  0.36603539  0.79066023  0.69005890  1
  O  O70  1  0.42470782  0.79067068  0.19008062  1
  O  O71  1  0.63396465  0.20933965  0.30994365  1
  O  O72  1  0.99626143  0.36976537  0.82488392  1
  O  O73  1  0.62653973  0.63026140  0.67508673  1
  O  O74  1  0.00374537  0.63023453  0.17511659  1
  O  O75  1  0.37345989  0.36974243  0.32491339  1
  O  O76  1  0.97711645  0.10143098  0.69692634  1
  O  O77  1  0.87563278  0.89856789  0.80309546  1
  O  O78  1  0.02288483  0.89856725  0.30307437  1
  O  O79  1  0.12436590  0.10142957  0.19690418  1
