# generated using pymatgen
data_Rb3Cu3Cl8O
_symmetry_space_group_name_H-M   'P 1'
_cell_length_a   9.60696379
_cell_length_b   13.55138883
_cell_length_c   13.39431431
_cell_angle_alpha   113.14410092
_cell_angle_beta   90.00000000
_cell_angle_gamma   90.00000000
_symmetry_Int_Tables_number   1
_chemical_formula_structural   Rb3Cu3Cl8O
_chemical_formula_sum   'Rb12 Cu12 Cl32 O4'
_cell_volume   1603.43466176
_cell_formula_units_Z   4
loop_
 _symmetry_equiv_pos_site_id
 _symmetry_equiv_pos_as_xyz
  1  'x, y, z'
loop_
 _atom_site_type_symbol
 _atom_site_label
 _atom_site_symmetry_multiplicity
 _atom_site_fract_x
 _atom_site_fract_y
 _atom_site_fract_z
 _atom_site_occupancy
  Rb  Rb0  1  0.87596228  0.56502168  0.20210043  1
  Rb  Rb1  1  0.37596228  0.43497832  0.29789957  1
  Rb  Rb2  1  0.12403772  0.43497832  0.79789957  1
  Rb  Rb3  1  0.62403772  0.56502168  0.70210043  1
  Rb  Rb4  1  0.60451835  0.31174520  0.92380357  1
  Rb  Rb5  1  0.10451835  0.68825480  0.57619643  1
  Rb  Rb6  1  0.39548165  0.68825480  0.07619643  1
  Rb  Rb7  1  0.89548165  0.31174520  0.42380357  1
  Rb  Rb8  1  0.10421025  0.93043392  0.31118089  1
  Rb  Rb9  1  0.60421025  0.06956608  0.18881911  1
  Rb  Rb10  1  0.89578975  0.06956608  0.68881911  1
  Rb  Rb11  1  0.39578975  0.93043392  0.81118089  1
  Cu  Cu12  1  0.65718526  0.86273567  0.36218971  1
  Cu  Cu13  1  0.15718526  0.13726433  0.13781029  1
  Cu  Cu14  1  0.34281474  0.13726433  0.63781029  1
  Cu  Cu15  1  0.84281474  0.86273567  0.86218971  1
  Cu  Cu16  1  0.65769724  0.72775998  0.49617567  1
  Cu  Cu17  1  0.15769724  0.27224002  0.00382433  1
  Cu  Cu18  1  0.34230276  0.27224002  0.50382433  1
  Cu  Cu19  1  0.84230276  0.72775998  0.99617567  1
  Cu  Cu20  1  0.39088474  0.76592027  0.40868554  1
  Cu  Cu21  1  0.89088474  0.23407973  0.09131446  1
  Cu  Cu22  1  0.60911526  0.23407973  0.59131446  1
  Cu  Cu23  1  0.10911526  0.76592027  0.90868554  1
  Cl  Cl24  1  0.45715481  0.66728752  0.55122446  1
  Cl  Cl25  1  0.95715481  0.33271248  0.94877554  1
  Cl  Cl26  1  0.54284519  0.33271248  0.44877554  1
  Cl  Cl27  1  0.04284519  0.66728752  0.05122446  1
  Cl  Cl28  1  0.46222599  0.91052276  0.29958598  1
  Cl  Cl29  1  0.96222599  0.08947724  0.20041402  1
  Cl  Cl30  1  0.53777401  0.08947724  0.70041402  1
  Cl  Cl31  1  0.03777401  0.91052276  0.79958598  1
  Cl  Cl32  1  0.74044056  0.10300299  0.46550713  1
  Cl  Cl33  1  0.24044056  0.89699701  0.03449287  1
  Cl  Cl34  1  0.25955944  0.89699701  0.53449287  1
  Cl  Cl35  1  0.75955944  0.10300299  0.96550713  1
  Cl  Cl36  1  0.53514250  0.63883936  0.27622255  1
  Cl  Cl37  1  0.03514250  0.36116064  0.22377745  1
  Cl  Cl38  1  0.46485750  0.36116064  0.72377745  1
  Cl  Cl39  1  0.96485750  0.63883936  0.77622255  1
  Cl  Cl40  1  0.84334370  0.81609259  0.43638782  1
  Cl  Cl41  1  0.34334370  0.18390741  0.06361218  1
  Cl  Cl42  1  0.15665630  0.18390741  0.56361218  1
  Cl  Cl43  1  0.65665630  0.81609259  0.93638782  1
  Cl  Cl44  1  0.20069193  0.67696497  0.32265216  1
  Cl  Cl45  1  0.70069193  0.32303503  0.17734784  1
  Cl  Cl46  1  0.79930807  0.32303503  0.67734784  1
  Cl  Cl47  1  0.29930807  0.67696497  0.82265216  1
  Cl  Cl48  1  0.72175838  0.85823938  0.71756622  1
  Cl  Cl49  1  0.22175838  0.14176062  0.78243378  1
  Cl  Cl50  1  0.27824162  0.14176062  0.28243378  1
  Cl  Cl51  1  0.77824162  0.85823938  0.21756622  1
  Cl  Cl52  1  0.79422480  0.58750641  0.48372540  1
  Cl  Cl53  1  0.29422480  0.41249359  0.01627460  1
  Cl  Cl54  1  0.20577520  0.41249359  0.51627460  1
  Cl  Cl55  1  0.70577520  0.58750641  0.98372540  1
  O  O56  1  0.55645400  0.83816705  0.47213652  1
  O  O57  1  0.05645400  0.16183295  0.02786348  1
  O  O58  1  0.44354600  0.16183295  0.52786348  1
  O  O59  1  0.94354600  0.83816705  0.97213652  1
