# generated using pymatgen
data_K2CrMo6H23O32
_symmetry_space_group_name_H-M   'P 1'
_cell_length_a   10.89900648
_cell_length_b   11.20124624
_cell_length_c   12.85777695
_cell_angle_alpha   99.87912865
_cell_angle_beta   94.68821570
_cell_angle_gamma   98.52542470
_symmetry_Int_Tables_number   1
_chemical_formula_structural   K2CrMo6H23O32
_chemical_formula_sum   'K4 Cr2 Mo12 H46 O64'
_cell_volume   1520.06516139
_cell_formula_units_Z   2
loop_
 _symmetry_equiv_pos_site_id
 _symmetry_equiv_pos_as_xyz
  1  'x, y, z'
loop_
 _atom_site_type_symbol
 _atom_site_label
 _atom_site_symmetry_multiplicity
 _atom_site_fract_x
 _atom_site_fract_y
 _atom_site_fract_z
 _atom_site_occupancy
  K  K0  1  0.92895205  0.97539908  0.32985347  1
  K  K1  1  0.07104795  0.02460092  0.67014653  1
  K  K2  1  0.05981475  0.41720543  0.21991763  1
  K  K3  1  0.94018525  0.58279457  0.78008237  1
  Cr  Cr4  1  0.50000000  0.00000000  0.00000000  1
  Cr  Cr5  1  0.50000000  0.50000000  0.50000000  1
  Mo  Mo6  1  0.75987004  0.86585365  0.00463308  1
  Mo  Mo7  1  0.24012996  0.13414635  0.99536692  1
  Mo  Mo8  1  0.78321278  0.16927176  0.09709513  1
  Mo  Mo9  1  0.21678722  0.83072824  0.90290487  1
  Mo  Mo10  1  0.52272597  0.30694103  0.08463216  1
  Mo  Mo11  1  0.47727403  0.69305897  0.91536784  1
  Mo  Mo12  1  0.21390605  0.57470675  0.53970214  1
  Mo  Mo13  1  0.78609395  0.42529325  0.46029786  1
  Mo  Mo14  1  0.47872746  0.80020866  0.56846269  1
  Mo  Mo15  1  0.52127254  0.19979134  0.43153731  1
  Mo  Mo16  1  0.76209439  0.72348556  0.53244464  1
  Mo  Mo17  1  0.23790561  0.27651444  0.46755536  1
  H  H18  1  0.58116358  0.89998537  0.82372899  1
  H  H19  1  0.41883642  0.10001463  0.17627101  1
  H  H20  1  0.62972452  0.96618535  0.17506228  1
  H  H21  1  0.37027548  0.03381465  0.82493772  1
  H  H22  1  0.61879925  0.16819981  0.90788366  1
  H  H23  1  0.38120075  0.83180019  0.09211634  1
  H  H24  1  0.66000698  0.27506052  0.27632392  1
  H  H25  1  0.33999302  0.72493948  0.72367608  1
  H  H26  1  0.58167603  0.63702482  0.68553402  1
  H  H27  1  0.41832397  0.36297518  0.31446598  1
  H  H28  1  0.63599699  0.56473157  0.34315646  1
  H  H29  1  0.36400301  0.43526843  0.65684354  1
  H  H30  1  0.62906733  0.38904186  0.62156334  1
  H  H31  1  0.37093267  0.61095814  0.37843666  1
  H  H32  1  0.21846014  0.93162118  0.46861844  1
  H  H33  1  0.78153986  0.06837882  0.53138156  1
  H  H34  1  0.10966572  0.82998078  0.47058757  1
  H  H35  1  0.89033428  0.17001922  0.52941243  1
  H  H36  1  0.14586302  0.94670668  0.14745074  1
  H  H37  1  0.85413698  0.05329332  0.85254926  1
  H  H38  1  0.17554602  0.02076999  0.26439540  1
  H  H39  1  0.82445398  0.97923001  0.73560460  1
  H  H40  1  0.63196877  0.88429586  0.35969067  1
  H  H41  1  0.36803123  0.11570414  0.64030933  1
  H  H42  1  0.66195319  0.79699393  0.26036008  1
  H  H43  1  0.33804681  0.20300607  0.73963992  1
  H  H44  1  0.37197664  0.52997987  0.21616406  1
  H  H45  1  0.62802336  0.47002013  0.78383594  1
  H  H46  1  0.33336128  0.66386729  0.23135017  1
  H  H47  1  0.66663872  0.33613271  0.76864983  1
  H  H48  1  0.18484075  0.51662562  0.00735649  1
  H  H49  1  0.81515925  0.48337438  0.99264351  1
  H  H50  1  0.16989178  0.38104747  0.02352043  1
  H  H51  1  0.83010822  0.61895253  0.97647957  1
  H  H52  1  0.01031424  0.67571295  0.30551754  1
  H  H53  1  0.98968576  0.32428705  0.69448246  1
  H  H54  1  0.01433625  0.71815583  0.19646408  1
  H  H55  1  0.98566375  0.28184417  0.80353592  1
  H  H56  1  0.71345800  0.13280727  0.77506951  1
  H  H57  1  0.28654200  0.86719273  0.22493049  1
  H  H58  1  0.56758031  0.13472653  0.74582779  1
  H  H59  1  0.43241969  0.86527347  0.25417221  1
  H  H60  1  0.78450937  0.64202304  0.23084028  1
  H  H61  1  0.21549063  0.35797696  0.76915972  1
  H  H62  1  0.65765442  0.60205051  0.15814543  1
  H  H63  1  0.34234558  0.39794949  0.84185457  1
  O  O64  1  0.58373847  0.88826375  0.89880129  1
  O  O65  1  0.41626153  0.11173625  0.10119871  1
  O  O66  1  0.64270237  0.99143450  0.10597064  1
  O  O67  1  0.35729763  0.00856550  0.89402936  1
  O  O68  1  0.60516541  0.15763730  0.98336862  1
  O  O69  1  0.39483459  0.84236270  0.01663138  1
  O  O70  1  0.81868213  0.03595928  0.98940391  1
  O  O71  1  0.18131787  0.96404072  0.01059609  1
  O  O72  1  0.65707614  0.25350957  0.17323114  1
  O  O73  1  0.34292386  0.74649043  0.82676886  1
  O  O74  1  0.38047499  0.26288838  0.97985038  1
  O  O75  1  0.61952501  0.73711162  0.02014962  1
  O  O76  1  0.85386694  0.85790071  0.11843953  1
  O  O77  1  0.14613306  0.14209929  0.88156047  1
  O  O78  1  0.82197783  0.78524218  0.89920777  1
  O  O79  1  0.17802217  0.21475782  0.10079223  1
  O  O80  1  0.87294122  0.15558778  0.21155432  1
  O  O81  1  0.12705878  0.84441222  0.78844568  1
  O  O82  1  0.86250608  0.29315645  0.05270916  1
  O  O83  1  0.13749392  0.70684355  0.94729084  1
  O  O84  1  0.61221617  0.42197501  0.03595983  1
  O  O85  1  0.38778383  0.57802499  0.96404017  1
  O  O86  1  0.45896009  0.38364355  0.19442449  1
  O  O87  1  0.54103991  0.61635645  0.80557551  1
  O  O88  1  0.58510587  0.64603572  0.60954950  1
  O  O89  1  0.41489413  0.35396428  0.39045050  1
  O  O90  1  0.64359889  0.55166795  0.41772642  1
  O  O91  1  0.35640111  0.44833205  0.58227358  1
  O  O92  1  0.60797968  0.38141281  0.54083566  1
  O  O93  1  0.39202032  0.61858719  0.45916434  1
  O  O94  1  0.34141121  0.70656771  0.63660354  1
  O  O95  1  0.65858879  0.29343229  0.36339646  1
  O  O96  1  0.17626453  0.42315331  0.43579657  1
  O  O97  1  0.82373547  0.57684669  0.56420343  1
  O  O98  1  0.62008401  0.80290930  0.48801651  1
  O  O99  1  0.37991599  0.19709070  0.51198349  1
  O  O100  1  0.12641931  0.54530647  0.64173544  1
  O  O101  1  0.87358069  0.45469353  0.35826456  1
  O  O102  1  0.13594139  0.66740407  0.47096859  1
  O  O103  1  0.86405861  0.33259593  0.52903141  1
  O  O104  1  0.38845765  0.88292893  0.50029266  1
  O  O105  1  0.61154235  0.11707107  0.49970734  1
  O  O106  1  0.53968164  0.89761477  0.68910870  1
  O  O107  1  0.46031836  0.10238523  0.31089130  1
  O  O108  1  0.85372516  0.76125007  0.43496251  1
  O  O109  1  0.14627484  0.23874993  0.56503749  1
  O  O110  1  0.82454833  0.82796578  0.64805779  1
  O  O111  1  0.17545167  0.17203422  0.35194221  1
  O  O112  1  0.12795034  0.91887439  0.47142448  1
  O  O113  1  0.87204966  0.08112561  0.52857552  1
  O  O114  1  0.15706289  0.93633224  0.22227334  1
  O  O115  1  0.84293711  0.06366776  0.77772666  1
  O  O116  1  0.64284153  0.88097483  0.28443910  1
  O  O117  1  0.35715847  0.11902517  0.71556090  1
  O  O118  1  0.32585835  0.58554402  0.25865728  1
  O  O119  1  0.67414165  0.41445598  0.74134272  1
  O  O120  1  0.13355761  0.45568563  0.03778724  1
  O  O121  1  0.86644239  0.54431437  0.96221276  1
  O  O122  1  0.97492993  0.65369289  0.23116240  1
  O  O123  1  0.02507007  0.34630711  0.76883760  1
  O  O124  1  0.64323336  0.18081788  0.78937411  1
  O  O125  1  0.35676664  0.81918212  0.21062589  1
  O  O126  1  0.69335089  0.63985832  0.23059892  1
  O  O127  1  0.30664911  0.36014168  0.76940108  1
