# generated using pymatgen
data_B3H10N
_symmetry_space_group_name_H-M   'P 1'
_cell_length_a   5.38121180
_cell_length_b   10.85815873
_cell_length_c   11.45412576
_cell_angle_alpha   117.07039673
_cell_angle_beta   90.00000000
_cell_angle_gamma   90.00000000
_symmetry_Int_Tables_number   1
_chemical_formula_structural   B3H10N
_chemical_formula_sum   'B12 H40 N4'
_cell_volume   595.94586131
_cell_formula_units_Z   4
loop_
 _symmetry_equiv_pos_site_id
 _symmetry_equiv_pos_as_xyz
  1  'x, y, z'
loop_
 _atom_site_type_symbol
 _atom_site_label
 _atom_site_symmetry_multiplicity
 _atom_site_fract_x
 _atom_site_fract_y
 _atom_site_fract_z
 _atom_site_occupancy
  B  B0  1  0.16599134  0.11830868  0.90352245  1
  B  B1  1  0.33400866  0.61830868  0.40352245  1
  B  B2  1  0.83400866  0.88169132  0.09647755  1
  B  B3  1  0.66599134  0.38169132  0.59647755  1
  B  B4  1  0.04587814  0.25397364  0.05433244  1
  B  B5  1  0.45412186  0.75397364  0.55433244  1
  B  B6  1  0.95412186  0.74602636  0.94566756  1
  B  B7  1  0.54587814  0.24602636  0.44566756  1
  B  B8  1  0.17543702  0.29619627  0.93798828  1
  B  B9  1  0.32456298  0.79619627  0.43798828  1
  B  B10  1  0.82456298  0.70380373  0.06201172  1
  B  B11  1  0.67543702  0.20380373  0.56201172  1
  H  H12  1  0.81644931  0.00247392  0.85679868  1
  H  H13  1  0.68355069  0.50247392  0.35679868  1
  H  H14  1  0.18355069  0.99752608  0.14320132  1
  H  H15  1  0.31644931  0.49752608  0.64320132  1
  H  H16  1  0.02201547  0.93474083  0.73680395  1
  H  H17  1  0.47798453  0.43474083  0.23680395  1
  H  H18  1  0.97798453  0.06525917  0.26319605  1
  H  H19  1  0.52201547  0.56525917  0.76319605  1
  H  H20  1  0.86373170  0.07510728  0.75962306  1
  H  H21  1  0.63626830  0.57510728  0.25962306  1
  H  H22  1  0.13626830  0.92489272  0.24037694  1
  H  H23  1  0.36373170  0.42489272  0.74037694  1
  H  H24  1  0.27667585  0.05117639  0.94619289  1
  H  H25  1  0.22332415  0.55117639  0.44619289  1
  H  H26  1  0.72332415  0.94882361  0.05380711  1
  H  H27  1  0.77667585  0.44882361  0.55380711  1
  H  H28  1  0.31763975  0.14069813  0.83501020  1
  H  H29  1  0.18236025  0.64069813  0.33501020  1
  H  H30  1  0.68236025  0.85930187  0.16498980  1
  H  H31  1  0.81763975  0.35930187  0.66498980  1
  H  H32  1  0.83000355  0.22423647  0.05652649  1
  H  H33  1  0.66999645  0.72423647  0.55652649  1
  H  H34  1  0.16999645  0.77576353  0.94347351  1
  H  H35  1  0.33000355  0.27576353  0.44347351  1
  H  H36  1  0.17054628  0.27272539  0.14875276  1
  H  H37  1  0.32945372  0.77272539  0.64875276  1
  H  H38  1  0.82945372  0.72727461  0.85124724  1
  H  H39  1  0.67054628  0.22727461  0.35124724  1
  H  H40  1  0.04988834  0.31106759  0.85778639  1
  H  H41  1  0.45011166  0.81106759  0.35778639  1
  H  H42  1  0.95011166  0.68893241  0.14221361  1
  H  H43  1  0.54988834  0.18893241  0.64221361  1
  H  H44  1  0.37416360  0.35338046  0.96501954  1
  H  H45  1  0.12583640  0.85338046  0.46501954  1
  H  H46  1  0.62583640  0.64661954  0.03498046  1
  H  H47  1  0.87416360  0.14661954  0.53498046  1
  H  H48  1  0.03324134  0.37069468  0.05068160  1
  H  H49  1  0.46675866  0.87069468  0.55068160  1
  H  H50  1  0.96675866  0.62930532  0.94931840  1
  H  H51  1  0.53324134  0.12930532  0.44931840  1
  N  N52  1  0.95059999  0.02635617  0.80715883  1
  N  N53  1  0.54940001  0.52635617  0.30715883  1
  N  N54  1  0.04940001  0.97364383  0.19284117  1
  N  N55  1  0.45059999  0.47364383  0.69284117  1
