# generated using pymatgen
data_Gd4(GeS4)3
_symmetry_space_group_name_H-M   'P 1'
_cell_length_a   7.87413763
_cell_length_b   11.40873275
_cell_length_c   11.40873300
_cell_angle_alpha   114.87294273
_cell_angle_beta   103.30070294
_cell_angle_gamma   103.30070316
_symmetry_Int_Tables_number   1
_chemical_formula_structural   Gd4(GeS4)3
_chemical_formula_sum   'Gd8 Ge6 S24'
_cell_volume   840.60367494
_cell_formula_units_Z   2
loop_
 _symmetry_equiv_pos_site_id
 _symmetry_equiv_pos_as_xyz
  1  'x, y, z'
loop_
 _atom_site_type_symbol
 _atom_site_label
 _atom_site_symmetry_multiplicity
 _atom_site_fract_x
 _atom_site_fract_y
 _atom_site_fract_z
 _atom_site_occupancy
  Gd  Gd0  1  0.50037382  0.00000000  0.00000000  1
  Gd  Gd1  1  0.00037382  0.00000000  0.00000000  1
  Gd  Gd2  1  0.06587281  0.53978999  0.77801285  1
  Gd  Gd3  1  0.28785996  0.22198715  0.76177714  1
  Gd  Gd4  1  0.52608282  0.23822286  0.46021001  1
  Gd  Gd5  1  0.56587281  0.77801285  0.53978999  1
  Gd  Gd6  1  0.02608282  0.46021001  0.23822286  1
  Gd  Gd7  1  0.78785996  0.76177714  0.22198715  1
  Ge  Ge8  1  0.35533597  0.82513063  0.21186954  1
  Ge  Ge9  1  0.14346643  0.78813046  0.61326109  1
  Ge  Ge10  1  0.53020534  0.38673891  0.17486937  1
  Ge  Ge11  1  0.85533597  0.21186954  0.82513063  1
  Ge  Ge12  1  0.03020534  0.17486937  0.38673891  1
  Ge  Ge13  1  0.64346643  0.61326109  0.78813046  1
  S  S14  1  0.11711163  0.39771875  0.92610280  1
  S  S15  1  0.19100882  0.07389720  0.47161595  1
  S  S16  1  0.71939287  0.52838405  0.60228125  1
  S  S17  1  0.61711163  0.92610280  0.39771875  1
  S  S18  1  0.21939287  0.60228125  0.52838405  1
  S  S19  1  0.69100882  0.47161595  0.07389720  1
  S  S20  1  0.31534298  0.00527507  0.18644098  1
  S  S21  1  0.12890200  0.81355902  0.81883408  1
  S  S22  1  0.31006791  0.18116592  0.99472493  1
  S  S23  1  0.81534298  0.18644098  0.00527507  1
  S  S24  1  0.81006791  0.99472493  0.18116592  1
  S  S25  1  0.62890200  0.81883408  0.81355902  1
  S  S26  1  0.41494468  0.70952571  0.02410841  1
  S  S27  1  0.39083628  0.97589159  0.68541730  1
  S  S28  1  0.70541898  0.31458270  0.29047429  1
  S  S29  1  0.91494468  0.02410841  0.70952571  1
  S  S30  1  0.20541898  0.29047429  0.31458270  1
  S  S31  1  0.89083628  0.68541730  0.97589159  1
  S  S32  1  0.64135380  0.27811604  0.73116865  1
  S  S33  1  0.91018514  0.26883135  0.54694738  1
  S  S34  1  0.36323776  0.45305262  0.72188396  1
  S  S35  1  0.14135380  0.73116865  0.27811604  1
  S  S36  1  0.86323776  0.72188396  0.45305262  1
  S  S37  1  0.41018514  0.54694738  0.26883135  1
