# generated using pymatgen
data_VP(HO)9
_symmetry_space_group_name_H-M   'P 1'
_cell_length_a   6.47260494
_cell_length_b   9.08850719
_cell_length_c   13.39212004
_cell_angle_alpha   91.44512116
_cell_angle_beta   105.08840628
_cell_angle_gamma   108.53388612
_symmetry_Int_Tables_number   1
_chemical_formula_structural   VP(HO)9
_chemical_formula_sum   'V4 P4 H36 O36'
_cell_volume   716.16621634
_cell_formula_units_Z   4
loop_
 _symmetry_equiv_pos_site_id
 _symmetry_equiv_pos_as_xyz
  1  'x, y, z'
loop_
 _atom_site_type_symbol
 _atom_site_label
 _atom_site_symmetry_multiplicity
 _atom_site_fract_x
 _atom_site_fract_y
 _atom_site_fract_z
 _atom_site_occupancy
  V  V0  1  0.84310995  0.01613919  0.19488201  1
  V  V1  1  0.15689005  0.98386081  0.80511799  1
  V  V2  1  0.56982670  0.38394004  0.30953436  1
  V  V3  1  0.43017330  0.61605996  0.69046564  1
  P  P4  1  0.36748034  0.01143143  0.24205562  1
  P  P5  1  0.63251966  0.98856857  0.75794438  1
  P  P6  1  0.05442059  0.38732703  0.26930586  1
  P  P7  1  0.94557941  0.61267297  0.73069414  1
  H  H8  1  0.47055926  0.87716327  0.37048111  1
  H  H9  1  0.52944074  0.12283673  0.62951889  1
  H  H10  1  0.84804848  0.11022316  0.50686253  1
  H  H11  1  0.15195152  0.88977684  0.49313747  1
  H  H12  1  0.53757054  0.73365389  0.10280911  1
  H  H13  1  0.46242946  0.26634611  0.89719089  1
  H  H14  1  0.64098744  0.99265923  0.95628709  1
  H  H15  1  0.35901256  0.00734077  0.04371291  1
  H  H16  1  0.68544521  0.48449454  0.54012549  1
  H  H17  1  0.31455479  0.51550546  0.45987451  1
  H  H18  1  0.78372171  0.73486963  0.10554800  1
  H  H19  1  0.21627829  0.26513037  0.89445200  1
  H  H20  1  0.77496824  0.86607317  0.48037820  1
  H  H21  1  0.22503176  0.13392683  0.51962180  1
  H  H22  1  0.80448106  0.36642837  0.51115295  1
  H  H23  1  0.19551894  0.63357163  0.48884705  1
  H  H24  1  0.70689750  0.67769649  0.26265829  1
  H  H25  1  0.29310250  0.32230351  0.73734171  1
  H  H26  1  0.83378156  0.68369733  0.38546490  1
  H  H27  1  0.16621844  0.31630267  0.61453510  1
  H  H28  1  0.90111031  0.07286861  0.00080262  1
  H  H29  1  0.09888969  0.92713139  0.99919738  1
  H  H30  1  0.18048160  0.63815602  0.24628689  1
  H  H31  1  0.81951840  0.36184398  0.75371311  1
  H  H32  1  0.61205157  0.88103223  0.54650559  1
  H  H33  1  0.38794843  0.11896777  0.45349441  1
  H  H34  1  0.94219382  0.24119322  0.43826938  1
  H  H35  1  0.05780618  0.75880678  0.56173062  1
  H  H36  1  0.23199948  0.33665774  0.06434836  1
  H  H37  1  0.76800052  0.66334226  0.93565164  1
  H  H38  1  0.98925190  0.33462643  0.99186937  1
  H  H39  1  0.01074810  0.66537357  0.00813063  1
  H  H40  1  0.29578147  0.69690824  0.94436341  1
  H  H41  1  0.70421853  0.30309176  0.05563659  1
  H  H42  1  0.24858650  0.54409792  0.00068704  1
  H  H43  1  0.75141350  0.45590208  0.99931296  1
  O  O44  1  0.95788266  0.24864206  0.18373037  1
  O  O45  1  0.04211734  0.75135794  0.81626963  1
  O  O46  1  0.51699614  0.01881049  0.16734851  1
  O  O47  1  0.48300386  0.98118951  0.83265149  1
  O  O48  1  0.12795530  0.99025668  0.17371861  1
  O  O49  1  0.87204470  0.00974332  0.82628139  1
  O  O50  1  0.69984675  0.76996389  0.14972675  1
  O  O51  1  0.30015325  0.23003611  0.85027325  1
  O  O52  1  0.89771131  0.01251580  0.32072974  1
  O  O53  1  0.10228869  0.98748420  0.67927026  1
  O  O54  1  0.76833066  0.01295055  0.02183109  1
  O  O55  1  0.23166934  0.98704945  0.97816891  1
  O  O56  1  0.89357681  0.38337465  0.33695965  1
  O  O57  1  0.10642319  0.61662535  0.66304035  1
  O  O58  1  0.46785624  0.15167641  0.32820282  1
  O  O59  1  0.53214376  0.84832359  0.67179718  1
  O  O60  1  0.28685642  0.40123594  0.34517873  1
  O  O61  1  0.71314358  0.59876406  0.65482127  1
  O  O62  1  0.69559615  0.62711869  0.32704286  1
  O  O63  1  0.30440385  0.37288131  0.67295714  1
  O  O64  1  0.48162324  0.37052407  0.18178869  1
  O  O65  1  0.51837676  0.62947593  0.81821131  1
  O  O66  1  0.68515807  0.41200836  0.48312164  1
  O  O67  1  0.31484193  0.58799164  0.51687836  1
  O  O68  1  0.34943994  0.85840735  0.30108884  1
  O  O69  1  0.65056006  0.14159265  0.69891116  1
  O  O70  1  0.08282142  0.53576700  0.20604772  1
  O  O71  1  0.91717858  0.46423300  0.79395228  1
  O  O72  1  0.66245487  0.91594325  0.48447024  1
  O  O73  1  0.33754513  0.08405675  0.51552976  1
  O  O74  1  0.14885624  0.34773759  0.99313158  1
  O  O75  1  0.85114376  0.65226241  0.00686842  1
  O  O76  1  0.96025979  0.21665999  0.51079924  1
  O  O77  1  0.03974021  0.78334001  0.48920076  1
  O  O78  1  0.29087923  0.66095288  0.01240913  1
  O  O79  1  0.70912077  0.33904712  0.98759087  1
