# generated using pymatgen
data_NaMgPH18O13
_symmetry_space_group_name_H-M   'P 1'
_cell_length_a   7.03252589
_cell_length_b   12.12286401
_cell_length_c   14.94121434
_cell_angle_alpha   91.51432405
_cell_angle_beta   103.96344266
_cell_angle_gamma   106.50319883
_symmetry_Int_Tables_number   1
_chemical_formula_structural   NaMgPH18O13
_chemical_formula_sum   'Na4 Mg4 P4 H72 O52'
_cell_volume   1179.04717250
_cell_formula_units_Z   4
loop_
 _symmetry_equiv_pos_site_id
 _symmetry_equiv_pos_as_xyz
  1  'x, y, z'
loop_
 _atom_site_type_symbol
 _atom_site_label
 _atom_site_symmetry_multiplicity
 _atom_site_fract_x
 _atom_site_fract_y
 _atom_site_fract_z
 _atom_site_occupancy
  Na  Na0  1  0.25656914  0.99692672  0.00277272  1
  Na  Na1  1  0.74343086  0.00307328  0.99722728  1
  Na  Na2  1  0.01322054  0.59999520  0.41890293  1
  Na  Na3  1  0.98677946  0.40000480  0.58109707  1
  Mg  Mg4  1  0.14865983  0.88418675  0.39620451  1
  Mg  Mg5  1  0.85134017  0.11581325  0.60379549  1
  Mg  Mg6  1  0.79773879  0.42001796  0.21002418  1
  Mg  Mg7  1  0.20226121  0.57998204  0.78997582  1
  P  P8  1  0.29018897  0.26655704  0.33532885  1
  P  P9  1  0.70981103  0.73344296  0.66467115  1
  P  P10  1  0.50821329  0.76265237  0.23566297  1
  P  P11  1  0.49178671  0.23734763  0.76433703  1
  H  H12  1  0.89046906  0.75831822  0.23369072  1
  H  H13  1  0.10953094  0.24168178  0.76630928  1
  H  H14  1  0.12026710  0.75499535  0.23286344  1
  H  H15  1  0.87973290  0.24500465  0.76713656  1
  H  H16  1  0.39476085  0.00533000  0.55977836  1
  H  H17  1  0.60523915  0.99467000  0.44022164  1
  H  H18  1  0.16961485  0.00276185  0.55837576  1
  H  H19  1  0.83038515  0.99723815  0.44162424  1
  H  H20  1  0.41767168  0.07573401  0.35125091  1
  H  H21  1  0.58232832  0.92426599  0.64874909  1
  H  H22  1  0.44944562  0.95937580  0.30231861  1
  H  H23  1  0.55055438  0.04062420  0.69768139  1
  H  H24  1  0.00989508  0.07441895  0.35418667  1
  H  H25  1  0.99010492  0.92558105  0.64581333  1
  H  H26  1  0.81678221  0.95950587  0.30260746  1
  H  H27  1  0.18321779  0.04049413  0.69739254  1
  H  H28  1  0.90140758  0.77975871  0.50943519  1
  H  H29  1  0.09859242  0.22024129  0.49056481  1
  H  H30  1  0.76924403  0.75587349  0.40316010  1
  H  H31  1  0.23075597  0.24412651  0.59683990  1
  H  H32  1  0.41249957  0.77852936  0.51157293  1
  H  H33  1  0.58750043  0.22147064  0.48842707  1
  H  H34  1  0.41039159  0.75169306  0.40511118  1
  H  H35  1  0.58960841  0.24830694  0.59488882  1
  H  H36  1  0.68087889  0.26531782  0.33239714  1
  H  H37  1  0.31912111  0.73468218  0.66760286  1
  H  H38  1  0.91538520  0.26686253  0.33731112  1
  H  H39  1  0.08461480  0.73313747  0.66268888  1
  H  H40  1  0.70075359  0.59250157  0.12190650  1
  H  H41  1  0.29924641  0.40749843  0.87809350  1
  H  H42  1  0.77221984  0.52407022  0.04831142  1
  H  H43  1  0.22778016  0.47592978  0.95168858  1
  H  H44  1  0.95786362  0.69935889  0.82888113  1
  H  H45  1  0.04213638  0.30064111  0.17111887  1
  H  H46  1  0.14373341  0.71554834  0.92138270  1
  H  H47  1  0.85626659  0.28445166  0.07861730  1
  H  H48  1  0.64716348  0.58571101  0.27304321  1
  H  H49  1  0.35283652  0.41428899  0.72695679  1
  H  H50  1  0.56344859  0.47179796  0.31773140  1
  H  H51  1  0.43655141  0.52820204  0.68226860  1
  H  H52  1  0.40115425  0.28740923  0.17314978  1
  H  H53  1  0.59884575  0.71259077  0.82685022  1
  H  H54  1  0.44553022  0.28232351  0.07411612  1
  H  H55  1  0.55446978  0.71767649  0.92588388  1
  H  H56  1  0.17511158  0.58360232  0.24821046  1
  H  H57  1  0.82488842  0.41639768  0.75178954  1
  H  H58  1  0.20881467  0.48093738  0.30910237  1
  H  H59  1  0.79118533  0.51906262  0.69089763  1
  H  H60  1  0.16743925  0.18459781  0.95459250  1
  H  H61  1  0.83256075  0.81540219  0.04540750  1
  H  H62  1  0.35171383  0.22846009  0.91169934  1
  H  H63  1  0.64828617  0.77153991  0.08830066  1
  H  H64  1  0.21033056  0.76615194  0.08968883  1
  H  H65  1  0.78966944  0.23384806  0.91031117  1
  H  H66  1  0.01203238  0.74403008  0.00796724  1
  H  H67  1  0.98796762  0.25596992  0.99203276  1
  H  H68  1  0.36585203  0.88105171  0.85007607  1
  H  H69  1  0.63414797  0.11894829  0.14992393  1
  H  H70  1  0.42303517  0.01494553  0.84072876  1
  H  H71  1  0.57696483  0.98505447  0.15927124  1
  H  H72  1  0.13340393  0.11558693  0.16402427  1
  H  H73  1  0.86659607  0.88441307  0.83597573  1
  H  H74  1  0.06977945  0.98201244  0.16443804  1
  H  H75  1  0.93022055  0.01798756  0.83556196  1
  H  H76  1  0.36646598  0.54255869  0.54069707  1
  H  H77  1  0.63353402  0.45744131  0.45930293  1
  H  H78  1  0.28107157  0.45394733  0.45250648  1
  H  H79  1  0.71892843  0.54605267  0.54749352  1
  H  H80  1  0.73260467  0.41816151  0.90203281  1
  H  H81  1  0.26739533  0.58183849  0.09796719  1
  H  H82  1  0.86413322  0.54714654  0.91379948  1
  H  H83  1  0.13586678  0.45285346  0.08620052  1
  O  O84  1  0.46663625  0.21218262  0.36980815  1
  O  O85  1  0.53336375  0.78781738  0.63019185  1
  O  O86  1  0.10665549  0.21198859  0.37729595  1
  O  O87  1  0.89334451  0.78801141  0.62270405  1
  O  O88  1  0.37373372  0.40027127  0.36431367  1
  O  O89  1  0.62626628  0.59972873  0.63568633  1
  O  O90  1  0.21164852  0.24512483  0.22681966  1
  O  O91  1  0.78835148  0.75487517  0.77318034  1
  O  O92  1  0.56742029  0.89740314  0.23996844  1
  O  O93  1  0.43257971  0.10259686  0.76003156  1
  O  O94  1  0.64246226  0.71800847  0.18233530  1
  O  O95  1  0.35753774  0.28199153  0.81766470  1
  O  O96  1  0.54015529  0.72205141  0.33340253  1
  O  O97  1  0.45984471  0.27794859  0.66659747  1
  O  O98  1  0.27698522  0.70848163  0.18085897  1
  O  O99  1  0.72301478  0.29151837  0.81914103  1
  O  O100  1  0.03944701  0.78586266  0.26839606  1
  O  O101  1  0.96055299  0.21413734  0.73160394  1
  O  O102  1  0.25551854  0.99150288  0.51725381  1
  O  O103  1  0.74448146  0.00849712  0.48274619  1
  O  O104  1  0.39337657  0.98868188  0.35078674  1
  O  O105  1  0.60662343  0.01131812  0.64921326  1
  O  O106  1  0.95137359  0.98701204  0.35075499  1
  O  O107  1  0.04862641  0.01298796  0.64924501  1
  O  O108  1  0.91351006  0.77255270  0.44422773  1
  O  O109  1  0.08648994  0.22744730  0.55577227  1
  O  O110  1  0.32741557  0.77125587  0.44620991  1
  O  O111  1  0.67258443  0.22874413  0.55379009  1
  O  O112  1  0.80519246  0.30325347  0.31035987  1
  O  O113  1  0.19480754  0.69674653  0.68964013  1
  O  O114  1  0.79013176  0.54497266  0.11591088  1
  O  O115  1  0.20986824  0.45502734  0.88408912  1
  O  O116  1  0.05653149  0.66018986  0.86753477  1
  O  O117  1  0.94346851  0.33981014  0.13246523  1
  O  O118  1  0.67993750  0.51474852  0.29160190  1
  O  O119  1  0.32006250  0.48525148  0.70839810  1
  O  O120  1  0.51353886  0.30847589  0.14048711  1
  O  O121  1  0.48646114  0.69152411  0.85951289  1
  O  O122  1  0.10526292  0.52024357  0.28040389  1
  O  O123  1  0.89473708  0.47975643  0.71959611  1
  O  O124  1  0.31460331  0.19608155  0.96993673  1
  O  O125  1  0.68539669  0.80391845  0.03006327  1
  O  O126  1  0.14981372  0.79777240  0.02992349  1
  O  O127  1  0.85018628  0.20222760  0.97007651  1
  O  O128  1  0.41383368  0.95567773  0.88687980  1
  O  O129  1  0.58616632  0.04432227  0.11312020  1
  O  O130  1  0.08305334  0.04128719  0.12168248  1
  O  O131  1  0.91694666  0.95871281  0.87831752  1
  O  O132  1  0.23655248  0.49683658  0.49697854  1
  O  O133  1  0.76344752  0.50316342  0.50302146  1
  O  O134  1  0.75707684  0.49353601  0.93690895  1
  O  O135  1  0.24292316  0.50646399  0.06309105  1
