# generated using pymatgen
data_MgSi
_symmetry_space_group_name_H-M   'P 1'
_cell_length_a   6.44784557
_cell_length_b   4.28563469
_cell_length_c   9.00579085
_cell_angle_alpha   90.00232555
_cell_angle_beta   103.58231553
_cell_angle_gamma   69.89102239
_symmetry_Int_Tables_number   1
_chemical_formula_structural   MgSi
_chemical_formula_sum   'Mg6 Si6'
_cell_volume   226.26279639
_cell_formula_units_Z   6
loop_
 _symmetry_equiv_pos_site_id
 _symmetry_equiv_pos_as_xyz
  1  'x, y, z'
loop_
 _atom_site_type_symbol
 _atom_site_label
 _atom_site_symmetry_multiplicity
 _atom_site_fract_x
 _atom_site_fract_y
 _atom_site_fract_z
 _atom_site_occupancy
  Mg  Mg0  1  0.20209367  0.10844871  0.17470520  1
  Mg  Mg1  1  0.41074413  0.00325608  0.83274306  1
  Mg  Mg2  1  0.97457598  0.22353619  0.49860298  1
  Mg  Mg3  1  0.42263453  0.49677705  0.50061625  1
  Mg  Mg4  1  0.85877598  0.27648088  0.83479290  1
  Mg  Mg5  1  0.63122446  0.39158285  0.15865128  1
  Si  Si6  1  0.99699566  0.71292090  0.30195742  1
  Si  Si7  1  0.12512238  0.65029759  0.69423481  1
  Si  Si8  1  0.83632400  0.78702531  0.03136139  1
  Si  Si9  1  0.20215597  0.61119454  0.96836051  1
  Si  Si10  1  0.63118374  0.88892825  0.36498709  1
  Si  Si11  1  0.70832051  0.84961364  0.63911811  1
