# generated using pymatgen
data_K2TiF5
_symmetry_space_group_name_H-M   'P 1'
_cell_length_a   6.15801626
_cell_length_b   7.71045442
_cell_length_c   10.89233723
_cell_angle_alpha   90.00000000
_cell_angle_beta   90.00000000
_cell_angle_gamma   90.00000000
_symmetry_Int_Tables_number   1
_chemical_formula_structural   K2TiF5
_chemical_formula_sum   'K8 Ti4 F20'
_cell_volume   517.18019345
_cell_formula_units_Z   4
loop_
 _symmetry_equiv_pos_site_id
 _symmetry_equiv_pos_as_xyz
  1  'x, y, z'
loop_
 _atom_site_type_symbol
 _atom_site_label
 _atom_site_symmetry_multiplicity
 _atom_site_fract_x
 _atom_site_fract_y
 _atom_site_fract_z
 _atom_site_occupancy
  K  K0  1  0.00938415  0.25000000  0.13315177  1
  K  K1  1  0.50938415  0.25000000  0.36684823  1
  K  K2  1  0.99061585  0.75000000  0.86684823  1
  K  K3  1  0.49061585  0.75000000  0.63315177  1
  K  K4  1  0.08928991  0.75000000  0.21115893  1
  K  K5  1  0.58928991  0.75000000  0.28884107  1
  K  K6  1  0.91071009  0.25000000  0.78884107  1
  K  K7  1  0.41071009  0.25000000  0.71115893  1
  Ti  Ti8  1  0.50000000  0.50000000  0.00000000  1
  Ti  Ti9  1  0.00000000  0.00000000  0.50000000  1
  Ti  Ti10  1  0.50000000  0.00000000  0.00000000  1
  Ti  Ti11  1  -0.00000000  0.50000000  0.50000000  1
  F  F12  1  0.78678292  0.55742847  0.07051422  1
  F  F13  1  0.28678292  0.94257153  0.42948578  1
  F  F14  1  0.21321708  0.05742847  0.92948578  1
  F  F15  1  0.71321708  0.44257153  0.57051422  1
  F  F16  1  0.21321708  0.44257153  0.92948578  1
  F  F17  1  0.71321708  0.05742847  0.57051422  1
  F  F18  1  0.78678292  0.94257153  0.07051422  1
  F  F19  1  0.28678292  0.55742847  0.42948578  1
  F  F20  1  0.61941298  0.53216801  0.83255423  1
  F  F21  1  0.11941298  0.96783199  0.66744577  1
  F  F22  1  0.38058702  0.03216801  0.16744577  1
  F  F23  1  0.88058702  0.46783199  0.33255423  1
  F  F24  1  0.38058702  0.46783199  0.16744577  1
  F  F25  1  0.88058702  0.03216801  0.33255423  1
  F  F26  1  0.61941298  0.96783199  0.83255423  1
  F  F27  1  0.11941298  0.53216801  0.66744577  1
  F  F28  1  0.59262055  0.25000000  0.98616019  1
  F  F29  1  0.09262055  0.25000000  0.51383981  1
  F  F30  1  0.40737945  0.75000000  0.01383981  1
  F  F31  1  0.90737945  0.75000000  0.48616019  1
