# generated using pymatgen
data_Sr8Mn6Cl4O13
_symmetry_space_group_name_H-M   'P 1'
_cell_length_a   7.95257541
_cell_length_b   7.95257541
_cell_length_c   33.37105314
_cell_angle_alpha   90.00000000
_cell_angle_beta   90.00000000
_cell_angle_gamma   90.00000000
_symmetry_Int_Tables_number   1
_chemical_formula_structural   Sr8Mn6Cl4O13
_chemical_formula_sum   'Sr32 Mn24 Cl16 O52'
_cell_volume   2110.50071931
_cell_formula_units_Z   4
loop_
 _symmetry_equiv_pos_site_id
 _symmetry_equiv_pos_as_xyz
  1  'x, y, z'
loop_
 _atom_site_type_symbol
 _atom_site_label
 _atom_site_symmetry_multiplicity
 _atom_site_fract_x
 _atom_site_fract_y
 _atom_site_fract_z
 _atom_site_occupancy
  Sr  Sr0  1  0.25318281  0.00000000  0.57411213  1
  Sr  Sr1  1  0.74681719  0.00000000  0.57411213  1
  Sr  Sr2  1  -0.00000000  0.25318281  0.07411213  1
  Sr  Sr3  1  -0.00000000  0.74681719  0.07411213  1
  Sr  Sr4  1  0.74681719  0.00000000  0.42588787  1
  Sr  Sr5  1  0.25318281  0.00000000  0.42588787  1
  Sr  Sr6  1  -0.00000000  0.25318281  0.92588787  1
  Sr  Sr7  1  -0.00000000  0.74681719  0.92588787  1
  Sr  Sr8  1  0.25316217  0.50000000  0.57363325  1
  Sr  Sr9  1  0.74683783  0.50000000  0.57363325  1
  Sr  Sr10  1  0.50000000  0.25316217  0.07363325  1
  Sr  Sr11  1  0.50000000  0.74683783  0.07363325  1
  Sr  Sr12  1  0.74683783  0.50000000  0.42636675  1
  Sr  Sr13  1  0.25316217  0.50000000  0.42636675  1
  Sr  Sr14  1  0.50000000  0.25316217  0.92636675  1
  Sr  Sr15  1  0.50000000  0.74683783  0.92636675  1
  Sr  Sr16  1  0.24921234  0.00000000  0.68037833  1
  Sr  Sr17  1  0.75078766  0.00000000  0.68037833  1
  Sr  Sr18  1  -0.00000000  0.24921234  0.18037833  1
  Sr  Sr19  1  -0.00000000  0.75078766  0.18037833  1
  Sr  Sr20  1  0.75078766  0.00000000  0.31962167  1
  Sr  Sr21  1  0.24921234  0.00000000  0.31962167  1
  Sr  Sr22  1  -0.00000000  0.24921234  0.81962167  1
  Sr  Sr23  1  -0.00000000  0.75078766  0.81962167  1
  Sr  Sr24  1  0.24935034  0.50000000  0.67991586  1
  Sr  Sr25  1  0.75064966  0.50000000  0.67991586  1
  Sr  Sr26  1  0.50000000  0.24935034  0.17991586  1
  Sr  Sr27  1  0.50000000  0.75064966  0.17991586  1
  Sr  Sr28  1  0.75064966  0.50000000  0.32008414  1
  Sr  Sr29  1  0.24935034  0.50000000  0.32008414  1
  Sr  Sr30  1  0.50000000  0.24935034  0.82008414  1
  Sr  Sr31  1  0.50000000  0.75064966  0.82008414  1
  Mn  Mn32  1  -0.00000000  0.24940601  0.62287074  1
  Mn  Mn33  1  -0.00000000  0.75059399  0.62287074  1
  Mn  Mn34  1  0.75059399  0.00000000  0.12287074  1
  Mn  Mn35  1  0.24940601  0.00000000  0.12287074  1
  Mn  Mn36  1  -0.00000000  0.24940601  0.37712926  1
  Mn  Mn37  1  -0.00000000  0.75059399  0.37712926  1
  Mn  Mn38  1  0.24940601  0.00000000  0.87712926  1
  Mn  Mn39  1  0.75059399  0.00000000  0.87712926  1
  Mn  Mn40  1  0.50000000  0.24924365  0.62284463  1
  Mn  Mn41  1  0.50000000  0.75075635  0.62284463  1
  Mn  Mn42  1  0.75075635  0.50000000  0.12284463  1
  Mn  Mn43  1  0.24924365  0.50000000  0.12284463  1
  Mn  Mn44  1  0.50000000  0.24924365  0.37715537  1
  Mn  Mn45  1  0.50000000  0.75075635  0.37715537  1
  Mn  Mn46  1  0.24924365  0.50000000  0.87715537  1
  Mn  Mn47  1  0.75075635  0.50000000  0.87715537  1
  Mn  Mn48  1  -0.00000000  0.29940133  0.50000000  1
  Mn  Mn49  1  -0.00000000  0.70059867  0.50000000  1
  Mn  Mn50  1  0.70059867  0.00000000  0.00000000  1
  Mn  Mn51  1  0.29940133  0.00000000  0.00000000  1
  Mn  Mn52  1  0.50000000  0.31270913  0.50000000  1
  Mn  Mn53  1  0.50000000  0.68729087  0.50000000  1
  Mn  Mn54  1  0.68729087  0.50000000  0.00000000  1
  Mn  Mn55  1  0.31270913  0.50000000  0.00000000  1
  Cl  Cl56  1  -0.00000000  0.25045289  0.71600262  1
  Cl  Cl57  1  -0.00000000  0.74954711  0.71600262  1
  Cl  Cl58  1  0.74954711  0.00000000  0.21600262  1
  Cl  Cl59  1  0.25045289  0.00000000  0.21600262  1
  Cl  Cl60  1  -0.00000000  0.25045289  0.28399738  1
  Cl  Cl61  1  -0.00000000  0.74954711  0.28399738  1
  Cl  Cl62  1  0.25045289  0.00000000  0.78399738  1
  Cl  Cl63  1  0.74954711  0.00000000  0.78399738  1
  Cl  Cl64  1  0.50000000  0.25022760  0.71544942  1
  Cl  Cl65  1  0.50000000  0.74977240  0.71544942  1
  Cl  Cl66  1  0.74977240  0.50000000  0.21544942  1
  Cl  Cl67  1  0.25022760  0.50000000  0.21544942  1
  Cl  Cl68  1  0.50000000  0.25022760  0.28455058  1
  Cl  Cl69  1  0.50000000  0.74977240  0.28455058  1
  Cl  Cl70  1  0.25022760  0.50000000  0.78455058  1
  Cl  Cl71  1  0.74977240  0.50000000  0.78455058  1
  O  O72  1  0.50000000  0.24059101  0.55774947  1
  O  O73  1  0.50000000  0.75940899  0.55774947  1
  O  O74  1  0.75940899  0.50000000  0.05774947  1
  O  O75  1  0.24059101  0.50000000  0.05774947  1
  O  O76  1  0.50000000  0.24059101  0.44225053  1
  O  O77  1  0.50000000  0.75940899  0.44225053  1
  O  O78  1  0.24059101  0.50000000  0.94225053  1
  O  O79  1  0.75940899  0.50000000  0.94225053  1
  O  O80  1  -0.00000000  0.24228226  0.55696878  1
  O  O81  1  -0.00000000  0.75771774  0.55696878  1
  O  O82  1  0.75771774  0.00000000  0.05696878  1
  O  O83  1  0.24228226  0.00000000  0.05696878  1
  O  O84  1  -0.00000000  0.24228226  0.44303122  1
  O  O85  1  -0.00000000  0.75771774  0.44303122  1
  O  O86  1  0.24228226  0.00000000  0.94303122  1
  O  O87  1  0.75771774  0.00000000  0.94303122  1
  O  O88  1  -0.00000000  0.00000000  0.63014112  1
  O  O89  1  -0.00000000  0.00000000  0.13014112  1
  O  O90  1  -0.00000000  0.00000000  0.36985888  1
  O  O91  1  -0.00000000  0.00000000  0.86985888  1
  O  O92  1  -0.00000000  0.50000000  0.63015807  1
  O  O93  1  0.50000000  0.00000000  0.13015807  1
  O  O94  1  -0.00000000  0.50000000  0.36984193  1
  O  O95  1  0.50000000  0.00000000  0.86984193  1
  O  O96  1  0.50000000  0.00000000  0.62952388  1
  O  O97  1  -0.00000000  0.50000000  0.12952388  1
  O  O98  1  0.50000000  0.00000000  0.37047612  1
  O  O99  1  -0.00000000  0.50000000  0.87047612  1
  O  O100  1  0.50000000  0.50000000  0.62970938  1
  O  O101  1  0.50000000  0.50000000  0.12970938  1
  O  O102  1  0.50000000  0.50000000  0.37029062  1
  O  O103  1  0.50000000  0.50000000  0.87029062  1
  O  O104  1  0.75213797  0.24818941  0.62988952  1
  O  O105  1  0.24786203  0.75181059  0.62988952  1
  O  O106  1  0.75181059  0.75213797  0.12988952  1
  O  O107  1  0.24818941  0.24786203  0.12988952  1
  O  O108  1  0.24786203  0.24818941  0.37011048  1
  O  O109  1  0.75213797  0.75181059  0.37011048  1
  O  O110  1  0.24818941  0.75213797  0.87011048  1
  O  O111  1  0.75181059  0.24786203  0.87011048  1
  O  O112  1  0.24786203  0.75181059  0.37011048  1
  O  O113  1  0.75213797  0.24818941  0.37011048  1
  O  O114  1  0.24818941  0.24786203  0.87011048  1
  O  O115  1  0.75181059  0.75213797  0.87011048  1
  O  O116  1  0.75213797  0.75181059  0.62988952  1
  O  O117  1  0.24786203  0.24818941  0.62988952  1
  O  O118  1  0.75181059  0.24786203  0.12988952  1
  O  O119  1  0.24818941  0.75213797  0.12988952  1
  O  O120  1  0.27209233  0.50000000  0.50000000  1
  O  O121  1  0.72790767  0.50000000  0.50000000  1
  O  O122  1  0.50000000  0.27209233  0.00000000  1
  O  O123  1  0.50000000  0.72790767  0.00000000  1
