# generated using pymatgen
data_Pr3Ge
_symmetry_space_group_name_H-M   'P 1'
_cell_length_a   6.25078484
_cell_length_b   12.51218619
_cell_length_c   12.51218619
_cell_angle_alpha   90.00000000
_cell_angle_beta   90.00000000
_cell_angle_gamma   90.00000000
_symmetry_Int_Tables_number   1
_chemical_formula_structural   Pr3Ge
_chemical_formula_sum   'Pr24 Ge8'
_cell_volume   978.59039080
_cell_formula_units_Z   8
loop_
 _symmetry_equiv_pos_site_id
 _symmetry_equiv_pos_as_xyz
  1  'x, y, z'
loop_
 _atom_site_type_symbol
 _atom_site_label
 _atom_site_symmetry_multiplicity
 _atom_site_fract_x
 _atom_site_fract_y
 _atom_site_fract_z
 _atom_site_occupancy
  Pr  Pr0  1  0.25956785  0.07222613  0.53075863  1
  Pr  Pr1  1  0.25956785  0.42777387  0.96924137  1
  Pr  Pr2  1  0.75956785  0.03075863  0.92777387  1
  Pr  Pr3  1  0.75956785  0.46924137  0.57222613  1
  Pr  Pr4  1  0.74043215  0.92777387  0.46924137  1
  Pr  Pr5  1  0.74043215  0.57222613  0.03075863  1
  Pr  Pr6  1  0.24043215  0.96924137  0.07222613  1
  Pr  Pr7  1  0.24043215  0.53075863  0.42777387  1
  Pr  Pr8  1  0.76814240  0.16966663  0.63425654  1
  Pr  Pr9  1  0.76814240  0.33033337  0.86574346  1
  Pr  Pr10  1  0.26814240  0.13425654  0.83033337  1
  Pr  Pr11  1  0.26814240  0.36574346  0.66966663  1
  Pr  Pr12  1  0.23185760  0.83033337  0.36574346  1
  Pr  Pr13  1  0.23185760  0.66966663  0.13425654  1
  Pr  Pr14  1  0.73185760  0.86574346  0.16966663  1
  Pr  Pr15  1  0.73185760  0.63425654  0.33033337  1
  Pr  Pr16  1  0.98055369  0.11210172  0.28183684  1
  Pr  Pr17  1  0.98055369  0.38789828  0.21816316  1
  Pr  Pr18  1  0.48055369  0.78183684  0.88789828  1
  Pr  Pr19  1  0.48055369  0.71816316  0.61210172  1
  Pr  Pr20  1  0.01944631  0.88789828  0.71816316  1
  Pr  Pr21  1  0.01944631  0.61210172  0.78183684  1
  Pr  Pr22  1  0.51944631  0.21816316  0.11210172  1
  Pr  Pr23  1  0.51944631  0.28183684  0.38789828  1
  Ge  Ge24  1  0.03015768  0.20572227  0.04736658  1
  Ge  Ge25  1  0.03015768  0.29427773  0.45263342  1
  Ge  Ge26  1  0.53015768  0.54736658  0.79427773  1
  Ge  Ge27  1  0.53015768  0.95263342  0.70572227  1
  Ge  Ge28  1  0.96984232  0.79427773  0.95263342  1
  Ge  Ge29  1  0.96984232  0.70572227  0.54736658  1
  Ge  Ge30  1  0.46984232  0.45263342  0.20572227  1
  Ge  Ge31  1  0.46984232  0.04736658  0.29427773  1
