# generated using pymatgen
data_Bi2O3
_symmetry_space_group_name_H-M   'P 1'
_cell_length_a   7.38006869
_cell_length_b   9.43773723
_cell_length_c   10.32733937
_cell_angle_alpha   103.32090251
_cell_angle_beta   90.00000000
_cell_angle_gamma   90.00000000
_symmetry_Int_Tables_number   1
_chemical_formula_structural   Bi2O3
_chemical_formula_sum   'Bi16 O24'
_cell_volume   699.95790470
_cell_formula_units_Z   8
loop_
 _symmetry_equiv_pos_site_id
 _symmetry_equiv_pos_as_xyz
  1  'x, y, z'
loop_
 _atom_site_type_symbol
 _atom_site_label
 _atom_site_symmetry_multiplicity
 _atom_site_fract_x
 _atom_site_fract_y
 _atom_site_fract_z
 _atom_site_occupancy
  Bi  Bi0  1  0.40156053  0.71565677  0.57188168  1
  Bi  Bi1  1  0.90156053  0.28434323  0.92811832  1
  Bi  Bi2  1  0.59843947  0.28434323  0.42811832  1
  Bi  Bi3  1  0.09843947  0.71565677  0.07188168  1
  Bi  Bi4  1  0.90471501  0.08043144  0.17876536  1
  Bi  Bi5  1  0.40471501  0.91956856  0.32123464  1
  Bi  Bi6  1  0.09528499  0.91956856  0.82123464  1
  Bi  Bi7  1  0.59528499  0.08043144  0.67876536  1
  Bi  Bi8  1  0.62258135  0.57445046  0.16315361  1
  Bi  Bi9  1  0.12258135  0.42554954  0.33684639  1
  Bi  Bi10  1  0.37741865  0.42554954  0.83684639  1
  Bi  Bi11  1  0.87741865  0.57445046  0.66315361  1
  Bi  Bi12  1  0.87886594  0.78725809  0.43167585  1
  Bi  Bi13  1  0.37886594  0.21274191  0.06832415  1
  Bi  Bi14  1  0.12113406  0.21274191  0.56832415  1
  Bi  Bi15  1  0.62113406  0.78725809  0.93167585  1
  O  O16  1  0.86602554  0.56383885  0.32111770  1
  O  O17  1  0.36602554  0.43616115  0.17888230  1
  O  O18  1  0.13397446  0.43616115  0.67888230  1
  O  O19  1  0.63397446  0.56383885  0.82111770  1
  O  O20  1  0.84627104  0.07372364  0.96806230  1
  O  O21  1  0.34627104  0.92627636  0.53193770  1
  O  O22  1  0.15372896  0.92627636  0.03193770  1
  O  O23  1  0.65372896  0.07372364  0.46806230  1
  O  O24  1  0.44995817  0.27522345  0.65433482  1
  O  O25  1  0.94995817  0.72477655  0.84566518  1
  O  O26  1  0.55004183  0.72477655  0.34566518  1
  O  O27  1  0.05004183  0.27522345  0.15433482  1
  O  O28  1  0.69750058  0.77419547  0.61301994  1
  O  O29  1  0.19750058  0.22580453  0.88698006  1
  O  O30  1  0.30249942  0.22580453  0.38698006  1
  O  O31  1  0.80249942  0.77419547  0.11301994  1
  O  O32  1  0.43615721  0.71585041  0.07286201  1
  O  O33  1  0.93615721  0.28414959  0.42713799  1
  O  O34  1  0.56384279  0.28414959  0.92713799  1
  O  O35  1  0.06384279  0.71585041  0.57286201  1
  O  O36  1  0.36193812  0.81230229  0.78214293  1
  O  O37  1  0.86193812  0.18769771  0.71785707  1
  O  O38  1  0.63806188  0.18769771  0.21785707  1
  O  O39  1  0.13806188  0.81230229  0.28214293  1
