# generated using pymatgen
data_Fe7(SiO4)4
_symmetry_space_group_name_H-M   'P 1'
_cell_length_a   4.90031892
_cell_length_b   10.40467320
_cell_length_c   12.04363119
_cell_angle_alpha   90.87892753
_cell_angle_beta   90.00000000
_cell_angle_gamma   90.00000000
_symmetry_Int_Tables_number   1
_chemical_formula_structural   Fe7(SiO4)4
_chemical_formula_sum   'Fe14 Si8 O32'
_cell_volume   613.98694317
_cell_formula_units_Z   2
loop_
 _symmetry_equiv_pos_site_id
 _symmetry_equiv_pos_as_xyz
  1  'x, y, z'
loop_
 _atom_site_type_symbol
 _atom_site_label
 _atom_site_symmetry_multiplicity
 _atom_site_fract_x
 _atom_site_fract_y
 _atom_site_fract_z
 _atom_site_occupancy
  Fe  Fe0  1  0.50000000  0.50000000  0.50000000  1
  Fe  Fe1  1  0.00000000  -0.00000000  0.50000000  1
  Fe  Fe2  1  0.99739714  0.99356618  0.23374450  1
  Fe  Fe3  1  0.00260286  0.00643382  0.76625550  1
  Fe  Fe4  1  0.49739714  0.50643382  0.76625550  1
  Fe  Fe5  1  0.50260286  0.49356618  0.23374450  1
  Fe  Fe6  1  0.48573573  0.22105768  0.37239128  1
  Fe  Fe7  1  0.51426427  0.77894232  0.62760872  1
  Fe  Fe8  1  0.98573573  0.27894232  0.62760872  1
  Fe  Fe9  1  0.01426427  0.72105768  0.37239128  1
  Fe  Fe10  1  0.99477067  0.27096395  0.11883294  1
  Fe  Fe11  1  0.00522933  0.72903605  0.88116706  1
  Fe  Fe12  1  0.49477067  0.22903605  0.88116706  1
  Fe  Fe13  1  0.50522933  0.77096395  0.11883294  1
  Si  Si14  1  0.92870728  0.40292040  0.37012709  1
  Si  Si15  1  0.07129272  0.59707960  0.62987291  1
  Si  Si16  1  0.42870728  0.09707960  0.62987291  1
  Si  Si17  1  0.57129272  0.90292040  0.37012709  1
  Si  Si18  1  0.43550138  0.09517989  0.11916626  1
  Si  Si19  1  0.56449862  0.90482011  0.88083374  1
  Si  Si20  1  0.93550138  0.40482011  0.88083374  1
  Si  Si21  1  0.06449862  0.59517989  0.11916626  1
  O  O22  1  0.26342855  0.40608300  0.37074225  1
  O  O23  1  0.73657145  0.59391700  0.62925775  1
  O  O24  1  0.76342855  0.09391700  0.62925775  1
  O  O25  1  0.23657145  0.90608300  0.37074225  1
  O  O26  1  0.73462786  0.60668379  0.12774891  1
  O  O27  1  0.26537214  0.39331621  0.87225109  1
  O  O28  1  0.23462786  0.89331621  0.87225109  1
  O  O29  1  0.76537214  0.10668379  0.12774891  1
  O  O30  1  0.32732415  0.94551791  0.12547810  1
  O  O31  1  0.67267585  0.05448209  0.87452190  1
  O  O32  1  0.82732415  0.55448209  0.87452190  1
  O  O33  1  0.17267585  0.44551791  0.12547810  1
  O  O34  1  0.71256672  0.04792172  0.37045036  1
  O  O35  1  0.28743328  0.95207828  0.62954964  1
  O  O36  1  0.21256672  0.45207828  0.62954964  1
  O  O37  1  0.78743328  0.54792172  0.37045036  1
  O  O38  1  0.20376828  0.67767481  0.01741174  1
  O  O39  1  0.79623172  0.32232519  0.98258826  1
  O  O40  1  0.70376828  0.82232519  0.98258826  1
  O  O41  1  0.29623172  0.17767481  0.01741174  1
  O  O42  1  0.78821082  0.33289653  0.47853624  1
  O  O43  1  0.21178918  0.66710347  0.52146376  1
  O  O44  1  0.28821082  0.16710347  0.52146376  1
  O  O45  1  0.71178918  0.83289653  0.47853624  1
  O  O46  1  0.26850904  0.16781589  0.22474274  1
  O  O47  1  0.73149096  0.83218411  0.77525726  1
  O  O48  1  0.76850904  0.33218411  0.77525726  1
  O  O49  1  0.23149096  0.66781589  0.22474274  1
  O  O50  1  0.71018445  0.83031169  0.25952610  1
  O  O51  1  0.28981555  0.16968831  0.74047390  1
  O  O52  1  0.21018445  0.66968831  0.74047390  1
  O  O53  1  0.78981555  0.33031169  0.25952610  1
