# generated using pymatgen
data_Cu4H18C6S3I4
_symmetry_space_group_name_H-M   'P 1'
_cell_length_a   11.10007302
_cell_length_b   13.25050331
_cell_length_c   16.36115594
_cell_angle_alpha   113.88723266
_cell_angle_beta   90.00000000
_cell_angle_gamma   90.00000000
_symmetry_Int_Tables_number   1
_chemical_formula_structural   Cu4H18C6S3I4
_chemical_formula_sum   'Cu16 H72 C24 S12 I16'
_cell_volume   2200.30007913
_cell_formula_units_Z   4
loop_
 _symmetry_equiv_pos_site_id
 _symmetry_equiv_pos_as_xyz
  1  'x, y, z'
loop_
 _atom_site_type_symbol
 _atom_site_label
 _atom_site_symmetry_multiplicity
 _atom_site_fract_x
 _atom_site_fract_y
 _atom_site_fract_z
 _atom_site_occupancy
  Cu  Cu0  1  0.88231479  0.57606742  0.15213484  1
  Cu  Cu1  1  0.11768521  0.42393258  0.84786516  1
  Cu  Cu2  1  0.38231479  0.92393258  0.84786516  1
  Cu  Cu3  1  0.61768521  0.07606742  0.15213484  1
  Cu  Cu4  1  0.14079330  0.56785991  0.13571982  1
  Cu  Cu5  1  0.85920670  0.43214009  0.86428018  1
  Cu  Cu6  1  0.64079330  0.93214009  0.86428018  1
  Cu  Cu7  1  0.35920670  0.06785991  0.13571982  1
  Cu  Cu8  1  0.16399610  0.53996378  0.28904989  1
  Cu  Cu9  1  0.83600390  0.25091390  0.71095011  1
  Cu  Cu10  1  0.66399610  0.75091390  0.71095011  1
  Cu  Cu11  1  0.33600390  0.03996378  0.28904989  1
  Cu  Cu12  1  0.83600390  0.46003622  0.71095011  1
  Cu  Cu13  1  0.16399610  0.74908610  0.28904989  1
  Cu  Cu14  1  0.33600390  0.24908610  0.28904989  1
  Cu  Cu15  1  0.66399610  0.96003622  0.71095011  1
  H  H16  1  0.62450537  0.58051666  0.95723448  1
  H  H17  1  0.37549463  0.62328218  0.04276552  1
  H  H18  1  0.12450537  0.12328218  0.04276552  1
  H  H19  1  0.87549463  0.08051666  0.95723448  1
  H  H20  1  0.37549463  0.41948334  0.04276552  1
  H  H21  1  0.62450537  0.37671782  0.95723448  1
  H  H22  1  0.87549463  0.87671782  0.95723448  1
  H  H23  1  0.12450537  0.91948334  0.04276552  1
  H  H24  1  0.73485731  0.68155894  0.01802194  1
  H  H25  1  0.26514269  0.66353699  0.98197806  1
  H  H26  1  0.23485731  0.16353699  0.98197806  1
  H  H27  1  0.76514269  0.18155894  0.01802194  1
  H  H28  1  0.26514269  0.31844106  0.98197806  1
  H  H29  1  0.73485731  0.33646301  0.01802194  1
  H  H30  1  0.76514269  0.83646301  0.01802194  1
  H  H31  1  0.23485731  0.81844106  0.98197806  1
  H  H32  1  0.62863793  0.63525597  0.07790245  1
  H  H33  1  0.37136207  0.55735352  0.92209755  1
  H  H34  1  0.12863793  0.05735352  0.92209755  1
  H  H35  1  0.87136207  0.13525597  0.07790245  1
  H  H36  1  0.37136207  0.36474403  0.92209755  1
  H  H37  1  0.62863793  0.44264648  0.07790245  1
  H  H38  1  0.87136207  0.94264648  0.07790245  1
  H  H39  1  0.12863793  0.86474403  0.92209755  1
  H  H40  1  0.65643070  0.77710134  0.37298915  1
  H  H41  1  0.34356930  0.40411219  0.62701085  1
  H  H42  1  0.15643070  0.90411219  0.62701085  1
  H  H43  1  0.84356930  0.27710134  0.37298915  1
  H  H44  1  0.34356930  0.22289866  0.62701085  1
  H  H45  1  0.65643070  0.59588781  0.37298915  1
  H  H46  1  0.84356930  0.09588781  0.37298915  1
  H  H47  1  0.15643070  0.72289866  0.62701085  1
  H  H48  1  0.70147831  0.81384815  0.28367073  1
  H  H49  1  0.29852169  0.53017742  0.71632927  1
  H  H50  1  0.20147831  0.03017742  0.71632927  1
  H  H51  1  0.79852169  0.31384815  0.28367073  1
  H  H52  1  0.29852169  0.18615185  0.71632927  1
  H  H53  1  0.70147831  0.46982258  0.28367073  1
  H  H54  1  0.79852169  0.96982258  0.28367073  1
  H  H55  1  0.20147831  0.68615185  0.71632927  1
  H  H56  1  0.81427872  0.78587470  0.35083784  1
  H  H57  1  0.18572128  0.43503686  0.64916216  1
  H  H58  1  0.31427872  0.93503686  0.64916216  1
  H  H59  1  0.68572128  0.28587470  0.35083784  1
  H  H60  1  0.18572128  0.21412530  0.64916216  1
  H  H61  1  0.81427872  0.56496314  0.35083784  1
  H  H62  1  0.68572128  0.06496314  0.35083784  1
  H  H63  1  0.31427872  0.71412530  0.64916216  1
  H  H64  1  0.18169193  0.36764974  0.46468801  1
  H  H65  1  0.81830807  0.90296173  0.53531199  1
  H  H66  1  0.68169193  0.40296173  0.53531199  1
  H  H67  1  0.31830807  0.86764974  0.46468801  1
  H  H68  1  0.81830807  0.63235026  0.53531199  1
  H  H69  1  0.18169193  0.09703827  0.46468801  1
  H  H70  1  0.31830807  0.59703827  0.46468801  1
  H  H71  1  0.68169193  0.13235026  0.53531199  1
  H  H72  1  0.06294314  0.37373437  0.39283913  1
  H  H73  1  0.93705686  0.98089525  0.60716087  1
  H  H74  1  0.56294314  0.48089525  0.60716087  1
  H  H75  1  0.43705686  0.87373437  0.39283913  1
  H  H76  1  0.93705686  0.62626563  0.60716087  1
  H  H77  1  0.06294314  0.01910475  0.39283913  1
  H  H78  1  0.43705686  0.51910475  0.39283913  1
  H  H79  1  0.56294314  0.12626563  0.60716087  1
  H  H80  1  0.11840396  0.49946123  0.47793373  1
  H  H81  1  0.88159604  0.02152750  0.52206627  1
  H  H82  1  0.61840396  0.52152750  0.52206627  1
  H  H83  1  0.38159604  0.99946123  0.47793373  1
  H  H84  1  0.88159604  0.50053877  0.52206627  1
  H  H85  1  0.11840396  0.97847250  0.47793373  1
  H  H86  1  0.38159604  0.47847250  0.47793373  1
  H  H87  1  0.61840396  0.00053877  0.52206627  1
  C  C88  1  0.68191162  0.61158715  0.01671678  1
  C  C89  1  0.31808838  0.59487037  0.98328322  1
  C  C90  1  0.18191162  0.09487037  0.98328322  1
  C  C91  1  0.81808838  0.11158715  0.01671678  1
  C  C92  1  0.31808838  0.38841285  0.98328322  1
  C  C93  1  0.68191162  0.40512963  0.01671678  1
  C  C94  1  0.81808838  0.90512963  0.01671678  1
  C  C95  1  0.18191162  0.88841285  0.98328322  1
  C  C96  1  0.72435833  0.76453006  0.32128510  1
  C  C97  1  0.27564167  0.44324495  0.67871490  1
  C  C98  1  0.22435833  0.94324495  0.67871490  1
  C  C99  1  0.77564167  0.26453006  0.32128510  1
  C  C100  1  0.27564167  0.23546994  0.67871490  1
  C  C101  1  0.72435833  0.55675505  0.32128510  1
  C  C102  1  0.77564167  0.05675505  0.32128510  1
  C  C103  1  0.22435833  0.73546994  0.67871490  1
  C  C104  1  0.14207326  0.41596806  0.43083991  1
  C  C105  1  0.85792674  0.98512815  0.56916009  1
  C  C106  1  0.64207326  0.48512815  0.56916009  1
  C  C107  1  0.35792674  0.91596806  0.43083991  1
  C  C108  1  0.85792674  0.58403194  0.56916009  1
  C  C109  1  0.14207326  0.01487185  0.43083991  1
  C  C110  1  0.35792674  0.51487185  0.43083991  1
  C  C111  1  0.64207326  0.08403194  0.56916009  1
  S  S112  1  0.78826742  0.50530607  0.01061215  1
  S  S113  1  0.21173258  0.49469393  0.98938785  1
  S  S114  1  0.28826742  0.99469393  0.98938785  1
  S  S115  1  0.71173258  0.00530607  0.01061215  1
  S  S116  1  0.71826140  0.62169160  0.24338319  1
  S  S117  1  0.28173860  0.37830840  0.75661681  1
  S  S118  1  0.21826140  0.87830840  0.75661681  1
  S  S119  1  0.78173860  0.12169160  0.24338319  1
  S  S120  1  0.25000000  0.42573546  0.35147093  1
  S  S121  1  0.75000000  0.07426454  0.64852907  1
  S  S122  1  0.75000000  0.57426454  0.64852907  1
  S  S123  1  0.25000000  0.92573546  0.35147093  1
  I  I124  1  0.01112036  0.41595391  0.16442951  1
  I  I125  1  0.98887964  0.25152441  0.83557049  1
  I  I126  1  0.51112036  0.75152441  0.83557049  1
  I  I127  1  0.48887964  0.91595391  0.16442951  1
  I  I128  1  0.98887964  0.58404609  0.83557049  1
  I  I129  1  0.01112036  0.74847559  0.16442951  1
  I  I130  1  0.48887964  0.24847559  0.16442951  1
  I  I131  1  0.51112036  0.08404609  0.83557049  1
  I  I132  1  0.35253031  0.61347265  0.22694531  1
  I  I133  1  0.64746969  0.38652735  0.77305469  1
  I  I134  1  0.85253031  0.88652735  0.77305469  1
  I  I135  1  0.14746969  0.11347265  0.22694531  1
  I  I136  1  0.06125011  0.70951453  0.41902906  1
  I  I137  1  0.93874989  0.29048547  0.58097094  1
  I  I138  1  0.56125011  0.79048547  0.58097094  1
  I  I139  1  0.43874989  0.20951453  0.41902906  1
