# generated using pymatgen
data_LiY(CN2)2
_symmetry_space_group_name_H-M   'P 1'
_cell_length_a   6.22206611
_cell_length_b   7.09364645
_cell_length_c   9.86364243
_cell_angle_alpha   90.00000000
_cell_angle_beta   90.00000000
_cell_angle_gamma   90.00000000
_symmetry_Int_Tables_number   1
_chemical_formula_structural   LiY(CN2)2
_chemical_formula_sum   'Li4 Y4 C8 N16'
_cell_volume   435.35293896
_cell_formula_units_Z   4
loop_
 _symmetry_equiv_pos_site_id
 _symmetry_equiv_pos_as_xyz
  1  'x, y, z'
loop_
 _atom_site_type_symbol
 _atom_site_label
 _atom_site_symmetry_multiplicity
 _atom_site_fract_x
 _atom_site_fract_y
 _atom_site_fract_z
 _atom_site_occupancy
  Li  Li0  1  0.25000000  0.61329387  0.00000000  1
  Li  Li1  1  0.75000000  0.88670613  0.50000000  1
  Li  Li2  1  0.75000000  0.38670613  0.00000000  1
  Li  Li3  1  0.25000000  0.11329387  0.50000000  1
  Y  Y4  1  0.25000000  0.13918551  0.00000000  1
  Y  Y5  1  0.75000000  0.36081449  0.50000000  1
  Y  Y6  1  0.75000000  0.86081449  0.00000000  1
  Y  Y7  1  0.25000000  0.63918551  0.50000000  1
  C  C8  1  0.91779579  0.11362153  0.25007000  1
  C  C9  1  0.41779579  0.38637847  0.24993000  1
  C  C10  1  0.08220421  0.38637847  0.75007000  1
  C  C11  1  0.58220421  0.11362153  0.74993000  1
  C  C12  1  0.08220421  0.88637847  0.74993000  1
  C  C13  1  0.58220421  0.61362153  0.75007000  1
  C  C14  1  0.91779579  0.61362153  0.24993000  1
  C  C15  1  0.41779579  0.88637847  0.25007000  1
  N  N16  1  0.92768892  0.10600018  0.12425256  1
  N  N17  1  0.42768892  0.39399982  0.37574744  1
  N  N18  1  0.07231108  0.39399982  0.62425256  1
  N  N19  1  0.57231108  0.10600018  0.87574744  1
  N  N20  1  0.07231108  0.89399982  0.87574744  1
  N  N21  1  0.57231108  0.60600018  0.62425256  1
  N  N22  1  0.92768892  0.60600018  0.37574744  1
  N  N23  1  0.42768892  0.89399982  0.12425256  1
  N  N24  1  0.40812354  0.37958753  0.12619604  1
  N  N25  1  0.90812354  0.12041247  0.37380396  1
  N  N26  1  0.59187646  0.12041247  0.62619604  1
  N  N27  1  0.09187646  0.37958753  0.87380396  1
  N  N28  1  0.59187646  0.62041247  0.87380396  1
  N  N29  1  0.09187646  0.87958753  0.62619604  1
  N  N30  1  0.40812354  0.87958753  0.37380396  1
  N  N31  1  0.90812354  0.62041247  0.12619604  1
