# generated using pymatgen
data_NdH24C4I3(NO)8
_symmetry_space_group_name_H-M   'P 1'
_cell_length_a   8.07213779
_cell_length_b   10.68986808
_cell_length_c   15.16391253
_cell_angle_alpha   90.00000000
_cell_angle_beta   100.98175342
_cell_angle_gamma   90.00000000
_symmetry_Int_Tables_number   1
_chemical_formula_structural   NdH24C4I3(NO)8
_chemical_formula_sum   'Nd2 H48 C8 I6 N16 O16'
_cell_volume   1284.53404892
_cell_formula_units_Z   2
loop_
 _symmetry_equiv_pos_site_id
 _symmetry_equiv_pos_as_xyz
  1  'x, y, z'
loop_
 _atom_site_type_symbol
 _atom_site_label
 _atom_site_symmetry_multiplicity
 _atom_site_fract_x
 _atom_site_fract_y
 _atom_site_fract_z
 _atom_site_occupancy
  Nd  Nd0  1  0.25000000  0.15250093  0.75000000  1
  Nd  Nd1  1  0.75000000  0.84749907  0.25000000  1
  H  H2  1  0.39010296  0.36193669  0.51637373  1
  H  H3  1  0.10989704  0.36193669  0.98362627  1
  H  H4  1  0.60989704  0.63806331  0.48362627  1
  H  H5  1  0.89010296  0.63806331  0.01637373  1
  H  H6  1  0.29518139  0.50610457  0.48901744  1
  H  H7  1  0.20481861  0.50610457  0.01098256  1
  H  H8  1  0.70481861  0.49389543  0.51098256  1
  H  H9  1  0.79518139  0.49389543  0.98901744  1
  H  H10  1  0.08276207  0.49922276  0.67446301  1
  H  H11  1  0.41723793  0.49922276  0.82553699  1
  H  H12  1  0.91723793  0.50077724  0.32553699  1
  H  H13  1  0.58276207  0.50077724  0.17446301  1
  H  H14  1  0.13397966  0.59314641  0.58862212  1
  H  H15  1  0.36602034  0.59314641  0.91137788  1
  H  H16  1  0.86602034  0.40685359  0.41137788  1
  H  H17  1  0.63397966  0.40685359  0.08862212  1
  H  H18  1  0.39041406  0.82388977  0.71622615  1
  H  H19  1  0.10958594  0.82388977  0.78377385  1
  H  H20  1  0.60958594  0.17611023  0.28377385  1
  H  H21  1  0.89041406  0.17611023  0.21622615  1
  H  H22  1  0.55476857  0.73107970  0.77062903  1
  H  H23  1  0.94523143  0.73107970  0.72937097  1
  H  H24  1  0.44523143  0.26892030  0.22937097  1
  H  H25  1  0.05476857  0.26892030  0.27062903  1
  H  H26  1  0.65696120  0.94497183  0.95345226  1
  H  H27  1  0.84303880  0.94497183  0.54654774  1
  H  H28  1  0.34303880  0.05502817  0.04654774  1
  H  H29  1  0.15696120  0.05502817  0.45345226  1
  H  H30  1  0.71124100  0.80033863  0.91339815  1
  H  H31  1  0.78875900  0.80033863  0.58660185  1
  H  H32  1  0.28875900  0.19966137  0.08660185  1
  H  H33  1  0.21124100  0.19966137  0.41339815  1
  H  H34  1  0.58903640  0.31520952  0.76341996  1
  H  H35  1  0.91096360  0.31520952  0.73658004  1
  H  H36  1  0.41096360  0.68479048  0.23658004  1
  H  H37  1  0.08903640  0.68479048  0.26341996  1
  H  H38  1  0.62637924  0.21864969  0.84221291  1
  H  H39  1  0.87362076  0.21864969  0.65778709  1
  H  H40  1  0.37362076  0.78135031  0.15778709  1
  H  H41  1  0.12637924  0.78135031  0.34221291  1
  H  H42  1  0.48242983  0.11251853  0.60568657  1
  H  H43  1  0.01757017  0.11251853  0.89431343  1
  H  H44  1  0.51757017  0.88748147  0.39431343  1
  H  H45  1  0.98242983  0.88748147  0.10568657  1
  H  H46  1  0.38162446  0.98538104  0.59852255  1
  H  H47  1  0.11837554  0.98538104  0.90147745  1
  H  H48  1  0.61837554  0.01461896  0.40147745  1
  H  H49  1  0.88162446  0.01461896  0.09852255  1
  C  C50  1  0.23473503  0.41456489  0.59891799  1
  C  C51  1  0.26526497  0.41456489  0.90108201  1
  C  C52  1  0.76526497  0.58543511  0.40108201  1
  C  C53  1  0.73473503  0.58543511  0.09891799  1
  C  C54  1  0.50487931  0.89273546  0.83734836  1
  C  C55  1  0.99512069  0.89273546  0.66265164  1
  C  C56  1  0.49512069  0.10726454  0.16265164  1
  C  C57  1  0.00487931  0.10726454  0.33734836  1
  I  I58  1  0.75000000  0.52867922  0.75000000  1
  I  I59  1  0.25000000  0.47132078  0.25000000  1
  I  I60  1  0.16591617  0.78647616  0.99888599  1
  I  I61  1  0.33408383  0.78647616  0.50111401  1
  I  I62  1  0.83408383  0.21352384  0.00111401  1
  I  I63  1  0.66591617  0.21352384  0.49888599  1
  N  N64  1  0.29466582  0.42262475  0.52141516  1
  N  N65  1  0.20533418  0.42262475  0.97858484  1
  N  N66  1  0.70533418  0.57737525  0.47858484  1
  N  N67  1  0.79466582  0.57737525  0.02141516  1
  N  N68  1  0.14394831  0.51059061  0.62240510  1
  N  N69  1  0.35605169  0.51059061  0.87759490  1
  N  N70  1  0.85605169  0.48940939  0.37759490  1
  N  N71  1  0.64394831  0.48940939  0.12240510  1
  N  N72  1  0.47150796  0.80229585  0.77394275  1
  N  N73  1  0.02849204  0.80229585  0.72605725  1
  N  N74  1  0.52849204  0.19770415  0.22605725  1
  N  N75  1  0.97150796  0.19770415  0.27394275  1
  N  N76  1  0.63500244  0.87651629  0.90646086  1
  N  N77  1  0.86499756  0.87651629  0.59353914  1
  N  N78  1  0.36499756  0.12348371  0.09353914  1
  N  N79  1  0.13500244  0.12348371  0.40646086  1
  O  O80  1  0.26106348  0.31666037  0.64638413  1
  O  O81  1  0.23893652  0.31666037  0.85361587  1
  O  O82  1  0.73893652  0.68333963  0.35361587  1
  O  O83  1  0.76106348  0.68333963  0.14638413  1
  O  O84  1  0.41285769  0.98953591  0.83412024  1
  O  O85  1  0.08714231  0.98953591  0.66587976  1
  O  O86  1  0.58714231  0.01046409  0.16587976  1
  O  O87  1  0.91285769  0.01046409  0.33412024  1
  O  O88  1  0.55172429  0.23425422  0.78384868  1
  O  O89  1  0.94827571  0.23425422  0.71615132  1
  O  O90  1  0.44827571  0.76574578  0.21615132  1
  O  O91  1  0.05172429  0.76574578  0.28384868  1
  O  O92  1  0.40068178  0.06432990  0.63258479  1
  O  O93  1  0.09931822  0.06432990  0.86741521  1
  O  O94  1  0.59931822  0.93567010  0.36741521  1
  O  O95  1  0.90068178  0.93567010  0.13258479  1
