# generated using pymatgen
data_K3Al2Si4O13
_symmetry_space_group_name_H-M   'P 1'
_cell_length_a   8.52751062
_cell_length_b   10.16763357
_cell_length_c   15.48454962
_cell_angle_alpha   90.00000000
_cell_angle_beta   90.28328538
_cell_angle_gamma   90.00000000
_symmetry_Int_Tables_number   1
_chemical_formula_structural   K3Al2Si4O13
_chemical_formula_sum   'K12 Al8 Si16 O52'
_cell_volume   1342.56532156
_cell_formula_units_Z   4
loop_
 _symmetry_equiv_pos_site_id
 _symmetry_equiv_pos_as_xyz
  1  'x, y, z'
loop_
 _atom_site_type_symbol
 _atom_site_label
 _atom_site_symmetry_multiplicity
 _atom_site_fract_x
 _atom_site_fract_y
 _atom_site_fract_z
 _atom_site_occupancy
  K  K0  1  0.24658763  0.55136764  0.05212222  1
  K  K1  1  0.75341237  0.05136764  0.44787778  1
  K  K2  1  0.75341237  0.44863236  0.94787778  1
  K  K3  1  0.24658763  0.94863236  0.55212222  1
  K  K4  1  0.24617609  0.54948351  0.32647898  1
  K  K5  1  0.75382391  0.04948351  0.17352102  1
  K  K6  1  0.75382391  0.45051649  0.67352102  1
  K  K7  1  0.24617609  0.95051649  0.82647898  1
  K  K8  1  0.25187428  0.55716526  0.60121392  1
  K  K9  1  0.74812572  0.05716526  0.89878608  1
  K  K10  1  0.74812572  0.44283474  0.39878608  1
  K  K11  1  0.25187428  0.94283474  0.10121392  1
  Al  Al12  1  0.06765190  0.61281795  0.84138405  1
  Al  Al13  1  0.93234810  0.11281795  0.65861595  1
  Al  Al14  1  0.93234810  0.38718205  0.15861595  1
  Al  Al15  1  0.06765190  0.88718205  0.34138405  1
  Al  Al16  1  0.55650029  0.68918457  0.18426980  1
  Al  Al17  1  0.44349971  0.18918457  0.31573020  1
  Al  Al18  1  0.44349971  0.31081543  0.81573020  1
  Al  Al19  1  0.55650029  0.81081543  0.68426980  1
  Si  Si20  1  0.56384279  0.70907365  0.48884285  1
  Si  Si21  1  0.43615721  0.20907365  0.01115715  1
  Si  Si22  1  0.43615721  0.29092635  0.51115715  1
  Si  Si23  1  0.56384279  0.79092635  0.98884285  1
  Si  Si24  1  0.93681142  0.71123663  0.49418745  1
  Si  Si25  1  0.06318858  0.21123663  0.00581255  1
  Si  Si26  1  0.06318858  0.28876337  0.50581255  1
  Si  Si27  1  0.93681142  0.78876337  0.99418745  1
  Si  Si28  1  0.94526939  0.69415988  0.18801034  1
  Si  Si29  1  0.05473061  0.19415988  0.31198966  1
  Si  Si30  1  0.05473061  0.30584012  0.81198966  1
  Si  Si31  1  0.94526939  0.80584012  0.68801034  1
  Si  Si32  1  0.44025004  0.61728706  0.83701399  1
  Si  Si33  1  0.55974996  0.11728706  0.66298601  1
  Si  Si34  1  0.55974996  0.38271294  0.16298601  1
  Si  Si35  1  0.44025004  0.88271294  0.33701399  1
  O  O36  1  0.75066651  0.67397431  0.50111047  1
  O  O37  1  0.24933349  0.17397431  0.99888953  1
  O  O38  1  0.24933349  0.32602569  0.49888953  1
  O  O39  1  0.75066651  0.82602569  0.00111047  1
  O  O40  1  0.05002809  0.72500327  0.75748616  1
  O  O41  1  0.94997191  0.22500327  0.74251384  1
  O  O42  1  0.94997191  0.27499673  0.24251384  1
  O  O43  1  0.05002809  0.77499673  0.25748616  1
  O  O44  1  0.55578530  0.22378124  0.74044072  1
  O  O45  1  0.44421470  0.72378124  0.75955928  1
  O  O46  1  0.44421470  0.77621876  0.25955928  1
  O  O47  1  0.55578530  0.27621876  0.24044072  1
  O  O48  1  0.03487598  0.58740011  0.45432650  1
  O  O49  1  0.96512402  0.08740011  0.04567350  1
  O  O50  1  0.96512402  0.41259989  0.54567350  1
  O  O51  1  0.03487598  0.91259989  0.95432650  1
  O  O52  1  0.00424161  0.54125848  0.19198316  1
  O  O53  1  0.99575839  0.04125848  0.30801684  1
  O  O54  1  0.99575839  0.45874152  0.80801684  1
  O  O55  1  0.00424161  0.95874152  0.69198316  1
  O  O56  1  0.49011310  0.52454761  0.19394057  1
  O  O57  1  0.50988690  0.02454761  0.30605943  1
  O  O58  1  0.50988690  0.47545239  0.80605943  1
  O  O59  1  0.49011310  0.97545239  0.69394057  1
  O  O60  1  0.52606319  0.08159738  0.05283589  1
  O  O61  1  0.47393681  0.58159738  0.44716411  1
  O  O62  1  0.47393681  0.91840262  0.94716411  1
  O  O63  1  0.52606319  0.41840262  0.55283589  1
  O  O64  1  0.75820323  0.71290964  0.20031966  1
  O  O65  1  0.24179677  0.21290964  0.29968034  1
  O  O66  1  0.24179677  0.28709036  0.79968034  1
  O  O67  1  0.75820323  0.78709036  0.70031966  1
  O  O68  1  0.55232160  0.66645687  0.91975552  1
  O  O69  1  0.44767840  0.16645687  0.58024448  1
  O  O70  1  0.44767840  0.33354313  0.08024448  1
  O  O71  1  0.55232160  0.83354313  0.41975552  1
  O  O72  1  0.96116239  0.65844785  0.93440948  1
  O  O73  1  0.03883761  0.15844785  0.56559052  1
  O  O74  1  0.03883761  0.34155215  0.06559052  1
  O  O75  1  0.96116239  0.84155215  0.43440948  1
  O  O76  1  0.73624331  0.10105605  0.62449732  1
  O  O77  1  0.26375669  0.60105605  0.87550268  1
  O  O78  1  0.26375669  0.89894395  0.37550268  1
  O  O79  1  0.73624331  0.39894395  0.12449732  1
  O  O80  1  0.49177912  0.75637904  0.58082605  1
  O  O81  1  0.50822088  0.25637904  0.91917395  1
  O  O82  1  0.50822088  0.24362096  0.41917395  1
  O  O83  1  0.49177912  0.74362096  0.08082605  1
  O  O84  1  0.00165964  0.74692531  0.59216783  1
  O  O85  1  0.99834036  0.24692531  0.90783217  1
  O  O86  1  0.99834036  0.25307469  0.40783217  1
  O  O87  1  0.00165964  0.75307469  0.09216783  1
