# generated using pymatgen
data_Cu2PHO5
_symmetry_space_group_name_H-M   'P 1'
_cell_length_a   5.94576594
_cell_length_b   8.12170366
_cell_length_c   8.51892823
_cell_angle_alpha   90.00000000
_cell_angle_beta   90.00000000
_cell_angle_gamma   90.13598068
_symmetry_Int_Tables_number   1
_chemical_formula_structural   Cu2PHO5
_chemical_formula_sum   'Cu8 P4 H4 O20'
_cell_volume   411.37574755
_cell_formula_units_Z   4
loop_
 _symmetry_equiv_pos_site_id
 _symmetry_equiv_pos_as_xyz
  1  'x, y, z'
loop_
 _atom_site_type_symbol
 _atom_site_label
 _atom_site_symmetry_multiplicity
 _atom_site_fract_x
 _atom_site_fract_y
 _atom_site_fract_z
 _atom_site_occupancy
  Cu  Cu0  1  0.25138196  0.50016703  0.00285641  1
  Cu  Cu1  1  0.75138196  0.00016703  0.49714359  1
  Cu  Cu2  1  0.74861804  0.49983297  0.99714359  1
  Cu  Cu3  1  0.24861804  0.99983297  0.50285641  1
  Cu  Cu4  1  0.98800104  0.86151656  0.87400646  1
  Cu  Cu5  1  0.48800104  0.36151656  0.62599354  1
  Cu  Cu6  1  0.01199896  0.13848344  0.12599354  1
  Cu  Cu7  1  0.51199896  0.63848344  0.37400646  1
  P  P8  1  0.49451962  0.73151294  0.75151008  1
  P  P9  1  0.99451962  0.23151294  0.74848992  1
  P  P10  1  0.50548038  0.26848706  0.24848992  1
  P  P11  1  0.00548038  0.76848706  0.25151008  1
  H  H12  1  0.01078952  0.57988655  0.79325157  1
  H  H13  1  0.51078952  0.07988655  0.70674843  1
  H  H14  1  0.98921048  0.42011345  0.20674843  1
  H  H15  1  0.48921048  0.92011345  0.29325157  1
  O  O16  1  0.49926778  0.63312341  0.91093087  1
  O  O17  1  0.99926778  0.13312341  0.58906913  1
  O  O18  1  0.50073222  0.36687659  0.08906913  1
  O  O19  1  0.00073222  0.86687659  0.41093087  1
  O  O20  1  0.29246872  0.84954220  0.74752820  1
  O  O21  1  0.79246872  0.34954220  0.75247180  1
  O  O22  1  0.70753128  0.15045780  0.25247180  1
  O  O23  1  0.20753128  0.65045780  0.24752820  1
  O  O24  1  0.47168795  0.60185990  0.61641185  1
  O  O25  1  0.97168795  0.10185990  0.88358815  1
  O  O26  1  0.52831205  0.39814010  0.38358815  1
  O  O27  1  0.02831205  0.89814010  0.11641185  1
  O  O28  1  0.00371525  0.62535338  0.90041775  1
  O  O29  1  0.50371525  0.12535338  0.59958225  1
  O  O30  1  0.99628475  0.37464662  0.09958225  1
  O  O31  1  0.49628475  0.87464662  0.40041775  1
  O  O32  1  0.71503996  0.83073283  0.73252085  1
  O  O33  1  0.21503996  0.33073283  0.76747915  1
  O  O34  1  0.28496004  0.16926717  0.26747915  1
  O  O35  1  0.78496004  0.66926717  0.23252085  1
