# generated using pymatgen
data_Ca(AlH4)2
_symmetry_space_group_name_H-M   'P 1'
_cell_length_a   9.09047537
_cell_length_b   9.48514967
_cell_length_c   13.56284006
_cell_angle_alpha   90.00000000
_cell_angle_beta   90.00000000
_cell_angle_gamma   90.00000000
_symmetry_Int_Tables_number   1
_chemical_formula_structural   Ca(AlH4)2
_chemical_formula_sum   'Ca8 Al16 H64'
_cell_volume   1169.44936663
_cell_formula_units_Z   8
loop_
 _symmetry_equiv_pos_site_id
 _symmetry_equiv_pos_as_xyz
  1  'x, y, z'
loop_
 _atom_site_type_symbol
 _atom_site_label
 _atom_site_symmetry_multiplicity
 _atom_site_fract_x
 _atom_site_fract_y
 _atom_site_fract_z
 _atom_site_occupancy
  Ca  Ca0  1  0.71742628  0.46800479  0.39338704  1
  Ca  Ca1  1  0.28257372  0.03199521  0.89338704  1
  Ca  Ca2  1  0.78257372  0.96800479  0.60661296  1
  Ca  Ca3  1  0.21742628  0.53199521  0.10661296  1
  Ca  Ca4  1  0.28257372  0.53199521  0.60661296  1
  Ca  Ca5  1  0.71742628  0.96800479  0.10661296  1
  Ca  Ca6  1  0.21742628  0.03199521  0.39338704  1
  Ca  Ca7  1  0.78257372  0.46800479  0.89338704  1
  Al  Al8  1  0.49500962  0.22245377  0.56029432  1
  Al  Al9  1  0.50499038  0.27754623  0.06029432  1
  Al  Al10  1  0.00499038  0.72245377  0.43970568  1
  Al  Al11  1  0.99500962  0.77754623  0.93970568  1
  Al  Al12  1  0.50499038  0.77754623  0.43970568  1
  Al  Al13  1  0.49500962  0.72245377  0.93970568  1
  Al  Al14  1  0.99500962  0.27754623  0.56029432  1
  Al  Al15  1  0.00499038  0.22245377  0.06029432  1
  Al  Al16  1  0.82004570  0.10840255  0.34413310  1
  Al  Al17  1  0.17995430  0.39159745  0.84413310  1
  Al  Al18  1  0.67995430  0.60840255  0.65586690  1
  Al  Al19  1  0.32004570  0.89159745  0.15586690  1
  Al  Al20  1  0.17995430  0.89159745  0.65586690  1
  Al  Al21  1  0.82004570  0.60840255  0.15586690  1
  Al  Al22  1  0.32004570  0.39159745  0.34413310  1
  Al  Al23  1  0.67995430  0.10840255  0.84413310  1
  H  H24  1  0.60494243  0.33640126  0.50902496  1
  H  H25  1  0.39505757  0.16359874  0.00902496  1
  H  H26  1  0.89505757  0.83640126  0.49097504  1
  H  H27  1  0.10494243  0.66359874  0.99097504  1
  H  H28  1  0.39505757  0.66359874  0.49097504  1
  H  H29  1  0.60494243  0.83640126  0.99097504  1
  H  H30  1  0.10494243  0.16359874  0.50902496  1
  H  H31  1  0.89505757  0.33640126  0.00902496  1
  H  H32  1  0.91015062  0.61487598  0.37155597  1
  H  H33  1  0.08984938  0.88512402  0.87155597  1
  H  H34  1  0.58984938  0.11487598  0.62844403  1
  H  H35  1  0.41015062  0.38512402  0.12844403  1
  H  H36  1  0.08984938  0.38512402  0.62844403  1
  H  H37  1  0.91015062  0.11487598  0.12844403  1
  H  H38  1  0.41015062  0.88512402  0.37155597  1
  H  H39  1  0.58984938  0.61487598  0.87155597  1
  H  H40  1  0.61796042  0.68777269  0.37084641  1
  H  H41  1  0.38203958  0.81222731  0.87084641  1
  H  H42  1  0.88203958  0.18777269  0.62915359  1
  H  H43  1  0.11796042  0.31222731  0.12915359  1
  H  H44  1  0.38203958  0.31222731  0.62915359  1
  H  H45  1  0.61796042  0.18777269  0.12915359  1
  H  H46  1  0.11796042  0.81222731  0.37084641  1
  H  H47  1  0.88203958  0.68777269  0.87084641  1
  H  H48  1  0.90779236  0.36758142  0.47666083  1
  H  H49  1  0.09220764  0.13241858  0.97666083  1
  H  H50  1  0.59220764  0.86758142  0.52333917  1
  H  H51  1  0.40779236  0.63241858  0.02333917  1
  H  H52  1  0.09220764  0.63241858  0.52333917  1
  H  H53  1  0.90779236  0.86758142  0.02333917  1
  H  H54  1  0.40779236  0.13241858  0.47666083  1
  H  H55  1  0.59220764  0.36758142  0.97666083  1
  H  H56  1  0.99543274  0.08335026  0.33192821  1
  H  H57  1  0.00456726  0.41664974  0.83192821  1
  H  H58  1  0.50456726  0.58335026  0.66807179  1
  H  H59  1  0.49543274  0.91664974  0.16807179  1
  H  H60  1  0.00456726  0.91664974  0.66807179  1
  H  H61  1  0.99543274  0.58335026  0.16807179  1
  H  H62  1  0.49543274  0.41664974  0.33192821  1
  H  H63  1  0.50456726  0.08335026  0.83192821  1
  H  H64  1  0.77305306  0.08692146  0.45990546  1
  H  H65  1  0.22694694  0.41307854  0.95990546  1
  H  H66  1  0.72694694  0.58692146  0.54009454  1
  H  H67  1  0.27305306  0.91307854  0.04009454  1
  H  H68  1  0.22694694  0.91307854  0.54009454  1
  H  H69  1  0.77305306  0.58692146  0.04009454  1
  H  H70  1  0.27305306  0.41307854  0.45990546  1
  H  H71  1  0.72694694  0.08692146  0.95990546  1
  H  H72  1  0.77451536  0.26740052  0.31298059  1
  H  H73  1  0.22548464  0.23259948  0.81298059  1
  H  H74  1  0.72548464  0.76740052  0.68701941  1
  H  H75  1  0.27451536  0.73259948  0.18701941  1
  H  H76  1  0.22548464  0.73259948  0.68701941  1
  H  H77  1  0.77451536  0.76740052  0.18701941  1
  H  H78  1  0.27451536  0.23259948  0.31298059  1
  H  H79  1  0.72548464  0.26740052  0.81298059  1
  H  H80  1  0.73269549  0.99583065  0.27518280  1
  H  H81  1  0.26730451  0.50416935  0.77518280  1
  H  H82  1  0.76730451  0.49583065  0.72481720  1
  H  H83  1  0.23269549  0.00416935  0.22481720  1
  H  H84  1  0.26730451  0.00416935  0.72481720  1
  H  H85  1  0.73269549  0.49583065  0.22481720  1
  H  H86  1  0.23269549  0.50416935  0.27518280  1
  H  H87  1  0.76730451  0.99583065  0.77518280  1
