# generated using pymatgen
data_Sr2YCu3(PbO4)2
_symmetry_space_group_name_H-M   'P 1'
_cell_length_a   5.41574362
_cell_length_b   5.48836678
_cell_length_c   15.95109643
_cell_angle_alpha   90.00000000
_cell_angle_beta   90.00000000
_cell_angle_gamma   90.00000000
_symmetry_Int_Tables_number   1
_chemical_formula_structural   Sr2YCu3(PbO4)2
_chemical_formula_sum   'Sr4 Y2 Cu6 Pb4 O16'
_cell_volume   474.12380843
_cell_formula_units_Z   2
loop_
 _symmetry_equiv_pos_site_id
 _symmetry_equiv_pos_as_xyz
  1  'x, y, z'
loop_
 _atom_site_type_symbol
 _atom_site_label
 _atom_site_symmetry_multiplicity
 _atom_site_fract_x
 _atom_site_fract_y
 _atom_site_fract_z
 _atom_site_occupancy
  Sr  Sr0  1  0.25000000  0.24667362  0.77897225  1
  Sr  Sr1  1  0.75000000  0.75332638  0.77897225  1
  Sr  Sr2  1  0.75000000  0.74667362  0.22102775  1
  Sr  Sr3  1  0.25000000  0.25332638  0.22102775  1
  Y  Y4  1  0.25000000  0.25000000  -0.00000000  1
  Y  Y5  1  0.75000000  0.75000000  0.00000000  1
  Cu  Cu6  1  0.25000000  0.25000000  0.50000000  1
  Cu  Cu7  1  0.75000000  0.75000000  0.50000000  1
  Cu  Cu8  1  0.25000000  0.74916308  0.89605963  1
  Cu  Cu9  1  0.75000000  0.25083692  0.89605963  1
  Cu  Cu10  1  0.75000000  0.24916308  0.10394037  1
  Cu  Cu11  1  0.25000000  0.75083692  0.10394037  1
  Pb  Pb12  1  0.25000000  0.75683767  0.61144279  1
  Pb  Pb13  1  0.75000000  0.24316233  0.61144279  1
  Pb  Pb14  1  0.75000000  0.25683767  0.38855721  1
  Pb  Pb15  1  0.25000000  0.74316233  0.38855721  1
  O  O16  1  0.25000000  0.73832713  0.74855028  1
  O  O17  1  0.75000000  0.26167287  0.74855028  1
  O  O18  1  0.75000000  0.23832713  0.25144972  1
  O  O19  1  0.25000000  0.76167287  0.25144972  1
  O  O20  1  0.25000000  0.18331859  0.61495771  1
  O  O21  1  0.75000000  0.81668141  0.61495771  1
  O  O22  1  0.75000000  0.68331859  0.38504229  1
  O  O23  1  0.25000000  0.31668141  0.38504229  1
  O  O24  1  -0.00000000  0.50000000  0.90927051  1
  O  O25  1  0.00000000  -0.00000000  0.09072949  1
  O  O26  1  -0.00000000  -0.00000000  0.90770605  1
  O  O27  1  0.00000000  0.50000000  0.09229395  1
  O  O28  1  0.50000000  -0.00000000  0.90770605  1
  O  O29  1  0.50000000  0.50000000  0.09229395  1
  O  O30  1  0.50000000  0.50000000  0.90927051  1
  O  O31  1  0.50000000  -0.00000000  0.09072949  1
