# generated using pymatgen
data_SbH16C4Br5N2
_symmetry_space_group_name_H-M   'P 1'
_cell_length_a   7.91365029
_cell_length_b   18.47793288
_cell_length_c   23.64970161
_cell_angle_alpha   90.00000000
_cell_angle_beta   90.00000000
_cell_angle_gamma   90.00000000
_symmetry_Int_Tables_number   1
_chemical_formula_structural   SbH16C4Br5N2
_chemical_formula_sum   'Sb8 H128 C32 Br40 N16'
_cell_volume   3458.24617591
_cell_formula_units_Z   8
loop_
 _symmetry_equiv_pos_site_id
 _symmetry_equiv_pos_as_xyz
  1  'x, y, z'
loop_
 _atom_site_type_symbol
 _atom_site_label
 _atom_site_symmetry_multiplicity
 _atom_site_fract_x
 _atom_site_fract_y
 _atom_site_fract_z
 _atom_site_occupancy
  Sb  Sb0  1  0.99955930  0.63083110  0.13333405  1
  Sb  Sb1  1  0.50044070  0.13083110  0.86666595  1
  Sb  Sb2  1  0.49955930  0.36916890  0.36666595  1
  Sb  Sb3  1  0.00044070  0.86916890  0.63333405  1
  Sb  Sb4  1  0.00044070  0.36916890  0.86666595  1
  Sb  Sb5  1  0.49955930  0.86916890  0.13333405  1
  Sb  Sb6  1  0.50044070  0.63083110  0.63333405  1
  Sb  Sb7  1  0.99955930  0.13083110  0.36666595  1
  H  H8  1  0.51966808  0.37098059  0.93554696  1
  H  H9  1  0.98033192  0.87098059  0.06445304  1
  H  H10  1  0.01966808  0.62901941  0.56445304  1
  H  H11  1  0.48033192  0.12901941  0.43554696  1
  H  H12  1  0.48033192  0.62901941  0.06445304  1
  H  H13  1  0.01966808  0.12901941  0.93554696  1
  H  H14  1  0.98033192  0.37098059  0.43554696  1
  H  H15  1  0.51966808  0.87098059  0.56445304  1
  H  H16  1  0.51942848  0.29253458  0.97243861  1
  H  H17  1  0.98057152  0.79253458  0.02756139  1
  H  H18  1  0.01942848  0.70746542  0.52756139  1
  H  H19  1  0.48057152  0.20746542  0.47243861  1
  H  H20  1  0.48057152  0.70746542  0.02756139  1
  H  H21  1  0.01942848  0.20746542  0.97243861  1
  H  H22  1  0.98057152  0.29253458  0.47243861  1
  H  H23  1  0.51942848  0.79253458  0.52756139  1
  H  H24  1  0.34287310  0.34205088  0.96883741  1
  H  H25  1  0.15712690  0.84205088  0.03116259  1
  H  H26  1  0.84287310  0.65794912  0.53116259  1
  H  H27  1  0.65712690  0.15794912  0.46883741  1
  H  H28  1  0.65712690  0.65794912  0.03116259  1
  H  H29  1  0.84287310  0.15794912  0.96883741  1
  H  H30  1  0.15712690  0.34205088  0.46883741  1
  H  H31  1  0.34287310  0.84205088  0.53116259  1
  H  H32  1  0.53513633  0.56162126  0.21710533  1
  H  H33  1  0.96486367  0.06162126  0.78289467  1
  H  H34  1  0.03513633  0.43837874  0.28289467  1
  H  H35  1  0.46486367  0.93837874  0.71710533  1
  H  H36  1  0.46486367  0.43837874  0.78289467  1
  H  H37  1  0.03513633  0.93837874  0.21710533  1
  H  H38  1  0.96486367  0.56162126  0.71710533  1
  H  H39  1  0.53513633  0.06162126  0.28289467  1
  H  H40  1  0.35197021  0.60136184  0.23385727  1
  H  H41  1  0.14802979  0.10136184  0.76614273  1
  H  H42  1  0.85197021  0.39863816  0.26614273  1
  H  H43  1  0.64802979  0.89863816  0.73385727  1
  H  H44  1  0.64802979  0.39863816  0.76614273  1
  H  H45  1  0.85197021  0.89863816  0.23385727  1
  H  H46  1  0.14802979  0.60136184  0.73385727  1
  H  H47  1  0.35197021  0.10136184  0.26614273  1
  H  H48  1  0.51405168  0.65068500  0.20740537  1
  H  H49  1  0.98594832  0.15068500  0.79259463  1
  H  H50  1  0.01405168  0.34931500  0.29259463  1
  H  H51  1  0.48594832  0.84931500  0.70740537  1
  H  H52  1  0.48594832  0.34931500  0.79259463  1
  H  H53  1  0.01405168  0.84931500  0.20740537  1
  H  H54  1  0.98594832  0.65068500  0.70740537  1
  H  H55  1  0.51405168  0.15068500  0.29259463  1
  H  H56  1  0.45749084  0.43911092  0.02140820  1
  H  H57  1  0.04250916  0.93911092  0.97859180  1
  H  H58  1  0.95749084  0.56088908  0.47859180  1
  H  H59  1  0.54250916  0.06088908  0.52140820  1
  H  H60  1  0.54250916  0.56088908  0.97859180  1
  H  H61  1  0.95749084  0.06088908  0.02140820  1
  H  H62  1  0.04250916  0.43911092  0.52140820  1
  H  H63  1  0.45749084  0.93911092  0.47859180  1
  H  H64  1  0.66141458  0.39892859  0.01885030  1
  H  H65  1  0.83858542  0.89892859  0.98114970  1
  H  H66  1  0.16141458  0.60107141  0.48114970  1
  H  H67  1  0.33858542  0.10107141  0.51885030  1
  H  H68  1  0.33858542  0.60107141  0.98114970  1
  H  H69  1  0.16141458  0.10107141  0.01885030  1
  H  H70  1  0.83858542  0.39892859  0.51885030  1
  H  H71  1  0.66141458  0.89892859  0.48114970  1
  H  H72  1  0.52093342  0.38009679  0.11358563  1
  H  H73  1  0.97906658  0.88009679  0.88641437  1
  H  H74  1  0.02093342  0.61990321  0.38641437  1
  H  H75  1  0.47906658  0.11990321  0.61358563  1
  H  H76  1  0.47906658  0.61990321  0.88641437  1
  H  H77  1  0.02093342  0.11990321  0.11358563  1
  H  H78  1  0.97906658  0.38009679  0.61358563  1
  H  H79  1  0.52093342  0.88009679  0.38641437  1
  H  H80  1  0.35085417  0.33404053  0.08022640  1
  H  H81  1  0.14914583  0.83404053  0.91977360  1
  H  H82  1  0.85085417  0.66595947  0.41977360  1
  H  H83  1  0.64914583  0.16595947  0.58022640  1
  H  H84  1  0.64914583  0.66595947  0.91977360  1
  H  H85  1  0.85085417  0.16595947  0.08022640  1
  H  H86  1  0.14914583  0.33404053  0.58022640  1
  H  H87  1  0.35085417  0.83404053  0.41977360  1
  H  H88  1  0.55823524  0.29581559  0.07935290  1
  H  H89  1  0.94176476  0.79581559  0.92064710  1
  H  H90  1  0.05823524  0.70418441  0.42064710  1
  H  H91  1  0.44176476  0.20418441  0.57935290  1
  H  H92  1  0.44176476  0.70418441  0.92064710  1
  H  H93  1  0.05823524  0.20418441  0.07935290  1
  H  H94  1  0.94176476  0.29581559  0.57935290  1
  H  H95  1  0.55823524  0.79581559  0.42064710  1
  H  H96  1  0.68392323  0.62948270  0.28947990  1
  H  H97  1  0.81607677  0.12948270  0.71052010  1
  H  H98  1  0.18392323  0.37051730  0.21052010  1
  H  H99  1  0.31607677  0.87051730  0.78947990  1
  H  H100  1  0.31607677  0.37051730  0.71052010  1
  H  H101  1  0.18392323  0.87051730  0.28947990  1
  H  H102  1  0.81607677  0.62948270  0.78947990  1
  H  H103  1  0.68392323  0.12948270  0.21052010  1
  H  H104  1  0.52312700  0.57282609  0.31732725  1
  H  H105  1  0.97687300  0.07282609  0.68267275  1
  H  H106  1  0.02312700  0.42717391  0.18267275  1
  H  H107  1  0.47687300  0.92717391  0.81732725  1
  H  H108  1  0.47687300  0.42717391  0.68267275  1
  H  H109  1  0.02312700  0.92717391  0.31732725  1
  H  H110  1  0.97687300  0.57282609  0.81732725  1
  H  H111  1  0.52312700  0.07282609  0.18267275  1
  H  H112  1  0.50501866  0.69559098  0.36207518  1
  H  H113  1  0.99498134  0.19559098  0.63792482  1
  H  H114  1  0.00501866  0.30440902  0.13792482  1
  H  H115  1  0.49498134  0.80440902  0.86207518  1
  H  H116  1  0.49498134  0.30440902  0.63792482  1
  H  H117  1  0.00501866  0.80440902  0.36207518  1
  H  H118  1  0.99498134  0.69559098  0.86207518  1
  H  H119  1  0.50501866  0.19559098  0.13792482  1
  H  H120  1  0.48600817  0.73788317  0.29496357  1
  H  H121  1  0.01399183  0.23788317  0.70503643  1
  H  H122  1  0.98600817  0.26211683  0.20503643  1
  H  H123  1  0.51399183  0.76211683  0.79496357  1
  H  H124  1  0.51399183  0.26211683  0.70503643  1
  H  H125  1  0.98600817  0.76211683  0.29496357  1
  H  H126  1  0.01399183  0.73788317  0.79496357  1
  H  H127  1  0.48600817  0.23788317  0.20503643  1
  H  H128  1  0.32214602  0.68015420  0.32050213  1
  H  H129  1  0.17785398  0.18015420  0.67949787  1
  H  H130  1  0.82214602  0.31984580  0.17949787  1
  H  H131  1  0.67785398  0.81984580  0.82050213  1
  H  H132  1  0.67785398  0.31984580  0.67949787  1
  H  H133  1  0.82214602  0.81984580  0.32050213  1
  H  H134  1  0.17785398  0.68015420  0.82050213  1
  H  H135  1  0.32214602  0.18015420  0.17949787  1
  C  C136  1  0.52596751  0.38746904  0.02313457  1
  C  C137  1  0.97403249  0.88746904  0.97686543  1
  C  C138  1  0.02596751  0.61253096  0.47686543  1
  C  C139  1  0.47403249  0.11253096  0.52313457  1
  C  C140  1  0.47403249  0.61253096  0.97686543  1
  C  C141  1  0.02596751  0.11253096  0.02313457  1
  C  C142  1  0.97403249  0.38746904  0.52313457  1
  C  C143  1  0.52596751  0.88746904  0.47686543  1
  C  C144  1  0.48631325  0.34660714  0.07705532  1
  C  C145  1  0.01368675  0.84660714  0.92294468  1
  C  C146  1  0.98631325  0.65339286  0.42294468  1
  C  C147  1  0.51368675  0.15339286  0.57705532  1
  C  C148  1  0.51368675  0.65339286  0.92294468  1
  C  C149  1  0.98631325  0.15339286  0.07705532  1
  C  C150  1  0.01368675  0.34660714  0.57705532  1
  C  C151  1  0.48631325  0.84660714  0.42294468  1
  C  C152  1  0.54654427  0.62229459  0.29296341  1
  C  C153  1  0.95345573  0.12229459  0.70703659  1
  C  C154  1  0.04654427  0.37770541  0.20703659  1
  C  C155  1  0.45345573  0.87770541  0.79296341  1
  C  C156  1  0.45345573  0.37770541  0.70703659  1
  C  C157  1  0.04654427  0.87770541  0.29296341  1
  C  C158  1  0.95345573  0.62229459  0.79296341  1
  C  C159  1  0.54654427  0.12229459  0.20703659  1
  C  C160  1  0.45971294  0.68790868  0.31861931  1
  C  C161  1  0.04028706  0.18790868  0.68138069  1
  C  C162  1  0.95971294  0.31209132  0.18138069  1
  C  C163  1  0.54028706  0.81209132  0.81861931  1
  C  C164  1  0.54028706  0.31209132  0.68138069  1
  C  C165  1  0.95971294  0.81209132  0.31861931  1
  C  C166  1  0.04028706  0.68790868  0.81861931  1
  C  C167  1  0.45971294  0.18790868  0.18138069  1
  Br  Br168  1  0.76818031  0.52820575  0.12081175  1
  Br  Br169  1  0.73181969  0.02820575  0.87918825  1
  Br  Br170  1  0.26818031  0.47179425  0.37918825  1
  Br  Br171  1  0.23181969  0.97179425  0.62081175  1
  Br  Br172  1  0.23181969  0.47179425  0.87918825  1
  Br  Br173  1  0.26818031  0.97179425  0.12081175  1
  Br  Br174  1  0.73181969  0.52820575  0.62081175  1
  Br  Br175  1  0.76818031  0.02820575  0.37918825  1
  Br  Br176  1  0.72197712  0.73513110  0.15666596  1
  Br  Br177  1  0.77802288  0.23513110  0.84333404  1
  Br  Br178  1  0.22197712  0.26486890  0.34333404  1
  Br  Br179  1  0.27802288  0.76486890  0.65666596  1
  Br  Br180  1  0.27802288  0.26486890  0.84333404  1
  Br  Br181  1  0.22197712  0.76486890  0.15666596  1
  Br  Br182  1  0.77802288  0.73513110  0.65666596  1
  Br  Br183  1  0.72197712  0.23513110  0.34333404  1
  Br  Br184  1  0.26442417  0.54339423  0.10777969  1
  Br  Br185  1  0.23557583  0.04339423  0.89222031  1
  Br  Br186  1  0.76442417  0.45660577  0.39222031  1
  Br  Br187  1  0.73557583  0.95660577  0.60777969  1
  Br  Br188  1  0.73557583  0.45660577  0.89222031  1
  Br  Br189  1  0.76442417  0.95660577  0.10777969  1
  Br  Br190  1  0.23557583  0.54339423  0.60777969  1
  Br  Br191  1  0.26442417  0.04339423  0.39222031  1
  Br  Br192  1  0.04334497  0.58991444  0.24780465  1
  Br  Br193  1  0.45665503  0.08991444  0.75219535  1
  Br  Br194  1  0.54334497  0.41008556  0.25219535  1
  Br  Br195  1  0.95665503  0.91008556  0.74780465  1
  Br  Br196  1  0.95665503  0.41008556  0.75219535  1
  Br  Br197  1  0.54334497  0.91008556  0.24780465  1
  Br  Br198  1  0.45665503  0.58991444  0.74780465  1
  Br  Br199  1  0.04334497  0.08991444  0.25219535  1
  Br  Br200  1  0.95675928  0.66663301  0.01460910  1
  Br  Br201  1  0.54324072  0.16663301  0.98539090  1
  Br  Br202  1  0.45675928  0.33336699  0.48539090  1
  Br  Br203  1  0.04324072  0.83336699  0.51460910  1
  Br  Br204  1  0.04324072  0.33336699  0.98539090  1
  Br  Br205  1  0.45675928  0.83336699  0.01460910  1
  Br  Br206  1  0.54324072  0.66663301  0.51460910  1
  Br  Br207  1  0.95675928  0.16663301  0.48539090  1
  N  N208  1  0.47425186  0.34580732  0.97149281  1
  N  N209  1  0.02574814  0.84580732  0.02850719  1
  N  N210  1  0.97425186  0.65419268  0.52850719  1
  N  N211  1  0.52574814  0.15419268  0.47149281  1
  N  N212  1  0.52574814  0.65419268  0.02850719  1
  N  N213  1  0.97425186  0.15419268  0.97149281  1
  N  N214  1  0.02574814  0.34580732  0.47149281  1
  N  N215  1  0.47425186  0.84580732  0.52850719  1
  N  N216  1  0.48288556  0.60821157  0.23404149  1
  N  N217  1  0.01711444  0.10821157  0.76595851  1
  N  N218  1  0.98288556  0.39178843  0.26595851  1
  N  N219  1  0.51711444  0.89178843  0.73404149  1
  N  N220  1  0.51711444  0.39178843  0.76595851  1
  N  N221  1  0.98288556  0.89178843  0.23404149  1
  N  N222  1  0.01711444  0.60821157  0.73404149  1
  N  N223  1  0.48288556  0.10821157  0.26595851  1
