# generated using pymatgen
data_Ti4Si4Ni
_symmetry_space_group_name_H-M   'P 1'
_cell_length_a   5.09878858
_cell_length_b   12.74771158
_cell_length_c   15.67259187
_cell_angle_alpha   90.00000000
_cell_angle_beta   90.00000000
_cell_angle_gamma   90.00000000
_symmetry_Int_Tables_number   1
_chemical_formula_structural   Ti4Si4Ni
_chemical_formula_sum   'Ti32 Si32 Ni8'
_cell_volume   1018.68534322
_cell_formula_units_Z   8
loop_
 _symmetry_equiv_pos_site_id
 _symmetry_equiv_pos_as_xyz
  1  'x, y, z'
loop_
 _atom_site_type_symbol
 _atom_site_label
 _atom_site_symmetry_multiplicity
 _atom_site_fract_x
 _atom_site_fract_y
 _atom_site_fract_z
 _atom_site_occupancy
  Ti  Ti0  1  0.25000000  0.96948309  0.44632698  1
  Ti  Ti1  1  0.25000000  0.53051691  0.94632698  1
  Ti  Ti2  1  0.75000000  0.03051691  0.55367302  1
  Ti  Ti3  1  0.75000000  0.46948309  0.05367302  1
  Ti  Ti4  1  0.75000000  0.84950048  0.03695159  1
  Ti  Ti5  1  0.75000000  0.65049952  0.53695159  1
  Ti  Ti6  1  0.25000000  0.15049952  0.96304841  1
  Ti  Ti7  1  0.25000000  0.34950048  0.46304841  1
  Ti  Ti8  1  0.75000000  0.82075513  0.70976988  1
  Ti  Ti9  1  0.75000000  0.67924487  0.20976988  1
  Ti  Ti10  1  0.25000000  0.17924487  0.29023012  1
  Ti  Ti11  1  0.25000000  0.32075513  0.79023012  1
  Ti  Ti12  1  0.75000000  0.18169726  0.85153756  1
  Ti  Ti13  1  0.75000000  0.31830274  0.35153756  1
  Ti  Ti14  1  0.25000000  0.81830274  0.14846244  1
  Ti  Ti15  1  0.25000000  0.68169726  0.64846244  1
  Ti  Ti16  1  0.75000000  0.23620085  0.05380424  1
  Ti  Ti17  1  0.75000000  0.26379915  0.55380424  1
  Ti  Ti18  1  0.25000000  0.76379915  0.94619576  1
  Ti  Ti19  1  0.25000000  0.73620085  0.44619576  1
  Ti  Ti20  1  0.25000000  0.95666232  0.67824851  1
  Ti  Ti21  1  0.25000000  0.54333768  0.17824851  1
  Ti  Ti22  1  0.75000000  0.04333768  0.32175149  1
  Ti  Ti23  1  0.75000000  0.45666232  0.82175149  1
  Ti  Ti24  1  0.49720008  0.54249390  0.36598550  1
  Ti  Ti25  1  0.00279992  0.95750610  0.86598550  1
  Ti  Ti26  1  0.99720008  0.45750610  0.63401450  1
  Ti  Ti27  1  0.50279992  0.04249390  0.13401450  1
  Ti  Ti28  1  0.50279992  0.45750610  0.63401450  1
  Ti  Ti29  1  0.99720008  0.04249390  0.13401450  1
  Ti  Ti30  1  0.00279992  0.54249390  0.36598550  1
  Ti  Ti31  1  0.49720008  0.95750610  0.86598550  1
  Si  Si32  1  0.75000000  0.88911343  0.43218228  1
  Si  Si33  1  0.75000000  0.61088657  0.93218228  1
  Si  Si34  1  0.25000000  0.11088657  0.56781772  1
  Si  Si35  1  0.25000000  0.38911343  0.06781772  1
  Si  Si36  1  0.25000000  0.51819999  0.77012564  1
  Si  Si37  1  0.25000000  0.98180001  0.27012564  1
  Si  Si38  1  0.75000000  0.48180001  0.22987436  1
  Si  Si39  1  0.75000000  0.01819999  0.72987436  1
  Si  Si40  1  0.25000000  0.28941235  0.62079106  1
  Si  Si41  1  0.25000000  0.21058765  0.12079106  1
  Si  Si42  1  0.75000000  0.71058765  0.37920894  1
  Si  Si43  1  0.75000000  0.78941235  0.87920894  1
  Si  Si44  1  0.25000000  0.38445922  0.30272168  1
  Si  Si45  1  0.25000000  0.11554078  0.80272168  1
  Si  Si46  1  0.75000000  0.61554078  0.69727832  1
  Si  Si47  1  0.75000000  0.88445922  0.19727832  1
  Si  Si48  1  0.75000000  0.05537746  0.98616540  1
  Si  Si49  1  0.75000000  0.44462254  0.48616540  1
  Si  Si50  1  0.25000000  0.94462254  0.01383460  1
  Si  Si51  1  0.25000000  0.55537746  0.51383460  1
  Si  Si52  1  0.25000000  0.69239622  0.28309232  1
  Si  Si53  1  0.25000000  0.80760378  0.78309232  1
  Si  Si54  1  0.75000000  0.30760378  0.71690768  1
  Si  Si55  1  0.75000000  0.19239622  0.21690768  1
  Si  Si56  1  0.49542282  0.66024179  0.06434647  1
  Si  Si57  1  0.00457718  0.83975821  0.56434647  1
  Si  Si58  1  0.99542282  0.33975821  0.93565353  1
  Si  Si59  1  0.50457718  0.16024179  0.43565353  1
  Si  Si60  1  0.50457718  0.33975821  0.93565353  1
  Si  Si61  1  0.99542282  0.16024179  0.43565353  1
  Si  Si62  1  0.00457718  0.66024179  0.06434647  1
  Si  Si63  1  0.49542282  0.83975821  0.56434647  1
  Ni  Ni64  1  0.99690786  0.34155736  0.18511124  1
  Ni  Ni65  1  0.50309214  0.15844264  0.68511124  1
  Ni  Ni66  1  0.49690786  0.65844264  0.81488876  1
  Ni  Ni67  1  0.00309214  0.84155736  0.31488876  1
  Ni  Ni68  1  0.00309214  0.65844264  0.81488876  1
  Ni  Ni69  1  0.49690786  0.84155736  0.31488876  1
  Ni  Ni70  1  0.50309214  0.34155736  0.18511124  1
  Ni  Ni71  1  0.99690786  0.15844264  0.68511124  1
