# generated using pymatgen
data_B6H4Pb4O15
_symmetry_space_group_name_H-M   'P 1'
_cell_length_a   4.61765968
_cell_length_b   11.69094541
_cell_length_c   12.09251670
_cell_angle_alpha   90.00000000
_cell_angle_beta   90.00000000
_cell_angle_gamma   90.00000000
_symmetry_Int_Tables_number   1
_chemical_formula_structural   B6H4Pb4O15
_chemical_formula_sum   'B12 H8 Pb8 O30'
_cell_volume   652.81218311
_cell_formula_units_Z   2
loop_
 _symmetry_equiv_pos_site_id
 _symmetry_equiv_pos_as_xyz
  1  'x, y, z'
loop_
 _atom_site_type_symbol
 _atom_site_label
 _atom_site_symmetry_multiplicity
 _atom_site_fract_x
 _atom_site_fract_y
 _atom_site_fract_z
 _atom_site_occupancy
  B  B0  1  0.20361099  0.65228968  0.77323419  1
  B  B1  1  0.20361099  0.34771032  0.22676581  1
  B  B2  1  0.70361099  0.84771032  0.27323419  1
  B  B3  1  0.70361099  0.15228968  0.72676581  1
  B  B4  1  0.69573927  0.76039549  0.82998069  1
  B  B5  1  0.69573927  0.23960451  0.17001931  1
  B  B6  1  0.19573927  0.73960451  0.32998069  1
  B  B7  1  0.19573927  0.26039549  0.67001931  1
  B  B8  1  0.72477949  0.98827056  0.88605472  1
  B  B9  1  0.72477949  0.01172944  0.11394528  1
  B  B10  1  0.22477949  0.51172944  0.38605472  1
  B  B11  1  0.22477949  0.48827056  0.61394528  1
  H  H12  1  0.19493689  0.60558134  0.93668582  1
  H  H13  1  0.19493689  0.39441866  0.06331418  1
  H  H14  1  0.69493689  0.89441866  0.43668582  1
  H  H15  1  0.69493689  0.10558134  0.56331418  1
  H  H16  1  0.65996352  0.63944060  0.94950436  1
  H  H17  1  0.65996352  0.36055940  0.05049564  1
  H  H18  1  0.15996352  0.86055940  0.44950436  1
  H  H19  1  0.15996352  0.13944060  0.55049564  1
  Pb  Pb20  1  0.20615560  0.92279885  0.71990026  1
  Pb  Pb21  1  0.20615560  0.07720115  0.28009974  1
  Pb  Pb22  1  0.70615560  0.57720115  0.21990026  1
  Pb  Pb23  1  0.70615560  0.42279885  0.78009974  1
  Pb  Pb24  1  0.22427568  0.15484753  0.95015122  1
  Pb  Pb25  1  0.22427568  0.84515247  0.04984878  1
  Pb  Pb26  1  0.72427568  0.34515247  0.45015122  1
  Pb  Pb27  1  0.72427568  0.65484753  0.54984878  1
  O  O28  1  0.18999844  0.56649706  0.86607043  1
  O  O29  1  0.18999844  0.43350294  0.13392957  1
  O  O30  1  0.68999844  0.93350294  0.36607043  1
  O  O31  1  0.68999844  0.06649706  0.63392957  1
  O  O32  1  0.10731731  0.59061889  0.67303126  1
  O  O33  1  0.10731731  0.40938111  0.32696874  1
  O  O34  1  0.60731731  0.90938111  0.17303126  1
  O  O35  1  0.60731731  0.09061889  0.82696874  1
  O  O36  1  0.50321079  0.69671532  0.75469590  1
  O  O37  1  0.50321079  0.30328468  0.24530410  1
  O  O38  1  0.00321079  0.80328468  0.25469590  1
  O  O39  1  0.00321079  0.19671532  0.74530410  1
  O  O40  1  0.00571623  0.75118691  0.79336581  1
  O  O41  1  0.00571623  0.24881309  0.20663419  1
  O  O42  1  0.50571623  0.74881309  0.29336581  1
  O  O43  1  0.50571623  0.25118691  0.70663419  1
  O  O44  1  0.61121304  0.88397683  0.82712444  1
  O  O45  1  0.61121304  0.11602317  0.17287556  1
  O  O46  1  0.11121304  0.61602317  0.32712444  1
  O  O47  1  0.11121304  0.38397683  0.67287556  1
  O  O48  1  0.66616961  0.72261901  0.94804554  1
  O  O49  1  0.66616961  0.27738099  0.05195446  1
  O  O50  1  0.16616961  0.77738099  0.44804554  1
  O  O51  1  0.16616961  0.22261901  0.55195446  1
  O  O52  1  0.03763468  0.98179187  0.88800511  1
  O  O53  1  0.03763468  0.01820813  0.11199489  1
  O  O54  1  0.53763468  0.51820813  0.38800511  1
  O  O55  1  0.53763468  0.48179187  0.61199489  1
  O  O56  1  0.59371692  -0.00000000  -0.00000000  1
  O  O57  1  0.09371692  0.50000000  0.50000000  1
