# generated using pymatgen
data_Al2FeP2(HO)18
_symmetry_space_group_name_H-M   'P 1'
_cell_length_a   5.26298036
_cell_length_b   7.03161608
_cell_length_c   10.34434381
_cell_angle_alpha   96.11275150
_cell_angle_beta   101.34742833
_cell_angle_gamma   110.46687614
_symmetry_Int_Tables_number   1
_chemical_formula_structural   Al2FeP2(HO)18
_chemical_formula_sum   'Al2 Fe1 P2 H18 O18'
_cell_volume   345.17775899
_cell_formula_units_Z   1
loop_
 _symmetry_equiv_pos_site_id
 _symmetry_equiv_pos_as_xyz
  1  'x, y, z'
loop_
 _atom_site_type_symbol
 _atom_site_label
 _atom_site_symmetry_multiplicity
 _atom_site_fract_x
 _atom_site_fract_y
 _atom_site_fract_z
 _atom_site_occupancy
  Al  Al0  1  0.50000000  0.00000000  0.50000000  1
  Al  Al1  1  0.50000000  0.50000000  0.50000000  1
  Fe  Fe2  1  -0.00000000  0.00000000  0.00000000  1
  P  P3  1  0.00881738  0.91713671  0.66417636  1
  P  P4  1  0.99118262  0.08286329  0.33582364  1
  H  H5  1  0.83748765  0.32717606  0.49057249  1
  H  H6  1  0.16251235  0.67282394  0.50942751  1
  H  H7  1  0.61802624  0.70041296  0.33087846  1
  H  H8  1  0.38197376  0.29958704  0.66912154  1
  H  H9  1  0.69986774  0.51132810  0.28189434  1
  H  H10  1  0.30013226  0.48867190  0.71810566  1
  H  H11  1  0.32473525  0.40868251  0.08900163  1
  H  H12  1  0.67526475  0.59131749  0.91099837  1
  H  H13  1  0.18087852  0.39132824  0.93676905  1
  H  H14  1  0.81912148  0.60867176  0.06323095  1
  H  H15  1  0.31035538  0.94735076  0.20585208  1
  H  H16  1  0.68964462  0.05264924  0.79414792  1
  H  H17  1  0.54507309  0.00900686  0.12634024  1
  H  H18  1  0.45492691  0.99099314  0.87365976  1
  H  H19  1  0.07532810  0.64906548  0.80648330  1
  H  H20  1  0.92467190  0.35093452  0.19351670  1
  H  H21  1  0.89685078  0.42046772  0.72748212  1
  H  H22  1  0.10314922  0.57953228  0.27251788  1
  O  O23  1  0.80629333  0.03427565  0.65088821  1
  O  O24  1  0.19370667  0.96572435  0.34911179  1
  O  O25  1  0.87074796  0.70085559  0.57107105  1
  O  O26  1  0.12925204  0.29914441  0.42892895  1
  O  O27  1  0.08863399  0.89132979  0.81254220  1
  O  O28  1  0.91136601  0.10867021  0.18745780  1
  O  O29  1  0.71822892  0.95714992  0.37547661  1
  O  O30  1  0.28177108  0.04285008  0.62452339  1
  O  O31  1  0.64899251  0.29131610  0.50676346  1
  O  O32  1  0.35100749  0.70868390  0.49323654  1
  O  O33  1  0.55281550  0.54505940  0.31932737  1
  O  O34  1  0.44718450  0.45494060  0.68067263  1
  O  O35  1  0.25530648  0.31707612  0.00153320  1
  O  O36  1  0.74469352  0.68292388  0.99846680  1
  O  O37  1  0.33888455  0.94833404  0.11374195  1
  O  O38  1  0.66111545  0.05166596  0.88625805  1
  O  O39  1  0.07051363  0.50361922  0.79629041  1
  O  O40  1  0.92948637  0.49638078  0.20370959  1
