# generated using pymatgen
data_RbVH6SeO9
_symmetry_space_group_name_H-M   'P 1'
_cell_length_a   6.47393508
_cell_length_b   6.91049532
_cell_length_c   10.23088001
_cell_angle_alpha   90.00000000
_cell_angle_beta   90.00000000
_cell_angle_gamma   108.76610517
_symmetry_Int_Tables_number   1
_chemical_formula_structural   RbVH6SeO9
_chemical_formula_sum   'Rb2 V2 H12 Se2 O18'
_cell_volume   433.37812399
_cell_formula_units_Z   2
loop_
 _symmetry_equiv_pos_site_id
 _symmetry_equiv_pos_as_xyz
  1  'x, y, z'
loop_
 _atom_site_type_symbol
 _atom_site_label
 _atom_site_symmetry_multiplicity
 _atom_site_fract_x
 _atom_site_fract_y
 _atom_site_fract_z
 _atom_site_occupancy
  Rb  Rb0  1  0.31379292  0.81967954  0.65200603  1
  Rb  Rb1  1  0.68620708  0.18032046  0.15200603  1
  V  V2  1  0.62128957  0.39542898  0.49781067  1
  V  V3  1  0.37871043  0.60457102  0.99781067  1
  H  H4  1  0.77621039  0.69109561  0.70448104  1
  H  H5  1  0.22378961  0.30890439  0.20448104  1
  H  H6  1  0.13841447  0.92448311  0.35184408  1
  H  H7  1  0.86158553  0.07551689  0.85184408  1
  H  H8  1  0.97909307  0.70091263  0.35848404  1
  H  H9  1  0.02090693  0.29908737  0.85848404  1
  H  H10  1  0.68602345  0.27183670  0.76028583  1
  H  H11  1  0.31397655  0.72816330  0.26028583  1
  H  H12  1  0.81173815  0.81704060  0.57508599  1
  H  H13  1  0.18826185  0.18295940  0.07508599  1
  H  H14  1  0.52690729  0.65348845  0.25982234  1
  H  H15  1  0.47309271  0.34651155  0.75982234  1
  Se  Se16  1  0.07697274  0.26829665  0.49863159  1
  Se  Se17  1  0.92302726  0.73170335  0.99863159  1
  O  O18  1  0.46112802  0.84211754  0.94225839  1
  O  O19  1  0.53887198  0.15788246  0.44225839  1
  O  O20  1  0.31321833  0.45950575  0.86167925  1
  O  O21  1  0.68678167  0.54049425  0.36167925  1
  O  O22  1  0.43656433  0.71368224  0.20488863  1
  O  O23  1  0.56343567  0.28631776  0.70488863  1
  O  O24  1  0.28514487  0.31027481  0.11533767  1
  O  O25  1  0.71485513  0.68972519  0.61533767  1
  O  O26  1  0.92830937  0.41676458  0.55106806  1
  O  O27  1  0.07169063  0.58323542  0.05106806  1
  O  O28  1  0.33080408  0.43107984  0.53397158  1
  O  O29  1  0.66919592  0.56892016  0.03397158  1
  O  O30  1  0.01933016  0.05662575  0.58533297  1
  O  O31  1  0.98066984  0.94337425  0.08533297  1
  O  O32  1  0.94822561  0.78045606  0.83978255  1
  O  O33  1  0.05177439  0.21954394  0.33978255  1
  O  O34  1  0.13566188  0.78314769  0.36322928  1
  O  O35  1  0.86433812  0.21685231  0.86322928  1
