# generated using pymatgen
data_Na6TeMo6(H22O23)2
_symmetry_space_group_name_H-M   'P 1'
_cell_length_a   10.29011712
_cell_length_b   10.82732204
_cell_length_c   11.21657346
_cell_angle_alpha   90.90175376
_cell_angle_beta   114.99431042
_cell_angle_gamma   104.60510372
_symmetry_Int_Tables_number   1
_chemical_formula_structural   Na6TeMo6(H22O23)2
_chemical_formula_sum   'Na6 Te1 Mo6 H44 O46'
_cell_volume   1085.34964445
_cell_formula_units_Z   1
loop_
 _symmetry_equiv_pos_site_id
 _symmetry_equiv_pos_as_xyz
  1  'x, y, z'
loop_
 _atom_site_type_symbol
 _atom_site_label
 _atom_site_symmetry_multiplicity
 _atom_site_fract_x
 _atom_site_fract_y
 _atom_site_fract_z
 _atom_site_occupancy
  Na  Na0  1  0.56355243  0.23783041  0.84334349  1
  Na  Na1  1  0.43644757  0.76216959  0.15665651  1
  Na  Na2  1  0.39515168  0.84198898  0.43433000  1
  Na  Na3  1  0.60484832  0.15801102  0.56567000  1
  Na  Na4  1  0.79724291  0.41122642  0.45157071  1
  Na  Na5  1  0.20275709  0.58877358  0.54842929  1
  Te  Te6  1  0.00000000  -0.00000000  0.00000000  1
  Mo  Mo7  1  0.80138436  0.76099627  0.09309428  1
  Mo  Mo8  1  0.19861564  0.23900373  0.90690572  1
  Mo  Mo9  1  0.04924769  0.94478638  0.73048141  1
  Mo  Mo10  1  0.95075231  0.05521362  0.26951859  1
  Mo  Mo11  1  0.84617839  0.70603173  0.82098529  1
  Mo  Mo12  1  0.15382161  0.29396827  0.17901471  1
  H  H13  1  0.66423290  0.00328938  0.94342762  1
  H  H14  1  0.33576710  0.99671062  0.05657238  1
  H  H15  1  0.48740052  0.95820636  0.88339829  1
  H  H16  1  0.51259948  0.04179364  0.11660171  1
  H  H17  1  0.18016377  0.71276980  0.89196438  1
  H  H18  1  0.81983623  0.28723020  0.10803562  1
  H  H19  1  0.21246468  0.58006373  0.92936642  1
  H  H20  1  0.78753532  0.41993627  0.07063358  1
  H  H21  1  0.41768090  0.41132731  0.69949621  1
  H  H22  1  0.58231910  0.58867269  0.30050379  1
  H  H23  1  0.56050430  0.51123530  0.80741852  1
  H  H24  1  0.43949570  0.48876470  0.19258148  1
  H  H25  1  0.81882198  0.36368543  0.81494502  1
  H  H26  1  0.18117802  0.63631457  0.18505498  1
  H  H27  1  0.85352679  0.23358886  0.85341358  1
  H  H28  1  0.14647321  0.76641114  0.14658642  1
  H  H29  1  0.69447066  0.85725117  0.45714762  1
  H  H30  1  0.30552934  0.14274883  0.54285238  1
  H  H31  1  0.34023605  0.06036117  0.65499821  1
  H  H32  1  0.65976395  0.93963883  0.34500179  1
  H  H33  1  0.69244423  0.93851757  0.69614233  1
  H  H34  1  0.30755577  0.06148243  0.30385767  1
  H  H35  1  0.56670642  0.96896614  0.72035429  1
  H  H36  1  0.43329358  0.03103386  0.27964571  1
  H  H37  1  0.90277729  0.17278094  0.59502574  1
  H  H38  1  0.09722271  0.82721906  0.40497426  1
  H  H39  1  0.81103958  0.14906059  0.43980797  1
  H  H40  1  0.18896042  0.85093941  0.56019203  1
  H  H41  1  0.48916598  0.35947213  0.44784913  1
  H  H42  1  0.51083402  0.64052787  0.55215087  1
  H  H43  1  0.59552650  0.41475985  0.59529123  1
  H  H44  1  0.40447350  0.58524015  0.40470877  1
  H  H45  1  0.06084655  0.47469782  0.72125056  1
  H  H46  1  0.93915345  0.52530218  0.27874944  1
  H  H47  1  0.01341764  0.60115681  0.69064702  1
  H  H48  1  0.98658236  0.39884319  0.30935298  1
  H  H49  1  0.50337115  0.29031074  0.19327004  1
  H  H50  1  0.49662885  0.70968926  0.80672996  1
  H  H51  1  0.64711449  0.31645085  0.16845735  1
  H  H52  1  0.35288551  0.68354915  0.83154265  1
  H  H53  1  0.83976143  0.70122018  0.39705167  1
  H  H54  1  0.16023857  0.29877982  0.60294833  1
  H  H55  1  0.77445260  0.67024932  0.49859762  1
  H  H56  1  0.22554740  0.32975068  0.50140238  1
  O  O57  1  0.05549278  0.12704541  0.73688460  1
  O  O58  1  0.94450722  0.87295459  0.26311540  1
  O  O59  1  0.70873407  0.71238254  0.89852989  1
  O  O60  1  0.29126593  0.28761746  0.10147011  1
  O  O61  1  0.84025045  0.61695585  0.14620178  1
  O  O62  1  0.15974955  0.38304415  0.85379822  1
  O  O63  1  0.63620536  0.76242050  0.09982685  1
  O  O64  1  0.36379464  0.23757950  0.90017315  1
  O  O65  1  0.83251270  0.97445467  0.04748055  1
  O  O66  1  0.16748730  0.02554533  0.95251945  1
  O  O67  1  0.00743886  0.17885545  0.96680445  1
  O  O68  1  0.99256114  0.82114455  0.03319555  1
  O  O69  1  0.87414793  0.92584500  0.81447598  1
  O  O70  1  0.12585207  0.07415500  0.18552402  1
  O  O71  1  0.03063637  0.77579545  0.79843654  1
  O  O72  1  0.96936363  0.22420455  0.20156346  1
  O  O73  1  0.90223271  0.89217900  0.57192612  1
  O  O74  1  0.09776729  0.10782100  0.42807388  1
  O  O75  1  0.21360657  0.95089776  0.71393663  1
  O  O76  1  0.78639343  0.04910224  0.28606337  1
  O  O77  1  0.88112182  0.56029639  0.86634640  1
  O  O78  1  0.11887818  0.43970361  0.13365360  1
  O  O79  1  0.71585582  0.67246014  0.65257143  1
  O  O80  1  0.28414418  0.32753986  0.34742857  1
  O  O81  1  0.42894205  0.97733967  0.11951198  1
  O  O82  1  0.57105795  0.02266033  0.88048802  1
  O  O83  1  0.73843699  0.32839181  0.06464428  1
  O  O84  1  0.26156301  0.67160819  0.93535572  1
  O  O85  1  0.52734424  0.42882255  0.75137955  1
  O  O86  1  0.47265576  0.57117745  0.24862045  1
  O  O87  1  0.77411493  0.26991461  0.79348247  1
  O  O88  1  0.22588507  0.73008539  0.20651753  1
  O  O89  1  0.39063931  0.13030062  0.62065539  1
  O  O90  1  0.60936069  0.86969938  0.37934461  1
  O  O91  1  0.59269997  0.95156542  0.64743392  1
  O  O92  1  0.40730003  0.04843458  0.35256608  1
  O  O93  1  0.17338789  0.79963906  0.47954548  1
  O  O94  1  0.82661211  0.20036094  0.52045452  1
  O  O95  1  0.40706996  0.62695785  0.48440316  1
  O  O96  1  0.59293004  0.37304215  0.51559684  1
  O  O97  1  0.98256412  0.47660851  0.35175853  1
  O  O98  1  0.01743588  0.52339149  0.64824147  1
  O  O99  1  0.61222658  0.30769107  0.23878452  1
  O  O100  1  0.38777342  0.69230893  0.76121548  1
  O  O101  1  0.77680292  0.63165103  0.41986977  1
  O  O102  1  0.22319708  0.36834897  0.58013023  1
