# generated using pymatgen
data_Dy6(Ga3Co)7
_symmetry_space_group_name_H-M   'P 1'
_cell_length_a   4.14464860
_cell_length_b   16.63784767
_cell_length_c   16.63784767
_cell_angle_alpha   90.00000000
_cell_angle_beta   90.00000000
_cell_angle_gamma   90.00000000
_symmetry_Int_Tables_number   1
_chemical_formula_structural   Dy6(Ga3Co)7
_chemical_formula_sum   'Dy12 Ga42 Co14'
_cell_volume   1147.31323291
_cell_formula_units_Z   2
loop_
 _symmetry_equiv_pos_site_id
 _symmetry_equiv_pos_as_xyz
  1  'x, y, z'
loop_
 _atom_site_type_symbol
 _atom_site_label
 _atom_site_symmetry_multiplicity
 _atom_site_fract_x
 _atom_site_fract_y
 _atom_site_fract_z
 _atom_site_occupancy
  Dy  Dy0  1  0.50000000  0.10799902  0.60799902  1
  Dy  Dy1  1  0.50000000  0.89200098  0.39200098  1
  Dy  Dy2  1  0.50000000  0.39200098  0.10799902  1
  Dy  Dy3  1  0.50000000  0.60799902  0.89200098  1
  Dy  Dy4  1  0.00000000  0.65751992  0.58691726  1
  Dy  Dy5  1  -0.00000000  0.34248008  0.41308274  1
  Dy  Dy6  1  -0.00000000  0.84248008  0.08691726  1
  Dy  Dy7  1  -0.00000000  0.15751992  0.91308274  1
  Dy  Dy8  1  -0.00000000  0.58691726  0.34248008  1
  Dy  Dy9  1  0.00000000  0.41308274  0.65751992  1
  Dy  Dy10  1  -0.00000000  0.08691726  0.15751992  1
  Dy  Dy11  1  -0.00000000  0.91308274  0.84248008  1
  Ga  Ga12  1  -0.00000000  0.00000000  0.50000000  1
  Ga  Ga13  1  -0.00000000  0.50000000  0.00000000  1
  Ga  Ga14  1  -0.00000000  0.32025965  0.82025965  1
  Ga  Ga15  1  0.00000000  0.67974035  0.17974035  1
  Ga  Ga16  1  0.00000000  0.17974035  0.32025965  1
  Ga  Ga17  1  -0.00000000  0.82025965  0.67974035  1
  Ga  Ga18  1  0.50000000  0.42618417  0.92618417  1
  Ga  Ga19  1  0.50000000  0.57381583  0.07381583  1
  Ga  Ga20  1  0.50000000  0.07381583  0.42618417  1
  Ga  Ga21  1  0.50000000  0.92618417  0.57381583  1
  Ga  Ga22  1  -0.00000000  0.57479223  0.75739139  1
  Ga  Ga23  1  -0.00000000  0.42520777  0.24260861  1
  Ga  Ga24  1  -0.00000000  0.92520777  0.25739139  1
  Ga  Ga25  1  0.00000000  0.07479223  0.74260861  1
  Ga  Ga26  1  -0.00000000  0.75739139  0.42520777  1
  Ga  Ga27  1  -0.00000000  0.24260861  0.57479223  1
  Ga  Ga28  1  0.00000000  0.25739139  0.07479223  1
  Ga  Ga29  1  0.00000000  0.74260861  0.92520777  1
  Ga  Ga30  1  0.50000000  0.53186015  0.61097709  1
  Ga  Ga31  1  0.50000000  0.46813985  0.38902291  1
  Ga  Ga32  1  0.50000000  0.96813985  0.11097709  1
  Ga  Ga33  1  0.50000000  0.03186015  0.88902291  1
  Ga  Ga34  1  0.50000000  0.61097709  0.46813985  1
  Ga  Ga35  1  0.50000000  0.38902291  0.53186015  1
  Ga  Ga36  1  0.50000000  0.11097709  0.03186015  1
  Ga  Ga37  1  0.50000000  0.88902291  0.96813985  1
  Ga  Ga38  1  0.50000000  0.67932271  0.70984427  1
  Ga  Ga39  1  0.50000000  0.32067729  0.29015573  1
  Ga  Ga40  1  0.50000000  0.82067729  0.20984427  1
  Ga  Ga41  1  0.50000000  0.17932271  0.79015573  1
  Ga  Ga42  1  0.50000000  0.70984427  0.32067729  1
  Ga  Ga43  1  0.50000000  0.29015573  0.67932271  1
  Ga  Ga44  1  0.50000000  0.20984427  0.17932271  1
  Ga  Ga45  1  0.50000000  0.79015573  0.82067729  1
  Ga  Ga46  1  0.50000000  0.77228494  0.54353091  1
  Ga  Ga47  1  0.50000000  0.22771506  0.45646909  1
  Ga  Ga48  1  0.50000000  0.72771506  0.04353091  1
  Ga  Ga49  1  0.50000000  0.27228494  0.95646909  1
  Ga  Ga50  1  0.50000000  0.54353091  0.22771506  1
  Ga  Ga51  1  0.50000000  0.45646909  0.77228494  1
  Ga  Ga52  1  0.50000000  0.04353091  0.27228494  1
  Ga  Ga53  1  0.50000000  0.95646909  0.72771506  1
  Co  Co54  1  0.00000000  0.21849862  0.71849862  1
  Co  Co55  1  -0.00000000  0.78150138  0.28150138  1
  Co  Co56  1  -0.00000000  0.28150138  0.21849862  1
  Co  Co57  1  -0.00000000  0.71849862  0.78150138  1
  Co  Co58  1  0.00000000  0.96359494  0.64869735  1
  Co  Co59  1  -0.00000000  0.03640506  0.35130265  1
  Co  Co60  1  -0.00000000  0.53640506  0.14869735  1
  Co  Co61  1  0.00000000  0.46359494  0.85130265  1
  Co  Co62  1  0.00000000  0.64869735  0.03640506  1
  Co  Co63  1  0.00000000  0.35130265  0.96359494  1
  Co  Co64  1  -0.00000000  0.14869735  0.46359494  1
  Co  Co65  1  -0.00000000  0.85130265  0.53640506  1
  Co  Co66  1  -0.00000000  0.50000000  0.50000000  1
  Co  Co67  1  -0.00000000  0.00000000  -0.00000000  1
