# generated using pymatgen
data_La5BPb3
_symmetry_space_group_name_H-M   'P 1'
_cell_length_a   6.84262740
_cell_length_b   9.77204493
_cell_length_c   9.77296115
_cell_angle_alpha   119.99689297
_cell_angle_beta   89.99999736
_cell_angle_gamma   90.00000527
_symmetry_Int_Tables_number   1
_chemical_formula_structural   La5BPb3
_chemical_formula_sum   'La10 B2 Pb6'
_cell_volume   565.95089062
_cell_formula_units_Z   2
loop_
 _symmetry_equiv_pos_site_id
 _symmetry_equiv_pos_as_xyz
  1  'x, y, z'
loop_
 _atom_site_type_symbol
 _atom_site_label
 _atom_site_symmetry_multiplicity
 _atom_site_fract_x
 _atom_site_fract_y
 _atom_site_fract_z
 _atom_site_occupancy
  La  La0  1  0.50001467  0.33326768  0.66662282  1
  La  La1  1  0.50001467  0.66664487  0.33337718  1
  La  La2  1  -0.00000728  0.66672727  0.33337410  1
  La  La3  1  -0.00000728  0.33335318  0.66662590  1
  La  La4  1  0.74997880  0.22547585  0.00000000  1
  La  La5  1  0.75000720  0.77455710  0.77455647  1
  La  La6  1  0.75000720  0.00000063  0.22544353  1
  La  La7  1  0.25000980  0.77453109  1.00000000  1
  La  La8  1  0.25001470  0.22543826  0.22544508  1
  La  La9  1  0.25001470  0.99999318  0.77455492  1
  B  B10  1  0.49999993  0.99999759  0.00000000  1
  B  B11  1  0.00000007  0.00000649  1.00000000  1
  Pb  Pb12  1  0.75003352  0.59404754  0.00000000  1
  Pb  Pb13  1  0.74997161  0.40584360  0.40583745  1
  Pb  Pb14  1  0.74997161  0.00000615  0.59416255  1
  Pb  Pb15  1  0.25003479  0.40595316  1.00000000  1
  Pb  Pb16  1  0.24997064  0.59415878  0.59416120  1
  Pb  Pb17  1  0.24997064  -0.00000241  0.40583880  1
