# generated using pymatgen
data_SrPH10S3O5
_symmetry_space_group_name_H-M   'P 1'
_cell_length_a   8.47620723
_cell_length_b   9.29656698
_cell_length_c   12.92057747
_cell_angle_alpha   91.68269357
_cell_angle_beta   100.38174256
_cell_angle_gamma   91.82105676
_symmetry_Int_Tables_number   1
_chemical_formula_structural   SrPH10S3O5
_chemical_formula_sum   'Sr4 P4 H40 S12 O20'
_cell_volume   1000.32512356
_cell_formula_units_Z   4
loop_
 _symmetry_equiv_pos_site_id
 _symmetry_equiv_pos_as_xyz
  1  'x, y, z'
loop_
 _atom_site_type_symbol
 _atom_site_label
 _atom_site_symmetry_multiplicity
 _atom_site_fract_x
 _atom_site_fract_y
 _atom_site_fract_z
 _atom_site_occupancy
  Sr  Sr0  1  0.00467194  0.50324369  0.32325688  1
  Sr  Sr1  1  0.99532806  0.49675631  0.67674312  1
  Sr  Sr2  1  0.48196987  0.99331415  0.81807336  1
  Sr  Sr3  1  0.51803013  0.00668585  0.18192664  1
  P  P4  1  0.10664659  0.42598399  0.01119365  1
  P  P5  1  0.89335341  0.57401601  0.98880635  1
  P  P6  1  0.45423623  0.11399455  0.49846336  1
  P  P7  1  0.54576377  0.88600545  0.50153664  1
  H  H8  1  0.66448337  0.63885521  0.34394865  1
  H  H9  1  0.33551663  0.36114479  0.65605135  1
  H  H10  1  0.71745884  0.53534966  0.43476208  1
  H  H11  1  0.28254116  0.46465034  0.56523792  1
  H  H12  1  0.89184908  0.16008406  0.26744374  1
  H  H13  1  0.10815092  0.83991594  0.73255626  1
  H  H14  1  0.93830018  0.24193527  0.16963540  1
  H  H15  1  0.06169982  0.75806473  0.83036460  1
  H  H16  1  0.63616598  0.59717611  0.59610611  1
  H  H17  1  0.36383402  0.40282389  0.40389389  1
  H  H18  1  0.63669206  0.42670447  0.58750850  1
  H  H19  1  0.36330794  0.57329553  0.41249150  1
  H  H20  1  0.14919375  0.81682098  0.30568443  1
  H  H21  1  0.85080625  0.18317902  0.69431557  1
  H  H22  1  0.04576085  0.77438317  0.19499509  1
  H  H23  1  0.95423915  0.22561683  0.80500491  1
  H  H24  1  0.02508123  0.26157911  0.49258417  1
  H  H25  1  0.97491877  0.73842089  0.50741583  1
  H  H26  1  0.83734954  0.28448052  0.46618886  1
  H  H27  1  0.16265046  0.71551948  0.53381114  1
  H  H28  1  0.61023424  0.32697620  0.11522119  1
  H  H29  1  0.38976576  0.67302380  0.88477881  1
  H  H30  1  0.43693032  0.32866629  0.14243303  1
  H  H31  1  0.56306968  0.67133371  0.85756697  1
  H  H32  1  0.52337357  0.70964299  0.06714633  1
  H  H33  1  0.47662643  0.29035701  0.93285367  1
  H  H34  1  0.63099031  0.31846873  0.88504024  1
  H  H35  1  0.36900969  0.68153127  0.11495976  1
  H  H36  1  0.83371190  0.88188015  0.84937730  1
  H  H37  1  0.16628810  0.11811985  0.15062270  1
  H  H38  1  0.78090522  0.91569821  0.72882747  1
  H  H39  1  0.21909478  0.08430179  0.27117253  1
  H  H40  1  0.88572078  0.91056931  0.27774455  1
  H  H41  1  0.11427922  0.08943069  0.72225545  1
  H  H42  1  0.79651385  0.97210521  0.36523579  1
  H  H43  1  0.20348615  0.02789479  0.63476421  1
  H  H44  1  0.74345728  0.08336213  0.01739277  1
  H  H45  1  0.25654272  0.91663787  0.98260723  1
  H  H46  1  0.77210316  0.91818535  0.02727620  1
  H  H47  1  0.22789684  0.08181465  0.97272380  1
  S  S48  1  0.76885512  0.54267504  0.10603886  1
  S  S49  1  0.23114488  0.45732496  0.89396114  1
  S  S50  1  0.23574592  0.47892309  0.15654934  1
  S  S51  1  0.76425408  0.52107691  0.84345066  1
  S  S52  1  0.00908882  0.21917679  0.00091599  1
  S  S53  1  0.99091118  0.78082321  0.99908401  1
  S  S54  1  0.45340457  0.77987598  0.61334293  1
  S  S55  1  0.54659543  0.22012402  0.38665707  1
  S  S56  1  0.21122948  0.08485737  0.46574763  1
  S  S57  1  0.78877052  0.91514263  0.53425237  1
  S  S58  1  0.54000138  0.20737548  0.64433892  1
  S  S59  1  0.45999862  0.79262452  0.35566108  1
  O  O60  1  0.73851956  0.56131755  0.36512062  1
  O  O61  1  0.26148044  0.43868245  0.63487938  1
  O  O62  1  0.92868229  0.25428885  0.24462746  1
  O  O63  1  0.07131771  0.74571115  0.75537254  1
  O  O64  1  0.30055755  0.48452304  0.42318959  1
  O  O65  1  0.69944245  0.51547696  0.57681041  1
  O  O66  1  0.04311611  0.77641590  0.27126314  1
  O  O67  1  0.95688389  0.22358410  0.72873686  1
  O  O68  1  0.05712640  0.66376391  0.51243316  1
  O  O69  1  0.94287360  0.33623609  0.48756684  1
  O  O70  1  0.52016891  0.26344319  0.12603551  1
  O  O71  1  0.47983109  0.73655681  0.87396449  1
  O  O72  1  0.55799557  0.24095332  0.90162046  1
  O  O73  1  0.44200443  0.75904668  0.09837954  1
  O  O74  1  0.76928953  0.94604446  0.80055634  1
  O  O75  1  0.23071047  0.05395554  0.19944366  1
  O  O76  1  0.19213184  0.01617408  0.70968186  1
  O  O77  1  0.80786816  0.98382592  0.29031814  1
  O  O78  1  0.31017044  0.00817762  0.97070426  1
  O  O79  1  0.68982956  0.99182238  0.02929574  1
