# generated using pymatgen
data_SnH10Br4O5
_symmetry_space_group_name_H-M   'P 1'
_cell_length_a   8.33169431
_cell_length_b   8.33169431
_cell_length_c   9.10472383
_cell_angle_alpha   78.94053894
_cell_angle_beta   78.94053894
_cell_angle_gamma   77.13352712
_symmetry_Int_Tables_number   1
_chemical_formula_structural   SnH10Br4O5
_chemical_formula_sum   'Sn2 H20 Br8 O10'
_cell_volume   597.32312995
_cell_formula_units_Z   2
loop_
 _symmetry_equiv_pos_site_id
 _symmetry_equiv_pos_as_xyz
  1  'x, y, z'
loop_
 _atom_site_type_symbol
 _atom_site_label
 _atom_site_symmetry_multiplicity
 _atom_site_fract_x
 _atom_site_fract_y
 _atom_site_fract_z
 _atom_site_occupancy
  Sn  Sn0  1  0.73700487  0.26299513  0.25000000  1
  Sn  Sn1  1  0.26299513  0.73700487  0.75000000  1
  H  H2  1  0.67955440  0.52475296  0.99928799  1
  H  H3  1  0.47524704  0.32044560  0.50071201  1
  H  H4  1  0.32044560  0.47524704  0.00071201  1
  H  H5  1  0.52475296  0.67955440  0.49928799  1
  H  H6  1  0.60878187  0.60488167  0.16216363  1
  H  H7  1  0.39511833  0.39121813  0.33783637  1
  H  H8  1  0.39121813  0.39511833  0.83783637  1
  H  H9  1  0.60488167  0.60878187  0.66216363  1
  H  H10  1  0.78429149  0.40479916  0.78635865  1
  H  H11  1  0.59520084  0.21570851  0.71364135  1
  H  H12  1  0.21570851  0.59520084  0.21364135  1
  H  H13  1  0.40479916  0.78429149  0.28635865  1
  H  H14  1  0.84550585  0.57276556  0.77565053  1
  H  H15  1  0.42723444  0.15449415  0.72434947  1
  H  H16  1  0.15449415  0.42723444  0.22434947  1
  H  H17  1  0.57276556  0.84550585  0.27565053  1
  H  H18  1  0.84108777  0.10765831  0.83644452  1
  H  H19  1  0.89234169  0.15891223  0.66355548  1
  H  H20  1  0.15891223  0.89234169  0.16355548  1
  H  H21  1  0.10765831  0.84108777  0.33644452  1
  Br  Br22  1  0.86284257  0.42242747  0.40151366  1
  Br  Br23  1  0.57757253  0.13715743  0.09848634  1
  Br  Br24  1  0.13715743  0.57757253  0.59848634  1
  Br  Br25  1  0.42242747  0.86284257  0.90151366  1
  Br  Br26  1  0.01526644  0.21627488  0.06391137  1
  Br  Br27  1  0.78372512  0.98473356  0.43608863  1
  Br  Br28  1  0.98473356  0.78372512  0.93608863  1
  Br  Br29  1  0.21627488  0.01526644  0.56391137  1
  O  O30  1  0.65267715  0.50338433  0.11273194  1
  O  O31  1  0.49661567  0.34732285  0.38726806  1
  O  O32  1  0.34732285  0.49661567  0.88726806  1
  O  O33  1  0.50338433  0.65267715  0.61273194  1
  O  O34  1  0.74488793  0.52397761  0.80040766  1
  O  O35  1  0.47602239  0.25511207  0.69959234  1
  O  O36  1  0.25511207  0.47602239  0.19959234  1
  O  O37  1  0.52397761  0.74488793  0.30040766  1
  O  O38  1  0.80916680  0.19083320  0.75000000  1
  O  O39  1  0.19083320  0.80916680  0.25000000  1
