# generated using pymatgen
data_Yb2S3
_symmetry_space_group_name_H-M   'P 1'
_cell_length_a   4.05063333
_cell_length_b   10.27060976
_cell_length_c   11.43373392
_cell_angle_alpha   90.00000000
_cell_angle_beta   90.00000000
_cell_angle_gamma   90.00000000
_symmetry_Int_Tables_number   1
_chemical_formula_structural   Yb2S3
_chemical_formula_sum   'Yb8 S12'
_cell_volume   475.67162057
_cell_formula_units_Z   4
loop_
 _symmetry_equiv_pos_site_id
 _symmetry_equiv_pos_as_xyz
  1  'x, y, z'
loop_
 _atom_site_type_symbol
 _atom_site_label
 _atom_site_symmetry_multiplicity
 _atom_site_fract_x
 _atom_site_fract_y
 _atom_site_fract_z
 _atom_site_occupancy
  Yb  Yb0  1  0.25000000  0.17189771  0.50297283  1
  Yb  Yb1  1  0.25000000  0.32810229  0.00297283  1
  Yb  Yb2  1  0.75000000  0.82810229  0.49702717  1
  Yb  Yb3  1  0.75000000  0.67189771  0.99702717  1
  Yb  Yb4  1  0.75000000  0.51855808  0.65467270  1
  Yb  Yb5  1  0.75000000  0.98144192  0.15467270  1
  Yb  Yb6  1  0.25000000  0.48144192  0.34532730  1
  Yb  Yb7  1  0.25000000  0.01855808  0.84532730  1
  S  S8  1  0.25000000  0.65522293  0.52855755  1
  S  S9  1  0.25000000  0.84477707  0.02855755  1
  S  S10  1  0.75000000  0.34477707  0.47144245  1
  S  S11  1  0.75000000  0.15522293  0.97144245  1
  S  S12  1  0.75000000  0.05679700  0.64979079  1
  S  S13  1  0.75000000  0.44320300  0.14979079  1
  S  S14  1  0.25000000  0.94320300  0.35020921  1
  S  S15  1  0.25000000  0.55679700  0.85020921  1
  S  S16  1  0.25000000  0.37201619  0.76472125  1
  S  S17  1  0.25000000  0.12798381  0.26472125  1
  S  S18  1  0.75000000  0.62798381  0.23527875  1
  S  S19  1  0.75000000  0.87201619  0.73527875  1
