# generated using pymatgen
data_PdS2O7
_symmetry_space_group_name_H-M   'P 1'
_cell_length_a   5.13736981
_cell_length_b   8.22110941
_cell_length_c   13.06720753
_cell_angle_alpha   90.00000000
_cell_angle_beta   90.00000000
_cell_angle_gamma   91.39674449
_symmetry_Int_Tables_number   1
_chemical_formula_structural   PdS2O7
_chemical_formula_sum   'Pd4 S8 O28'
_cell_volume   551.72795213
_cell_formula_units_Z   4
loop_
 _symmetry_equiv_pos_site_id
 _symmetry_equiv_pos_as_xyz
  1  'x, y, z'
loop_
 _atom_site_type_symbol
 _atom_site_label
 _atom_site_symmetry_multiplicity
 _atom_site_fract_x
 _atom_site_fract_y
 _atom_site_fract_z
 _atom_site_occupancy
  Pd  Pd0  1  0.20034480  0.83213699  0.34993680  1
  Pd  Pd1  1  0.70034480  0.33213699  0.15006320  1
  Pd  Pd2  1  0.79965520  0.16786301  0.65006320  1
  Pd  Pd3  1  0.29965520  0.66786301  0.84993680  1
  S  S4  1  0.19214857  0.41875773  0.31283033  1
  S  S5  1  0.69214857  0.91875773  0.18716967  1
  S  S6  1  0.80785143  0.58124227  0.68716967  1
  S  S7  1  0.30785143  0.08124227  0.81283033  1
  S  S8  1  0.67439654  0.80540573  0.52331102  1
  S  S9  1  0.17439654  0.30540573  0.97668898  1
  S  S10  1  0.32560346  0.19459427  0.47668898  1
  S  S11  1  0.82560346  0.69459427  0.02331102  1
  O  O12  1  0.03718485  0.29926897  0.25449308  1
  O  O13  1  0.53718485  0.79926897  0.24550692  1
  O  O14  1  0.96281515  0.70073103  0.74550692  1
  O  O15  1  0.46281515  0.20073103  0.75449308  1
  O  O16  1  0.46922694  0.42447610  0.28764263  1
  O  O17  1  0.96922694  0.92447610  0.21235737  1
  O  O18  1  0.53077306  0.57552390  0.71235737  1
  O  O19  1  0.03077306  0.07552390  0.78764263  1
  O  O20  1  0.42498842  0.73859134  0.48516557  1
  O  O21  1  0.92498842  0.23859134  0.01483443  1
  O  O22  1  0.57501158  0.26140866  0.51483443  1
  O  O23  1  0.07501158  0.76140866  0.98516557  1
  O  O24  1  0.64326103  0.91519029  0.61044853  1
  O  O25  1  0.14326103  0.41519029  0.88955147  1
  O  O26  1  0.35673897  0.08480971  0.38955147  1
  O  O27  1  0.85673897  0.58480971  0.11044853  1
  O  O28  1  0.84750383  0.86795774  0.44392398  1
  O  O29  1  0.34750383  0.36795774  0.05607602  1
  O  O30  1  0.15249617  0.13204226  0.55607602  1
  O  O31  1  0.65249617  0.63204226  0.94392398  1
  O  O32  1  0.82522261  0.64512777  0.56621807  1
  O  O33  1  0.32522261  0.14512777  0.93378193  1
  O  O34  1  0.17477739  0.35487223  0.43378193  1
  O  O35  1  0.67477739  0.85487223  0.06621807  1
  O  O36  1  0.06673184  0.57520321  0.32208733  1
  O  O37  1  0.56673184  0.07520321  0.17791267  1
  O  O38  1  0.93326816  0.42479679  0.67791267  1
  O  O39  1  0.43326816  0.92479679  0.82208733  1
