# generated using pymatgen
data_LiSmEu2O4
_symmetry_space_group_name_H-M   'P 1'
_cell_length_a   3.49789270
_cell_length_b   11.59536595
_cell_length_c   11.69817222
_cell_angle_alpha   89.87940447
_cell_angle_beta   89.96346299
_cell_angle_gamma   89.96833076
_symmetry_Int_Tables_number   1
_chemical_formula_structural   LiSmEu2O4
_chemical_formula_sum   'Li4 Sm4 Eu8 O16'
_cell_volume   474.46899432
_cell_formula_units_Z   4
loop_
 _symmetry_equiv_pos_site_id
 _symmetry_equiv_pos_as_xyz
  1  'x, y, z'
loop_
 _atom_site_type_symbol
 _atom_site_label
 _atom_site_symmetry_multiplicity
 _atom_site_fract_x
 _atom_site_fract_y
 _atom_site_fract_z
 _atom_site_occupancy
  Li  Li0  1  0.74996105  0.34764005  0.40945359  1
  Li  Li1  1  0.74998352  0.84738245  0.09040721  1
  Li  Li2  1  0.25000762  0.65280251  0.59029539  1
  Li  Li3  1  0.25002908  0.15289120  0.90945970  1
  Sm  Sm4  1  0.75001055  0.14047545  0.70389926  1
  Sm  Sm5  1  0.74999836  0.64052584  0.79622245  1
  Sm  Sm6  1  0.25001286  0.85930041  0.29630659  1
  Sm  Sm7  1  0.25001195  0.35943227  0.20376749  1
  Eu  Eu8  1  0.75000092  0.09832351  0.11434557  1
  Eu  Eu9  1  0.75022102  0.59842042  0.38582616  1
  Eu  Eu10  1  0.24994312  0.90149925  0.88519260  1
  Eu  Eu11  1  0.25001553  0.40167300  0.61433973  1
  Eu  Eu12  1  0.75000001  0.36529710  0.92522691  1
  Eu  Eu13  1  0.74991646  0.86531849  0.57502062  1
  Eu  Eu14  1  0.24971661  0.63463910  0.07508051  1
  Eu  Eu15  1  0.25007571  0.13467393  0.42531263  1
  O  O16  1  0.75004775  0.25720803  0.54331444  1
  O  O17  1  0.75002129  0.75698531  0.95668867  1
  O  O18  1  0.24987133  0.74269737  0.45668937  1
  O  O19  1  0.25000638  0.24297913  0.04333748  1
  O  O20  1  0.75003719  0.05982567  0.89160513  1
  O  O21  1  0.75002844  0.55992212  0.60837805  1
  O  O22  1  0.24996861  0.94020370  0.10845658  1
  O  O23  1  0.25006344  0.44034578  0.39144067  1
  O  O24  1  0.74992749  0.47490352  0.12678416  1
  O  O25  1  0.74984874  0.97471164  0.37301932  1
  O  O26  1  0.25005246  0.52492903  0.87309644  1
  O  O27  1  0.25015914  0.02502269  0.62709607  1
  O  O28  1  0.75003668  0.24000092  0.28019172  1
  O  O29  1  0.75022576  0.73974757  0.21995334  1
  O  O30  1  0.24997641  0.76010014  0.71957242  1
  O  O31  1  0.24982453  0.26012241  0.78021973  1
