# generated using pymatgen
data_AgH18C4S4BrN8O
_symmetry_space_group_name_H-M   'P 1'
_cell_length_a   6.53879214
_cell_length_b   11.65942647
_cell_length_c   25.55671519
_cell_angle_alpha   90.00000000
_cell_angle_beta   96.67819308
_cell_angle_gamma   90.00000000
_symmetry_Int_Tables_number   1
_chemical_formula_structural   AgH18C4S4BrN8O
_chemical_formula_sum   'Ag4 H72 C16 S16 Br4 N32 O4'
_cell_volume   1935.18734598
_cell_formula_units_Z   4
loop_
 _symmetry_equiv_pos_site_id
 _symmetry_equiv_pos_as_xyz
  1  'x, y, z'
loop_
 _atom_site_type_symbol
 _atom_site_label
 _atom_site_symmetry_multiplicity
 _atom_site_fract_x
 _atom_site_fract_y
 _atom_site_fract_z
 _atom_site_occupancy
  Ag  Ag0  1  0.62147057  0.11998050  0.99107370  1
  Ag  Ag1  1  0.37852943  0.61998050  0.50892630  1
  Ag  Ag2  1  0.37852943  0.88001950  0.00892630  1
  Ag  Ag3  1  0.62147057  0.38001950  0.49107370  1
  H  H4  1  0.05962961  0.13858136  0.87029578  1
  H  H5  1  0.94037039  0.63858136  0.62970422  1
  H  H6  1  0.94037039  0.86141864  0.12970422  1
  H  H7  1  0.05962961  0.36141864  0.37029578  1
  H  H8  1  0.26300200  0.17615246  0.91975839  1
  H  H9  1  0.73699800  0.67615246  0.58024161  1
  H  H10  1  0.73699800  0.82384754  0.08024161  1
  H  H11  1  0.26300200  0.32384754  0.41975839  1
  H  H12  1  0.06277403  0.97750149  0.82430258  1
  H  H13  1  0.93722597  0.47750149  0.67569742  1
  H  H14  1  0.93722597  0.02249851  0.17569742  1
  H  H15  1  0.06277403  0.52249851  0.32430258  1
  H  H16  1  0.26583764  0.87679252  0.83677844  1
  H  H17  1  0.73416236  0.37679252  0.66322156  1
  H  H18  1  0.73416236  0.12320748  0.16322156  1
  H  H19  1  0.26583764  0.62320748  0.33677844  1
  H  H20  1  0.88704126  0.40682073  0.91096999  1
  H  H21  1  0.11295874  0.90682073  0.58903001  1
  H  H22  1  0.11295874  0.59317927  0.08903001  1
  H  H23  1  0.88704126  0.09317927  0.41096999  1
  H  H24  1  0.87523578  0.32524643  0.96836023  1
  H  H25  1  0.12476422  0.82524643  0.53163977  1
  H  H26  1  0.12476422  0.67475357  0.03163977  1
  H  H27  1  0.87523578  0.17475357  0.46836023  1
  H  H28  1  0.59830423  0.46952374  0.86192631  1
  H  H29  1  0.40169577  0.96952374  0.63807369  1
  H  H30  1  0.40169577  0.53047626  0.13807369  1
  H  H31  1  0.59830423  0.03047626  0.36192631  1
  H  H32  1  0.35529385  0.43482528  0.87951165  1
  H  H33  1  0.64470615  0.93482528  0.62048835  1
  H  H34  1  0.64470615  0.56517472  0.12048835  1
  H  H35  1  0.35529385  0.06517472  0.37951165  1
  H  H36  1  0.18616157  0.33246337  0.13430690  1
  H  H37  1  0.81383843  0.83246337  0.36569310  1
  H  H38  1  0.81383843  0.66753663  0.86569310  1
  H  H39  1  0.18616157  0.16753663  0.63430690  1
  H  H40  1  0.29450083  0.21875613  0.10196307  1
  H  H41  1  0.70549917  0.71875613  0.39803693  1
  H  H42  1  0.70549917  0.78124387  0.89803693  1
  H  H43  1  0.29450083  0.28124387  0.60196307  1
  H  H44  1  0.85106188  0.38221236  0.11030831  1
  H  H45  1  0.14893812  0.88221236  0.38969169  1
  H  H46  1  0.14893812  0.61778764  0.88969169  1
  H  H47  1  0.85106188  0.11778764  0.61030831  1
  H  H48  1  0.70393690  0.31655467  0.05592361  1
  H  H49  1  0.29606310  0.81655467  0.44407639  1
  H  H50  1  0.29606310  0.68344533  0.94407639  1
  H  H51  1  0.70393690  0.18344533  0.55592361  1
  H  H52  1  0.33042626  0.43671045  0.77087141  1
  H  H53  1  0.66957374  0.93671045  0.72912859  1
  H  H54  1  0.66957374  0.56328955  0.22912859  1
  H  H55  1  0.33042626  0.06328955  0.27087141  1
  H  H56  1  0.58000674  0.41855772  0.75381794  1
  H  H57  1  0.41999326  0.91855772  0.74618206  1
  H  H58  1  0.41999326  0.58144228  0.24618206  1
  H  H59  1  0.58000674  0.08144228  0.25381794  1
  H  H60  1  0.10484607  0.28601549  0.76424694  1
  H  H61  1  0.89515393  0.78601549  0.73575306  1
  H  H62  1  0.89515393  0.71398451  0.23575306  1
  H  H63  1  0.10484607  0.21398451  0.26424694  1
  H  H64  1  0.16496720  0.15790124  0.73323030  1
  H  H65  1  0.83503280  0.65790124  0.76676970  1
  H  H66  1  0.83503280  0.84209876  0.26676970  1
  H  H67  1  0.16496720  0.34209876  0.23323030  1
  H  H68  1  0.71544092  0.06719473  0.84544936  1
  H  H69  1  0.28455908  0.56719473  0.65455064  1
  H  H70  1  0.28455908  0.93280527  0.15455064  1
  H  H71  1  0.71544092  0.43280527  0.34544936  1
  H  H72  1  0.74286228  0.13048383  0.79204268  1
  H  H73  1  0.25713772  0.63048383  0.70795732  1
  H  H74  1  0.25713772  0.86951617  0.20795732  1
  H  H75  1  0.74286228  0.36951617  0.29204268  1
  C  C76  1  0.29062186  0.02152801  0.88255412  1
  C  C77  1  0.70937814  0.52152801  0.61744588  1
  C  C78  1  0.70937814  0.97847199  0.11744588  1
  C  C79  1  0.29062186  0.47847199  0.38255412  1
  C  C80  1  0.59763664  0.38006129  0.93151018  1
  C  C81  1  0.40236336  0.88006129  0.56848982  1
  C  C82  1  0.40236336  0.61993871  0.06848982  1
  C  C83  1  0.59763664  0.11993871  0.43151018  1
  C  C84  1  0.99811571  0.25583494  0.07352816  1
  C  C85  1  0.00188429  0.75583494  0.42647184  1
  C  C86  1  0.00188429  0.74416506  0.92647184  1
  C  C87  1  0.99811571  0.24416506  0.57352816  1
  C  C88  1  0.39498482  0.27841810  0.74018392  1
  C  C89  1  0.60501518  0.77841810  0.75981608  1
  C  C90  1  0.60501518  0.72158190  0.25981608  1
  C  C91  1  0.39498482  0.22158190  0.24018392  1
  S  S92  1  0.52184566  0.97823233  0.91707950  1
  S  S93  1  0.47815434  0.47823233  0.58292050  1
  S  S94  1  0.47815434  0.02176767  0.08292050  1
  S  S95  1  0.52184566  0.52176767  0.41707950  1
  S  S96  1  0.44279751  0.32011805  0.97419569  1
  S  S97  1  0.55720249  0.82011805  0.52580431  1
  S  S98  1  0.55720249  0.67988195  0.02580431  1
  S  S99  1  0.44279751  0.17988195  0.47419569  1
  S  S100  1  0.99371002  0.15501010  0.02464430  1
  S  S101  1  0.00628998  0.65501010  0.47535570  1
  S  S102  1  0.00628998  0.84498990  0.97535570  1
  S  S103  1  0.99371002  0.34498990  0.52464430  1
  S  S104  1  0.57309898  0.19778770  0.71270630  1
  S  S105  1  0.42690102  0.69778770  0.78729370  1
  S  S106  1  0.42690102  0.80221230  0.28729370  1
  S  S107  1  0.57309898  0.30221230  0.21270630  1
  Br  Br108  1  0.98726558  0.47614614  0.82186352  1
  Br  Br109  1  0.01273442  0.97614614  0.67813648  1
  Br  Br110  1  0.01273442  0.52385386  0.17813648  1
  Br  Br111  1  0.98726558  0.02385386  0.32186352  1
  N  N112  1  0.19806283  0.11998989  0.89186994  1
  N  N113  1  0.80193717  0.61998989  0.60813006  1
  N  N114  1  0.80193717  0.88001011  0.10813006  1
  N  N115  1  0.19806283  0.38001011  0.39186994  1
  N  N116  1  0.20202059  0.95411063  0.84384865  1
  N  N117  1  0.79797941  0.45411063  0.65615135  1
  N  N118  1  0.79797941  0.04588937  0.15615135  1
  N  N119  1  0.20202059  0.54588937  0.34384865  1
  N  N120  1  0.80338813  0.37647586  0.93948647  1
  N  N121  1  0.19661187  0.87647586  0.56051353  1
  N  N122  1  0.19661187  0.62352414  0.06051353  1
  N  N123  1  0.80338813  0.12352414  0.43948647  1
  N  N124  1  0.51051359  0.43677362  0.88882196  1
  N  N125  1  0.48948641  0.93677362  0.61117804  1
  N  N126  1  0.48948641  0.56322638  0.11117804  1
  N  N127  1  0.51051359  0.06322638  0.38882196  1
  N  N128  1  0.17449213  0.27259735  0.10504569  1
  N  N129  1  0.82550787  0.77259735  0.39495431  1
  N  N130  1  0.82550787  0.72740265  0.89495431  1
  N  N131  1  0.17449213  0.22740265  0.60504569  1
  N  N132  1  0.83501144  0.32012278  0.08182133  1
  N  N133  1  0.16498856  0.82012278  0.41817867  1
  N  N134  1  0.16498856  0.67987722  0.91817867  1
  N  N135  1  0.83501144  0.17987722  0.58182133  1
  N  N136  1  0.43686835  0.38689103  0.75550667  1
  N  N137  1  0.56313165  0.88689103  0.74449333  1
  N  N138  1  0.56313165  0.61310897  0.24449333  1
  N  N139  1  0.43686835  0.11310897  0.25550667  1
  N  N140  1  0.20775793  0.23737159  0.74689665  1
  N  N141  1  0.79224207  0.73737159  0.75310335  1
  N  N142  1  0.79224207  0.76262841  0.25310335  1
  N  N143  1  0.20775793  0.26262841  0.24689665  1
  O  O144  1  0.81954010  0.09454133  0.82356072  1
  O  O145  1  0.18045990  0.59454133  0.67643928  1
  O  O146  1  0.18045990  0.90545867  0.17643928  1
  O  O147  1  0.81954010  0.40545867  0.32356072  1
