# generated using pymatgen
data_ThH18S2O17
_symmetry_space_group_name_H-M   'P 1'
_cell_length_a   7.26407824
_cell_length_b   8.23647253
_cell_length_c   12.33103674
_cell_angle_alpha   90.00000000
_cell_angle_beta   90.00000000
_cell_angle_gamma   98.16527054
_symmetry_Int_Tables_number   1
_chemical_formula_structural   ThH18S2O17
_chemical_formula_sum   'Th2 H36 S4 O34'
_cell_volume   730.29147748
_cell_formula_units_Z   2
loop_
 _symmetry_equiv_pos_site_id
 _symmetry_equiv_pos_as_xyz
  1  'x, y, z'
loop_
 _atom_site_type_symbol
 _atom_site_label
 _atom_site_symmetry_multiplicity
 _atom_site_fract_x
 _atom_site_fract_y
 _atom_site_fract_z
 _atom_site_occupancy
  Th  Th0  1  0.25673604  0.77788010  0.75000000  1
  Th  Th1  1  0.74326396  0.22211990  0.25000000  1
  H  H2  1  0.04367373  0.07550393  0.68621050  1
  H  H3  1  0.95632627  0.92449607  0.18621050  1
  H  H4  1  0.95632627  0.92449607  0.31378950  1
  H  H5  1  0.04367373  0.07550393  0.81378950  1
  H  H6  1  0.69989931  0.97686143  0.44740906  1
  H  H7  1  0.30010069  0.02313857  0.94740906  1
  H  H8  1  0.30010069  0.02313857  0.55259094  1
  H  H9  1  0.69989931  0.97686143  0.05259094  1
  H  H10  1  0.51703934  0.92632133  0.37773875  1
  H  H11  1  0.48296066  0.07367867  0.87773875  1
  H  H12  1  0.48296066  0.07367867  0.62226125  1
  H  H13  1  0.51703934  0.92632133  0.12226125  1
  H  H14  1  0.68345245  0.86878668  0.68435505  1
  H  H15  1  0.31654755  0.13121332  0.18435505  1
  H  H16  1  0.31654755  0.13121332  0.31564495  1
  H  H17  1  0.68345245  0.86878668  0.81564495  1
  H  H18  1  0.53598365  0.61050423  0.59971955  1
  H  H19  1  0.46401635  0.38949577  0.09971955  1
  H  H20  1  0.46401635  0.38949577  0.40028045  1
  H  H21  1  0.53598365  0.61050423  0.90028045  1
  H  H22  1  0.33271225  0.53641951  0.56111833  1
  H  H23  1  0.66728775  0.46358049  0.06111833  1
  H  H24  1  0.66728775  0.46358049  0.43888167  1
  H  H25  1  0.33271225  0.53641951  0.93888167  1
  H  H26  1  0.37333787  0.66479620  0.34667608  1
  H  H27  1  0.62666213  0.33520380  0.84667608  1
  H  H28  1  0.62666213  0.33520380  0.65332392  1
  H  H29  1  0.37333787  0.66479620  0.15332392  1
  H  H30  1  0.22775488  0.75800971  0.40325023  1
  H  H31  1  0.77224512  0.24199029  0.90325023  1
  H  H32  1  0.77224512  0.24199029  0.59674977  1
  H  H33  1  0.22775488  0.75800971  0.09674977  1
  H  H34  1  0.06178638  0.41960224  0.68591102  1
  H  H35  1  0.93821362  0.58039776  0.18591102  1
  H  H36  1  0.93821362  0.58039776  0.31408898  1
  H  H37  1  0.06178638  0.41960224  0.81408898  1
  S  S38  1  0.88813523  0.73767418  0.52626417  1
  S  S39  1  0.11186477  0.26232582  0.02626417  1
  S  S40  1  0.11186477  0.26232582  0.47373583  1
  S  S41  1  0.88813523  0.73767418  0.97373583  1
  O  O42  1  0.04398450  0.00304105  0.75000000  1
  O  O43  1  0.95601550  0.99695895  0.25000000  1
  O  O44  1  0.75784283  0.58350726  0.54595271  1
  O  O45  1  0.24215717  0.41649274  0.04595271  1
  O  O46  1  0.24215717  0.41649274  0.45404729  1
  O  O47  1  0.75784283  0.58350726  0.95404729  1
  O  O48  1  0.05482767  0.73894973  0.59880665  1
  O  O49  1  0.94517233  0.26105027  0.09880665  1
  O  O50  1  0.94517233  0.26105027  0.40119335  1
  O  O51  1  0.05482767  0.73894973  0.90119335  1
  O  O52  1  0.79531939  0.88209602  0.55287174  1
  O  O53  1  0.20468061  0.11790398  0.05287174  1
  O  O54  1  0.20468061  0.11790398  0.44712826  1
  O  O55  1  0.79531939  0.88209602  0.94712826  1
  O  O56  1  0.62880445  0.01328389  0.38492765  1
  O  O57  1  0.37119555  0.98671611  0.88492765  1
  O  O58  1  0.37119555  0.98671611  0.61507235  1
  O  O59  1  0.62880445  0.01328389  0.11507235  1
  O  O60  1  0.60539502  0.84342568  0.75000000  1
  O  O61  1  0.39460498  0.15657432  0.25000000  1
  O  O62  1  0.40317772  0.59777076  0.62133389  1
  O  O63  1  0.59682228  0.40222924  0.12133389  1
  O  O64  1  0.59682228  0.40222924  0.37866611  1
  O  O65  1  0.40317772  0.59777076  0.87866611  1
  O  O66  1  0.04485796  0.25521356  0.58809027  1
  O  O67  1  0.95514204  0.74478644  0.08809027  1
  O  O68  1  0.95514204  0.74478644  0.41190973  1
  O  O69  1  0.04485796  0.25521356  0.91190973  1
  O  O70  1  0.35614497  0.77066986  0.37579562  1
  O  O71  1  0.64385503  0.22933014  0.87579562  1
  O  O72  1  0.64385503  0.22933014  0.62420438  1
  O  O73  1  0.35614497  0.77066986  0.12420438  1
  O  O74  1  0.06617925  0.49245735  0.75000000  1
  O  O75  1  0.93382075  0.50754265  0.25000000  1
