# generated using pymatgen
data_Li2P(HO)6
_symmetry_space_group_name_H-M   'P 1'
_cell_length_a   11.10545110
_cell_length_b   11.10545110
_cell_length_c   11.10545110
_cell_angle_alpha   109.47122063
_cell_angle_beta   109.47122063
_cell_angle_gamma   109.47122063
_symmetry_Int_Tables_number   1
_chemical_formula_structural   Li2P(HO)6
_chemical_formula_sum   'Li16 P8 H48 O48'
_cell_volume   1054.35465861
_cell_formula_units_Z   8
loop_
 _symmetry_equiv_pos_site_id
 _symmetry_equiv_pos_as_xyz
  1  'x, y, z'
loop_
 _atom_site_type_symbol
 _atom_site_label
 _atom_site_symmetry_multiplicity
 _atom_site_fract_x
 _atom_site_fract_y
 _atom_site_fract_z
 _atom_site_occupancy
  Li  Li0  1  0.75000000  0.15050443  0.90050443  1
  Li  Li1  1  0.25000000  0.34949557  0.59949557  1
  Li  Li2  1  0.15050443  0.90050443  0.75000000  1
  Li  Li3  1  0.34949557  0.59949557  0.25000000  1
  Li  Li4  1  0.90050443  0.75000000  0.15050443  1
  Li  Li5  1  0.59949557  0.25000000  0.34949557  1
  Li  Li6  1  0.25000000  0.84949557  0.09949557  1
  Li  Li7  1  0.75000000  0.65050443  0.40050443  1
  Li  Li8  1  0.84949557  0.09949557  0.25000000  1
  Li  Li9  1  0.65050443  0.40050443  0.75000000  1
  Li  Li10  1  0.09949557  0.25000000  0.84949557  1
  Li  Li11  1  0.40050443  0.75000000  0.65050443  1
  Li  Li12  1  0.50000000  0.50000000  -0.00000000  1
  Li  Li13  1  0.00000000  -0.00000000  -0.00000000  1
  Li  Li14  1  0.00000000  0.50000000  0.50000000  1
  Li  Li15  1  0.50000000  -0.00000000  0.50000000  1
  P  P16  1  -0.00000000  0.50000000  0.10065038  1
  P  P17  1  0.10065038  -0.00000000  0.50000000  1
  P  P18  1  0.50000000  0.10065038  -0.00000000  1
  P  P19  1  0.39934962  0.39934962  0.39934962  1
  P  P20  1  0.00000000  0.50000000  0.89934962  1
  P  P21  1  0.89934962  0.00000000  0.50000000  1
  P  P22  1  0.50000000  0.89934962  0.00000000  1
  P  P23  1  0.60065038  0.60065038  0.60065038  1
  H  H24  1  0.59003856  0.30110044  0.90703367  1
  H  H25  1  0.10593323  0.19889956  0.28893812  1
  H  H26  1  0.90996144  0.31699511  0.21106188  1
  H  H27  1  0.39406677  0.18300489  0.59296633  1
  H  H28  1  0.30110044  0.90703367  0.59003856  1
  H  H29  1  0.19889956  0.28893812  0.10593323  1
  H  H30  1  0.31699511  0.21106188  0.90996144  1
  H  H31  1  0.18300489  0.59296633  0.39406677  1
  H  H32  1  0.90703367  0.59003856  0.30110044  1
  H  H33  1  0.28893812  0.10593323  0.19889956  1
  H  H34  1  0.21106188  0.90996144  0.31699511  1
  H  H35  1  0.59296633  0.39406677  0.18300489  1
  H  H36  1  0.40996144  0.69889956  0.09296633  1
  H  H37  1  0.89406677  0.80110044  0.71106188  1
  H  H38  1  0.09003856  0.68300489  0.78893812  1
  H  H39  1  0.60593323  0.81699511  0.40703367  1
  H  H40  1  0.69889956  0.09296633  0.40996144  1
  H  H41  1  0.80110044  0.71106188  0.89406677  1
  H  H42  1  0.68300489  0.78893812  0.09003856  1
  H  H43  1  0.81699511  0.40703367  0.60593323  1
  H  H44  1  0.09296633  0.40996144  0.69889956  1
  H  H45  1  0.71106188  0.89406677  0.80110044  1
  H  H46  1  0.78893812  0.09003856  0.68300489  1
  H  H47  1  0.40703367  0.60593323  0.81699511  1
  H  H48  1  0.72209927  0.46316424  0.00497718  1
  H  H49  1  0.04181293  0.03683576  0.25893503  1
  H  H50  1  0.77790073  0.28287791  0.24106497  1
  H  H51  1  0.45818707  0.21712209  0.49502282  1
  H  H52  1  0.46316424  0.00497718  0.72209927  1
  H  H53  1  0.03683576  0.25893503  0.04181293  1
  H  H54  1  0.28287791  0.24106497  0.77790073  1
  H  H55  1  0.21712209  0.49502282  0.45818707  1
  H  H56  1  0.00497718  0.72209927  0.46316424  1
  H  H57  1  0.25893503  0.04181293  0.03683576  1
  H  H58  1  0.24106497  0.77790073  0.28287791  1
  H  H59  1  0.49502282  0.45818707  0.21712209  1
  H  H60  1  0.27790073  0.53683576  0.99502282  1
  H  H61  1  0.95818707  0.96316424  0.74106497  1
  H  H62  1  0.22209927  0.71712209  0.75893503  1
  H  H63  1  0.54181293  0.78287791  0.50497718  1
  H  H64  1  0.53683576  0.99502282  0.27790073  1
  H  H65  1  0.96316424  0.74106497  0.95818707  1
  H  H66  1  0.71712209  0.75893503  0.22209927  1
  H  H67  1  0.78287791  0.50497718  0.54181293  1
  H  H68  1  0.99502282  0.27790073  0.53683576  1
  H  H69  1  0.74106497  0.95818707  0.96316424  1
  H  H70  1  0.75893503  0.22209927  0.71712209  1
  H  H71  1  0.50497718  0.54181293  0.78287791  1
  O  O72  1  0.92979104  0.33751097  0.06431324  1
  O  O73  1  0.22680227  0.16248903  0.59228007  1
  O  O74  1  0.57020896  0.13452220  0.90771993  1
  O  O75  1  0.27319773  0.36547780  0.43568676  1
  O  O76  1  0.33751097  0.06431324  0.92979104  1
  O  O77  1  0.16248903  0.59228007  0.22680227  1
  O  O78  1  0.13452220  0.90771993  0.57020896  1
  O  O79  1  0.36547780  0.43568676  0.27319773  1
  O  O80  1  0.06431324  0.92979104  0.33751097  1
  O  O81  1  0.59228007  0.22680227  0.16248903  1
  O  O82  1  0.90771993  0.57020896  0.13452220  1
  O  O83  1  0.43568676  0.27319773  0.36547780  1
  O  O84  1  0.07020896  0.66248903  0.93568676  1
  O  O85  1  0.77319773  0.83751097  0.40771993  1
  O  O86  1  0.42979104  0.86547780  0.09228007  1
  O  O87  1  0.72680227  0.63452220  0.56431324  1
  O  O88  1  0.66248903  0.93568676  0.07020896  1
  O  O89  1  0.83751097  0.40771993  0.77319773  1
  O  O90  1  0.86547780  0.09228007  0.42979104  1
  O  O91  1  0.63452220  0.56431324  0.72680227  1
  O  O92  1  0.93568676  0.07020896  0.66248903  1
  O  O93  1  0.40771993  0.77319773  0.83751097  1
  O  O94  1  0.09228007  0.42979104  0.86547780  1
  O  O95  1  0.56431324  0.72680227  0.63452220  1
  O  O96  1  0.61972025  0.40111539  0.91870580  1
  O  O97  1  0.01759041  0.09888461  0.21860486  1
  O  O98  1  0.88027975  0.29898555  0.28139514  1
  O  O99  1  0.48240959  0.20101445  0.58129420  1
  O  O100  1  0.40111539  0.91870580  0.61972025  1
  O  O101  1  0.09888461  0.21860486  0.01759041  1
  O  O102  1  0.29898555  0.28139514  0.88027975  1
  O  O103  1  0.20101445  0.58129420  0.48240959  1
  O  O104  1  0.91870580  0.61972025  0.40111539  1
  O  O105  1  0.21860486  0.01759041  0.09888461  1
  O  O106  1  0.28139514  0.88027975  0.29898555  1
  O  O107  1  0.58129420  0.48240959  0.20101445  1
  O  O108  1  0.38027975  0.59888461  0.08129420  1
  O  O109  1  0.98240959  0.90111539  0.78139514  1
  O  O110  1  0.11972025  0.70101445  0.71860486  1
  O  O111  1  0.51759041  0.79898555  0.41870580  1
  O  O112  1  0.59888461  0.08129420  0.38027975  1
  O  O113  1  0.90111539  0.78139514  0.98240959  1
  O  O114  1  0.70101445  0.71860486  0.11972025  1
  O  O115  1  0.79898555  0.41870580  0.51759041  1
  O  O116  1  0.08129420  0.38027975  0.59888461  1
  O  O117  1  0.78139514  0.98240959  0.90111539  1
  O  O118  1  0.71860486  0.11972025  0.70101445  1
  O  O119  1  0.41870580  0.51759041  0.79898555  1
