# generated using pymatgen
data_Er2HfS5
_symmetry_space_group_name_H-M   'P 1'
_cell_length_a   7.21373442
_cell_length_b   7.67936694
_cell_length_c   11.51738433
_cell_angle_alpha   90.00000000
_cell_angle_beta   90.00000000
_cell_angle_gamma   90.00000000
_symmetry_Int_Tables_number   1
_chemical_formula_structural   Er2HfS5
_chemical_formula_sum   'Er8 Hf4 S20'
_cell_volume   638.02754484
_cell_formula_units_Z   4
loop_
 _symmetry_equiv_pos_site_id
 _symmetry_equiv_pos_as_xyz
  1  'x, y, z'
loop_
 _atom_site_type_symbol
 _atom_site_label
 _atom_site_symmetry_multiplicity
 _atom_site_fract_x
 _atom_site_fract_y
 _atom_site_fract_z
 _atom_site_occupancy
  Er  Er0  1  0.02379183  0.99724401  0.82150768  1
  Er  Er1  1  0.47620817  0.50275599  0.32150768  1
  Er  Er2  1  0.97620817  0.49724401  0.17849232  1
  Er  Er3  1  0.52379183  0.00275599  0.67849232  1
  Er  Er4  1  0.97620817  0.00275599  0.17849232  1
  Er  Er5  1  0.52379183  0.49724401  0.67849232  1
  Er  Er6  1  0.02379183  0.50275599  0.82150768  1
  Er  Er7  1  0.47620817  0.99724401  0.32150768  1
  Hf  Hf8  1  0.57544024  0.25000000  0.99416719  1
  Hf  Hf9  1  0.92455976  0.25000000  0.49416719  1
  Hf  Hf10  1  0.42455976  0.75000000  0.00583281  1
  Hf  Hf11  1  0.07544024  0.75000000  0.50583281  1
  S  S12  1  0.33854348  0.46365450  0.09536410  1
  S  S13  1  0.16145652  0.03634550  0.59536410  1
  S  S14  1  0.66145652  0.96365450  0.90463590  1
  S  S15  1  0.83854348  0.53634550  0.40463590  1
  S  S16  1  0.66145652  0.53634550  0.90463590  1
  S  S17  1  0.83854348  0.96365450  0.40463590  1
  S  S18  1  0.33854348  0.03634550  0.09536410  1
  S  S19  1  0.16145652  0.46365450  0.59536410  1
  S  S20  1  0.33213375  0.25000000  0.81890806  1
  S  S21  1  0.16786625  0.25000000  0.31890806  1
  S  S22  1  0.66786625  0.75000000  0.18109194  1
  S  S23  1  0.83213375  0.75000000  0.68109194  1
  S  S24  1  0.94761304  0.25000000  0.99721470  1
  S  S25  1  0.55238696  0.25000000  0.49721470  1
  S  S26  1  0.05238696  0.75000000  0.00278530  1
  S  S27  1  0.44761304  0.75000000  0.50278530  1
  S  S28  1  0.68883932  0.25000000  0.20746625  1
  S  S29  1  0.81116068  0.25000000  0.70746625  1
  S  S30  1  0.31116068  0.75000000  0.79253375  1
  S  S31  1  0.18883932  0.75000000  0.29253375  1
