# generated using pymatgen
data_Ta3O8
_symmetry_space_group_name_H-M   'P 1'
_cell_length_a   3.92265571
_cell_length_b   9.10856171
_cell_length_c   17.02422553
_cell_angle_alpha   90.00000000
_cell_angle_beta   90.00000000
_cell_angle_gamma   90.00000000
_symmetry_Int_Tables_number   1
_chemical_formula_structural   Ta3O8
_chemical_formula_sum   'Ta12 O32'
_cell_volume   608.27134940
_cell_formula_units_Z   4
loop_
 _symmetry_equiv_pos_site_id
 _symmetry_equiv_pos_as_xyz
  1  'x, y, z'
loop_
 _atom_site_type_symbol
 _atom_site_label
 _atom_site_symmetry_multiplicity
 _atom_site_fract_x
 _atom_site_fract_y
 _atom_site_fract_z
 _atom_site_occupancy
  Ta  Ta0  1  -0.00000000  0.68906281  0.25000000  1
  Ta  Ta1  1  0.00000000  0.31093719  0.75000000  1
  Ta  Ta2  1  0.00000000  0.39916240  0.37012723  1
  Ta  Ta3  1  0.00000000  0.60083760  0.62987277  1
  Ta  Ta4  1  -0.00000000  0.39916240  0.12987277  1
  Ta  Ta5  1  -0.00000000  0.60083760  0.87012723  1
  Ta  Ta6  1  -0.00000000  0.81541606  0.44053910  1
  Ta  Ta7  1  0.00000000  0.18458394  0.55946090  1
  Ta  Ta8  1  -0.00000000  0.81541606  0.05946090  1
  Ta  Ta9  1  0.00000000  0.18458394  0.94053910  1
  Ta  Ta10  1  -0.00000000  0.05681894  0.25000000  1
  Ta  Ta11  1  -0.00000000  0.94318106  0.75000000  1
  O  O12  1  -0.00000000  0.46109353  0.25000000  1
  O  O13  1  0.00000000  0.53890647  0.75000000  1
  O  O14  1  -0.00000000  0.62292976  0.36805167  1
  O  O15  1  0.00000000  0.37707024  0.63194833  1
  O  O16  1  -0.00000000  0.62292976  0.13194833  1
  O  O17  1  0.00000000  0.37707024  0.86805167  1
  O  O18  1  0.00000000  0.87755783  0.32480940  1
  O  O19  1  0.00000000  0.12244217  0.67519060  1
  O  O20  1  0.00000000  0.87755783  0.17519060  1
  O  O21  1  -0.00000000  0.12244217  0.82480940  1
  O  O22  1  -0.00000000  0.19915979  0.33253005  1
  O  O23  1  0.00000000  0.80084021  0.66746995  1
  O  O24  1  -0.00000000  0.19915979  0.16746995  1
  O  O25  1  0.00000000  0.80084021  0.83253005  1
  O  O26  1  0.50000000  0.69378085  0.25000000  1
  O  O27  1  0.50000000  0.30621915  0.75000000  1
  O  O28  1  -0.00000000  0.33184179  0.47789516  1
  O  O29  1  0.00000000  0.66815821  0.52210484  1
  O  O30  1  0.00000000  0.33184179  0.02210484  1
  O  O31  1  -0.00000000  0.66815821  0.97789516  1
  O  O32  1  0.50000000  0.40729957  0.37177583  1
  O  O33  1  0.50000000  0.59270043  0.62822417  1
  O  O34  1  0.50000000  0.40729957  0.12822417  1
  O  O35  1  0.50000000  0.59270043  0.87177583  1
  O  O36  1  0.00000000  0.00000000  0.50000000  1
  O  O37  1  -0.00000000  0.00000000  0.00000000  1
  O  O38  1  0.50000000  0.82204849  0.43776779  1
  O  O39  1  0.50000000  0.17795151  0.56223221  1
  O  O40  1  0.50000000  0.82204849  0.06223221  1
  O  O41  1  0.50000000  0.17795151  0.93776779  1
  O  O42  1  0.50000000  0.04909499  0.25000000  1
  O  O43  1  0.50000000  0.95090501  0.75000000  1
