# generated using pymatgen
data_Yb5(Co2Ge5)2
_symmetry_space_group_name_H-M   'P 1'
_cell_length_a   4.22428578
_cell_length_b   12.75501792
_cell_length_c   12.75501792
_cell_angle_alpha   90.00000000
_cell_angle_beta   90.00000000
_cell_angle_gamma   90.00000000
_symmetry_Int_Tables_number   1
_chemical_formula_structural   Yb5(Co2Ge5)2
_chemical_formula_sum   'Yb10 Co8 Ge20'
_cell_volume   687.25109024
_cell_formula_units_Z   2
loop_
 _symmetry_equiv_pos_site_id
 _symmetry_equiv_pos_as_xyz
  1  'x, y, z'
loop_
 _atom_site_type_symbol
 _atom_site_label
 _atom_site_symmetry_multiplicity
 _atom_site_fract_x
 _atom_site_fract_y
 _atom_site_fract_z
 _atom_site_occupancy
  Yb  Yb0  1  -0.00000000  0.50000000  0.50000000  1
  Yb  Yb1  1  -0.00000000  -0.00000000  -0.00000000  1
  Yb  Yb2  1  0.50000000  0.17693398  0.67693398  1
  Yb  Yb3  1  0.50000000  0.82306602  0.32306602  1
  Yb  Yb4  1  0.50000000  0.32306602  0.17693398  1
  Yb  Yb5  1  0.50000000  0.67693398  0.82306602  1
  Yb  Yb6  1  0.50000000  0.60985845  0.10985845  1
  Yb  Yb7  1  0.50000000  0.39014155  0.89014155  1
  Yb  Yb8  1  0.50000000  0.89014155  0.60985845  1
  Yb  Yb9  1  0.50000000  0.10985845  0.39014155  1
  Co  Co10  1  -0.00000000  0.52317490  0.74552566  1
  Co  Co11  1  0.00000000  0.47682510  0.25447434  1
  Co  Co12  1  0.00000000  0.97682510  0.24552566  1
  Co  Co13  1  -0.00000000  0.02317490  0.75447434  1
  Co  Co14  1  -0.00000000  0.74552566  0.47682510  1
  Co  Co15  1  0.00000000  0.25447434  0.52317490  1
  Co  Co16  1  -0.00000000  0.24552566  0.02317490  1
  Co  Co17  1  0.00000000  0.75447434  0.97682510  1
  Ge  Ge18  1  -0.00000000  0.06929413  0.56929413  1
  Ge  Ge19  1  0.00000000  0.93070587  0.43070587  1
  Ge  Ge20  1  0.00000000  0.43070587  0.06929413  1
  Ge  Ge21  1  -0.00000000  0.56929413  0.93070587  1
  Ge  Ge22  1  -0.00000000  0.69204958  0.65281329  1
  Ge  Ge23  1  0.00000000  0.30795042  0.34718671  1
  Ge  Ge24  1  0.00000000  0.80795042  0.15281329  1
  Ge  Ge25  1  -0.00000000  0.19204958  0.84718671  1
  Ge  Ge26  1  -0.00000000  0.65281329  0.30795042  1
  Ge  Ge27  1  0.00000000  0.34718671  0.69204958  1
  Ge  Ge28  1  -0.00000000  0.15281329  0.19204958  1
  Ge  Ge29  1  0.00000000  0.84718671  0.80795042  1
  Ge  Ge30  1  0.50000000  0.50538297  0.66279340  1
  Ge  Ge31  1  0.50000000  0.49461703  0.33720660  1
  Ge  Ge32  1  0.50000000  0.99461703  0.16279340  1
  Ge  Ge33  1  0.50000000  0.00538297  0.83720660  1
  Ge  Ge34  1  0.50000000  0.66279340  0.49461703  1
  Ge  Ge35  1  0.50000000  0.33720660  0.50538297  1
  Ge  Ge36  1  0.50000000  0.16279340  0.00538297  1
  Ge  Ge37  1  0.50000000  0.83720660  0.99461703  1
