# generated using pymatgen
data_TeI7
_symmetry_space_group_name_H-M   'P 1'
_cell_length_a   5.94727753
_cell_length_b   12.73804482
_cell_length_c   12.73804482
_cell_angle_alpha   90.00000000
_cell_angle_beta   90.00000000
_cell_angle_gamma   90.00000000
_symmetry_Int_Tables_number   1
_chemical_formula_structural   TeI7
_chemical_formula_sum   'Te2 I14'
_cell_volume   964.99208377
_cell_formula_units_Z   2
loop_
 _symmetry_equiv_pos_site_id
 _symmetry_equiv_pos_as_xyz
  1  'x, y, z'
loop_
 _atom_site_type_symbol
 _atom_site_label
 _atom_site_symmetry_multiplicity
 _atom_site_fract_x
 _atom_site_fract_y
 _atom_site_fract_z
 _atom_site_occupancy
  Te  Te0  1  0.91161330  0.75000000  0.75000000  1
  Te  Te1  1  0.08838670  0.25000000  0.25000000  1
  I  I2  1  0.90394507  0.98389666  0.75000000  1
  I  I3  1  0.90394507  0.51610334  0.75000000  1
  I  I4  1  0.90394507  0.75000000  0.98389666  1
  I  I5  1  0.90394507  0.75000000  0.51610334  1
  I  I6  1  0.09605493  0.01610334  0.25000000  1
  I  I7  1  0.09605493  0.48389666  0.25000000  1
  I  I8  1  0.09605493  0.25000000  0.01610334  1
  I  I9  1  0.09605493  0.25000000  0.48389666  1
  I  I10  1  0.40792017  0.75000000  0.75000000  1
  I  I11  1  0.59207983  0.25000000  0.25000000  1
  I  I12  1  0.75460297  0.75000000  0.25000000  1
  I  I13  1  0.75460297  0.25000000  0.75000000  1
  I  I14  1  0.24539703  0.25000000  0.75000000  1
  I  I15  1  0.24539703  0.75000000  0.25000000  1
