# generated using pymatgen
data_KPH6C2(NO)4
_symmetry_space_group_name_H-M   'P 1'
_cell_length_a   7.76126023
_cell_length_b   7.76126023
_cell_length_c   8.27755453
_cell_angle_alpha   114.97022900
_cell_angle_beta   114.97022900
_cell_angle_gamma   95.71275671
_symmetry_Int_Tables_number   1
_chemical_formula_structural   KPH6C2(NO)4
_chemical_formula_sum   'K2 P2 H12 C4 N8 O8'
_cell_volume   385.64574682
_cell_formula_units_Z   2
loop_
 _symmetry_equiv_pos_site_id
 _symmetry_equiv_pos_as_xyz
  1  'x, y, z'
loop_
 _atom_site_type_symbol
 _atom_site_label
 _atom_site_symmetry_multiplicity
 _atom_site_fract_x
 _atom_site_fract_y
 _atom_site_fract_z
 _atom_site_occupancy
  K  K0  1  0.67877008  0.32122992  0.00000000  1
  K  K1  1  0.42877008  0.57122992  0.50000000  1
  P  P2  1  0.10897535  0.89102465  0.50000000  1
  P  P3  1  0.35897535  0.64102465  0.00000000  1
  H  H4  1  0.82336702  0.91794056  0.97070585  1
  H  H5  1  0.08205944  0.17663298  0.02929415  1
  H  H6  1  0.80276528  0.39733883  0.47070585  1
  H  H7  1  0.60266117  0.19723472  0.52929415  1
  H  H8  1  0.87218427  0.78606279  0.10466114  1
  H  H9  1  0.21393721  0.12781573  0.89533886  1
  H  H10  1  0.06859835  0.48247686  0.60466114  1
  H  H11  1  0.51752314  0.93140165  0.39533886  1
  H  H12  1  0.22135530  0.22991783  0.58880489  1
  H  H13  1  0.77008217  0.77864470  0.41119511  1
  H  H14  1  0.10888706  0.61744959  0.08880489  1
  H  H15  1  0.38255041  0.89111294  0.91119511  1
  C  C16  1  0.02403917  0.09138075  0.27962537  1
  C  C17  1  0.90861925  0.97596083  0.72037463  1
  C  C18  1  0.93824462  0.50558620  0.77962537  1
  C  C19  1  0.49441380  0.06175538  0.22037463  1
  N  N20  1  0.12759899  0.08855374  0.46049611  1
  N  N21  1  0.91144626  0.87240101  0.53950389  1
  N  N22  1  0.12194237  0.58289712  0.96049611  1
  N  N23  1  0.41710288  0.87805763  0.03950389  1
  N  N24  1  0.87917717  0.91935867  0.10785855  1
  N  N25  1  0.08064133  0.12082283  0.89214145  1
  N  N26  1  0.93849988  0.47868138  0.60785855  1
  N  N27  1  0.52131862  0.06150012  0.39214145  1
  O  O28  1  0.06289581  0.25226692  0.27704484  1
  O  O29  1  0.74773308  0.93710419  0.72295516  1
  O  O30  1  0.77477792  0.46414903  0.77704484  1
  O  O31  1  0.53585097  0.22522208  0.22295516  1
  O  O32  1  0.30308914  0.95544104  0.69802996  1
  O  O33  1  0.04455896  0.69691086  0.30197004  1
  O  O34  1  0.49258892  0.64494082  0.19802996  1
  O  O35  1  0.35505918  0.50741108  0.80197004  1
