# generated using pymatgen
data_V2Ag6As2O13
_symmetry_space_group_name_H-M   'P 1'
_cell_length_a   5.48518178
_cell_length_b   9.99941801
_cell_length_c   13.19477754
_cell_angle_alpha   67.80155599
_cell_angle_beta   78.00336329
_cell_angle_gamma   74.08118336
_symmetry_Int_Tables_number   1
_chemical_formula_structural   V2Ag6As2O13
_chemical_formula_sum   'V4 Ag12 As4 O26'
_cell_volume   639.94741566
_cell_formula_units_Z   2
loop_
 _symmetry_equiv_pos_site_id
 _symmetry_equiv_pos_as_xyz
  1  'x, y, z'
loop_
 _atom_site_type_symbol
 _atom_site_label
 _atom_site_symmetry_multiplicity
 _atom_site_fract_x
 _atom_site_fract_y
 _atom_site_fract_z
 _atom_site_occupancy
  V  V0  1  0.38225080  0.90801462  0.27473200  1
  V  V1  1  0.56499741  0.59198538  0.22526800  1
  V  V2  1  0.61774920  0.09198538  0.72526800  1
  V  V3  1  0.43500259  0.40801462  0.77473200  1
  Ag  Ag4  1  0.22323193  0.79479776  0.79421732  1
  Ag  Ag5  1  0.81224701  0.70520224  0.70578268  1
  Ag  Ag6  1  0.77676807  0.20520224  0.20578268  1
  Ag  Ag7  1  0.18775299  0.29479776  0.29421732  1
  Ag  Ag8  1  0.19441166  0.56185549  0.04209628  1
  Ag  Ag9  1  0.79836343  0.93814451  0.45790372  1
  Ag  Ag10  1  0.80558834  0.43814451  0.95790372  1
  Ag  Ag11  1  0.20163657  0.06185549  0.54209628  1
  Ag  Ag12  1  0.98173746  0.88097071  0.11080542  1
  Ag  Ag13  1  0.97351359  0.61902929  0.38919458  1
  Ag  Ag14  1  0.01826254  0.11902929  0.88919458  1
  Ag  Ag15  1  0.02648641  0.38097071  0.61080542  1
  As  As16  1  0.37803330  0.69987388  0.54445892  1
  As  As17  1  0.62236611  0.80012612  0.95554108  1
  As  As18  1  0.62196670  0.30012612  0.45554108  1
  As  As19  1  0.37763389  0.19987388  0.04445892  1
  O  O20  1  0.36432013  0.25000000  0.75000000  1
  O  O21  1  0.63567987  0.75000000  0.25000000  1
  O  O22  1  0.32982737  0.52301379  0.62115454  1
  O  O23  1  0.47399571  0.97698621  0.87884546  1
  O  O24  1  0.67017263  0.47698621  0.37884546  1
  O  O25  1  0.52600429  0.02301379  0.12115454  1
  O  O26  1  0.18078074  0.81752469  0.61091929  1
  O  O27  1  0.60922472  0.68247531  0.88908071  1
  O  O28  1  0.81921926  0.18247531  0.38908071  1
  O  O29  1  0.39077528  0.31752469  0.11091929  1
  O  O30  1  0.26378155  0.75109354  0.41904157  1
  O  O31  1  0.43391666  0.74890646  0.08095843  1
  O  O32  1  0.73621845  0.24890646  0.58095843  1
  O  O33  1  0.56608334  0.25109354  0.91904157  1
  O  O34  1  0.07529308  0.95693046  0.24403569  1
  O  O35  1  0.27625924  0.54306954  0.25596431  1
  O  O36  1  0.92470692  0.04306954  0.75596431  1
  O  O37  1  0.72374076  0.45693046  0.74403569  1
  O  O38  1  0.69535590  0.70688038  0.52888275  1
  O  O39  1  0.93111903  0.79311962  0.97111725  1
  O  O40  1  0.30464410  0.29311962  0.47111725  1
  O  O41  1  0.06888097  0.20688038  0.02888275  1
  O  O42  1  0.43679666  0.01418479  0.33748757  1
  O  O43  1  0.78846902  0.48581521  0.16251243  1
  O  O44  1  0.56320334  0.98581521  0.66251243  1
  O  O45  1  0.21153098  0.51418479  0.83748757  1
