# generated using pymatgen
data_Yb5(Co2Si7)2
_symmetry_space_group_name_H-M   'P 1'
_cell_length_a   7.68645305
_cell_length_b   7.87086014
_cell_length_c   12.74409429
_cell_angle_alpha   90.00000000
_cell_angle_beta   98.38173087
_cell_angle_gamma   90.00000000
_symmetry_Int_Tables_number   1
_chemical_formula_structural   Yb5(Co2Si7)2
_chemical_formula_sum   'Yb10 Co8 Si28'
_cell_volume   762.76971130
_cell_formula_units_Z   2
loop_
 _symmetry_equiv_pos_site_id
 _symmetry_equiv_pos_as_xyz
  1  'x, y, z'
loop_
 _atom_site_type_symbol
 _atom_site_label
 _atom_site_symmetry_multiplicity
 _atom_site_fract_x
 _atom_site_fract_y
 _atom_site_fract_z
 _atom_site_occupancy
  Yb  Yb0  1  0.50000000  0.50000000  0.50000000  1
  Yb  Yb1  1  0.00000000  0.00000000  0.50000000  1
  Yb  Yb2  1  0.65695846  0.75434899  0.14256605  1
  Yb  Yb3  1  0.84304154  0.25434899  0.85743395  1
  Yb  Yb4  1  0.34304154  0.24565101  0.85743395  1
  Yb  Yb5  1  0.15695846  0.74565101  0.14256605  1
  Yb  Yb6  1  0.33590577  0.74667478  0.85777212  1
  Yb  Yb7  1  0.16409423  0.24667478  0.14222788  1
  Yb  Yb8  1  0.66409423  0.25332522  0.14222788  1
  Yb  Yb9  1  0.83590577  0.75332522  0.85777212  1
  Co  Co10  1  0.37043448  0.87802188  0.50055642  1
  Co  Co11  1  0.12956552  0.37802188  0.49944358  1
  Co  Co12  1  0.62956552  0.12197812  0.49944358  1
  Co  Co13  1  0.87043448  0.62197812  0.50055642  1
  Co  Co14  1  0.44078411  0.49983460  0.25412465  1
  Co  Co15  1  0.05921589  0.99983460  0.74587535  1
  Co  Co16  1  0.55921589  0.50016540  0.74587535  1
  Co  Co17  1  0.94078411  0.00016540  0.25412465  1
  Si  Si18  1  0.33691473  0.16843021  0.50033594  1
  Si  Si19  1  0.16308527  0.66843021  0.49966406  1
  Si  Si20  1  0.66308527  0.83156979  0.49966406  1
  Si  Si21  1  0.83691473  0.33156979  0.50033594  1
  Si  Si22  1  0.26636549  0.49196966  0.67172894  1
  Si  Si23  1  0.23363451  0.99196966  0.32827106  1
  Si  Si24  1  0.73363451  0.50803034  0.32827106  1
  Si  Si25  1  0.76636549  0.00803034  0.67172894  1
  Si  Si26  1  0.18283259  0.49221660  0.32790010  1
  Si  Si27  1  0.31716741  0.99221660  0.67209990  1
  Si  Si28  1  0.81716741  0.50778340  0.67209990  1
  Si  Si29  1  0.68283259  0.00778340  0.32790010  1
  Si  Si30  1  0.38132204  0.99834704  0.04690053  1
  Si  Si31  1  0.11867796  0.49834704  0.95309947  1
  Si  Si32  1  0.61867796  0.00165296  0.95309947  1
  Si  Si33  1  0.88132204  0.50165296  0.04690053  1
  Si  Si34  1  0.45049769  0.77118058  0.32978215  1
  Si  Si35  1  0.04950231  0.27118058  0.67021785  1
  Si  Si36  1  0.54950231  0.22881942  0.67021785  1
  Si  Si37  1  0.95049769  0.72881942  0.32978215  1
  Si  Si38  1  0.39287213  0.50008070  0.06439731  1
  Si  Si39  1  0.10712787  0.00008070  0.93560269  1
  Si  Si40  1  0.60712787  0.49991930  0.93560269  1
  Si  Si41  1  0.89287213  0.99991930  0.06439731  1
  Si  Si42  1  0.46540665  0.22844151  0.32962182  1
  Si  Si43  1  0.03459335  0.72844151  0.67037818  1
  Si  Si44  1  0.53459335  0.77155849  0.67037818  1
  Si  Si45  1  0.96540665  0.27155849  0.32962182  1
