# generated using pymatgen
data_Sm4In20Ni11
_symmetry_space_group_name_H-M   'P 1'
_cell_length_a   4.25366730
_cell_length_b   11.65084954
_cell_length_c   14.15004257
_cell_angle_alpha   80.99516196
_cell_angle_beta   81.35534881
_cell_angle_gamma   79.48181691
_symmetry_Int_Tables_number   1
_chemical_formula_structural   Sm4In20Ni11
_chemical_formula_sum   'Sm4 In20 Ni11'
_cell_volume   675.60673573
_cell_formula_units_Z   1
loop_
 _symmetry_equiv_pos_site_id
 _symmetry_equiv_pos_as_xyz
  1  'x, y, z'
loop_
 _atom_site_type_symbol
 _atom_site_label
 _atom_site_symmetry_multiplicity
 _atom_site_fract_x
 _atom_site_fract_y
 _atom_site_fract_z
 _atom_site_occupancy
  Sm  Sm0  1  0.11884238  0.09421330  0.66810195  1
  Sm  Sm1  1  0.88115762  0.90578670  0.33189805  1
  Sm  Sm2  1  0.77171660  0.63077446  0.82579233  1
  Sm  Sm3  1  0.22828340  0.36922554  0.17420767  1
  In  In4  1  0.01003824  0.07428012  0.90564340  1
  In  In5  1  0.98996176  0.92571988  0.09435660  1
  In  In6  1  0.06419994  0.66298892  0.20861120  1
  In  In7  1  0.93580006  0.33701108  0.79138880  1
  In  In8  1  0.11220253  0.32564683  0.44994810  1
  In  In9  1  0.88779747  0.67435317  0.55005190  1
  In  In10  1  0.20235838  0.59807967  0.99720357  1
  In  In11  1  0.79764162  0.40192033  0.00279643  1
  In  In12  1  0.24599864  0.79863665  0.70936607  1
  In  In13  1  0.75400136  0.20136335  0.29063393  1
  In  In14  1  0.29677001  0.90425103  0.50220896  1
  In  In15  1  0.70322999  0.09574897  0.49779104  1
  In  In16  1  0.39043016  0.52979023  0.68934944  1
  In  In17  1  0.60956984  0.47020977  0.31065056  1
  In  In18  1  0.39724348  0.21436592  0.99114711  1
  In  In19  1  0.60275652  0.78563408  0.00885289  1
  In  In20  1  0.53901325  0.29851290  0.62346060  1
  In  In21  1  0.46098675  0.70148710  0.37653940  1
  In  In22  1  0.62862515  0.93942879  0.80332091  1
  In  In23  1  0.37137485  0.06057121  0.19667909  1
  Ni  Ni24  1  0.02260448  0.55487506  0.39991597  1
  Ni  Ni25  1  0.97739552  0.44512494  0.60008403  1
  Ni  Ni26  1  0.13416540  0.83346398  0.89820522  1
  Ni  Ni27  1  0.86583460  0.16653602  0.10179478  1
  Ni  Ni28  1  0.25110346  0.11320395  0.38458913  1
  Ni  Ni29  1  0.74889654  0.88679605  0.61541087  1
  Ni  Ni30  1  0.34639797  0.42629752  0.88090654  1
  Ni  Ni31  1  0.65360203  0.57370248  0.11909346  1
  Ni  Ni32  1  0.50505057  0.18126308  0.80863578  1
  Ni  Ni33  1  0.49494943  0.81873692  0.19136422  1
  Ni  Ni34  1  0.50000000  0.50000000  0.50000000  1
