# generated using pymatgen
data_SrSn2H10Br6O5
_symmetry_space_group_name_H-M   'P 1'
_cell_length_a   9.41762430
_cell_length_b   10.08507973
_cell_length_c   10.08507973
_cell_angle_alpha   78.89878323
_cell_angle_beta   72.56465885
_cell_angle_gamma   72.56465885
_symmetry_Int_Tables_number   1
_chemical_formula_structural   SrSn2H10Br6O5
_chemical_formula_sum   'Sr2 Sn4 H20 Br12 O10'
_cell_volume   866.28699661
_cell_formula_units_Z   2
loop_
 _symmetry_equiv_pos_site_id
 _symmetry_equiv_pos_as_xyz
  1  'x, y, z'
loop_
 _atom_site_type_symbol
 _atom_site_label
 _atom_site_symmetry_multiplicity
 _atom_site_fract_x
 _atom_site_fract_y
 _atom_site_fract_z
 _atom_site_occupancy
  Sr  Sr0  1  0.25000000  0.01464070  0.98535930  1
  Sr  Sr1  1  0.75000000  0.98535930  0.01464070  1
  Sn  Sn2  1  0.52516178  0.51357437  0.73668424  1
  Sn  Sn3  1  0.97483822  0.26331576  0.48642563  1
  Sn  Sn4  1  0.47483822  0.48642563  0.26331576  1
  Sn  Sn5  1  0.02516178  0.73668424  0.51357437  1
  H  H6  1  0.34958275  0.80097300  0.76102736  1
  H  H7  1  0.15041725  0.23897264  0.19902700  1
  H  H8  1  0.65041725  0.19902700  0.23897264  1
  H  H9  1  0.84958275  0.76102736  0.80097300  1
  H  H10  1  0.22613122  0.92488443  0.70902285  1
  H  H11  1  0.27386878  0.29097715  0.07511557  1
  H  H12  1  0.77386878  0.07511557  0.29097715  1
  H  H13  1  0.72613122  0.70902285  0.92488443  1
  H  H14  1  0.03361628  0.79626145  0.11856926  1
  H  H15  1  0.46638372  0.88143074  0.20373855  1
  H  H16  1  0.96638372  0.20373855  0.88143074  1
  H  H17  1  0.53361628  0.11856926  0.79626145  1
  H  H18  1  0.09360331  0.75873551  0.96606518  1
  H  H19  1  0.40639669  0.03393482  0.24126449  1
  H  H20  1  0.90639669  0.24126449  0.03393482  1
  H  H21  1  0.59360331  0.96606518  0.75873551  1
  H  H22  1  0.27811935  0.20698441  0.68380409  1
  H  H23  1  0.22188065  0.31619591  0.79301559  1
  H  H24  1  0.72188065  0.79301559  0.31619591  1
  H  H25  1  0.77811935  0.68380409  0.20698441  1
  Br  Br26  1  0.20540209  0.55919189  0.82112447  1
  Br  Br27  1  0.29459791  0.17887553  0.44080811  1
  Br  Br28  1  0.79459791  0.44080811  0.17887553  1
  Br  Br29  1  0.70540209  0.82112447  0.55919189  1
  Br  Br30  1  0.59404412  0.30529707  0.57146543  1
  Br  Br31  1  0.90595588  0.42853457  0.69470293  1
  Br  Br32  1  0.40595588  0.69470293  0.42853457  1
  Br  Br33  1  0.09404412  0.57146543  0.30529707  1
  Br  Br34  1  0.53707813  0.31176527  0.97385385  1
  Br  Br35  1  0.96292187  0.02614615  0.68823473  1
  Br  Br36  1  0.46292187  0.68823473  0.02614615  1
  Br  Br37  1  0.03707813  0.97385385  0.31176527  1
  O  O38  1  0.30746733  0.90225999  0.75836210  1
  O  O39  1  0.19253267  0.24163790  0.09774001  1
  O  O40  1  0.69253267  0.09774001  0.24163790  1
  O  O41  1  0.80746733  0.75836210  0.90225999  1
  O  O42  1  0.05075324  0.83954605  0.02085511  1
  O  O43  1  0.44924676  0.97914489  0.16045395  1
  O  O44  1  0.94924676  0.16045395  0.97914489  1
  O  O45  1  0.55075324  0.02085511  0.83954605  1
  O  O46  1  0.25000000  0.21546243  0.78453757  1
  O  O47  1  0.75000000  0.78453757  0.21546243  1
