# generated using pymatgen
data_USiH2PbO7
_symmetry_space_group_name_H-M   'P 1'
_cell_length_a   6.86996034
_cell_length_b   6.94512896
_cell_length_c   13.58046188
_cell_angle_alpha   90.00000000
_cell_angle_beta   106.27658279
_cell_angle_gamma   90.00000000
_symmetry_Int_Tables_number   1
_chemical_formula_structural   USiH2PbO7
_chemical_formula_sum   'U4 Si4 H8 Pb4 O28'
_cell_volume   621.99098538
_cell_formula_units_Z   4
loop_
 _symmetry_equiv_pos_site_id
 _symmetry_equiv_pos_as_xyz
  1  'x, y, z'
loop_
 _atom_site_type_symbol
 _atom_site_label
 _atom_site_symmetry_multiplicity
 _atom_site_fract_x
 _atom_site_fract_y
 _atom_site_fract_z
 _atom_site_occupancy
  U  U0  1  0.29513919  0.72842780  0.32632151  1
  U  U1  1  0.20486081  0.22842780  0.17367849  1
  U  U2  1  0.70486081  0.27157220  0.67367849  1
  U  U3  1  0.79513919  0.77157220  0.82632151  1
  Si  Si4  1  0.67023880  0.78892945  0.57406380  1
  Si  Si5  1  0.82976120  0.28892945  0.92593620  1
  Si  Si6  1  0.32976120  0.21107055  0.42593620  1
  Si  Si7  1  0.17023880  0.71107055  0.07406380  1
  H  H8  1  0.73428774  0.53005422  0.37940506  1
  H  H9  1  0.76571226  0.03005422  0.12059494  1
  H  H10  1  0.26571226  0.46994578  0.62059494  1
  H  H11  1  0.23428774  0.96994578  0.87940506  1
  H  H12  1  0.96882616  0.48981478  0.41485130  1
  H  H13  1  0.53117384  0.98981478  0.08514870  1
  H  H14  1  0.03117384  0.51018522  0.58514870  1
  H  H15  1  0.46882616  0.01018522  0.91485130  1
  Pb  Pb16  1  0.80725889  0.07038401  0.37986413  1
  Pb  Pb17  1  0.69274111  0.57038401  0.12013587  1
  Pb  Pb18  1  0.19274111  0.92961599  0.62013587  1
  Pb  Pb19  1  0.30725889  0.42961599  0.87986413  1
  O  O20  1  0.72961055  0.58577874  0.63875216  1
  O  O21  1  0.77038945  0.08577874  0.86124784  1
  O  O22  1  0.27038945  0.41422126  0.36124784  1
  O  O23  1  0.22961055  0.91422126  0.13875216  1
  O  O24  1  0.55169994  0.69317266  0.30732966  1
  O  O25  1  0.94830006  0.19317266  0.19267034  1
  O  O26  1  0.44830006  0.30682734  0.69267034  1
  O  O27  1  0.05169994  0.80682734  0.80732966  1
  O  O28  1  0.65213991  0.93453793  0.66938940  1
  O  O29  1  0.84786009  0.43453793  0.83061060  1
  O  O30  1  0.34786009  0.06546207  0.33061060  1
  O  O31  1  0.15213991  0.56546207  0.16938940  1
  O  O32  1  0.84846538  0.86693533  0.52567970  1
  O  O33  1  0.65153462  0.36693533  0.97432030  1
  O  O34  1  0.15153462  0.13306467  0.47432030  1
  O  O35  1  0.34846538  0.63306467  0.02567970  1
  O  O36  1  0.44522890  0.77727604  0.49072672  1
  O  O37  1  0.05477110  0.27727604  0.00927328  1
  O  O38  1  0.55477110  0.22272396  0.50927328  1
  O  O39  1  0.94522890  0.72272396  0.99072672  1
  O  O40  1  0.03416875  0.77632324  0.33473160  1
  O  O41  1  0.46583125  0.27632324  0.16526840  1
  O  O42  1  0.96583125  0.22367676  0.66526840  1
  O  O43  1  0.53416875  0.72367676  0.83473160  1
  O  O44  1  0.83719030  0.43322721  0.41327432  1
  O  O45  1  0.66280970  0.93322721  0.08672568  1
  O  O46  1  0.16280970  0.56677279  0.58672568  1
  O  O47  1  0.33719030  0.06677279  0.91327432  1
