# generated using pymatgen
data_Nd2Ga2Fe15
_symmetry_space_group_name_H-M   'P 1'
_cell_length_a   6.46801524
_cell_length_b   6.46801524
_cell_length_c   6.46801493
_cell_angle_alpha   82.75555388
_cell_angle_beta   82.75555388
_cell_angle_gamma   82.75555263
_symmetry_Int_Tables_number   1
_chemical_formula_structural   Nd2Ga2Fe15
_chemical_formula_sum   'Nd2 Ga2 Fe15'
_cell_volume   264.61304407
_cell_formula_units_Z   1
loop_
 _symmetry_equiv_pos_site_id
 _symmetry_equiv_pos_as_xyz
  1  'x, y, z'
loop_
 _atom_site_type_symbol
 _atom_site_label
 _atom_site_symmetry_multiplicity
 _atom_site_fract_x
 _atom_site_fract_y
 _atom_site_fract_z
 _atom_site_occupancy
  Nd  Nd0  1  0.65158068  0.65158068  0.65158068  1
  Nd  Nd1  1  0.34841932  0.34841932  0.34841932  1
  Ga  Ga2  1  0.89646673  0.89646673  0.89646673  1
  Ga  Ga3  1  0.10353327  0.10353327  0.10353327  1
  Fe  Fe4  1  0.00000000  0.00000000  0.50000000  1
  Fe  Fe5  1  0.00000000  0.50000000  -0.00000000  1
  Fe  Fe6  1  0.50000000  0.00000000  -0.00000000  1
  Fe  Fe7  1  0.28973680  0.71026320  0.00000000  1
  Fe  Fe8  1  0.71026320  1.00000000  0.28973680  1
  Fe  Fe9  1  0.00000000  0.28973680  0.71026320  1
  Fe  Fe10  1  0.28973680  0.00000000  0.71026320  1
  Fe  Fe11  1  1.00000000  0.71026320  0.28973680  1
  Fe  Fe12  1  0.71026320  0.28973680  -0.00000000  1
  Fe  Fe13  1  0.34067943  0.34067943  0.84355664  1
  Fe  Fe14  1  0.34067943  0.84355664  0.34067943  1
  Fe  Fe15  1  0.84355664  0.34067943  0.34067943  1
  Fe  Fe16  1  0.65932057  0.65932057  0.15644336  1
  Fe  Fe17  1  0.65932057  0.15644336  0.65932057  1
  Fe  Fe18  1  0.15644336  0.65932057  0.65932057  1
