# generated using pymatgen
data_Co3N
_symmetry_space_group_name_H-M   'P 1'
_cell_length_a   4.33183041
_cell_length_b   4.54991136
_cell_length_c   4.54991136
_cell_angle_alpha   120.00000234
_cell_angle_beta   90.00000000
_cell_angle_gamma   90.00000000
_symmetry_Int_Tables_number   1
_chemical_formula_structural   Co3N
_chemical_formula_sum   'Co6 N2'
_cell_volume   77.66188711
_cell_formula_units_Z   2
loop_
 _symmetry_equiv_pos_site_id
 _symmetry_equiv_pos_as_xyz
  1  'x, y, z'
loop_
 _atom_site_type_symbol
 _atom_site_label
 _atom_site_symmetry_multiplicity
 _atom_site_fract_x
 _atom_site_fract_y
 _atom_site_fract_z
 _atom_site_occupancy
  Co  Co0  1  0.00000000  0.67386500  0.67386500  1
  Co  Co1  1  -0.00000000  0.00000000  0.32613500  1
  Co  Co2  1  0.50000000  0.32613500  0.32613500  1
  Co  Co3  1  0.00000000  0.32613500  0.00000000  1
  Co  Co4  1  0.50000000  1.00000000  0.67386500  1
  Co  Co5  1  0.50000000  0.67386500  1.00000000  1
  N  N6  1  0.75000000  0.66666700  0.33333300  1
  N  N7  1  0.25000000  0.33333300  0.66666700  1
