# generated using pymatgen
data_SmH6C2SNO9
_symmetry_space_group_name_H-M   'P 1'
_cell_length_a   6.67218150
_cell_length_b   8.80378640
_cell_length_c   14.12377442
_cell_angle_alpha   90.00000000
_cell_angle_beta   93.31215759
_cell_angle_gamma   90.00000000
_symmetry_Int_Tables_number   1
_chemical_formula_structural   SmH6C2SNO9
_chemical_formula_sum   'Sm4 H24 C8 S4 N4 O36'
_cell_volume   828.25117478
_cell_formula_units_Z   4
loop_
 _symmetry_equiv_pos_site_id
 _symmetry_equiv_pos_as_xyz
  1  'x, y, z'
loop_
 _atom_site_type_symbol
 _atom_site_label
 _atom_site_symmetry_multiplicity
 _atom_site_fract_x
 _atom_site_fract_y
 _atom_site_fract_z
 _atom_site_occupancy
  Sm  Sm0  1  0.25293950  0.73676496  0.59117434  1
  Sm  Sm1  1  0.75293950  0.76323504  0.09117434  1
  Sm  Sm2  1  0.74706050  0.26323504  0.40882566  1
  Sm  Sm3  1  0.24706050  0.23676496  0.90882566  1
  H  H4  1  0.90955618  0.79579284  0.83076600  1
  H  H5  1  0.40955618  0.70420716  0.33076600  1
  H  H6  1  0.09044382  0.20420716  0.16923400  1
  H  H7  1  0.59044382  0.29579284  0.66923400  1
  H  H8  1  0.74299553  0.82552688  0.73575594  1
  H  H9  1  0.24299553  0.67447312  0.23575594  1
  H  H10  1  0.25700447  0.17447312  0.26424406  1
  H  H11  1  0.75700447  0.32552688  0.76424406  1
  H  H12  1  0.78749970  0.96042383  0.81705809  1
  H  H13  1  0.28749970  0.53957617  0.31705809  1
  H  H14  1  0.21250030  0.03957617  0.18294191  1
  H  H15  1  0.71250030  0.46042383  0.68294191  1
  H  H16  1  0.14104242  0.97598610  0.43182951  1
  H  H17  1  0.64104242  0.52401390  0.93182951  1
  H  H18  1  0.85895758  0.02401390  0.56817049  1
  H  H19  1  0.35895758  0.47598610  0.06817049  1
  H  H20  1  0.37450705  0.97355275  0.42992444  1
  H  H21  1  0.87450705  0.52644725  0.92992444  1
  H  H22  1  0.62549295  0.02644725  0.57007556  1
  H  H23  1  0.12549295  0.47355275  0.07007556  1
  H  H24  1  0.65594845  0.80531343  0.84332414  1
  H  H25  1  0.15594845  0.69468657  0.34332414  1
  H  H26  1  0.34405155  0.19468657  0.15667586  1
  H  H27  1  0.84405155  0.30531343  0.65667586  1
  C  C28  1  0.13644905  0.03004736  0.72109498  1
  C  C29  1  0.63644905  0.46995264  0.22109498  1
  C  C30  1  0.86355095  0.96995264  0.27890502  1
  C  C31  1  0.36355095  0.53004736  0.77890502  1
  C  C32  1  0.36787636  0.02616374  0.73094375  1
  C  C33  1  0.86787636  0.47383626  0.23094375  1
  C  C34  1  0.63212364  0.97383626  0.26905625  1
  C  C35  1  0.13212364  0.52616374  0.76905625  1
  S  S36  1  0.73657936  0.66592639  0.47728193  1
  S  S37  1  0.23657936  0.83407361  0.97728193  1
  S  S38  1  0.26342064  0.33407361  0.52271807  1
  S  S39  1  0.76342064  0.16592639  0.02271807  1
  N  N40  1  0.77386806  0.84509586  0.80668545  1
  N  N41  1  0.27386806  0.65490414  0.30668545  1
  N  N42  1  0.22613194  0.15490414  0.19331455  1
  N  N43  1  0.72613194  0.34509586  0.69331455  1
  O  O44  1  0.93642076  0.73455354  0.50353909  1
  O  O45  1  0.43642076  0.76544646  0.00353909  1
  O  O46  1  0.06357924  0.26544646  0.49646091  1
  O  O47  1  0.56357924  0.23455354  0.99646091  1
  O  O48  1  0.58681025  0.73032250  0.54059758  1
  O  O49  1  0.08681025  0.76967750  0.04059758  1
  O  O50  1  0.41318975  0.26967750  0.45940242  1
  O  O51  1  0.91318975  0.23032250  0.95940242  1
  O  O52  1  0.05272311  0.94372691  0.65834312  1
  O  O53  1  0.55272311  0.55627309  0.15834312  1
  O  O54  1  0.94727689  0.05627309  0.34165688  1
  O  O55  1  0.44727689  0.44372691  0.84165688  1
  O  O56  1  0.26145967  0.92068256  0.45689441  1
  O  O57  1  0.76145967  0.57931744  0.95689441  1
  O  O58  1  0.73854033  0.07931744  0.54310559  1
  O  O59  1  0.23854033  0.42068256  0.04310559  1
  O  O60  1  0.45445821  0.94185663  0.67272112  1
  O  O61  1  0.95445821  0.55814337  0.17272112  1
  O  O62  1  0.54554179  0.05814337  0.32727888  1
  O  O63  1  0.04554179  0.44185663  0.82727888  1
  O  O64  1  0.25237927  0.50250910  0.50796683  1
  O  O65  1  0.75237927  0.99749090  0.00796683  1
  O  O66  1  0.74762073  0.49749090  0.49203317  1
  O  O67  1  0.24762073  0.00250910  0.99203317  1
  O  O68  1  0.04692038  0.60465166  0.70338338  1
  O  O69  1  0.54692038  0.89534834  0.20338338  1
  O  O70  1  0.95307962  0.39534834  0.29661662  1
  O  O71  1  0.45307962  0.10465166  0.79661662  1
  O  O72  1  0.45248041  0.61651834  0.72327529  1
  O  O73  1  0.95248041  0.88348166  0.22327529  1
  O  O74  1  0.54751959  0.38348166  0.27672471  1
  O  O75  1  0.04751959  0.11651834  0.77672471  1
  O  O76  1  0.67862158  0.70003485  0.37698513  1
  O  O77  1  0.17862158  0.79996515  0.87698513  1
  O  O78  1  0.32137842  0.29996515  0.62301487  1
  O  O79  1  0.82137842  0.20003485  0.12301487  1
