# generated using pymatgen
data_CaHgH16(BrO2)4
_symmetry_space_group_name_H-M   'P 1'
_cell_length_a   11.13995950
_cell_length_b   11.13995950
_cell_length_c   13.99293042
_cell_angle_alpha   90.00000000
_cell_angle_beta   90.00000000
_cell_angle_gamma   110.55667506
_symmetry_Int_Tables_number   1
_chemical_formula_structural   CaHgH16(BrO2)4
_chemical_formula_sum   'Ca4 Hg4 H64 Br16 O32'
_cell_volume   1625.93307394
_cell_formula_units_Z   4
loop_
 _symmetry_equiv_pos_site_id
 _symmetry_equiv_pos_as_xyz
  1  'x, y, z'
loop_
 _atom_site_type_symbol
 _atom_site_label
 _atom_site_symmetry_multiplicity
 _atom_site_fract_x
 _atom_site_fract_y
 _atom_site_fract_z
 _atom_site_occupancy
  Ca  Ca0  1  0.24750586  0.75249414  0.50000000  1
  Ca  Ca1  1  0.74750586  0.25249414  0.00000000  1
  Ca  Ca2  1  0.75249414  0.24750586  0.50000000  1
  Ca  Ca3  1  0.25249414  0.74750586  0.00000000  1
  Hg  Hg4  1  0.75726079  0.75726079  0.19603164  1
  Hg  Hg5  1  0.24273921  0.24273921  0.80396836  1
  Hg  Hg6  1  0.74273921  0.74273921  0.69603164  1
  Hg  Hg7  1  0.25726079  0.25726079  0.30396836  1
  H  H8  1  0.94678531  0.57334444  0.52670500  1
  H  H9  1  0.42665556  0.05321469  0.47329500  1
  H  H10  1  0.92665556  0.55321469  0.02670500  1
  H  H11  1  0.44678531  0.07334444  0.97329500  1
  H  H12  1  0.05321469  0.42665556  0.47329500  1
  H  H13  1  0.57334444  0.94678531  0.52670500  1
  H  H14  1  0.07334444  0.44678531  0.97329500  1
  H  H15  1  0.55321469  0.92665556  0.02670500  1
  H  H16  1  0.00978117  0.64186597  0.61887564  1
  H  H17  1  0.35813403  0.99021883  0.38112436  1
  H  H18  1  0.85813403  0.49021883  0.11887564  1
  H  H19  1  0.50978117  0.14186597  0.88112436  1
  H  H20  1  0.99021883  0.35813403  0.38112436  1
  H  H21  1  0.64186597  0.00978117  0.61887564  1
  H  H22  1  0.14186597  0.50978117  0.88112436  1
  H  H23  1  0.49021883  0.85813403  0.11887564  1
  H  H24  1  0.23441315  0.47315871  0.56046174  1
  H  H25  1  0.52684129  0.76558685  0.43953826  1
  H  H26  1  0.02684129  0.26558685  0.06046174  1
  H  H27  1  0.73441315  0.97315871  0.93953826  1
  H  H28  1  0.76558685  0.52684129  0.43953826  1
  H  H29  1  0.47315871  0.23441315  0.56046174  1
  H  H30  1  0.97315871  0.73441315  0.93953826  1
  H  H31  1  0.26558685  0.02684129  0.06046174  1
  H  H32  1  0.29822115  0.50066482  0.45878240  1
  H  H33  1  0.49933518  0.70177885  0.54121760  1
  H  H34  1  -0.00066482  0.20177885  0.95878240  1
  H  H35  1  0.79822115  0.00066482  0.04121760  1
  H  H36  1  0.70177885  0.49933518  0.54121760  1
  H  H37  1  0.50066482  0.29822115  0.45878240  1
  H  H38  1  0.00066482  0.79822115  0.04121760  1
  H  H39  1  0.20177885  -0.00066482  0.95878240  1
  H  H40  1  0.38858536  0.75884379  0.70121718  1
  H  H41  1  0.24115621  0.61141464  0.29878282  1
  H  H42  1  0.74115621  0.11141464  0.20121718  1
  H  H43  1  0.88858536  0.25884379  0.79878282  1
  H  H44  1  0.61141464  0.24115621  0.29878282  1
  H  H45  1  0.75884379  0.38858536  0.70121718  1
  H  H46  1  0.25884379  0.88858536  0.79878282  1
  H  H47  1  0.11141464  0.74115621  0.20121718  1
  H  H48  1  0.27691327  0.62972980  0.69728161  1
  H  H49  1  0.37027020  0.72308673  0.30271839  1
  H  H50  1  0.87027020  0.22308673  0.19728161  1
  H  H51  1  0.77691327  0.12972980  0.80271839  1
  H  H52  1  0.72308673  0.37027020  0.30271839  1
  H  H53  1  0.62972980  0.27691327  0.69728161  1
  H  H54  1  0.12972980  0.77691327  0.80271839  1
  H  H55  1  0.22308673  0.87027020  0.19728161  1
  H  H56  1  0.03222004  0.78846594  0.37161128  1
  H  H57  1  0.21153406  0.96777996  0.62838872  1
  H  H58  1  0.71153406  0.46777996  0.87161128  1
  H  H59  1  0.53222004  0.28846594  0.12838872  1
  H  H60  1  0.96777996  0.21153406  0.62838872  1
  H  H61  1  0.78846594  0.03222004  0.37161128  1
  H  H62  1  0.28846594  0.53222004  0.12838872  1
  H  H63  1  0.46777996  0.71153406  0.87161128  1
  H  H64  1  0.11967999  0.92453401  0.40792888  1
  H  H65  1  0.07546599  0.88032001  0.59207112  1
  H  H66  1  0.57546599  0.38032001  0.90792888  1
  H  H67  1  0.61967999  0.42453401  0.09207112  1
  H  H68  1  0.88032001  0.07546599  0.59207112  1
  H  H69  1  0.92453401  0.11967999  0.40792888  1
  H  H70  1  0.42453401  0.61967999  0.09207112  1
  H  H71  1  0.38032001  0.57546599  0.90792888  1
  Br  Br72  1  0.60366180  0.86828743  0.27904505  1
  Br  Br73  1  0.13171257  0.39633820  0.72095495  1
  Br  Br74  1  0.63171257  0.89633820  0.77904505  1
  Br  Br75  1  0.10366180  0.36828743  0.22095495  1
  Br  Br76  1  0.39633820  0.13171257  0.72095495  1
  Br  Br77  1  0.86828743  0.60366180  0.27904505  1
  Br  Br78  1  0.36828743  0.10366180  0.22095495  1
  Br  Br79  1  0.89633820  0.63171257  0.77904505  1
  Br  Br80  1  0.96260956  0.96260956  0.15287281  1
  Br  Br81  1  0.03739044  0.03739044  0.84712719  1
  Br  Br82  1  0.53739044  0.53739044  0.65287281  1
  Br  Br83  1  0.46260956  0.46260956  0.34712719  1
  Br  Br84  1  0.63685737  0.63685737  0.04210015  1
  Br  Br85  1  0.36314263  0.36314263  0.95789985  1
  Br  Br86  1  0.86314263  0.86314263  0.54210015  1
  Br  Br87  1  0.13685737  0.13685737  0.45789985  1
  O  O88  1  0.03120175  0.62130593  0.55470288  1
  O  O89  1  0.37869407  0.96879825  0.44529712  1
  O  O90  1  0.87869407  0.46879825  0.05470288  1
  O  O91  1  0.53120175  0.12130593  0.94529712  1
  O  O92  1  0.96879825  0.37869407  0.44529712  1
  O  O93  1  0.62130593  0.03120175  0.55470288  1
  O  O94  1  0.12130593  0.53120175  0.94529712  1
  O  O95  1  0.46879825  0.87869407  0.05470288  1
  O  O96  1  0.23065048  0.51394139  0.49886019  1
  O  O97  1  0.48605861  0.76934952  0.50113981  1
  O  O98  1  0.98605861  0.26934952  -0.00113981  1
  O  O99  1  0.73065048  0.01394139  0.00113981  1
  O  O100  1  0.76934952  0.48605861  0.50113981  1
  O  O101  1  0.51394139  0.23065048  0.49886019  1
  O  O102  1  0.01394139  0.73065048  0.00113981  1
  O  O103  1  0.26934952  0.98605861  -0.00113981  1
  O  O104  1  0.21018325  0.81543153  0.83829796  1
  O  O105  1  0.18456847  0.78981675  0.16170204  1
  O  O106  1  0.68456847  0.28981675  0.33829796  1
  O  O107  1  0.71018325  0.31543153  0.66170204  1
  O  O108  1  0.78981675  0.18456847  0.16170204  1
  O  O109  1  0.81543153  0.21018325  0.83829796  1
  O  O110  1  0.31543153  0.71018325  0.66170204  1
  O  O111  1  0.28981675  0.68456847  0.33829796  1
  O  O112  1  0.12061471  0.83949200  0.38892658  1
  O  O113  1  0.16050800  0.87938529  0.61107342  1
  O  O114  1  0.66050800  0.37938529  0.88892658  1
  O  O115  1  0.62061471  0.33949200  0.11107342  1
  O  O116  1  0.87938529  0.16050800  0.61107342  1
  O  O117  1  0.83949200  0.12061471  0.38892658  1
  O  O118  1  0.33949200  0.62061471  0.11107342  1
  O  O119  1  0.37938529  0.66050800  0.88892658  1
