# generated using pymatgen
data_USnI6
_symmetry_space_group_name_H-M   'P 1'
_cell_length_a   7.68219543
_cell_length_b   7.68219543
_cell_length_c   14.22158848
_cell_angle_alpha   90.00000000
_cell_angle_beta   90.00000000
_cell_angle_gamma   120.00000335
_symmetry_Int_Tables_number   1
_chemical_formula_structural   USnI6
_chemical_formula_sum   'U2 Sn2 I12'
_cell_volume   726.85775230
_cell_formula_units_Z   2
loop_
 _symmetry_equiv_pos_site_id
 _symmetry_equiv_pos_as_xyz
  1  'x, y, z'
loop_
 _atom_site_type_symbol
 _atom_site_label
 _atom_site_symmetry_multiplicity
 _atom_site_fract_x
 _atom_site_fract_y
 _atom_site_fract_z
 _atom_site_occupancy
  U  U0  1  -0.00000000  0.00000000  0.00000000  1
  U  U1  1  -0.00000000  0.00000000  0.50000000  1
  Sn  Sn2  1  0.66666700  0.33333300  0.75000000  1
  Sn  Sn3  1  0.33333300  0.66666700  0.25000000  1
  I  I4  1  0.00844750  0.32605133  0.87787647  1
  I  I5  1  0.99155250  0.67394867  0.12212353  1
  I  I6  1  0.31760383  0.99155250  0.87787647  1
  I  I7  1  0.31760383  0.32605133  0.62212353  1
  I  I8  1  0.68239617  0.00844750  0.12212353  1
  I  I9  1  0.68239617  0.67394867  0.37787647  1
  I  I10  1  0.67394867  0.68239617  0.87787647  1
  I  I11  1  0.67394867  0.99155250  0.62212353  1
  I  I12  1  0.32605133  0.31760383  0.12212353  1
  I  I13  1  0.32605133  0.00844750  0.37787647  1
  I  I14  1  0.00844750  0.68239617  0.62212353  1
  I  I15  1  0.99155250  0.31760383  0.37787647  1
