# generated using pymatgen
data_Yb2Nd3(GaO4)3
_symmetry_space_group_name_H-M   'P 1'
_cell_length_a   11.29082111
_cell_length_b   11.29082111
_cell_length_c   11.29082111
_cell_angle_alpha   109.47122063
_cell_angle_beta   109.47122063
_cell_angle_gamma   109.47122063
_symmetry_Int_Tables_number   1
_chemical_formula_structural   Yb2Nd3(GaO4)3
_chemical_formula_sum   'Yb8 Nd12 Ga12 O48'
_cell_volume   1108.03808874
_cell_formula_units_Z   4
loop_
 _symmetry_equiv_pos_site_id
 _symmetry_equiv_pos_as_xyz
  1  'x, y, z'
loop_
 _atom_site_type_symbol
 _atom_site_label
 _atom_site_symmetry_multiplicity
 _atom_site_fract_x
 _atom_site_fract_y
 _atom_site_fract_z
 _atom_site_occupancy
  Yb  Yb0  1  0.00000000  0.00000000  0.00000000  1
  Yb  Yb1  1  0.50000000  0.00000000  0.50000000  1
  Yb  Yb2  1  0.50000000  0.50000000  0.00000000  1
  Yb  Yb3  1  0.00000000  0.00000000  0.50000000  1
  Yb  Yb4  1  0.00000000  0.50000000  0.50000000  1
  Yb  Yb5  1  0.50000000  0.50000000  0.50000000  1
  Yb  Yb6  1  0.50000000  0.00000000  0.00000000  1
  Yb  Yb7  1  0.00000000  0.50000000  0.00000000  1
  Nd  Nd8  1  0.87500000  0.62500000  0.75000000  1
  Nd  Nd9  1  0.12500000  0.37500000  0.25000000  1
  Nd  Nd10  1  0.62500000  0.87500000  0.25000000  1
  Nd  Nd11  1  0.62500000  0.75000000  0.87500000  1
  Nd  Nd12  1  0.87500000  0.25000000  0.62500000  1
  Nd  Nd13  1  0.37500000  0.12500000  0.75000000  1
  Nd  Nd14  1  0.37500000  0.25000000  0.12500000  1
  Nd  Nd15  1  0.12500000  0.75000000  0.37500000  1
  Nd  Nd16  1  0.75000000  0.87500000  0.62500000  1
  Nd  Nd17  1  0.25000000  0.12500000  0.37500000  1
  Nd  Nd18  1  0.25000000  0.62500000  0.87500000  1
  Nd  Nd19  1  0.75000000  0.37500000  0.12500000  1
  Ga  Ga20  1  0.62500000  0.37500000  0.75000000  1
  Ga  Ga21  1  0.37500000  0.62500000  0.25000000  1
  Ga  Ga22  1  0.87500000  0.12500000  0.25000000  1
  Ga  Ga23  1  0.37500000  0.75000000  0.62500000  1
  Ga  Ga24  1  0.62500000  0.25000000  0.37500000  1
  Ga  Ga25  1  0.12500000  0.87500000  0.75000000  1
  Ga  Ga26  1  0.12500000  0.25000000  0.87500000  1
  Ga  Ga27  1  0.87500000  0.75000000  0.12500000  1
  Ga  Ga28  1  0.75000000  0.62500000  0.37500000  1
  Ga  Ga29  1  0.25000000  0.37500000  0.62500000  1
  Ga  Ga30  1  0.25000000  0.87500000  0.12500000  1
  Ga  Ga31  1  0.75000000  0.12500000  0.87500000  1
  O  O32  1  0.72271874  0.62982511  0.53167273  1
  O  O33  1  0.27728126  0.37017489  0.46832727  1
  O  O34  1  0.77728126  0.80895399  0.40710637  1
  O  O35  1  0.40184762  0.87017489  0.09289363  1
  O  O36  1  0.62982511  0.53167273  0.72271874  1
  O  O37  1  0.72271874  0.09289363  0.69104601  1
  O  O38  1  0.22271874  0.19104601  0.59289363  1
  O  O39  1  0.59815238  0.12982511  0.90710637  1
  O  O40  1  0.37017489  0.46832727  0.27728126  1
  O  O41  1  0.27728126  0.90710637  0.30895399  1
  O  O42  1  0.09815238  0.69104601  0.96832727  1
  O  O43  1  0.80895399  0.40710637  0.77728126  1
  O  O44  1  0.77728126  0.96832727  0.87017489  1
  O  O45  1  0.90184762  0.30895399  0.03167273  1
  O  O46  1  0.19104601  0.59289363  0.22271874  1
  O  O47  1  0.22271874  0.03167273  0.12982511  1
  O  O48  1  0.87017489  0.09289363  0.40184762  1
  O  O49  1  0.40184762  0.53167273  0.80895399  1
  O  O50  1  0.12982511  0.90710637  0.59815238  1
  O  O51  1  0.59815238  0.46832727  0.19104601  1
  O  O52  1  0.69104601  0.96832727  0.09815238  1
  O  O53  1  0.09815238  0.40710637  0.62982511  1
  O  O54  1  0.30895399  0.03167273  0.90184762  1
  O  O55  1  0.90184762  0.59289363  0.37017489  1
  O  O56  1  0.53167273  0.72271874  0.62982511  1
  O  O57  1  0.62982511  0.09815238  0.40710637  1
  O  O58  1  0.46832727  0.27728126  0.37017489  1
  O  O59  1  0.37017489  0.90184762  0.59289363  1
  O  O60  1  0.09289363  0.40184762  0.87017489  1
  O  O61  1  0.87017489  0.77728126  0.96832727  1
  O  O62  1  0.90710637  0.59815238  0.12982511  1
  O  O63  1  0.12982511  0.22271874  0.03167273  1
  O  O64  1  0.96832727  0.09815238  0.69104601  1
  O  O65  1  0.69104601  0.72271874  0.09289363  1
  O  O66  1  0.03167273  0.90184762  0.30895399  1
  O  O67  1  0.30895399  0.27728126  0.90710637  1
  O  O68  1  0.40710637  0.77728126  0.80895399  1
  O  O69  1  0.80895399  0.40184762  0.53167273  1
  O  O70  1  0.59289363  0.22271874  0.19104601  1
  O  O71  1  0.19104601  0.59815238  0.46832727  1
  O  O72  1  0.09289363  0.69104601  0.72271874  1
  O  O73  1  0.90710637  0.30895399  0.27728126  1
  O  O74  1  0.96832727  0.87017489  0.77728126  1
  O  O75  1  0.03167273  0.12982511  0.22271874  1
  O  O76  1  0.40710637  0.62982511  0.09815238  1
  O  O77  1  0.59289363  0.37017489  0.90184762  1
  O  O78  1  0.53167273  0.80895399  0.40184762  1
  O  O79  1  0.46832727  0.19104601  0.59815238  1
