# generated using pymatgen
data_Zn3SbAs2Pb3O14
_symmetry_space_group_name_H-M   'P 1'
_cell_length_a   5.38009031
_cell_length_b   8.67683723
_cell_length_c   8.67683723
_cell_angle_alpha   119.99999932
_cell_angle_beta   90.00000000
_cell_angle_gamma   90.00000000
_symmetry_Int_Tables_number   1
_chemical_formula_structural   Zn3SbAs2Pb3O14
_chemical_formula_sum   'Zn3 Sb1 As2 Pb3 O14'
_cell_volume   350.78668606
_cell_formula_units_Z   1
loop_
 _symmetry_equiv_pos_site_id
 _symmetry_equiv_pos_as_xyz
  1  'x, y, z'
loop_
 _atom_site_type_symbol
 _atom_site_label
 _atom_site_symmetry_multiplicity
 _atom_site_fract_x
 _atom_site_fract_y
 _atom_site_fract_z
 _atom_site_occupancy
  Zn  Zn0  1  0.50000000  0.76280806  0.76280806  1
  Zn  Zn1  1  0.50000000  0.00000000  0.23719194  1
  Zn  Zn2  1  0.50000000  0.23719194  0.00000000  1
  Sb  Sb3  1  0.00000000  0.00000000  0.00000000  1
  As  As4  1  0.46222985  0.66666700  0.33333300  1
  As  As5  1  0.53777015  0.33333300  0.66666700  1
  Pb  Pb6  1  -0.00000000  0.39532482  0.39532482  1
  Pb  Pb7  1  -0.00000000  1.00000000  0.60467518  1
  Pb  Pb8  1  -0.00000000  0.60467518  1.00000000  1
  O  O9  1  0.78566630  0.87495391  0.09240951  1
  O  O10  1  0.78566630  0.21745559  0.12504609  1
  O  O11  1  0.21433370  0.78254441  0.90759049  1
  O  O12  1  0.78566630  0.90759049  0.78254441  1
  O  O13  1  0.21433370  0.09240951  0.87495391  1
  O  O14  1  0.21433370  0.12504609  0.21745559  1
  O  O15  1  0.66710504  0.54139021  0.73756922  1
  O  O16  1  0.66710504  0.19617901  0.45860979  1
  O  O17  1  0.33289496  0.80382099  0.26243078  1
  O  O18  1  0.66710504  0.26243078  0.80382099  1
  O  O19  1  0.33289496  0.73756922  0.54139021  1
  O  O20  1  0.33289496  0.45860979  0.19617901  1
  O  O21  1  0.78079949  0.66666700  0.33333300  1
  O  O22  1  0.21920051  0.33333300  0.66666700  1
