# generated using pymatgen
data_Sr2YbCu2(BiO4)2
_symmetry_space_group_name_H-M   'P 1'
_cell_length_a   5.23770109
_cell_length_b   5.45873015
_cell_length_c   15.86634882
_cell_angle_alpha   99.90541647
_cell_angle_beta   90.00000000
_cell_angle_gamma   90.00000000
_symmetry_Int_Tables_number   1
_chemical_formula_structural   Sr2YbCu2(BiO4)2
_chemical_formula_sum   'Sr4 Yb2 Cu4 Bi4 O16'
_cell_volume   446.87555337
_cell_formula_units_Z   2
loop_
 _symmetry_equiv_pos_site_id
 _symmetry_equiv_pos_as_xyz
  1  'x, y, z'
loop_
 _atom_site_type_symbol
 _atom_site_label
 _atom_site_symmetry_multiplicity
 _atom_site_fract_x
 _atom_site_fract_y
 _atom_site_fract_z
 _atom_site_occupancy
  Sr  Sr0  1  0.00000000  0.89320942  0.28622682  1
  Sr  Sr1  1  0.00000000  0.10679058  0.71377318  1
  Sr  Sr2  1  0.50000000  0.39301740  0.28622682  1
  Sr  Sr3  1  0.50000000  0.60698260  0.71377318  1
  Yb  Yb4  1  0.00000000  0.00000000  0.50000000  1
  Yb  Yb5  1  0.50000000  0.50000000  0.50000000  1
  Cu  Cu6  1  0.00000000  0.45444771  0.40863943  1
  Cu  Cu7  1  0.00000000  0.54555229  0.59136057  1
  Cu  Cu8  1  0.50000000  0.95419173  0.40863943  1
  Cu  Cu9  1  0.50000000  0.04580827  0.59136057  1
  Bi  Bi10  1  0.00000000  0.27743485  0.09961372  1
  Bi  Bi11  1  0.00000000  0.72256515  0.90038628  1
  Bi  Bi12  1  0.50000000  0.82217887  0.09961372  1
  Bi  Bi13  1  0.50000000  0.17782113  0.90038628  1
  O  O14  1  0.00000000  0.37323236  0.23123541  1
  O  O15  1  0.00000000  0.62676764  0.76876459  1
  O  O16  1  0.50000000  0.85800305  0.23123541  1
  O  O17  1  0.50000000  0.14199695  0.76876459  1
  O  O18  1  0.25000000  0.29947089  0.59894178  1
  O  O19  1  0.75000000  0.70052911  0.40105822  1
  O  O20  1  0.25000000  0.70052911  0.40105822  1
  O  O21  1  0.75000000  0.29947089  0.59894178  1
  O  O22  1  0.00000000  0.88280269  0.10012269  1
  O  O23  1  0.00000000  0.11719731  0.89987731  1
  O  O24  1  0.50000000  0.21732001  0.10012269  1
  O  O25  1  0.50000000  0.78267999  0.89987731  1
  O  O26  1  0.25000000  0.20035642  0.40071284  1
  O  O27  1  0.75000000  0.79964358  0.59928716  1
  O  O28  1  0.25000000  0.79964358  0.59928716  1
  O  O29  1  0.75000000  0.20035642  0.40071284  1
