# generated using pymatgen
data_SrLiPO4
_symmetry_space_group_name_H-M   'P 1'
_cell_length_a   5.08372548
_cell_length_b   5.08372549
_cell_length_c   8.44133004
_cell_angle_alpha   90.00000000
_cell_angle_beta   90.00000000
_cell_angle_gamma   119.99999252
_symmetry_Int_Tables_number   1
_chemical_formula_structural   SrLiPO4
_chemical_formula_sum   'Sr2 Li2 P2 O8'
_cell_volume   188.93208939
_cell_formula_units_Z   2
loop_
 _symmetry_equiv_pos_site_id
 _symmetry_equiv_pos_as_xyz
  1  'x, y, z'
loop_
 _atom_site_type_symbol
 _atom_site_label
 _atom_site_symmetry_multiplicity
 _atom_site_fract_x
 _atom_site_fract_y
 _atom_site_fract_z
 _atom_site_occupancy
  Sr  Sr0  1  0.00000000  -0.00000000  0.98310895  1
  Sr  Sr1  1  0.00000000  -0.00000000  0.48310895  1
  Li  Li2  1  0.66666700  0.33333300  0.17480124  1
  Li  Li3  1  0.33333300  0.66666700  0.67480124  1
  P  P4  1  0.66666700  0.33333300  0.77122243  1
  P  P5  1  0.33333300  0.66666700  0.27122243  1
  O  O6  1  0.66666700  0.33333300  0.95469897  1
  O  O7  1  0.33333300  0.66666700  0.45469897  1
  O  O8  1  0.94099402  0.30321682  0.71493947  1
  O  O9  1  0.36222280  0.05900598  0.71493947  1
  O  O10  1  0.05900598  0.69678318  0.21493947  1
  O  O11  1  0.69678318  0.63777720  0.71493947  1
  O  O12  1  0.63777720  0.94099402  0.21493947  1
  O  O13  1  0.30321682  0.36222280  0.21493947  1
