# generated using pymatgen
data_Tm3CrS6
_symmetry_space_group_name_H-M   'P 1'
_cell_length_a   3.72879191
_cell_length_b   13.13474165
_cell_length_c   15.83042241
_cell_angle_alpha   90.00000000
_cell_angle_beta   90.00000000
_cell_angle_gamma   90.00000000
_symmetry_Int_Tables_number   1
_chemical_formula_structural   Tm3CrS6
_chemical_formula_sum   'Tm12 Cr4 S24'
_cell_volume   775.32214060
_cell_formula_units_Z   4
loop_
 _symmetry_equiv_pos_site_id
 _symmetry_equiv_pos_as_xyz
  1  'x, y, z'
loop_
 _atom_site_type_symbol
 _atom_site_label
 _atom_site_symmetry_multiplicity
 _atom_site_fract_x
 _atom_site_fract_y
 _atom_site_fract_z
 _atom_site_occupancy
  Tm  Tm0  1  0.00000000  0.54974793  0.27926009  1
  Tm  Tm1  1  -0.00000000  0.45025207  0.72073991  1
  Tm  Tm2  1  0.50000000  0.95025207  0.77926009  1
  Tm  Tm3  1  0.50000000  0.04974793  0.22073991  1
  Tm  Tm4  1  -0.00000000  0.75543988  0.09830778  1
  Tm  Tm5  1  0.00000000  0.24456012  0.90169222  1
  Tm  Tm6  1  0.50000000  0.74456012  0.59830778  1
  Tm  Tm7  1  0.50000000  0.25543988  0.40169222  1
  Tm  Tm8  1  0.00000000  0.31915504  0.14798692  1
  Tm  Tm9  1  -0.00000000  0.68084496  0.85201308  1
  Tm  Tm10  1  0.50000000  0.18084496  0.64798692  1
  Tm  Tm11  1  0.50000000  0.81915504  0.35201308  1
  Cr  Cr12  1  -0.00000000  0.00000000  0.50000000  1
  Cr  Cr13  1  0.50000000  0.50000000  0.00000000  1
  Cr  Cr14  1  0.00000000  0.00000000  0.00000000  1
  Cr  Cr15  1  0.50000000  0.50000000  0.50000000  1
  S  S16  1  0.00000000  0.12003835  0.10951656  1
  S  S17  1  -0.00000000  0.87996165  0.89048344  1
  S  S18  1  0.50000000  0.37996165  0.60951656  1
  S  S19  1  0.50000000  0.62003835  0.39048344  1
  S  S20  1  0.00000000  0.18856649  0.28985256  1
  S  S21  1  -0.00000000  0.81143351  0.71014744  1
  S  S22  1  0.50000000  0.31143351  0.78985256  1
  S  S23  1  0.50000000  0.68856649  0.21014744  1
  S  S24  1  0.00000000  0.18159360  0.52097211  1
  S  S25  1  -0.00000000  0.81840640  0.47902789  1
  S  S26  1  0.50000000  0.31840640  0.02097211  1
  S  S27  1  0.50000000  0.68159360  0.97902789  1
  S  S28  1  0.00000000  0.52315277  0.09782737  1
  S  S29  1  -0.00000000  0.47684723  0.90217263  1
  S  S30  1  0.50000000  0.97684723  0.59782737  1
  S  S31  1  0.50000000  0.02315277  0.40217263  1
  S  S32  1  0.00000000  0.10425130  0.75395551  1
  S  S33  1  -0.00000000  0.89574870  0.24604449  1
  S  S34  1  0.50000000  0.39574870  0.25395551  1
  S  S35  1  0.50000000  0.60425130  0.74604449  1
  S  S36  1  0.00000000  0.41704654  0.42385789  1
  S  S37  1  -0.00000000  0.58295346  0.57614211  1
  S  S38  1  0.50000000  0.08295346  0.92385789  1
  S  S39  1  0.50000000  0.91704654  0.07614211  1
