# generated using pymatgen
data_Y3Co6Sn5
_symmetry_space_group_name_H-M   'P 1'
_cell_length_a   4.31060847
_cell_length_b   8.12859535
_cell_length_c   8.12859535
_cell_angle_alpha   73.03955092
_cell_angle_beta   74.62407790
_cell_angle_gamma   74.62407790
_symmetry_Int_Tables_number   1
_chemical_formula_structural   Y3Co6Sn5
_chemical_formula_sum   'Y3 Co6 Sn5'
_cell_volume   257.17661936
_cell_formula_units_Z   1
loop_
 _symmetry_equiv_pos_site_id
 _symmetry_equiv_pos_as_xyz
  1  'x, y, z'
loop_
 _atom_site_type_symbol
 _atom_site_label
 _atom_site_symmetry_multiplicity
 _atom_site_fract_x
 _atom_site_fract_y
 _atom_site_fract_z
 _atom_site_occupancy
  Y  Y0  1  -0.00000000  0.00000000  0.00000000  1
  Y  Y1  1  0.68334770  0.31665230  0.31665230  1
  Y  Y2  1  0.31665230  0.68334770  0.68334770  1
  Co  Co3  1  0.50000000  0.30255304  0.69744696  1
  Co  Co4  1  0.50000000  0.69744696  0.30255304  1
  Co  Co5  1  0.89266183  0.83338434  0.38129201  1
  Co  Co6  1  0.10733817  0.16661566  0.61870799  1
  Co  Co7  1  0.89266183  0.38129201  0.83338434  1
  Co  Co8  1  0.10733817  0.61870799  0.16661566  1
  Sn  Sn9  1  0.67660479  0.98227565  0.66451478  1
  Sn  Sn10  1  0.32339521  0.01772435  0.33548522  1
  Sn  Sn11  1  0.67660479  0.66451478  0.98227565  1
  Sn  Sn12  1  0.32339521  0.33548522  0.01772435  1
  Sn  Sn13  1  -0.00000000  0.50000000  0.50000000  1
