# generated using pymatgen
data_UTeSe
_symmetry_space_group_name_H-M   'P 1'
_cell_length_a   3.95886248
_cell_length_b   7.35074620
_cell_length_c   11.38305901
_cell_angle_alpha   90.00000000
_cell_angle_beta   90.00000000
_cell_angle_gamma   90.00000000
_symmetry_Int_Tables_number   1
_chemical_formula_structural   UTeSe
_chemical_formula_sum   'U4 Te4 Se4'
_cell_volume   331.25377111
_cell_formula_units_Z   4
loop_
 _symmetry_equiv_pos_site_id
 _symmetry_equiv_pos_as_xyz
  1  'x, y, z'
loop_
 _atom_site_type_symbol
 _atom_site_label
 _atom_site_symmetry_multiplicity
 _atom_site_fract_x
 _atom_site_fract_y
 _atom_site_fract_z
 _atom_site_occupancy
  U  U0  1  0.75000000  0.66619504  0.66634844  1
  U  U1  1  0.25000000  0.33380496  0.33365156  1
  U  U2  1  0.25000000  0.83380496  0.16634844  1
  U  U3  1  0.75000000  0.16619504  0.83365156  1
  Te  Te4  1  0.75000000  0.77723316  0.95912491  1
  Te  Te5  1  0.25000000  0.22276684  0.04087509  1
  Te  Te6  1  0.25000000  0.72276684  0.45912491  1
  Te  Te7  1  0.75000000  0.27723316  0.54087509  1
  Se  Se8  1  0.75000000  0.05402892  0.27499676  1
  Se  Se9  1  0.25000000  0.94597108  0.72500324  1
  Se  Se10  1  0.25000000  0.44597108  0.77499676  1
  Se  Se11  1  0.75000000  0.55402892  0.22500324  1
