# generated using pymatgen
data_RbY(MoO4)2
_symmetry_space_group_name_H-M   'P 1'
_cell_length_a   7.55870817
_cell_length_b   7.55870817
_cell_length_c   7.78043368
_cell_angle_alpha   61.86549423
_cell_angle_beta   61.86549423
_cell_angle_gamma   88.34293525
_symmetry_Int_Tables_number   1
_chemical_formula_structural   RbY(MoO4)2
_chemical_formula_sum   'Rb2 Y2 Mo4 O16'
_cell_volume   334.82058235
_cell_formula_units_Z   2
loop_
 _symmetry_equiv_pos_site_id
 _symmetry_equiv_pos_as_xyz
  1  'x, y, z'
loop_
 _atom_site_type_symbol
 _atom_site_label
 _atom_site_symmetry_multiplicity
 _atom_site_fract_x
 _atom_site_fract_y
 _atom_site_fract_z
 _atom_site_occupancy
  Rb  Rb0  1  0.80131922  0.19868078  0.75000000  1
  Rb  Rb1  1  0.19868078  0.80131922  0.25000000  1
  Y  Y2  1  0.22924943  0.77075057  0.75000000  1
  Y  Y3  1  0.77075057  0.22924943  0.25000000  1
  Mo  Mo4  1  0.30483332  0.30373667  0.73708790  1
  Mo  Mo5  1  0.69516668  0.69626333  0.26291210  1
  Mo  Mo6  1  0.69626333  0.69516668  0.76291210  1
  Mo  Mo7  1  0.30373667  0.30483332  0.23708790  1
  O  O8  1  0.38458830  0.23504637  0.93780352  1
  O  O9  1  0.61541170  0.76495363  0.06219648  1
  O  O10  1  0.76495363  0.61541170  0.56219648  1
  O  O11  1  0.23504637  0.38458830  0.43780352  1
  O  O12  1  0.61717153  0.93141900  0.62496440  1
  O  O13  1  0.38282847  0.06858100  0.37503560  1
  O  O14  1  0.06858100  0.38282847  0.87503560  1
  O  O15  1  0.93141900  0.61717153  0.12496440  1
  O  O16  1  0.41519189  0.63218683  0.53015616  1
  O  O17  1  0.58480811  0.36781317  0.46984384  1
  O  O18  1  0.36781317  0.58480811  0.96984384  1
  O  O19  1  0.63218683  0.41519189  0.03015616  1
  O  O20  1  0.20790078  0.04866657  0.80705759  1
  O  O21  1  0.79209922  0.95133343  0.19294241  1
  O  O22  1  0.95133343  0.79209922  0.69294241  1
  O  O23  1  0.04866657  0.20790078  0.30705759  1
