# generated using pymatgen
data_Nd9(Ni13P6)2
_symmetry_space_group_name_H-M   'P 1'
_cell_length_a   3.86875136
_cell_length_b   14.38091193
_cell_length_c   14.38091193
_cell_angle_alpha   120.00000346
_cell_angle_beta   90.00000000
_cell_angle_gamma   90.00000000
_symmetry_Int_Tables_number   1
_chemical_formula_structural   Nd9(Ni13P6)2
_chemical_formula_sum   'Nd9 Ni26 P12'
_cell_volume   692.90594734
_cell_formula_units_Z   1
loop_
 _symmetry_equiv_pos_site_id
 _symmetry_equiv_pos_as_xyz
  1  'x, y, z'
loop_
 _atom_site_type_symbol
 _atom_site_label
 _atom_site_symmetry_multiplicity
 _atom_site_fract_x
 _atom_site_fract_y
 _atom_site_fract_z
 _atom_site_occupancy
  Nd  Nd0  1  0.50000000  0.80906377  0.61812754  1
  Nd  Nd1  1  0.50000000  0.80906377  0.19093623  1
  Nd  Nd2  1  0.50000000  0.38187246  0.19093623  1
  Nd  Nd3  1  0.50000000  0.09251857  0.18503715  1
  Nd  Nd4  1  0.50000000  0.09251857  0.90748143  1
  Nd  Nd5  1  0.50000000  0.81496285  0.90748143  1
  Nd  Nd6  1  -0.00000000  0.42434329  0.84868658  1
  Nd  Nd7  1  0.00000000  0.42434329  0.57565671  1
  Nd  Nd8  1  0.00000000  0.15131342  0.57565671  1
  Ni  Ni9  1  0.00000000  0.19105028  0.38210057  1
  Ni  Ni10  1  0.00000000  0.19105028  0.80894972  1
  Ni  Ni11  1  -0.00000000  0.61789943  0.80894972  1
  Ni  Ni12  1  0.50000000  0.59960167  0.19920333  1
  Ni  Ni13  1  0.50000000  0.59960167  0.40039833  1
  Ni  Ni14  1  0.50000000  0.80079667  0.40039833  1
  Ni  Ni15  1  -0.00000000  0.72197807  0.44395614  1
  Ni  Ni16  1  0.00000000  0.72197807  0.27802193  1
  Ni  Ni17  1  0.00000000  0.55604386  0.27802193  1
  Ni  Ni18  1  0.00000000  0.90229466  0.80458932  1
  Ni  Ni19  1  0.00000000  0.90229466  0.09770534  1
  Ni  Ni20  1  -0.00000000  0.19541068  0.09770534  1
  Ni  Ni21  1  0.50000000  0.62024962  0.67260169  1
  Ni  Ni22  1  0.50000000  0.05235207  0.37975038  1
  Ni  Ni23  1  0.50000000  0.05235207  0.67260169  1
  Ni  Ni24  1  0.50000000  0.32739831  0.94764793  1
  Ni  Ni25  1  0.50000000  0.32739831  0.37975038  1
  Ni  Ni26  1  0.50000000  0.62024962  0.94764793  1
  Ni  Ni27  1  0.00000000  0.92344539  0.37804779  1
  Ni  Ni28  1  0.00000000  0.45460240  0.07655461  1
  Ni  Ni29  1  0.00000000  0.45460240  0.37804779  1
  Ni  Ni30  1  -0.00000000  0.62195221  0.54539760  1
  Ni  Ni31  1  -0.00000000  0.62195221  0.07655461  1
  Ni  Ni32  1  -0.00000000  0.92344539  0.54539760  1
  Ni  Ni33  1  0.50000000  0.33333300  0.66666700  1
  Ni  Ni34  1  0.00000000  -0.00000000  0.00000000  1
  P  P35  1  0.50000000  0.51366783  0.02733565  1
  P  P36  1  0.50000000  0.51366783  0.48633217  1
  P  P37  1  0.50000000  0.97266435  0.48633217  1
  P  P38  1  -0.00000000  0.00380177  0.27914336  1
  P  P39  1  -0.00000000  0.27534159  0.99619823  1
  P  P40  1  -0.00000000  0.27534159  0.27914336  1
  P  P41  1  0.00000000  0.72085664  0.72465841  1
  P  P42  1  0.00000000  0.72085664  0.99619823  1
  P  P43  1  0.00000000  0.00380177  0.72465841  1
  P  P44  1  0.50000000  0.24101640  0.48203280  1
  P  P45  1  0.50000000  0.24101640  0.75898360  1
  P  P46  1  0.50000000  0.51796720  0.75898360  1
