# generated using pymatgen
data_NdLuO3
_symmetry_space_group_name_H-M   'P 1'
_cell_length_a   5.73166148
_cell_length_b   5.97958114
_cell_length_c   8.32714280
_cell_angle_alpha   90.00000000
_cell_angle_beta   90.00000000
_cell_angle_gamma   90.00000000
_symmetry_Int_Tables_number   1
_chemical_formula_structural   NdLuO3
_chemical_formula_sum   'Nd4 Lu4 O12'
_cell_volume   285.39562298
_cell_formula_units_Z   4
loop_
 _symmetry_equiv_pos_site_id
 _symmetry_equiv_pos_as_xyz
  1  'x, y, z'
loop_
 _atom_site_type_symbol
 _atom_site_label
 _atom_site_symmetry_multiplicity
 _atom_site_fract_x
 _atom_site_fract_y
 _atom_site_fract_z
 _atom_site_occupancy
  Nd  Nd0  1  0.01447276  0.44544991  0.25000000  1
  Nd  Nd1  1  0.98552724  0.55455009  0.75000000  1
  Nd  Nd2  1  0.51447276  0.05455009  0.75000000  1
  Nd  Nd3  1  0.48552724  0.94544991  0.25000000  1
  Lu  Lu4  1  -0.00000000  0.00000000  -0.00000000  1
  Lu  Lu5  1  0.50000000  0.50000000  -0.00000000  1
  Lu  Lu6  1  -0.00000000  0.00000000  0.50000000  1
  Lu  Lu7  1  0.50000000  0.50000000  0.50000000  1
  O  O8  1  0.31121931  0.19107701  0.06499950  1
  O  O9  1  0.68878069  0.80892299  0.93500050  1
  O  O10  1  0.81121931  0.30892299  0.93500050  1
  O  O11  1  0.68878069  0.80892299  0.56499950  1
  O  O12  1  0.18878069  0.69107701  0.06499950  1
  O  O13  1  0.31121931  0.19107701  0.43500050  1
  O  O14  1  0.18878069  0.69107701  0.43500050  1
  O  O15  1  0.81121931  0.30892299  0.56499950  1
  O  O16  1  0.62396965  0.55409702  0.25000000  1
  O  O17  1  0.37603035  0.44590298  0.75000000  1
  O  O18  1  0.12396965  0.94590298  0.75000000  1
  O  O19  1  0.87603035  0.05409702  0.25000000  1
