# generated using pymatgen
data_Rh2WO6
_symmetry_space_group_name_H-M   'P 1'
_cell_length_a   4.62791341
_cell_length_b   4.62791341
_cell_length_c   9.47933767
_cell_angle_alpha   90.00000000
_cell_angle_beta   90.00000000
_cell_angle_gamma   90.00000000
_symmetry_Int_Tables_number   1
_chemical_formula_structural   Rh2WO6
_chemical_formula_sum   'Rh4 W2 O12'
_cell_volume   203.02449688
_cell_formula_units_Z   2
loop_
 _symmetry_equiv_pos_site_id
 _symmetry_equiv_pos_as_xyz
  1  'x, y, z'
loop_
 _atom_site_type_symbol
 _atom_site_label
 _atom_site_symmetry_multiplicity
 _atom_site_fract_x
 _atom_site_fract_y
 _atom_site_fract_z
 _atom_site_occupancy
  Rh  Rh0  1  0.00000000  -0.00000000  0.33194215  1
  Rh  Rh1  1  0.00000000  0.00000000  0.66805785  1
  Rh  Rh2  1  0.50000000  0.50000000  0.83194215  1
  Rh  Rh3  1  0.50000000  0.50000000  0.16805785  1
  W  W4  1  -0.00000000  0.00000000  -0.00000000  1
  W  W5  1  0.50000000  0.50000000  0.50000000  1
  O  O6  1  0.30255770  0.30255770  -0.00000000  1
  O  O7  1  0.69744230  0.69744230  -0.00000000  1
  O  O8  1  0.19744230  0.80255770  0.50000000  1
  O  O9  1  0.80255770  0.19744230  0.50000000  1
  O  O10  1  0.30573825  0.30573825  0.33508327  1
  O  O11  1  0.69426175  0.69426175  0.66491673  1
  O  O12  1  0.69426175  0.69426175  0.33508327  1
  O  O13  1  0.19426175  0.80573825  0.83508327  1
  O  O14  1  0.19426175  0.80573825  0.16491673  1
  O  O15  1  0.30573825  0.30573825  0.66491673  1
  O  O16  1  0.80573825  0.19426175  0.16491673  1
  O  O17  1  0.80573825  0.19426175  0.83508327  1
