# generated using pymatgen
data_RbNd(MoO4)2
_symmetry_space_group_name_H-M   'P 1'
_cell_length_a   7.67756718
_cell_length_b   7.67756718
_cell_length_c   7.90463322
_cell_angle_alpha   61.89230481
_cell_angle_beta   61.89230481
_cell_angle_gamma   88.86362784
_symmetry_Int_Tables_number   1
_chemical_formula_structural   RbNd(MoO4)2
_chemical_formula_sum   'Rb2 Nd2 Mo4 O16'
_cell_volume   350.06963904
_cell_formula_units_Z   2
loop_
 _symmetry_equiv_pos_site_id
 _symmetry_equiv_pos_as_xyz
  1  'x, y, z'
loop_
 _atom_site_type_symbol
 _atom_site_label
 _atom_site_symmetry_multiplicity
 _atom_site_fract_x
 _atom_site_fract_y
 _atom_site_fract_z
 _atom_site_occupancy
  Rb  Rb0  1  0.80052112  0.19947888  0.75000000  1
  Rb  Rb1  1  0.19947888  0.80052112  0.25000000  1
  Nd  Nd2  1  0.22987534  0.77012466  0.75000000  1
  Nd  Nd3  1  0.77012466  0.22987534  0.25000000  1
  Mo  Mo4  1  0.30706191  0.30452368  0.73779223  1
  Mo  Mo5  1  0.69293809  0.69547632  0.26220777  1
  Mo  Mo6  1  0.69547632  0.69293809  0.76220777  1
  Mo  Mo7  1  0.30452368  0.30706191  0.23779223  1
  O  O8  1  0.38375942  0.23632890  0.93648092  1
  O  O9  1  0.61624058  0.76367110  0.06351908  1
  O  O10  1  0.76367110  0.61624058  0.56351908  1
  O  O11  1  0.23632890  0.38375942  0.43648092  1
  O  O12  1  0.61532629  0.92577586  0.63151227  1
  O  O13  1  0.38467371  0.07422414  0.36848773  1
  O  O14  1  0.07422414  0.38467371  0.86848773  1
  O  O15  1  0.92577586  0.61532629  0.13151227  1
  O  O16  1  0.41897372  0.63067076  0.52538883  1
  O  O17  1  0.58102628  0.36932924  0.47461117  1
  O  O18  1  0.36932924  0.58102628  0.97461117  1
  O  O19  1  0.63067076  0.41897372  0.02538883  1
  O  O20  1  0.20692453  0.05397111  0.80851845  1
  O  O21  1  0.79307547  0.94602889  0.19148155  1
  O  O22  1  0.94602889  0.79307547  0.69148155  1
  O  O23  1  0.05397111  0.20692453  0.30851845  1
