# generated using pymatgen
data_PrFeSb3
_symmetry_space_group_name_H-M   'P 1'
_cell_length_a   6.29798178
_cell_length_b   12.83754338
_cell_length_c   18.32800364
_cell_angle_alpha   90.00000000
_cell_angle_beta   90.00000000
_cell_angle_gamma   90.00000000
_symmetry_Int_Tables_number   1
_chemical_formula_structural   PrFeSb3
_chemical_formula_sum   'Pr12 Fe12 Sb36'
_cell_volume   1481.83035332
_cell_formula_units_Z   12
loop_
 _symmetry_equiv_pos_site_id
 _symmetry_equiv_pos_as_xyz
  1  'x, y, z'
loop_
 _atom_site_type_symbol
 _atom_site_label
 _atom_site_symmetry_multiplicity
 _atom_site_fract_x
 _atom_site_fract_y
 _atom_site_fract_z
 _atom_site_occupancy
  Pr  Pr0  1  0.47510417  0.70293206  0.91719538  1
  Pr  Pr1  1  0.52489583  0.29706794  0.08280462  1
  Pr  Pr2  1  0.52489583  0.29706794  0.41719538  1
  Pr  Pr3  1  0.97510417  0.29706794  0.58280462  1
  Pr  Pr4  1  0.47510417  0.70293206  0.58280462  1
  Pr  Pr5  1  0.02489583  0.70293206  0.41719538  1
  Pr  Pr6  1  0.02489583  0.70293206  0.08280462  1
  Pr  Pr7  1  0.97510417  0.29706794  0.91719538  1
  Pr  Pr8  1  0.94271521  0.69424272  0.75000000  1
  Pr  Pr9  1  0.05728479  0.30575728  0.25000000  1
  Pr  Pr10  1  0.44271521  0.30575728  0.75000000  1
  Pr  Pr11  1  0.55728479  0.69424272  0.25000000  1
  Fe  Fe12  1  0.75000000  0.89627528  -0.00000000  1
  Fe  Fe13  1  0.25000000  0.10372472  -0.00000000  1
  Fe  Fe14  1  0.25000000  0.10372472  0.50000000  1
  Fe  Fe15  1  0.75000000  0.89627528  0.50000000  1
  Fe  Fe16  1  0.17159728  0.90011107  0.82059000  1
  Fe  Fe17  1  0.82840272  0.09988893  0.17941000  1
  Fe  Fe18  1  0.82840272  0.09988893  0.32059000  1
  Fe  Fe19  1  0.67159728  0.09988893  0.67941000  1
  Fe  Fe20  1  0.17159728  0.90011107  0.67941000  1
  Fe  Fe21  1  0.32840272  0.90011107  0.32059000  1
  Fe  Fe22  1  0.32840272  0.90011107  0.17941000  1
  Fe  Fe23  1  0.67159728  0.09988893  0.82059000  1
  Sb  Sb24  1  0.70600291  0.49676246  0.83426513  1
  Sb  Sb25  1  0.29399709  0.50323754  0.16573487  1
  Sb  Sb26  1  0.29399709  0.50323754  0.33426513  1
  Sb  Sb27  1  0.20600291  0.50323754  0.66573487  1
  Sb  Sb28  1  0.70600291  0.49676246  0.66573487  1
  Sb  Sb29  1  0.79399709  0.49676246  0.33426513  1
  Sb  Sb30  1  0.79399709  0.49676246  0.16573487  1
  Sb  Sb31  1  0.20600291  0.50323754  0.83426513  1
  Sb  Sb32  1  0.82024699  0.94105870  0.75000000  1
  Sb  Sb33  1  0.17975301  0.05894130  0.25000000  1
  Sb  Sb34  1  0.32024699  0.05894130  0.75000000  1
  Sb  Sb35  1  0.67975301  0.94105870  0.25000000  1
  Sb  Sb36  1  0.75000000  0.50368048  -0.00000000  1
  Sb  Sb37  1  0.25000000  0.49631952  -0.00000000  1
  Sb  Sb38  1  0.25000000  0.49631952  0.50000000  1
  Sb  Sb39  1  0.75000000  0.50368048  0.50000000  1
  Sb  Sb40  1  0.46000463  0.97081107  0.91393940  1
  Sb  Sb41  1  0.53999537  0.02918893  0.08606060  1
  Sb  Sb42  1  0.53999537  0.02918893  0.41393940  1
  Sb  Sb43  1  0.96000463  0.02918893  0.58606060  1
  Sb  Sb44  1  0.46000463  0.97081107  0.58606060  1
  Sb  Sb45  1  0.03999537  0.97081107  0.41393940  1
  Sb  Sb46  1  0.03999537  0.97081107  0.08606060  1
  Sb  Sb47  1  0.96000463  0.02918893  0.91393940  1
  Sb  Sb48  1  0.97681424  0.78098420  0.91583505  1
  Sb  Sb49  1  0.02318576  0.21901580  0.08416495  1
  Sb  Sb50  1  0.02318576  0.21901580  0.41583505  1
  Sb  Sb51  1  0.47681424  0.21901580  0.58416495  1
  Sb  Sb52  1  0.97681424  0.78098420  0.58416495  1
  Sb  Sb53  1  0.52318576  0.78098420  0.41583505  1
  Sb  Sb54  1  0.52318576  0.78098420  0.08416495  1
  Sb  Sb55  1  0.47681424  0.21901580  0.91583505  1
  Sb  Sb56  1  0.44667752  0.78365310  0.75000000  1
  Sb  Sb57  1  0.55332248  0.21634690  0.25000000  1
  Sb  Sb58  1  0.94667752  0.21634690  0.75000000  1
  Sb  Sb59  1  0.05332248  0.78365310  0.25000000  1
