# generated using pymatgen
data_MgCr(SiO3)2
_symmetry_space_group_name_H-M   'P 1'
_cell_length_a   5.30350241
_cell_length_b   6.68397021
_cell_length_c   6.68397021
_cell_angle_alpha   84.72909713
_cell_angle_beta   76.56525346
_cell_angle_gamma   76.56525346
_symmetry_Int_Tables_number   1
_chemical_formula_structural   MgCr(SiO3)2
_chemical_formula_sum   'Mg2 Cr2 Si4 O12'
_cell_volume   223.96656989
_cell_formula_units_Z   2
loop_
 _symmetry_equiv_pos_site_id
 _symmetry_equiv_pos_as_xyz
  1  'x, y, z'
loop_
 _atom_site_type_symbol
 _atom_site_label
 _atom_site_symmetry_multiplicity
 _atom_site_fract_x
 _atom_site_fract_y
 _atom_site_fract_z
 _atom_site_occupancy
  Mg  Mg0  1  0.25000000  0.59561481  0.40438519  1
  Mg  Mg1  1  0.75000000  0.40438519  0.59561481  1
  Cr  Cr2  1  0.25000000  0.22637918  0.77362082  1
  Cr  Cr3  1  0.75000000  0.77362082  0.22637918  1
  Si  Si4  1  0.24907710  0.11630886  0.29708182  1
  Si  Si5  1  0.75092290  0.88369114  0.70291818  1
  Si  Si6  1  0.25092290  0.70291818  0.88369114  1
  Si  Si7  1  0.74907710  0.29708182  0.11630886  1
  O  O8  1  0.99360160  0.87754749  0.82409860  1
  O  O9  1  0.00639840  0.12245251  0.17590140  1
  O  O10  1  0.50639840  0.17590140  0.12245251  1
  O  O11  1  0.49360160  0.82409860  0.87754749  1
  O  O12  1  0.14527694  0.29055595  0.47065912  1
  O  O13  1  0.85472306  0.70944405  0.52934088  1
  O  O14  1  0.35472306  0.52934088  0.70944405  1
  O  O15  1  0.64527694  0.47065912  0.29055595  1
  O  O16  1  0.35755915  0.88054823  0.36979907  1
  O  O17  1  0.64244085  0.11945177  0.63020093  1
  O  O18  1  0.14244085  0.63020093  0.11945177  1
  O  O19  1  0.85755915  0.36979907  0.88054823  1
