# generated using pymatgen
data_Rb2LiTaCl6
_symmetry_space_group_name_H-M   'P 1'
_cell_length_a   7.20177691
_cell_length_b   7.20177717
_cell_length_c   7.20177715
_cell_angle_alpha   59.99999909
_cell_angle_beta   59.99999861
_cell_angle_gamma   59.99999867
_symmetry_Int_Tables_number   1
_chemical_formula_structural   Rb2LiTaCl6
_chemical_formula_sum   'Rb2 Li1 Ta1 Cl6'
_cell_volume   264.12165685
_cell_formula_units_Z   1
loop_
 _symmetry_equiv_pos_site_id
 _symmetry_equiv_pos_as_xyz
  1  'x, y, z'
loop_
 _atom_site_type_symbol
 _atom_site_label
 _atom_site_symmetry_multiplicity
 _atom_site_fract_x
 _atom_site_fract_y
 _atom_site_fract_z
 _atom_site_occupancy
  Rb  Rb0  1  0.25000000  0.25000000  0.25000000  1
  Rb  Rb1  1  0.75000000  0.75000000  0.75000000  1
  Li  Li2  1  0.50000000  0.50000000  0.50000000  1
  Ta  Ta3  1  -0.00000000  0.00000000  -0.00000000  1
  Cl  Cl4  1  0.24410352  0.75589648  0.24410352  1
  Cl  Cl5  1  0.75589648  0.75589648  0.24410352  1
  Cl  Cl6  1  0.75589648  0.24410352  0.75589648  1
  Cl  Cl7  1  0.75589648  0.24410352  0.24410352  1
  Cl  Cl8  1  0.24410352  0.75589648  0.75589648  1
  Cl  Cl9  1  0.24410352  0.24410352  0.75589648  1
