# generated using pymatgen
data_Na3Mg4(MoO4)6
_symmetry_space_group_name_H-M   'P 1'
_cell_length_a   7.10610607
_cell_length_b   8.81335275
_cell_length_c   10.46002624
_cell_angle_alpha   106.98368182
_cell_angle_beta   105.13838154
_cell_angle_gamma   103.53942617
_symmetry_Int_Tables_number   1
_chemical_formula_structural   Na3Mg4(MoO4)6
_chemical_formula_sum   'Na3 Mg4 Mo6 O24'
_cell_volume   569.57698763
_cell_formula_units_Z   1
loop_
 _symmetry_equiv_pos_site_id
 _symmetry_equiv_pos_as_xyz
  1  'x, y, z'
loop_
 _atom_site_type_symbol
 _atom_site_label
 _atom_site_symmetry_multiplicity
 _atom_site_fract_x
 _atom_site_fract_y
 _atom_site_fract_z
 _atom_site_occupancy
  Na  Na0  1  0.28594369  0.29158955  0.80122359  1
  Na  Na1  1  0.71405631  0.70841045  0.19877641  1
  Na  Na2  1  -0.00000000  0.50000000  0.50000000  1
  Mg  Mg3  1  0.04253785  0.19957484  0.01721583  1
  Mg  Mg4  1  0.95746215  0.80042516  0.98278417  1
  Mg  Mg5  1  0.62416324  0.04376031  0.39739763  1
  Mg  Mg6  1  0.37583676  0.95623969  0.60260237  1
  Mo  Mo7  1  0.59416535  0.25698568  0.13075337  1
  Mo  Mo8  1  0.40583465  0.74301432  0.86924663  1
  Mo  Mo9  1  0.11748656  0.09454191  0.33388099  1
  Mo  Mo10  1  0.88251344  0.90545809  0.66611901  1
  Mo  Mo11  1  0.21508535  0.66407390  0.26106726  1
  Mo  Mo12  1  0.78491465  0.33592610  0.73893274  1
  O  O13  1  0.17527183  0.30954426  0.42253895  1
  O  O14  1  0.82472817  0.69045574  0.57746105  1
  O  O15  1  0.16271561  0.44518118  0.17079506  1
  O  O16  1  0.83728439  0.55481882  0.82920494  1
  O  O17  1  0.56575623  0.14705941  0.24800998  1
  O  O18  1  0.43424377  0.85294059  0.75199002  1
  O  O19  1  0.53584610  0.21923504  0.73190011  1
  O  O20  1  0.46415390  0.78076496  0.26809989  1
  O  O21  1  0.07799709  0.05682834  0.14604152  1
  O  O22  1  0.92200291  0.94317166  0.85395848  1
  O  O23  1  0.12094243  0.00559717  0.64794643  1
  O  O24  1  0.87905757  0.99440283  0.35205357  1
  O  O25  1  0.73256339  0.47310992  0.24081972  1
  O  O26  1  0.26743661  0.52689008  0.75918028  1
  O  O27  1  0.34612510  0.23646422  0.01072465  1
  O  O28  1  0.65387490  0.76353578  0.98927535  1
  O  O29  1  0.32994143  0.03055394  0.42189393  1
  O  O30  1  0.67005857  0.96944606  0.57810607  1
  O  O31  1  0.21666231  0.70896539  0.44101735  1
  O  O32  1  0.78333769  0.29103461  0.55898265  1
  O  O33  1  0.75378144  0.18837320  0.03403578  1
  O  O34  1  0.24621856  0.81162680  0.96596422  1
  O  O35  1  0.02299513  0.73064620  0.16009473  1
  O  O36  1  0.97700487  0.26935380  0.83990527  1
