# generated using pymatgen
data_KVMoO6
_symmetry_space_group_name_H-M   'P 1'
_cell_length_a   3.76519839
_cell_length_b   10.64035434
_cell_length_c   13.79147275
_cell_angle_alpha   90.00000000
_cell_angle_beta   90.00000000
_cell_angle_gamma   90.00000000
_symmetry_Int_Tables_number   1
_chemical_formula_structural   KVMoO6
_chemical_formula_sum   'K4 V4 Mo4 O24'
_cell_volume   552.52839381
_cell_formula_units_Z   4
loop_
 _symmetry_equiv_pos_site_id
 _symmetry_equiv_pos_as_xyz
  1  'x, y, z'
loop_
 _atom_site_type_symbol
 _atom_site_label
 _atom_site_symmetry_multiplicity
 _atom_site_fract_x
 _atom_site_fract_y
 _atom_site_fract_z
 _atom_site_occupancy
  K  K0  1  0.75000000  0.88470447  0.63786085  1
  K  K1  1  0.25000000  0.11529553  0.36213915  1
  K  K2  1  0.25000000  0.61529553  0.13786085  1
  K  K3  1  0.75000000  0.38470447  0.86213915  1
  V  V4  1  0.75000000  0.48589260  0.39194413  1
  V  V5  1  0.25000000  0.51410740  0.60805587  1
  V  V6  1  0.25000000  0.01410740  0.89194413  1
  V  V7  1  0.75000000  0.98589260  0.10805587  1
  Mo  Mo8  1  0.75000000  0.76604138  0.92312397  1
  Mo  Mo9  1  0.25000000  0.23395862  0.07687603  1
  Mo  Mo10  1  0.25000000  0.73395862  0.42312397  1
  Mo  Mo11  1  0.75000000  0.26604138  0.57687603  1
  O  O12  1  0.75000000  0.32808182  0.41341018  1
  O  O13  1  0.25000000  0.67191818  0.58658982  1
  O  O14  1  0.25000000  0.17191818  0.91341018  1
  O  O15  1  0.75000000  0.82808182  0.08658982  1
  O  O16  1  0.75000000  0.61594249  0.97575631  1
  O  O17  1  0.25000000  0.38405751  0.02424369  1
  O  O18  1  0.25000000  0.88405751  0.47575631  1
  O  O19  1  0.75000000  0.11594249  0.52424369  1
  O  O20  1  0.75000000  0.50657671  0.27353816  1
  O  O21  1  0.25000000  0.49342329  0.72646184  1
  O  O22  1  0.25000000  0.99342329  0.77353816  1
  O  O23  1  0.75000000  0.00657671  0.22646184  1
  O  O24  1  0.75000000  0.73609723  0.79954323  1
  O  O25  1  0.25000000  0.26390277  0.20045677  1
  O  O26  1  0.25000000  0.76390277  0.29954323  1
  O  O27  1  0.75000000  0.23609723  0.70045677  1
  O  O28  1  0.75000000  0.97291849  0.92395270  1
  O  O29  1  0.25000000  0.02708151  0.07604730  1
  O  O30  1  0.25000000  0.52708151  0.42395270  1
  O  O31  1  0.75000000  0.47291849  0.57604730  1
  O  O32  1  0.75000000  0.68265068  0.43528458  1
  O  O33  1  0.25000000  0.31734932  0.56471542  1
  O  O34  1  0.25000000  0.81734932  0.93528458  1
  O  O35  1  0.75000000  0.18265068  0.06471542  1
