# generated using pymatgen
data_Mn6Mo6P7
_symmetry_space_group_name_H-M   'P 1'
_cell_length_a   3.30957209
_cell_length_b   9.38464019
_cell_length_c   9.38464018
_cell_angle_alpha   120.00000260
_cell_angle_beta   90.00000000
_cell_angle_gamma   90.00000000
_symmetry_Int_Tables_number   1
_chemical_formula_structural   Mn6Mo6P7
_chemical_formula_sum   'Mn6 Mo6 P7'
_cell_volume   252.42811151
_cell_formula_units_Z   1
loop_
 _symmetry_equiv_pos_site_id
 _symmetry_equiv_pos_as_xyz
  1  'x, y, z'
loop_
 _atom_site_type_symbol
 _atom_site_label
 _atom_site_symmetry_multiplicity
 _atom_site_fract_x
 _atom_site_fract_y
 _atom_site_fract_z
 _atom_site_occupancy
  Mn  Mn0  1  0.50000000  0.79497204  0.98630642  1
  Mn  Mn1  1  0.50000000  0.19133438  0.20502796  1
  Mn  Mn2  1  0.50000000  0.01369358  0.80866562  1
  Mn  Mn3  1  -0.00000000  0.98290942  0.24157720  1
  Mn  Mn4  1  -0.00000000  0.25866779  0.01709058  1
  Mn  Mn5  1  0.00000000  0.75842280  0.74133221  1
  Mo  Mo6  1  0.00000000  0.62241615  0.13172933  1
  Mo  Mo7  1  -0.00000000  0.50931318  0.37758385  1
  Mo  Mo8  1  0.00000000  0.86827067  0.49068682  1
  Mo  Mo9  1  0.50000000  0.49261910  0.63455143  1
  Mo  Mo10  1  0.50000000  0.14193233  0.50738090  1
  Mo  Mo11  1  0.50000000  0.36544857  0.85806767  1
  P  P12  1  0.00000000  0.57012348  0.84994540  1
  P  P13  1  -0.00000000  0.27982192  0.42987652  1
  P  P14  1  -0.00000000  0.15005460  0.72017808  1
  P  P15  1  0.50000000  0.84103111  0.28012142  1
  P  P16  1  0.50000000  0.43909031  0.15896889  1
  P  P17  1  0.50000000  0.71987858  0.56090969  1
  P  P18  1  0.00000000  0.00000000  0.00000000  1
