# generated using pymatgen
data_MnFe2Ag2(PO4)3
_symmetry_space_group_name_H-M   'P 1'
_cell_length_a   6.58909702
_cell_length_b   8.86620373
_cell_length_c   8.86620373
_cell_angle_alpha   92.62681936
_cell_angle_beta   106.42831933
_cell_angle_gamma   106.42831933
_symmetry_Int_Tables_number   1
_chemical_formula_structural   MnFe2Ag2(PO4)3
_chemical_formula_sum   'Mn2 Fe4 Ag4 P6 O24'
_cell_volume   472.05973243
_cell_formula_units_Z   2
loop_
 _symmetry_equiv_pos_site_id
 _symmetry_equiv_pos_as_xyz
  1  'x, y, z'
loop_
 _atom_site_type_symbol
 _atom_site_label
 _atom_site_symmetry_multiplicity
 _atom_site_fract_x
 _atom_site_fract_y
 _atom_site_fract_z
 _atom_site_occupancy
  Mn  Mn0  1  0.75000000  0.23258552  0.76741448  1
  Mn  Mn1  1  0.25000000  0.76741448  0.23258552  1
  Fe  Fe2  1  0.62854150  0.56014873  0.88327076  1
  Fe  Fe3  1  0.37145850  0.43985127  0.11672924  1
  Fe  Fe4  1  0.87145850  0.11672924  0.43985127  1
  Fe  Fe5  1  0.12854150  0.88327076  0.56014873  1
  Ag  Ag6  1  0.75000000  0.50983316  0.49016684  1
  Ag  Ag7  1  0.25000000  0.49016684  0.50983316  1
  Ag  Ag8  1  -0.00000000  0.00000000  0.00000000  1
  Ag  Ag9  1  0.50000000  0.00000000  0.00000000  1
  P  P10  1  0.87465089  0.37250274  0.15366610  1
  P  P11  1  0.12534911  0.62749726  0.84633390  1
  P  P12  1  0.62534911  0.84633390  0.62749726  1
  P  P13  1  0.37465089  0.15366610  0.37250274  1
  P  P14  1  0.75000000  0.78383791  0.21616209  1
  P  P15  1  0.25000000  0.21616209  0.78383791  1
  O  O16  1  0.89615599  0.50204911  0.82968434  1
  O  O17  1  0.10384401  0.49795089  0.17031566  1
  O  O18  1  0.60384401  0.17031566  0.49795089  1
  O  O19  1  0.39615599  0.82968434  0.50204911  1
  O  O20  1  0.82471332  0.23193236  0.02582797  1
  O  O21  1  0.17528668  0.76806764  0.97417203  1
  O  O22  1  0.67528668  0.97417203  0.76806764  1
  O  O23  1  0.32471332  0.02582797  0.23193236  1
  O  O24  1  0.53566612  0.66841891  0.23934014  1
  O  O25  1  0.46433388  0.33158109  0.76065986  1
  O  O26  1  0.96433388  0.76065986  0.33158109  1
  O  O27  1  0.03566612  0.23934014  0.66841891  1
  O  O28  1  0.61601417  0.67882803  0.67969429  1
  O  O29  1  0.38398583  0.32117197  0.32030571  1
  O  O30  1  0.88398583  0.32030571  0.32117197  1
  O  O31  1  0.11601417  0.67969429  0.67882803  1
  O  O32  1  0.68582267  0.45119390  0.10043308  1
  O  O33  1  0.31417733  0.54880610  0.89956692  1
  O  O34  1  0.81417733  0.89956692  0.54880610  1
  O  O35  1  0.18582267  0.10043308  0.45119390  1
  O  O36  1  0.75628105  0.75560657  0.04413533  1
  O  O37  1  0.24371895  0.24439343  0.95586467  1
  O  O38  1  0.74371895  0.95586467  0.24439343  1
  O  O39  1  0.25628105  0.04413533  0.75560657  1
