# generated using pymatgen
data_La3CrS6
_symmetry_space_group_name_H-M   'P 1'
_cell_length_a   3.98109401
_cell_length_b   13.78389840
_cell_length_c   16.54122166
_cell_angle_alpha   90.00000000
_cell_angle_beta   90.00000000
_cell_angle_gamma   90.00000000
_symmetry_Int_Tables_number   1
_chemical_formula_structural   La3CrS6
_chemical_formula_sum   'La12 Cr4 S24'
_cell_volume   907.69946175
_cell_formula_units_Z   4
loop_
 _symmetry_equiv_pos_site_id
 _symmetry_equiv_pos_as_xyz
  1  'x, y, z'
loop_
 _atom_site_type_symbol
 _atom_site_label
 _atom_site_symmetry_multiplicity
 _atom_site_fract_x
 _atom_site_fract_y
 _atom_site_fract_z
 _atom_site_occupancy
  La  La0  1  0.00000000  0.55012153  0.28469803  1
  La  La1  1  0.00000000  0.44987847  0.71530197  1
  La  La2  1  0.50000000  0.94987847  0.78469803  1
  La  La3  1  0.50000000  0.05012153  0.21530197  1
  La  La4  1  -0.00000000  0.75533673  0.09668425  1
  La  La5  1  -0.00000000  0.24466327  0.90331575  1
  La  La6  1  0.50000000  0.74466327  0.59668425  1
  La  La7  1  0.50000000  0.25533673  0.40331575  1
  La  La8  1  0.00000000  0.31972204  0.14830410  1
  La  La9  1  -0.00000000  0.68027796  0.85169590  1
  La  La10  1  0.50000000  0.18027796  0.64830410  1
  La  La11  1  0.50000000  0.81972204  0.35169590  1
  Cr  Cr12  1  -0.00000000  0.00000000  0.50000000  1
  Cr  Cr13  1  0.50000000  0.50000000  0.00000000  1
  Cr  Cr14  1  -0.00000000  0.00000000  0.00000000  1
  Cr  Cr15  1  0.50000000  0.50000000  0.50000000  1
  S  S16  1  0.00000000  0.12084307  0.10112900  1
  S  S17  1  0.00000000  0.87915693  0.89887100  1
  S  S18  1  0.50000000  0.37915693  0.60112900  1
  S  S19  1  0.50000000  0.62084307  0.39887100  1
  S  S20  1  0.00000000  0.18526416  0.28960399  1
  S  S21  1  0.00000000  0.81473584  0.71039601  1
  S  S22  1  0.50000000  0.31473584  0.78960399  1
  S  S23  1  0.50000000  0.68526416  0.21039601  1
  S  S24  1  0.00000000  0.17500995  0.52095013  1
  S  S25  1  0.00000000  0.82499005  0.47904987  1
  S  S26  1  0.50000000  0.32499005  0.02095013  1
  S  S27  1  0.50000000  0.67500995  0.97904987  1
  S  S28  1  -0.00000000  0.52435175  0.09336445  1
  S  S29  1  0.00000000  0.47564825  0.90663555  1
  S  S30  1  0.50000000  0.97564825  0.59336445  1
  S  S31  1  0.50000000  0.02435175  0.40663555  1
  S  S32  1  0.00000000  0.10188270  0.75454885  1
  S  S33  1  0.00000000  0.89811730  0.24545115  1
  S  S34  1  0.50000000  0.39811730  0.25454885  1
  S  S35  1  0.50000000  0.60188270  0.74545115  1
  S  S36  1  -0.00000000  0.41939313  0.43044758  1
  S  S37  1  0.00000000  0.58060687  0.56955242  1
  S  S38  1  0.50000000  0.08060687  0.93044758  1
  S  S39  1  0.50000000  0.91939313  0.06955242  1
