# generated using pymatgen
data_KLiYbF5
_symmetry_space_group_name_H-M   'P 1'
_cell_length_a   6.51643574
_cell_length_b   6.26804184
_cell_length_c   11.93272912
_cell_angle_alpha   90.00000000
_cell_angle_beta   90.00000000
_cell_angle_gamma   110.86329991
_symmetry_Int_Tables_number   1
_chemical_formula_structural   KLiYbF5
_chemical_formula_sum   'K4 Li4 Yb4 F20'
_cell_volume   455.43861896
_cell_formula_units_Z   4
loop_
 _symmetry_equiv_pos_site_id
 _symmetry_equiv_pos_as_xyz
  1  'x, y, z'
loop_
 _atom_site_type_symbol
 _atom_site_label
 _atom_site_symmetry_multiplicity
 _atom_site_fract_x
 _atom_site_fract_y
 _atom_site_fract_z
 _atom_site_occupancy
  K  K0  1  0.94657119  0.95028269  0.34416523  1
  K  K1  1  0.05342881  0.04971731  0.65583477  1
  K  K2  1  0.05342881  0.54971731  0.84416523  1
  K  K3  1  0.94657119  0.45028269  0.15583477  1
  Li  Li4  1  0.56368577  0.96014233  0.74715208  1
  Li  Li5  1  0.43631423  0.03985767  0.25284792  1
  Li  Li6  1  0.43631423  0.53985767  0.24715208  1
  Li  Li7  1  0.56368577  0.46014233  0.75284792  1
  Yb  Yb8  1  0.65561122  0.80276143  0.99328952  1
  Yb  Yb9  1  0.34438878  0.19723857  0.00671048  1
  Yb  Yb10  1  0.34438878  0.69723857  0.49328952  1
  Yb  Yb11  1  0.65561122  0.30276143  0.50671048  1
  F  F12  1  0.72396848  0.76977031  0.80021768  1
  F  F13  1  0.27603152  0.23022969  0.19978232  1
  F  F14  1  0.27603152  0.73022969  0.30021768  1
  F  F15  1  0.72396848  0.26977031  0.69978232  1
  F  F16  1  0.68498777  0.95130373  0.52767599  1
  F  F17  1  0.31501223  0.04869627  0.47232401  1
  F  F18  1  0.31501223  0.54869627  0.02767599  1
  F  F19  1  0.68498777  0.45130373  0.97232401  1
  F  F20  1  0.96070813  0.64018215  0.50808395  1
  F  F21  1  0.03929187  0.35981785  0.49191605  1
  F  F22  1  0.03929187  0.85981785  0.00808395  1
  F  F23  1  0.96070813  0.14018215  0.99191605  1
  F  F24  1  0.44693077  0.96263841  0.89228129  1
  F  F25  1  0.55306923  0.03736159  0.10771871  1
  F  F26  1  0.55306923  0.53736159  0.39228129  1
  F  F27  1  0.44693077  0.46263841  0.60771871  1
  F  F28  1  0.30257907  0.79027463  0.67297863  1
  F  F29  1  0.69742093  0.20972537  0.32702137  1
  F  F30  1  0.69742093  0.70972537  0.17297863  1
  F  F31  1  0.30257907  0.29027463  0.82702137  1
