# generated using pymatgen
data_La6AlFe13
_symmetry_space_group_name_H-M   'P 1'
_cell_length_a   8.08593995
_cell_length_b   8.08593995
_cell_length_c   13.17643815
_cell_angle_alpha   107.86849354
_cell_angle_beta   107.86849354
_cell_angle_gamma   90.00000000
_symmetry_Int_Tables_number   1
_chemical_formula_structural   La6AlFe13
_chemical_formula_sum   'La12 Al2 Fe26'
_cell_volume   776.17313096
_cell_formula_units_Z   2
loop_
 _symmetry_equiv_pos_site_id
 _symmetry_equiv_pos_as_xyz
  1  'x, y, z'
loop_
 _atom_site_type_symbol
 _atom_site_label
 _atom_site_symmetry_multiplicity
 _atom_site_fract_x
 _atom_site_fract_y
 _atom_site_fract_z
 _atom_site_occupancy
  La  La0  1  0.34958326  0.84958326  0.37116926  1
  La  La1  1  0.65041674  0.15041674  0.62883074  1
  La  La2  1  0.02158599  0.52158599  0.37116926  1
  La  La3  1  0.52158599  0.34958326  0.37116926  1
  La  La4  1  0.15041674  0.97841401  0.62883074  1
  La  La5  1  0.97841401  0.47841401  0.62883074  1
  La  La6  1  0.47841401  0.65041674  0.62883074  1
  La  La7  1  0.84958326  0.02158599  0.37116926  1
  La  La8  1  0.10730589  0.10730589  0.21461178  1
  La  La9  1  0.89269411  0.89269411  0.78538822  1
  La  La10  1  0.39269411  0.39269411  0.78538822  1
  La  La11  1  0.60730589  0.60730589  0.21461178  1
  Al  Al12  1  0.25000000  0.25000000  0.50000000  1
  Al  Al13  1  0.75000000  0.75000000  0.50000000  1
  Fe  Fe14  1  0.23617368  0.73617368  0.11580234  1
  Fe  Fe15  1  0.76382632  0.26382632  0.88419766  1
  Fe  Fe16  1  0.87962866  0.37962866  0.11580234  1
  Fe  Fe17  1  0.37962866  0.23617368  0.11580234  1
  Fe  Fe18  1  0.26382632  0.12037134  0.88419766  1
  Fe  Fe19  1  0.12037134  0.62037134  0.88419766  1
  Fe  Fe20  1  0.62037134  0.76382632  0.88419766  1
  Fe  Fe21  1  0.73617368  0.87962866  0.11580234  1
  Fe  Fe22  1  0.70486782  0.20486782  0.18371858  1
  Fe  Fe23  1  0.29513218  0.79513218  0.81628142  1
  Fe  Fe24  1  0.47885076  0.97885076  0.18371858  1
  Fe  Fe25  1  0.97885076  0.70486782  0.18371858  1
  Fe  Fe26  1  0.79513218  0.52114924  0.81628142  1
  Fe  Fe27  1  0.52114924  0.02114924  0.81628142  1
  Fe  Fe28  1  0.02114924  0.29513218  0.81628142  1
  Fe  Fe29  1  0.20486782  0.47885076  0.18371858  1
  Fe  Fe30  1  0.00000000  0.50000000  -0.00000000  1
  Fe  Fe31  1  0.50000000  0.00000000  -0.00000000  1
  Fe  Fe32  1  0.06691455  0.20902375  -0.00000000  1
  Fe  Fe33  1  0.93308545  0.79097625  -0.00000000  1
  Fe  Fe34  1  0.79097625  0.06691455  -0.00000000  1
  Fe  Fe35  1  0.43308545  0.70902375  -0.00000000  1
  Fe  Fe36  1  0.20902375  0.93308545  -0.00000000  1
  Fe  Fe37  1  0.56691455  0.29097625  -0.00000000  1
  Fe  Fe38  1  0.70902375  0.56691455  -0.00000000  1
  Fe  Fe39  1  0.29097625  0.43308545  -0.00000000  1
