# generated using pymatgen
data_Cr4(P2O7)3
_symmetry_space_group_name_H-M   'P 1'
_cell_length_a   7.54620445
_cell_length_b   21.67048787
_cell_length_c   9.62611201
_cell_angle_alpha   90.00000000
_cell_angle_beta   90.00000000
_cell_angle_gamma   90.00000000
_symmetry_Int_Tables_number   1
_chemical_formula_structural   Cr4(P2O7)3
_chemical_formula_sum   'Cr16 P24 O84'
_cell_volume   1574.15744240
_cell_formula_units_Z   4
loop_
 _symmetry_equiv_pos_site_id
 _symmetry_equiv_pos_as_xyz
  1  'x, y, z'
loop_
 _atom_site_type_symbol
 _atom_site_label
 _atom_site_symmetry_multiplicity
 _atom_site_fract_x
 _atom_site_fract_y
 _atom_site_fract_z
 _atom_site_occupancy
  Cr  Cr0  1  0.44410481  0.99665198  0.76154874  1
  Cr  Cr1  1  0.55589519  0.00334802  0.23845126  1
  Cr  Cr2  1  0.55589519  0.50334802  0.26154874  1
  Cr  Cr3  1  0.94410481  0.00334802  0.23845126  1
  Cr  Cr4  1  0.44410481  0.49665198  0.73845126  1
  Cr  Cr5  1  0.05589519  0.99665198  0.76154874  1
  Cr  Cr6  1  0.05589519  0.49665198  0.73845126  1
  Cr  Cr7  1  0.94410481  0.50334802  0.26154874  1
  Cr  Cr8  1  0.94438844  0.74417159  0.77944172  1
  Cr  Cr9  1  0.05561156  0.25582841  0.22055828  1
  Cr  Cr10  1  0.05561156  0.75582841  0.27944172  1
  Cr  Cr11  1  0.44438844  0.25582841  0.22055828  1
  Cr  Cr12  1  0.94438844  0.24417159  0.72055828  1
  Cr  Cr13  1  0.55561156  0.74417159  0.77944172  1
  Cr  Cr14  1  0.55561156  0.24417159  0.72055828  1
  Cr  Cr15  1  0.44438844  0.75582841  0.27944172  1
  P  P16  1  0.75000000  0.64270449  0.34228737  1
  P  P17  1  0.25000000  0.35729551  0.65771263  1
  P  P18  1  0.25000000  0.85729551  0.84228737  1
  P  P19  1  0.75000000  0.14270449  0.15771263  1
  P  P20  1  0.75000000  0.93937839  0.96916092  1
  P  P21  1  0.25000000  0.06062161  0.03083908  1
  P  P22  1  0.25000000  0.56062161  0.46916092  1
  P  P23  1  0.75000000  0.43937839  0.53083908  1
  P  P24  1  0.75000000  0.30073774  0.44522416  1
  P  P25  1  0.25000000  0.69926226  0.55477584  1
  P  P26  1  0.25000000  0.19926226  0.94522416  1
  P  P27  1  0.75000000  0.80073774  0.05477584  1
  P  P28  1  0.75000000  0.81089484  0.49890068  1
  P  P29  1  0.25000000  0.18910516  0.50109932  1
  P  P30  1  0.25000000  0.68910516  0.99890068  1
  P  P31  1  0.75000000  0.31089484  0.00109932  1
  P  P32  1  0.75000000  0.95334485  0.53304343  1
  P  P33  1  0.25000000  0.04665515  0.46695657  1
  P  P34  1  0.25000000  0.54665515  0.03304343  1
  P  P35  1  0.75000000  0.45334485  0.96695657  1
  P  P36  1  0.75000000  0.60983112  0.67029936  1
  P  P37  1  0.25000000  0.39016888  0.32970064  1
  P  P38  1  0.25000000  0.89016888  0.17029936  1
  P  P39  1  0.75000000  0.10983112  0.82970064  1
  O  O40  1  0.75000000  0.47879711  0.39603507  1
  O  O41  1  0.25000000  0.52120289  0.60396493  1
  O  O42  1  0.25000000  0.02120289  0.89603507  1
  O  O43  1  0.75000000  0.97879711  0.10396493  1
  O  O44  1  0.75000000  0.76749722  0.91204737  1
  O  O45  1  0.25000000  0.23250278  0.08795263  1
  O  O46  1  0.25000000  0.73250278  0.41204737  1
  O  O47  1  0.75000000  0.26749722  0.58795263  1
  O  O48  1  0.92161047  0.79990643  0.42168823  1
  O  O49  1  0.07838953  0.20009357  0.57831177  1
  O  O50  1  0.07838953  0.70009357  0.92168823  1
  O  O51  1  0.42161047  0.20009357  0.57831177  1
  O  O52  1  0.92161047  0.29990643  0.07831177  1
  O  O53  1  0.57838953  0.79990643  0.42168823  1
  O  O54  1  0.57838953  0.29990643  0.07831177  1
  O  O55  1  0.42161047  0.70009357  0.92168823  1
  O  O56  1  0.75000000  0.67220015  0.75324198  1
  O  O57  1  0.25000000  0.32779985  0.24675802  1
  O  O58  1  0.25000000  0.82779985  0.25324198  1
  O  O59  1  0.75000000  0.17220015  0.74675802  1
  O  O60  1  0.91903589  0.97296131  0.60253992  1
  O  O61  1  0.08096411  0.02703869  0.39746008  1
  O  O62  1  0.08096411  0.52703869  0.10253992  1
  O  O63  1  0.41903589  0.02703869  0.39746008  1
  O  O64  1  0.91903589  0.47296131  0.89746008  1
  O  O65  1  0.58096411  0.97296131  0.60253992  1
  O  O66  1  0.58096411  0.47296131  0.89746008  1
  O  O67  1  0.41903589  0.52703869  0.10253992  1
  O  O68  1  0.75000000  0.37154236  0.47785055  1
  O  O69  1  0.25000000  0.62845764  0.52214945  1
  O  O70  1  0.25000000  0.12845764  0.97785055  1
  O  O71  1  0.75000000  0.87154236  0.02214945  1
  O  O72  1  0.75000000  0.77947340  0.64512706  1
  O  O73  1  0.25000000  0.22052660  0.35487294  1
  O  O74  1  0.25000000  0.72052660  0.14512706  1
  O  O75  1  0.75000000  0.27947340  0.85487294  1
  O  O76  1  0.92113432  0.57472930  0.70048935  1
  O  O77  1  0.07886568  0.42527070  0.29951065  1
  O  O78  1  0.07886568  0.92527070  0.20048935  1
  O  O79  1  0.42113432  0.42527070  0.29951065  1
  O  O80  1  0.92113432  0.07472930  0.79951065  1
  O  O81  1  0.57886568  0.57472930  0.70048935  1
  O  O82  1  0.57886568  0.07472930  0.79951065  1
  O  O83  1  0.42113432  0.92527070  0.20048935  1
  O  O84  1  0.75000000  0.97121586  0.37497764  1
  O  O85  1  0.25000000  0.02878414  0.62502236  1
  O  O86  1  0.25000000  0.52878414  0.87497764  1
  O  O87  1  0.75000000  0.47121586  0.12502236  1
  O  O88  1  0.42013048  0.82239032  0.80844930  1
  O  O89  1  0.57986952  0.17760968  0.19155070  1
  O  O90  1  0.57986952  0.67760968  0.30844930  1
  O  O91  1  0.92013048  0.17760968  0.19155070  1
  O  O92  1  0.42013048  0.32239032  0.69155070  1
  O  O93  1  0.07986952  0.82239032  0.80844930  1
  O  O94  1  0.07986952  0.32239032  0.69155070  1
  O  O95  1  0.92013048  0.67760968  0.30844930  1
  O  O96  1  0.75000000  0.88112826  0.54006501  1
  O  O97  1  0.25000000  0.11887174  0.45993499  1
  O  O98  1  0.25000000  0.61887174  0.04006501  1
  O  O99  1  0.75000000  0.38112826  0.95993499  1
  O  O100  1  0.42155045  0.71192817  0.62740422  1
  O  O101  1  0.57844955  0.28807183  0.37259578  1
  O  O102  1  0.57844955  0.78807183  0.12740422  1
  O  O103  1  0.92155045  0.28807183  0.37259578  1
  O  O104  1  0.42155045  0.21192817  0.87259578  1
  O  O105  1  0.07844955  0.71192817  0.62740422  1
  O  O106  1  0.07844955  0.21192817  0.87259578  1
  O  O107  1  0.92155045  0.78807183  0.12740422  1
  O  O108  1  0.92163003  0.94835069  0.89224996  1
  O  O109  1  0.07836997  0.05164931  0.10775004  1
  O  O110  1  0.07836997  0.55164931  0.39224996  1
  O  O111  1  0.42163003  0.05164931  0.10775004  1
  O  O112  1  0.92163003  0.44835069  0.60775004  1
  O  O113  1  0.57836997  0.94835069  0.89224996  1
  O  O114  1  0.57836997  0.44835069  0.60775004  1
  O  O115  1  0.42163003  0.55164931  0.39224996  1
  O  O116  1  0.75000000  0.62880049  0.50779400  1
  O  O117  1  0.25000000  0.37119951  0.49220600  1
  O  O118  1  0.25000000  0.87119951  0.00779400  1
  O  O119  1  0.75000000  0.12880049  0.99220600  1
  O  O120  1  0.75000000  0.57867691  0.26434827  1
  O  O121  1  0.25000000  0.42132309  0.73565173  1
  O  O122  1  0.25000000  0.92132309  0.76434827  1
  O  O123  1  0.75000000  0.07867691  0.23565173  1
