# generated using pymatgen
data_Cs2UF7
_symmetry_space_group_name_H-M   'P 1'
_cell_length_a   6.89266632
_cell_length_b   10.20229640
_cell_length_c   14.34772376
_cell_angle_alpha   90.00463397
_cell_angle_beta   89.99872061
_cell_angle_gamma   92.24674998
_symmetry_Int_Tables_number   1
_chemical_formula_structural   Cs2UF7
_chemical_formula_sum   'Cs8 U4 F28'
_cell_volume   1008.17101906
_cell_formula_units_Z   4
loop_
 _symmetry_equiv_pos_site_id
 _symmetry_equiv_pos_as_xyz
  1  'x, y, z'
loop_
 _atom_site_type_symbol
 _atom_site_label
 _atom_site_symmetry_multiplicity
 _atom_site_fract_x
 _atom_site_fract_y
 _atom_site_fract_z
 _atom_site_occupancy
  Cs  Cs0  1  0.27790946  0.93753116  0.71527779  1
  Cs  Cs1  1  0.72207730  0.06247890  0.28470966  1
  Cs  Cs2  1  0.72200625  0.56246527  0.21532623  1
  Cs  Cs3  1  0.27790435  0.43753222  0.78471751  1
  Cs  Cs4  1  0.70955990  0.64260207  0.55219836  1
  Cs  Cs5  1  0.29050725  0.35747241  0.44778545  1
  Cs  Cs6  1  0.29051004  0.85741246  0.05219275  1
  Cs  Cs7  1  0.70948410  0.14256571  0.94780230  1
  U  U8  1  0.80503589  0.68218404  0.86826642  1
  U  U9  1  0.19499644  0.31792914  0.13176616  1
  U  U10  1  0.19495916  0.81778836  0.36824679  1
  U  U11  1  0.80500937  0.18210274  0.63173438  1
  F  F12  1  0.02384342  0.81127664  0.24666436  1
  F  F13  1  0.97614254  0.18868281  0.75335724  1
  F  F14  1  0.97620019  0.68874106  0.74665390  1
  F  F15  1  0.02385851  0.31131859  0.25333016  1
  F  F16  1  0.73970955  0.98332985  0.65777654  1
  F  F17  1  0.26028185  0.01663581  0.34223619  1
  F  F18  1  0.26029267  0.51663369  0.15777706  1
  F  F19  1  0.73975238  0.48337262  0.84221627  1
  F  F20  1  0.56112579  0.72332118  0.78891542  1
  F  F21  1  0.43889597  0.27672949  0.21106277  1
  F  F22  1  0.43888307  0.77668373  0.28891051  1
  F  F23  1  0.56112289  0.22329403  0.71108638  1
  F  F24  1  0.39435417  0.98772021  0.88843158  1
  F  F25  1  0.60571078  0.01225549  0.11154666  1
  F  F26  1  0.60550321  0.51221841  0.38852563  1
  F  F27  1  0.39428175  0.48767332  0.61157445  1
  F  F28  1  0.94623411  0.87334625  0.43848729  1
  F  F29  1  0.05374966  0.12665000  0.56149321  1
  F  F30  1  0.05373991  0.62668369  0.93850803  1
  F  F31  1  0.94626072  0.37331127  0.06148908  1
  F  F32  1  0.35661178  0.82693951  0.49134801  1
  F  F33  1  0.64338295  0.17309084  0.50865511  1
  F  F34  1  0.64336651  0.67312523  0.99132994  1
  F  F35  1  0.35660479  0.32688073  0.00865895  1
  F  F36  1  0.89351909  0.87759074  0.89104611  1
  F  F37  1  0.10649302  0.12244140  0.10890440  1
  F  F38  1  0.10653773  0.62243339  0.39103851  1
  F  F39  1  0.89358151  0.37755551  0.60895242  1
