# generated using pymatgen
data_K2RbMoBr6
_symmetry_space_group_name_H-M   'P 1'
_cell_length_a   8.24383456
_cell_length_b   8.24383499
_cell_length_c   8.24383496
_cell_angle_alpha   59.99999870
_cell_angle_beta   59.99999810
_cell_angle_gamma   59.99999816
_symmetry_Int_Tables_number   1
_chemical_formula_structural   K2RbMoBr6
_chemical_formula_sum   'K2 Rb1 Mo1 Br6'
_cell_volume   396.16201523
_cell_formula_units_Z   1
loop_
 _symmetry_equiv_pos_site_id
 _symmetry_equiv_pos_as_xyz
  1  'x, y, z'
loop_
 _atom_site_type_symbol
 _atom_site_label
 _atom_site_symmetry_multiplicity
 _atom_site_fract_x
 _atom_site_fract_y
 _atom_site_fract_z
 _atom_site_occupancy
  K  K0  1  0.25000000  0.25000000  0.25000000  1
  K  K1  1  0.75000000  0.75000000  0.75000000  1
  Rb  Rb2  1  0.50000000  0.50000000  0.50000000  1
  Mo  Mo3  1  -0.00000000  0.00000000  -0.00000000  1
  Br  Br4  1  0.22340317  0.77659683  0.22340317  1
  Br  Br5  1  0.77659683  0.77659683  0.22340317  1
  Br  Br6  1  0.77659683  0.22340317  0.77659683  1
  Br  Br7  1  0.77659683  0.22340317  0.22340317  1
  Br  Br8  1  0.22340317  0.77659683  0.77659683  1
  Br  Br9  1  0.22340317  0.22340317  0.77659683  1
