# generated using pymatgen
data_Ba2PrCoCu2O7
_symmetry_space_group_name_H-M   'P 1'
_cell_length_a   3.92436675
_cell_length_b   3.94586154
_cell_length_c   11.95318970
_cell_angle_alpha   90.00000000
_cell_angle_beta   90.00000000
_cell_angle_gamma   90.00000000
_symmetry_Int_Tables_number   1
_chemical_formula_structural   Ba2PrCoCu2O7
_chemical_formula_sum   'Ba2 Pr1 Co1 Cu2 O7'
_cell_volume   185.09523607
_cell_formula_units_Z   1
loop_
 _symmetry_equiv_pos_site_id
 _symmetry_equiv_pos_as_xyz
  1  'x, y, z'
loop_
 _atom_site_type_symbol
 _atom_site_label
 _atom_site_symmetry_multiplicity
 _atom_site_fract_x
 _atom_site_fract_y
 _atom_site_fract_z
 _atom_site_occupancy
  Ba  Ba0  1  0.50000000  0.50000000  0.18428472  1
  Ba  Ba1  1  0.50000000  0.50000000  0.81571528  1
  Pr  Pr2  1  0.50000000  0.50000000  0.50000000  1
  Co  Co3  1  0.00000000  -0.00000000  0.00000000  1
  Cu  Cu4  1  -0.00000000  0.00000000  0.35590523  1
  Cu  Cu5  1  0.00000000  0.00000000  0.64409477  1
  O  O6  1  0.50000000  -0.00000000  0.36989072  1
  O  O7  1  0.50000000  -0.00000000  0.63010928  1
  O  O8  1  0.00000000  -0.00000000  0.14995863  1
  O  O9  1  0.00000000  -0.00000000  0.85004137  1
  O  O10  1  -0.00000000  0.50000000  0.37053197  1
  O  O11  1  -0.00000000  0.50000000  0.62946803  1
  O  O12  1  0.00000000  0.50000000  0.00000000  1
