# generated using pymatgen
data_Ba2ScV3O11
_symmetry_space_group_name_H-M   'P 1'
_cell_length_a   7.74533842
_cell_length_b   12.20601901
_cell_length_c   11.50065725
_cell_angle_alpha   103.45965811
_cell_angle_beta   90.00000000
_cell_angle_gamma   90.00000000
_symmetry_Int_Tables_number   1
_chemical_formula_structural   Ba2ScV3O11
_chemical_formula_sum   'Ba8 Sc4 V12 O44'
_cell_volume   1057.40635417
_cell_formula_units_Z   4
loop_
 _symmetry_equiv_pos_site_id
 _symmetry_equiv_pos_as_xyz
  1  'x, y, z'
loop_
 _atom_site_type_symbol
 _atom_site_label
 _atom_site_symmetry_multiplicity
 _atom_site_fract_x
 _atom_site_fract_y
 _atom_site_fract_z
 _atom_site_occupancy
  Ba  Ba0  1  0.26985619  0.77457616  0.94377177  1
  Ba  Ba1  1  0.73014381  0.22542384  0.05622823  1
  Ba  Ba2  1  0.76985619  0.22542384  0.55622823  1
  Ba  Ba3  1  0.23014381  0.77457616  0.44377177  1
  Ba  Ba4  1  0.74812506  0.55652016  0.89001136  1
  Ba  Ba5  1  0.25187494  0.44347984  0.10998864  1
  Ba  Ba6  1  0.24812506  0.44347984  0.60998864  1
  Ba  Ba7  1  0.75187494  0.55652016  0.39001136  1
  Sc  Sc8  1  0.49382809  0.99832981  0.75726526  1
  Sc  Sc9  1  0.50617191  0.00167019  0.24273474  1
  Sc  Sc10  1  0.99382809  0.00167019  0.74273474  1
  Sc  Sc11  1  0.00617191  0.99832981  0.25726526  1
  V  V12  1  0.75250998  0.90547492  0.97452049  1
  V  V13  1  0.24749002  0.09452508  0.02547951  1
  V  V14  1  0.25250998  0.09452508  0.52547951  1
  V  V15  1  0.74749002  0.90547492  0.47452049  1
  V  V16  1  0.51943663  0.68790203  0.67364370  1
  V  V17  1  0.48056337  0.31209797  0.32635630  1
  V  V18  1  0.01943663  0.31209797  0.82635630  1
  V  V19  1  0.98056337  0.68790203  0.17364370  1
  V  V20  1  0.98102232  0.69114666  0.67247109  1
  V  V21  1  0.01897768  0.30885334  0.32752891  1
  V  V22  1  0.48102232  0.30885334  0.82752891  1
  V  V23  1  0.51897768  0.69114666  0.17247109  1
  O  O24  1  0.44900446  0.82706608  0.71644240  1
  O  O25  1  0.55099554  0.17293392  0.28355760  1
  O  O26  1  0.94900446  0.17293392  0.78355760  1
  O  O27  1  0.05099554  0.82706608  0.21644240  1
  O  O28  1  0.54529156  0.16859157  0.80071748  1
  O  O29  1  0.45470844  0.83140843  0.19928252  1
  O  O30  1  0.04529156  0.83140843  0.69928252  1
  O  O31  1  0.95470844  0.16859157  0.30071748  1
  O  O32  1  0.75038958  0.66591467  0.66718176  1
  O  O33  1  0.24961042  0.33408533  0.33281824  1
  O  O34  1  0.25038958  0.33408533  0.83281824  1
  O  O35  1  0.74961042  0.66591467  0.16718176  1
  O  O36  1  0.94340120  0.37378202  0.96437720  1
  O  O37  1  0.05659880  0.62621798  0.03562280  1
  O  O38  1  0.44340120  0.62621798  0.53562280  1
  O  O39  1  0.55659880  0.37378202  0.46437720  1
  O  O40  1  0.93910958  0.38891980  0.73193056  1
  O  O41  1  0.06089042  0.61108020  0.26806944  1
  O  O42  1  0.43910958  0.61108020  0.76806944  1
  O  O43  1  0.56089042  0.38891980  0.23193056  1
  O  O44  1  0.79800477  0.98818113  0.62230955  1
  O  O45  1  0.20199523  0.01181887  0.37769045  1
  O  O46  1  0.29800477  0.01181887  0.87769045  1
  O  O47  1  0.70199523  0.98818113  0.12230955  1
  O  O48  1  0.96507413  0.87728161  0.97143528  1
  O  O49  1  0.03492587  0.12271839  0.02856472  1
  O  O50  1  0.46507413  0.12271839  0.52856472  1
  O  O51  1  0.53492587  0.87728161  0.47143528  1
  O  O52  1  0.63656458  0.78395629  0.94554088  1
  O  O53  1  0.36343542  0.21604371  0.05445912  1
  O  O54  1  0.13656458  0.21604371  0.55445912  1
  O  O55  1  0.86343542  0.78395629  0.44554088  1
  O  O56  1  0.70961348  0.98411952  0.86232677  1
  O  O57  1  0.29038652  0.01588048  0.13767323  1
  O  O58  1  0.20961348  0.01588048  0.63767323  1
  O  O59  1  0.79038652  0.98411952  0.36232677  1
  O  O60  1  0.56019541  0.36900648  0.71990804  1
  O  O61  1  0.43980459  0.63099352  0.28009196  1
  O  O62  1  0.06019541  0.63099352  0.78009196  1
  O  O63  1  0.93980459  0.36900648  0.21990804  1
  O  O64  1  0.56478913  0.38402422  0.95943461  1
  O  O65  1  0.43521087  0.61597578  0.04056539  1
  O  O66  1  0.06478913  0.61597578  0.54056539  1
  O  O67  1  0.93521087  0.38402422  0.45943461  1
