# generated using pymatgen
data_Eu2Cu(GeO3)4
_symmetry_space_group_name_H-M   'P 1'
_cell_length_a   4.96519201
_cell_length_b   7.41288797
_cell_length_c   8.21101260
_cell_angle_alpha   65.75575769
_cell_angle_beta   86.14015143
_cell_angle_gamma   76.33199555
_symmetry_Int_Tables_number   1
_chemical_formula_structural   Eu2Cu(GeO3)4
_chemical_formula_sum   'Eu2 Cu1 Ge4 O12'
_cell_volume   267.60905803
_cell_formula_units_Z   1
loop_
 _symmetry_equiv_pos_site_id
 _symmetry_equiv_pos_as_xyz
  1  'x, y, z'
loop_
 _atom_site_type_symbol
 _atom_site_label
 _atom_site_symmetry_multiplicity
 _atom_site_fract_x
 _atom_site_fract_y
 _atom_site_fract_z
 _atom_site_occupancy
  Eu  Eu0  1  0.03979797  0.76878474  0.45558271  1
  Eu  Eu1  1  0.96020203  0.23121526  0.54441729  1
  Cu  Cu2  1  -0.00000000  0.00000000  -0.00000000  1
  Ge  Ge3  1  0.57575770  0.61885229  0.20034117  1
  Ge  Ge4  1  0.42424230  0.38114771  0.79965883  1
  Ge  Ge5  1  0.45747375  0.17401315  0.21436935  1
  Ge  Ge6  1  0.54252625  0.82598685  0.78563065  1
  O  O7  1  0.24604003  0.78166154  0.18442020  1
  O  O8  1  0.75395997  0.21833846  0.81557980  1
  O  O9  1  0.25979745  0.29821786  0.00797036  1
  O  O10  1  0.74020255  0.70178214  0.99202964  1
  O  O11  1  0.22981828  0.41812537  0.61525665  1
  O  O12  1  0.77018172  0.58187463  0.38474335  1
  O  O13  1  0.24349148  0.99841455  0.80748143  1
  O  O14  1  0.75650852  0.00158545  0.19251857  1
  O  O15  1  0.57048002  0.35325965  0.27381310  1
  O  O16  1  0.42951998  0.64674035  0.72618690  1
  O  O17  1  0.23844066  0.06452947  0.38249806  1
  O  O18  1  0.76155934  0.93547053  0.61750194  1
