# generated using pymatgen
data_Ca9Lu6F35
_symmetry_space_group_name_H-M   'P 1'
_cell_length_a   8.71489668
_cell_length_b   8.71489668
_cell_length_c   10.32814103
_cell_angle_alpha   114.95463242
_cell_angle_beta   114.95463242
_cell_angle_gamma   90.00000000
_symmetry_Int_Tables_number   1
_chemical_formula_structural   Ca9Lu6F35
_chemical_formula_sum   'Ca9 Lu6 F35'
_cell_volume   629.49104402
_cell_formula_units_Z   1
loop_
 _symmetry_equiv_pos_site_id
 _symmetry_equiv_pos_as_xyz
  1  'x, y, z'
loop_
 _atom_site_type_symbol
 _atom_site_label
 _atom_site_symmetry_multiplicity
 _atom_site_fract_x
 _atom_site_fract_y
 _atom_site_fract_z
 _atom_site_occupancy
  Ca  Ca0  1  0.35677765  0.55002037  0.32778434  1
  Ca  Ca1  1  0.64322235  0.44997963  0.67221566  1
  Ca  Ca2  1  0.97100669  0.77776398  0.32778434  1
  Ca  Ca3  1  0.77776398  0.35677765  0.32778434  1
  Ca  Ca4  1  0.02899331  0.22223602  0.67221566  1
  Ca  Ca5  1  0.22223602  0.64322235  0.67221566  1
  Ca  Ca6  1  0.55002037  0.97100669  0.32778434  1
  Ca  Ca7  1  0.44997963  0.02899331  0.67221566  1
  Ca  Ca8  1  0.50000000  0.50000000  0.00000000  1
  Lu  Lu9  1  0.17885288  0.17885288  0.35770576  1
  Lu  Lu10  1  0.82114712  0.82114712  0.64229424  1
  Lu  Lu11  1  0.30732944  0.10396190  0.00000000  1
  Lu  Lu12  1  0.69267056  0.89603810  1.00000000  1
  Lu  Lu13  1  0.89603810  0.30732944  0.00000000  1
  Lu  Lu14  1  0.10396190  0.69267056  1.00000000  1
  F  F15  1  0.35147890  0.45295861  0.51486948  1
  F  F16  1  0.64852110  0.54704139  0.48513052  1
  F  F17  1  0.16339058  0.06191087  0.51486949  1
  F  F18  1  0.06191087  0.35147890  0.51486949  1
  F  F19  1  0.83660942  0.93808913  0.48513051  1
  F  F20  1  0.93808913  0.64852110  0.48513051  1
  F  F21  1  0.45295861  0.16339058  0.51486949  1
  F  F22  1  0.54704139  0.83660942  0.48513051  1
  F  F23  1  0.14682477  0.29052811  1.00000000  1
  F  F24  1  0.85317523  0.70947189  0.00000000  1
  F  F25  1  0.70947189  0.14682477  0.00000000  1
  F  F26  1  0.29052811  0.85317523  1.00000000  1
  F  F27  1  0.34175056  0.20327219  0.24902645  1
  F  F28  1  0.65824944  0.79672781  0.75097355  1
  F  F29  1  0.90727589  0.04575426  0.24902645  1
  F  F30  1  0.04575426  0.34175056  0.24902645  1
  F  F31  1  0.09272411  0.95424574  0.75097355  1
  F  F32  1  0.95424574  0.65824944  0.75097355  1
  F  F33  1  0.20327219  0.90727589  0.24902645  1
  F  F34  1  0.79672781  0.09272411  0.75097355  1
  F  F35  1  0.07944111  0.57944111  0.15888222  1
  F  F36  1  0.92055889  0.42055889  0.84111778  1
  F  F37  1  0.57944111  0.07944111  0.15888222  1
  F  F38  1  0.42055889  0.92055889  0.84111778  1
  F  F39  1  0.25000000  0.75000000  0.50000000  1
  F  F40  1  0.75000000  0.25000000  0.50000000  1
  F  F41  1  0.50405986  0.62975144  0.83975474  1
  F  F42  1  0.49594014  0.37024856  0.16024526  1
  F  F43  1  0.33569488  0.21000329  0.83975474  1
  F  F44  1  0.21000329  0.50405986  0.83975474  1
  F  F45  1  0.66430512  0.78999671  0.16024526  1
  F  F46  1  0.78999671  0.49594014  0.16024526  1
  F  F47  1  0.62975144  0.33569488  0.83975474  1
  F  F48  1  0.37024856  0.66430512  0.16024526  1
  F  F49  1  0.00000000  -0.00000000  0.00000000  1
