# generated using pymatgen
data_Ba2TiMn2Si2PO13
_symmetry_space_group_name_H-M   'P 1'
_cell_length_a   5.45803229
_cell_length_b   7.11120172
_cell_length_c   15.04459333
_cell_angle_alpha   84.26885152
_cell_angle_beta   88.28579996
_cell_angle_gamma   89.80156797
_symmetry_Int_Tables_number   1
_chemical_formula_structural   Ba2TiMn2Si2PO13
_chemical_formula_sum   'Ba4 Ti2 Mn4 Si4 P2 O26'
_cell_volume   580.74944803
_cell_formula_units_Z   2
loop_
 _symmetry_equiv_pos_site_id
 _symmetry_equiv_pos_as_xyz
  1  'x, y, z'
loop_
 _atom_site_type_symbol
 _atom_site_label
 _atom_site_symmetry_multiplicity
 _atom_site_fract_x
 _atom_site_fract_y
 _atom_site_fract_z
 _atom_site_occupancy
  Ba  Ba0  1  0.72508287  0.34115945  0.16522051  1
  Ba  Ba1  1  0.27491713  0.65884055  0.83477949  1
  Ba  Ba2  1  0.23768462  0.82375538  0.09867706  1
  Ba  Ba3  1  0.76231538  0.17624462  0.90132294  1
  Ti  Ti4  1  0.29301582  0.20513217  0.70042651  1
  Ti  Ti5  1  0.70698418  0.79486783  0.29957349  1
  Mn  Mn6  1  0.50000000  0.50000000  0.50000000  1
  Mn  Mn7  1  0.01357445  0.75181354  0.50053320  1
  Mn  Mn8  1  0.98642555  0.24818646  0.49946680  1
  Mn  Mn9  1  0.50000000  0.00000000  0.50000000  1
  Si  Si10  1  0.20342588  0.51052202  0.31548699  1
  Si  Si11  1  0.79657412  0.48947798  0.68451301  1
  Si  Si12  1  0.20222312  0.06660583  0.31281118  1
  Si  Si13  1  0.79777688  0.93339417  0.68718882  1
  P  P14  1  0.24653226  0.28234098  0.02444492  1
  P  P15  1  0.75346774  0.71765902  0.97555508  1
  O  O16  1  0.45682718  0.60891031  0.27514160  1
  O  O17  1  0.54317282  0.39108969  0.72485840  1
  O  O18  1  0.01153037  0.16636501  0.05488590  1
  O  O19  1  0.98846963  0.83363499  0.94511410  1
  O  O20  1  0.25820891  0.31278393  0.91999742  1
  O  O21  1  0.74179109  0.68721607  0.08000258  1
  O  O22  1  0.54376634  0.01311015  0.72890507  1
  O  O23  1  0.45623366  0.98688985  0.27109493  1
  O  O24  1  0.47315712  0.16224077  0.05568964  1
  O  O25  1  0.52684288  0.83775923  0.94431036  1
  O  O26  1  0.04255373  0.38968855  0.72596303  1
  O  O27  1  0.95744627  0.61031145  0.27403697  1
  O  O28  1  0.04360473  0.01234908  0.73011627  1
  O  O29  1  0.95639527  0.98765092  0.26988373  1
  O  O30  1  0.63461577  0.25908554  0.45574123  1
  O  O31  1  0.36538423  0.74091446  0.54425877  1
  O  O32  1  0.24376184  0.46657912  0.07075881  1
  O  O33  1  0.75623816  0.53342088  0.92924119  1
  O  O34  1  0.18972768  0.02839507  0.42467940  1
  O  O35  1  0.81027232  0.97160493  0.57532060  1
  O  O36  1  0.29165567  0.22624329  0.58219977  1
  O  O37  1  0.70834433  0.77375671  0.41780023  1
  O  O38  1  0.19815085  0.29568114  0.28448443  1
  O  O39  1  0.80184915  0.70431886  0.71551557  1
  O  O40  1  0.19018303  0.49911448  0.42728811  1
  O  O41  1  0.80981697  0.50088552  0.57271189  1
