# generated using pymatgen
data_BaTb2(MoO4)4
_symmetry_space_group_name_H-M   'P 1'
_cell_length_a   5.34025241
_cell_length_b   6.90951976
_cell_length_c   19.56418107
_cell_angle_alpha   89.41163317
_cell_angle_beta   88.47731370
_cell_angle_gamma   67.26673134
_symmetry_Int_Tables_number   1
_chemical_formula_structural   BaTb2(MoO4)4
_chemical_formula_sum   'Ba2 Tb4 Mo8 O32'
_cell_volume   665.57449589
_cell_formula_units_Z   2
loop_
 _symmetry_equiv_pos_site_id
 _symmetry_equiv_pos_as_xyz
  1  'x, y, z'
loop_
 _atom_site_type_symbol
 _atom_site_label
 _atom_site_symmetry_multiplicity
 _atom_site_fract_x
 _atom_site_fract_y
 _atom_site_fract_z
 _atom_site_occupancy
  Ba  Ba0  1  0.46808618  0.06382764  0.75000000  1
  Ba  Ba1  1  0.53191382  0.93617236  0.25000000  1
  Tb  Tb2  1  0.35495011  0.29677919  0.53269150  1
  Tb  Tb3  1  0.64504989  0.70322081  0.46730850  1
  Tb  Tb4  1  0.34827070  0.29677919  0.96730850  1
  Tb  Tb5  1  0.65172930  0.70322081  0.03269150  1
  Mo  Mo6  1  0.06881494  0.88414558  0.90930898  1
  Mo  Mo7  1  0.93118506  0.11585442  0.09069102  1
  Mo  Mo8  1  0.04703948  0.88414558  0.59069102  1
  Mo  Mo9  1  0.95296052  0.11585442  0.40930898  1
  Mo  Mo10  1  0.75713055  0.47849603  0.85103273  1
  Mo  Mo11  1  0.24286945  0.52150397  0.14896727  1
  Mo  Mo12  1  0.76437342  0.47849603  0.64896727  1
  Mo  Mo13  1  0.23562658  0.52150397  0.35103273  1
  O  O14  1  0.32429370  0.65671434  0.95473423  1
  O  O15  1  0.67570630  0.34328566  0.04526577  1
  O  O16  1  0.01899196  0.65671434  0.54526577  1
  O  O17  1  0.98100804  0.34328566  0.45473423  1
  O  O18  1  0.57809923  0.51713773  0.56666653  1
  O  O19  1  0.42190077  0.48286227  0.43333347  1
  O  O20  1  0.90476305  0.51713773  0.93333347  1
  O  O21  1  0.09523695  0.48286227  0.06666653  1
  O  O22  1  0.19904497  0.83641471  0.66997298  1
  O  O23  1  0.80095503  0.16358529  0.33002702  1
  O  O24  1  0.96454032  0.83641471  0.83002702  1
  O  O25  1  0.03545968  0.16358529  0.16997298  1
  O  O26  1  0.28056005  0.90497962  0.39733205  1
  O  O27  1  0.71943995  0.09502038  0.60266795  1
  O  O28  1  0.81446033  0.90497962  0.10266795  1
  O  O29  1  0.18553967  0.09502038  0.89733205  1
  O  O30  1  0.58774069  0.29552697  0.86609782  1
  O  O31  1  0.41225931  0.70447303  0.13390218  1
  O  O32  1  0.11673234  0.29552697  0.63390218  1
  O  O33  1  0.88326766  0.70447303  0.36609782  1
  O  O34  1  0.27414920  0.96741161  0.53496760  1
  O  O35  1  0.72585080  0.03258839  0.46503240  1
  O  O36  1  0.75843919  0.96741161  0.96503240  1
  O  O37  1  0.24156081  0.03258839  0.03496760  1
  O  O38  1  0.51380233  0.72277066  0.82550047  1
  O  O39  1  0.48619767  0.27722934  0.17449953  1
  O  O40  1  0.76342701  0.72277066  0.67449953  1
  O  O41  1  0.23657299  0.27722934  0.32550047  1
  O  O42  1  0.59621625  0.38887491  0.71216569  1
  O  O43  1  0.40378375  0.61112509  0.28783431  1
  O  O44  1  0.01490884  0.38887491  0.78783431  1
  O  O45  1  0.98509116  0.61112509  0.21216569  1
