# generated using pymatgen
data_YNO4
_symmetry_space_group_name_H-M   'P 1'
_cell_length_a   3.95587454
_cell_length_b   3.95587454
_cell_length_c   10.09543893
_cell_angle_alpha   90.00000000
_cell_angle_beta   90.00000000
_cell_angle_gamma   88.31089317
_symmetry_Int_Tables_number   1
_chemical_formula_structural   YNO4
_chemical_formula_sum   'Y2 N2 O8'
_cell_volume   157.91430560
_cell_formula_units_Z   2
loop_
 _symmetry_equiv_pos_site_id
 _symmetry_equiv_pos_as_xyz
  1  'x, y, z'
loop_
 _atom_site_type_symbol
 _atom_site_label
 _atom_site_symmetry_multiplicity
 _atom_site_fract_x
 _atom_site_fract_y
 _atom_site_fract_z
 _atom_site_occupancy
  Y  Y0  1  0.70096930  0.70096930  0.11282010  1
  Y  Y1  1  0.20096930  0.20096930  0.88717990  1
  N  N2  1  0.83899550  0.83899550  0.66821289  1
  N  N3  1  0.33899550  0.33899550  0.33178711  1
  O  O4  1  0.21212743  0.71212743  0.00000000  1
  O  O5  1  0.71212743  0.21212743  0.00000000  1
  O  O6  1  0.71951536  0.71951536  0.56910479  1
  O  O7  1  0.21951536  0.21951536  0.43089521  1
  O  O8  1  0.21289159  0.60850082  0.27322887  1
  O  O9  1  0.60850082  0.21289159  0.27322887  1
  O  O10  1  0.71289159  0.10850082  0.72677113  1
  O  O11  1  0.10850082  0.71289159  0.72677113  1
