# generated using pymatgen
data_YUB8
_symmetry_space_group_name_H-M   'P 1'
_cell_length_a   3.98104036
_cell_length_b   7.08776223
_cell_length_c   7.08776223
_cell_angle_alpha   90.02879387
_cell_angle_beta   90.00000000
_cell_angle_gamma   90.00000000
_symmetry_Int_Tables_number   1
_chemical_formula_structural   YUB8
_chemical_formula_sum   'Y2 U2 B16'
_cell_volume   199.99300512
_cell_formula_units_Z   2
loop_
 _symmetry_equiv_pos_site_id
 _symmetry_equiv_pos_as_xyz
  1  'x, y, z'
loop_
 _atom_site_type_symbol
 _atom_site_label
 _atom_site_symmetry_multiplicity
 _atom_site_fract_x
 _atom_site_fract_y
 _atom_site_fract_z
 _atom_site_occupancy
  Y  Y0  1  0.00000000  0.18567501  0.31432499  1
  Y  Y1  1  -0.00000000  0.81432499  0.68567501  1
  U  U2  1  -0.00000000  0.31088950  0.81088950  1
  U  U3  1  0.00000000  0.68911050  0.18911050  1
  B  B4  1  0.50000000  0.53461124  0.67850732  1
  B  B5  1  0.50000000  0.46538876  0.32149268  1
  B  B6  1  0.50000000  0.95792611  0.17697822  1
  B  B7  1  0.50000000  0.04207389  0.82302178  1
  B  B8  1  0.50000000  0.67697822  0.45792611  1
  B  B9  1  0.50000000  0.32302178  0.54207389  1
  B  B10  1  0.50000000  0.17850732  0.03461124  1
  B  B11  1  0.50000000  0.82149268  0.96538876  1
  B  B12  1  0.50000000  0.91136511  0.41136511  1
  B  B13  1  0.50000000  0.08863489  0.58863489  1
  B  B14  1  0.50000000  0.58634066  0.91365934  1
  B  B15  1  0.50000000  0.41365934  0.08634066  1
  B  B16  1  0.79890986  0.50000000  0.50000000  1
  B  B17  1  0.79890986  0.00000000  -0.00000000  1
  B  B18  1  0.20109014  0.50000000  0.50000000  1
  B  B19  1  0.20109014  0.00000000  -0.00000000  1
