# generated using pymatgen
data_YZnCuAs2
_symmetry_space_group_name_H-M   'P 1'
_cell_length_a   4.11820894
_cell_length_b   4.11810380
_cell_length_c   6.73600138
_cell_angle_alpha   90.00000005
_cell_angle_beta   89.99838217
_cell_angle_gamma   119.99915773
_symmetry_Int_Tables_number   1
_chemical_formula_structural   YZnCuAs2
_chemical_formula_sum   'Y1 Zn1 Cu1 As2'
_cell_volume   98.93322164
_cell_formula_units_Z   1
loop_
 _symmetry_equiv_pos_site_id
 _symmetry_equiv_pos_as_xyz
  1  'x, y, z'
loop_
 _atom_site_type_symbol
 _atom_site_label
 _atom_site_symmetry_multiplicity
 _atom_site_fract_x
 _atom_site_fract_y
 _atom_site_fract_z
 _atom_site_occupancy
  Y  Y0  1  0.00000004  0.00000002  0.98347735  1
  Zn  Zn1  1  0.66666072  0.33333036  0.37733954  1
  Cu  Cu2  1  0.33336874  0.66668437  0.63972894  1
  As  As3  1  0.33334072  0.66667036  0.25144144  1
  As  As4  1  0.66662977  0.33331488  0.74801273  1
