# generated using pymatgen
data_ZrNbFe4
_symmetry_space_group_name_H-M   'P 1'
_cell_length_a   4.91996683
_cell_length_b   4.91707418
_cell_length_c   8.04392394
_cell_angle_alpha   90.00000000
_cell_angle_beta   90.00442776
_cell_angle_gamma   60.01944705
_symmetry_Int_Tables_number   1
_chemical_formula_structural   ZrNbFe4
_chemical_formula_sum   'Zr2 Nb2 Fe8'
_cell_volume   168.55925079
_cell_formula_units_Z   2
loop_
 _symmetry_equiv_pos_site_id
 _symmetry_equiv_pos_as_xyz
  1  'x, y, z'
loop_
 _atom_site_type_symbol
 _atom_site_label
 _atom_site_symmetry_multiplicity
 _atom_site_fract_x
 _atom_site_fract_y
 _atom_site_fract_z
 _atom_site_occupancy
  Zr  Zr0  1  0.66649172  0.66675414  0.93126193  1
  Zr  Zr1  1  0.33350828  0.33324586  0.06873807  1
  Nb  Nb2  1  0.33383373  0.33308314  0.44601709  1
  Nb  Nb3  1  0.66616627  0.66691686  0.55398291  1
  Fe  Fe4  1  0.16715536  0.66560186  0.74478683  1
  Fe  Fe5  1  0.66607074  0.16696463  0.74482251  1
  Fe  Fe6  1  0.16715536  0.16724279  0.74478683  1
  Fe  Fe7  1  0.83284464  0.33439814  0.25521317  1
  Fe  Fe8  1  0.33392926  0.83303537  0.25517749  1
  Fe  Fe9  1  0.83284464  0.83275721  0.25521317  1
  Fe  Fe10  1  -0.00000000  0.00000000  0.50000000  1
  Fe  Fe11  1  -0.00000000  0.00000000  -0.00000000  1
