# generated using pymatgen
data_K2RbCeCl6
_symmetry_space_group_name_H-M   'P 1'
_cell_length_a   8.27364638
_cell_length_b   8.27364682
_cell_length_c   8.27364680
_cell_angle_alpha   59.99999871
_cell_angle_beta   59.99999802
_cell_angle_gamma   59.99999813
_symmetry_Int_Tables_number   1
_chemical_formula_structural   K2RbCeCl6
_chemical_formula_sum   'K2 Rb1 Ce1 Cl6'
_cell_volume   400.47544723
_cell_formula_units_Z   1
loop_
 _symmetry_equiv_pos_site_id
 _symmetry_equiv_pos_as_xyz
  1  'x, y, z'
loop_
 _atom_site_type_symbol
 _atom_site_label
 _atom_site_symmetry_multiplicity
 _atom_site_fract_x
 _atom_site_fract_y
 _atom_site_fract_z
 _atom_site_occupancy
  K  K0  1  0.25000000  0.25000000  0.25000000  1
  K  K1  1  0.75000000  0.75000000  0.75000000  1
  Rb  Rb2  1  0.50000000  0.50000000  0.50000000  1
  Ce  Ce3  1  0.00000000  0.00000000  -0.00000000  1
  Cl  Cl4  1  0.23423550  0.76576450  0.23423550  1
  Cl  Cl5  1  0.76576450  0.76576450  0.23423550  1
  Cl  Cl6  1  0.76576450  0.23423550  0.76576450  1
  Cl  Cl7  1  0.76576450  0.23423550  0.23423550  1
  Cl  Cl8  1  0.23423550  0.76576450  0.76576450  1
  Cl  Cl9  1  0.23423550  0.23423550  0.76576450  1
