# generated using pymatgen
data_Zr10Al6O
_symmetry_space_group_name_H-M   'P 1'
_cell_length_a   5.64609349
_cell_length_b   14.27214366
_cell_length_c   14.27185729
_cell_angle_alpha   59.99933418
_cell_angle_beta   90.00450210
_cell_angle_gamma   90.00000000
_symmetry_Int_Tables_number   1
_chemical_formula_structural   Zr10Al6O
_chemical_formula_sum   'Zr30 Al18 O3'
_cell_volume   995.96822625
_cell_formula_units_Z   3
loop_
 _symmetry_equiv_pos_site_id
 _symmetry_equiv_pos_as_xyz
  1  'x, y, z'
loop_
 _atom_site_type_symbol
 _atom_site_label
 _atom_site_symmetry_multiplicity
 _atom_site_fract_x
 _atom_site_fract_y
 _atom_site_fract_z
 _atom_site_occupancy
  Zr  Zr0  1  0.49470559  0.32296067  0.66080783  1
  Zr  Zr1  1  0.49471184  0.66078969  0.01621398  1
  Zr  Zr2  1  0.49472852  0.01629233  0.32293304  1
  Zr  Zr3  1  0.49472852  0.66077463  0.32293304  1
  Zr  Zr4  1  0.49470559  0.01623150  0.66080783  1
  Zr  Zr5  1  0.49471184  0.32299633  0.01621398  1
  Zr  Zr6  1  0.99485501  0.67459856  0.34157202  1
  Zr  Zr7  1  0.99485654  0.34155613  0.98382596  1
  Zr  Zr8  1  0.99483550  0.98385644  0.67461710  1
  Zr  Zr9  1  0.99483550  0.34152647  0.67461710  1
  Zr  Zr10  1  0.99485501  0.98382942  0.34157202  1
  Zr  Zr11  1  0.99485654  0.67461791  0.98382596  1
  Zr  Zr12  1  0.26076795  0.07853248  0.84293505  1
  Zr  Zr13  1  0.26075192  0.84292797  0.07850101  1
  Zr  Zr14  1  0.26075192  0.07857102  0.07850101  1
  Zr  Zr15  1  0.75357637  0.92272914  0.15454172  1
  Zr  Zr16  1  0.75354677  0.15456162  0.92271007  1
  Zr  Zr17  1  0.75354677  0.92272831  0.92271007  1
  Zr  Zr18  1  0.24573953  0.41138486  0.17723029  1
  Zr  Zr19  1  0.24571534  0.17726317  0.41138706  1
  Zr  Zr20  1  0.24571534  0.41134977  0.41138706  1
  Zr  Zr21  1  0.74215569  0.58868994  0.82262012  1
  Zr  Zr22  1  0.74213334  0.82260557  0.58873117  1
  Zr  Zr23  1  0.74213334  0.58866326  0.58873117  1
  Zr  Zr24  1  0.22857127  0.74392984  0.51214032  1
  Zr  Zr25  1  0.22853394  0.51208282  0.74399101  1
  Zr  Zr26  1  0.22853394  0.74392617  0.74399101  1
  Zr  Zr27  1  0.73001709  0.25571731  0.48856538  1
  Zr  Zr28  1  0.73002060  0.48855802  0.25570407  1
  Zr  Zr29  1  0.73002060  0.25573791  0.25570407  1
  Al  Al30  1  0.27677401  0.86731811  0.26536377  1
  Al  Al31  1  0.27667986  0.26545165  0.86727515  1
  Al  Al32  1  0.27667986  0.86727320  0.86727515  1
  Al  Al33  1  0.78629107  0.13248663  0.73502675  1
  Al  Al34  1  0.78632232  0.73503817  0.13241907  1
  Al  Al35  1  0.78632232  0.13254275  0.13241907  1
  Al  Al36  1  0.19802635  0.20060309  0.59879382  1
  Al  Al37  1  0.19799722  0.59874329  0.20057169  1
  Al  Al38  1  0.19799722  0.20068502  0.20057169  1
  Al  Al39  1  0.69765794  0.79972200  0.40055599  1
  Al  Al40  1  0.69771600  0.40048278  0.79976960  1
  Al  Al41  1  0.69771600  0.79974762  0.79976960  1
  Al  Al42  1  0.25334115  0.53361935  0.93276130  1
  Al  Al43  1  0.25328426  0.93272728  0.53369858  1
  Al  Al44  1  0.25328426  0.53357413  0.53369858  1
  Al  Al45  1  0.75330387  0.46613969  0.06772061  1
  Al  Al46  1  0.75331641  0.06779565  0.46614897  1
  Al  Al47  1  0.75331641  0.46605538  0.46614897  1
  O  O48  1  0.48486338  0.33331738  0.33336525  1
  O  O49  1  0.98516516  0.66671180  0.66657640  1
  O  O50  1  0.50832721  0.99997577  0.00004845  1
