# generated using pymatgen
data_ZnGaPS
_symmetry_space_group_name_H-M   'P 1'
_cell_length_a   3.87782779
_cell_length_b   3.87782779
_cell_length_c   6.72112677
_cell_angle_alpha   73.23299339
_cell_angle_beta   90.00000000
_cell_angle_gamma   120.00000000
_symmetry_Int_Tables_number   1
_chemical_formula_structural   ZnGaPS
_chemical_formula_sum   'Zn1 Ga1 P1 S1'
_cell_volume   82.52966564
_cell_formula_units_Z   1
loop_
 _symmetry_equiv_pos_site_id
 _symmetry_equiv_pos_as_xyz
  1  'x, y, z'
loop_
 _atom_site_type_symbol
 _atom_site_label
 _atom_site_symmetry_multiplicity
 _atom_site_fract_x
 _atom_site_fract_y
 _atom_site_fract_z
 _atom_site_occupancy
  Zn  Zn0  1  0.99849906  0.99699813  0.00450281  1
  Ga  Ga1  1  0.50113070  0.00226139  0.49660791  1
  P  P2  1  0.87406713  0.74813425  0.37779862  1
  S  S3  1  0.37630311  0.75260623  0.87109066  1
