# generated using pymatgen
data_MgSi
_symmetry_space_group_name_H-M   'P 1'
_cell_length_a   5.90024340
_cell_length_b   4.33784544
_cell_length_c   17.74446870
_cell_angle_alpha   96.27152207
_cell_angle_beta   90.01289894
_cell_angle_gamma   89.96058900
_symmetry_Int_Tables_number   1
_chemical_formula_structural   MgSi
_chemical_formula_sum   'Mg12 Si12'
_cell_volume   451.43995659
_cell_formula_units_Z   12
loop_
 _symmetry_equiv_pos_site_id
 _symmetry_equiv_pos_as_xyz
  1  'x, y, z'
loop_
 _atom_site_type_symbol
 _atom_site_label
 _atom_site_symmetry_multiplicity
 _atom_site_fract_x
 _atom_site_fract_y
 _atom_site_fract_z
 _atom_site_occupancy
  Mg  Mg0  1  0.58333491  0.35441502  0.95688022  1
  Mg  Mg1  1  0.08339005  0.06943438  0.39545978  1
  Mg  Mg2  1  0.08338287  0.73522662  0.72884190  1
  Mg  Mg3  1  0.08340535  0.40323561  0.06217140  1
  Mg  Mg4  1  0.58333810  0.02083838  0.29018973  1
  Mg  Mg5  1  0.58333255  0.68676512  0.62350686  1
  Mg  Mg6  1  0.08337861  0.97364083  0.20879246  1
  Mg  Mg7  1  0.08336166  0.64095816  0.54215148  1
  Mg  Mg8  1  0.08336250  0.30613001  0.87543239  1
  Mg  Mg9  1  0.58333767  0.92494035  0.10352436  1
  Mg  Mg10  1  0.58335145  0.59239823  0.43679747  1
  Mg  Mg11  1  0.58333001  0.25729027  0.77015118  1
  Si  Si12  1  0.88018876  0.86688148  0.98267535  1
  Si  Si13  1  0.28645752  0.53299953  0.31601033  1
  Si  Si14  1  0.28643880  0.19877871  0.64931595  1
  Si  Si15  1  0.28644903  0.86671749  0.98267476  1
  Si  Si16  1  0.88021559  0.53312926  0.31600515  1
  Si  Si17  1  0.88019724  0.19892088  0.64931472  1
  Si  Si18  1  0.38016911  0.46139781  0.18296458  1
  Si  Si19  1  0.38016384  0.12892313  0.51629189  1
  Si  Si20  1  0.78640816  0.79356165  0.84963740  1
  Si  Si21  1  0.78641468  0.46109278  0.18293642  1
  Si  Si22  1  0.78637002  0.12865387  0.51626987  1
  Si  Si23  1  0.38014152  0.79385942  0.84966136  1
