# generated using pymatgen
data_Tm(Fe5Mo)2
_symmetry_space_group_name_H-M   'P 1'
_cell_length_a   4.74356898
_cell_length_b   6.47459902
_cell_length_c   6.47459902
_cell_angle_alpha   97.26035835
_cell_angle_beta   111.48892633
_cell_angle_gamma   68.51107367
_symmetry_Int_Tables_number   1
_chemical_formula_structural   Tm(Fe5Mo)2
_chemical_formula_sum   'Tm1 Fe10 Mo2'
_cell_volume   172.16116955
_cell_formula_units_Z   1
loop_
 _symmetry_equiv_pos_site_id
 _symmetry_equiv_pos_as_xyz
  1  'x, y, z'
loop_
 _atom_site_type_symbol
 _atom_site_label
 _atom_site_symmetry_multiplicity
 _atom_site_fract_x
 _atom_site_fract_y
 _atom_site_fract_z
 _atom_site_occupancy
  Tm  Tm0  1  -0.00000000  0.00000000  -0.00000000  1
  Fe  Fe1  1  0.71665744  0.78334256  0.21665744  1
  Fe  Fe2  1  0.28334256  0.21665744  0.78334256  1
  Fe  Fe3  1  0.50000000  0.77868512  0.77868512  1
  Fe  Fe4  1  0.50000000  0.22131488  0.22131488  1
  Fe  Fe5  1  0.50000000  0.00000000  0.50000000  1
  Fe  Fe6  1  -0.00000000  0.00000000  0.50000000  1
  Fe  Fe7  1  0.50000000  0.50000000  -0.00000000  1
  Fe  Fe8  1  -0.00000000  0.50000000  -0.00000000  1
  Fe  Fe9  1  0.64140842  0.35859158  0.64140842  1
  Fe  Fe10  1  0.35859158  0.64140842  0.35859158  1
  Mo  Mo11  1  0.00000000  0.35747395  0.35747395  1
  Mo  Mo12  1  -0.00000000  0.64252605  0.64252605  1
