# generated using pymatgen
data_Y2MnFeO6
_symmetry_space_group_name_H-M   'P 1'
_cell_length_a   5.34880614
_cell_length_b   5.79279058
_cell_length_c   7.59788422
_cell_angle_alpha   90.00000000
_cell_angle_beta   89.64194212
_cell_angle_gamma   90.00000000
_symmetry_Int_Tables_number   1
_chemical_formula_structural   Y2MnFeO6
_chemical_formula_sum   'Y4 Mn2 Fe2 O12'
_cell_volume   235.41215168
_cell_formula_units_Z   2
loop_
 _symmetry_equiv_pos_site_id
 _symmetry_equiv_pos_as_xyz
  1  'x, y, z'
loop_
 _atom_site_type_symbol
 _atom_site_label
 _atom_site_symmetry_multiplicity
 _atom_site_fract_x
 _atom_site_fract_y
 _atom_site_fract_z
 _atom_site_occupancy
  Y  Y0  1  0.48124830  0.07703229  0.25005095  1
  Y  Y1  1  0.01875170  0.57703229  0.24994905  1
  Y  Y2  1  0.51875170  0.92296771  0.74994905  1
  Y  Y3  1  0.98124830  0.42296771  0.75005095  1
  Mn  Mn4  1  0.50000000  0.50000000  0.50000000  1
  Mn  Mn5  1  -0.00000000  -0.00000000  -0.00000000  1
  Fe  Fe6  1  0.50000000  0.50000000  -0.00000000  1
  Fe  Fe7  1  -0.00000000  -0.00000000  0.50000000  1
  O  O8  1  0.80572552  0.68652023  0.55478357  1
  O  O9  1  0.69427448  0.18652023  0.94521643  1
  O  O10  1  0.19830375  0.32254524  0.05951800  1
  O  O11  1  0.30169625  0.82254524  0.44048200  1
  O  O12  1  0.19427448  0.31347977  0.44521643  1
  O  O13  1  0.30572552  0.81347977  0.05478357  1
  O  O14  1  0.80169625  0.67745476  0.94048200  1
  O  O15  1  0.69830375  0.17745476  0.55951800  1
  O  O16  1  0.38613014  0.53889124  0.74529912  1
  O  O17  1  0.11386986  0.03889124  0.75470088  1
  O  O18  1  0.61386986  0.46110876  0.25470088  1
  O  O19  1  0.88613014  0.96110876  0.24529912  1
