# generated using pymatgen
data_Tm2Ga3Ni
_symmetry_space_group_name_H-M   'P 1'
_cell_length_a   4.32265276
_cell_length_b   5.60201086
_cell_length_c   5.49944616
_cell_angle_alpha   95.62633814
_cell_angle_beta   113.14179640
_cell_angle_gamma   67.30580321
_symmetry_Int_Tables_number   1
_chemical_formula_structural   Tm2Ga3Ni
_chemical_formula_sum   'Tm2 Ga3 Ni1'
_cell_volume   112.74987826
_cell_formula_units_Z   1
loop_
 _symmetry_equiv_pos_site_id
 _symmetry_equiv_pos_as_xyz
  1  'x, y, z'
loop_
 _atom_site_type_symbol
 _atom_site_label
 _atom_site_symmetry_multiplicity
 _atom_site_fract_x
 _atom_site_fract_y
 _atom_site_fract_z
 _atom_site_occupancy
  Tm  Tm0  1  0.75172256  0.70541369  0.20885881  1
  Tm  Tm1  1  0.24963831  0.29821214  0.79748876  1
  Ga  Ga2  1  0.46124564  0.68757414  0.61006542  1
  Ga  Ga3  1  0.05546416  0.12037346  0.23130178  1
  Ga  Ga4  1  0.93155039  0.90578887  0.76888965  1
  Ni  Ni5  1  0.55037894  0.28263769  0.38339557  1
