# generated using pymatgen
data_YGa3NiGe
_symmetry_space_group_name_H-M   'P 1'
_cell_length_a   4.21232748
_cell_length_b   4.21232748
_cell_length_c   12.36432136
_cell_angle_alpha   80.19229524
_cell_angle_beta   80.19229524
_cell_angle_gamma   90.00000000
_symmetry_Int_Tables_number   1
_chemical_formula_structural   YGa3NiGe
_chemical_formula_sum   'Y2 Ga6 Ni2 Ge2'
_cell_volume   212.92783044
_cell_formula_units_Z   2
loop_
 _symmetry_equiv_pos_site_id
 _symmetry_equiv_pos_as_xyz
  1  'x, y, z'
loop_
 _atom_site_type_symbol
 _atom_site_label
 _atom_site_symmetry_multiplicity
 _atom_site_fract_x
 _atom_site_fract_y
 _atom_site_fract_z
 _atom_site_occupancy
  Y  Y0  1  0.15151317  0.15151317  0.69697365  1
  Y  Y1  1  0.85465376  0.85465376  0.29069247  1
  Ga  Ga2  1  0.75997023  0.25997023  0.48005955  1
  Ga  Ga3  1  0.25997023  0.75997023  0.48005955  1
  Ga  Ga4  1  0.55294672  0.05294672  0.89410657  1
  Ga  Ga5  1  0.05294672  0.55294672  0.89410657  1
  Ga  Ga6  1  0.44444921  0.94444921  0.11110159  1
  Ga  Ga7  1  0.94444921  0.44444921  0.11110159  1
  Ni  Ni8  1  0.99923916  0.99923916  0.00152168  1
  Ni  Ni9  1  0.71689709  0.71689709  0.56620582  1
  Ge  Ge10  1  0.35694282  0.35694282  0.28611436  1
  Ge  Ge11  1  0.62295169  0.62295169  0.75409662  1
