# generated using pymatgen
data_V2(B24C)3
_symmetry_space_group_name_H-M   'P 1'
_cell_length_a   5.02664794
_cell_length_b   8.75108878
_cell_length_c   26.24232158
_cell_angle_alpha   90.00000000
_cell_angle_beta   90.00000000
_cell_angle_gamma   90.00000000
_symmetry_Int_Tables_number   1
_chemical_formula_structural   V2(B24C)3
_chemical_formula_sum   'V4 B144 C6'
_cell_volume   1154.36409943
_cell_formula_units_Z   2
loop_
 _symmetry_equiv_pos_site_id
 _symmetry_equiv_pos_as_xyz
  1  'x, y, z'
loop_
 _atom_site_type_symbol
 _atom_site_label
 _atom_site_symmetry_multiplicity
 _atom_site_fract_x
 _atom_site_fract_y
 _atom_site_fract_z
 _atom_site_occupancy
  V  V0  1  0.50000000  0.50000000  0.16784726  1
  V  V1  1  0.50000000  0.50000000  0.50000000  1
  V  V2  1  0.50000000  0.50000000  0.83215274  1
  V  V3  1  0.00000000  -0.00000000  0.00000000  1
  B  B4  1  0.41061489  0.41548505  0.08828866  1
  B  B5  1  0.41237499  0.41541389  0.42187660  1
  B  B6  1  0.41191914  0.41526266  0.75520622  1
  B  B7  1  0.41191914  0.58473734  0.24479378  1
  B  B8  1  0.41237499  0.58458611  0.57812340  1
  B  B9  1  0.41061489  0.58451495  0.91171134  1
  B  B10  1  0.08977465  0.91962213  0.25640878  1
  B  B11  1  0.08816260  0.91999129  0.58984797  1
  B  B12  1  0.08939927  0.91535838  0.92166202  1
  B  B13  1  0.08939927  0.08464162  0.07833798  1
  B  B14  1  0.08816260  0.08000871  0.41015203  1
  B  B15  1  0.08977465  0.08037787  0.74359122  1
  B  B16  1  0.58938511  0.58451495  0.08828866  1
  B  B17  1  0.58762501  0.58458611  0.42187660  1
  B  B18  1  0.58808086  0.58473734  0.75520622  1
  B  B19  1  0.58808086  0.41526266  0.24479378  1
  B  B20  1  0.58762501  0.41541389  0.57812340  1
  B  B21  1  0.58938511  0.41548505  0.91171134  1
  B  B22  1  0.91022535  0.08037787  0.25640878  1
  B  B23  1  0.91183740  0.08000871  0.58984797  1
  B  B24  1  0.91060073  0.08464162  0.92166202  1
  B  B25  1  0.91060073  0.91535838  0.07833798  1
  B  B26  1  0.91183740  0.91999129  0.41015203  1
  B  B27  1  0.91022535  0.91962213  0.74359122  1
  B  B28  1  0.59021506  0.73455279  0.13834954  1
  B  B29  1  0.58759876  0.73438703  0.47180437  1
  B  B30  1  0.58717196  0.73470371  0.80525987  1
  B  B31  1  0.58717196  0.26529629  0.19474013  1
  B  B32  1  0.58759876  0.26561297  0.52819563  1
  B  B33  1  0.59021506  0.26544721  0.86165046  1
  B  B34  1  0.91052430  0.23032538  0.30642794  1
  B  B35  1  0.91163036  0.23089979  0.64001324  1
  B  B36  1  0.91054318  0.23482513  0.97186003  1
  B  B37  1  0.91054318  0.76517487  0.02813997  1
  B  B38  1  0.91163036  0.76910021  0.35998676  1
  B  B39  1  0.91052430  0.76967462  0.69357206  1
  B  B40  1  0.40978494  0.26544721  0.13834954  1
  B  B41  1  0.41240124  0.26561297  0.47180437  1
  B  B42  1  0.41282804  0.26529629  0.80525987  1
  B  B43  1  0.41282804  0.73470371  0.19474013  1
  B  B44  1  0.41240124  0.73438703  0.52819563  1
  B  B45  1  0.40978494  0.73455279  0.86165046  1
  B  B46  1  0.08947570  0.76967462  0.30642794  1
  B  B47  1  0.08836964  0.76910021  0.64001324  1
  B  B48  1  0.08945682  0.76517487  0.97186003  1
  B  B49  1  0.08945682  0.23482513  0.02813997  1
  B  B50  1  0.08836964  0.23089979  0.35998676  1
  B  B51  1  0.08947570  0.23032538  0.69357206  1
  B  B52  1  0.12279824  0.37740136  0.12568051  1
  B  B53  1  0.12531873  0.37770961  0.45921144  1
  B  B54  1  0.12569530  0.37760347  0.79265248  1
  B  B55  1  0.12569530  0.62239653  0.20734752  1
  B  B56  1  0.12531873  0.62229039  0.54078856  1
  B  B57  1  0.12279824  0.62259864  0.87431949  1
  B  B58  1  0.38485709  0.87665251  0.29210154  1
  B  B59  1  0.38529218  0.87641431  0.62563338  1
  B  B60  1  0.37715332  0.87733512  0.95912134  1
  B  B61  1  0.37715332  0.12266488  0.04087866  1
  B  B62  1  0.38529218  0.12358569  0.37436662  1
  B  B63  1  0.38485709  0.12334749  0.70789846  1
  B  B64  1  0.87720176  0.62259864  0.12568051  1
  B  B65  1  0.87468127  0.62229039  0.45921144  1
  B  B66  1  0.87430470  0.62239653  0.79265248  1
  B  B67  1  0.87430470  0.37760347  0.20734752  1
  B  B68  1  0.87468127  0.37770961  0.54078856  1
  B  B69  1  0.87720176  0.37740136  0.87431949  1
  B  B70  1  0.61514291  0.12334749  0.29210154  1
  B  B71  1  0.61470782  0.12358569  0.62563338  1
  B  B72  1  0.62284668  0.12266488  0.95912134  1
  B  B73  1  0.62284668  0.87733512  0.04087866  1
  B  B74  1  0.61470782  0.87641431  0.37436662  1
  B  B75  1  0.61514291  0.87665251  0.70789846  1
  B  B76  1  0.91711715  0.25670559  0.08551404  1
  B  B77  1  0.92221858  0.25376308  0.41794400  1
  B  B78  1  0.92102533  0.25316005  0.75114314  1
  B  B79  1  0.92102533  0.74683995  0.24885686  1
  B  B80  1  0.92221858  0.74623692  0.58205600  1
  B  B81  1  0.91711715  0.74329441  0.91448596  1
  B  B82  1  0.58327330  0.75790694  0.25248440  1
  B  B83  1  0.58202382  0.75793883  0.58603961  1
  B  B84  1  0.58288596  0.75626646  0.91891363  1
  B  B85  1  0.58288596  0.24373354  0.08108637  1
  B  B86  1  0.58202382  0.24206117  0.41396039  1
  B  B87  1  0.58327330  0.24209306  0.74751560  1
  B  B88  1  0.08288285  0.74329441  0.08551404  1
  B  B89  1  0.07778142  0.74623692  0.41794400  1
  B  B90  1  0.07897467  0.74683995  0.75114314  1
  B  B91  1  0.07897467  0.25316005  0.24885686  1
  B  B92  1  0.07778142  0.25376308  0.58205600  1
  B  B93  1  0.08288285  0.25670559  0.91448596  1
  B  B94  1  0.41672670  0.24209306  0.25248440  1
  B  B95  1  0.41797618  0.24206117  0.58603961  1
  B  B96  1  0.41711404  0.24373354  0.91891363  1
  B  B97  1  0.41711404  0.75626646  0.08108637  1
  B  B98  1  0.41797618  0.75793883  0.41396039  1
  B  B99  1  0.41672670  0.75790694  0.74751560  1
  B  B100  1  0.09531291  0.41677625  0.05771284  1
  B  B101  1  0.09714144  0.41530961  0.39108901  1
  B  B102  1  0.09643726  0.41517684  0.72447596  1
  B  B103  1  0.09643726  0.58482316  0.27552404  1
  B  B104  1  0.09714144  0.58469039  0.60891099  1
  B  B105  1  0.09531291  0.58322375  0.94228716  1
  B  B106  1  0.40311659  0.91657935  0.22424198  1
  B  B107  1  0.40325671  0.91605158  0.55770961  1
  B  B108  1  0.40457417  0.91653338  0.89110603  1
  B  B109  1  0.40457417  0.08346662  0.10889397  1
  B  B110  1  0.40325671  0.08394842  0.44229039  1
  B  B111  1  0.40311659  0.08342065  0.77575802  1
  B  B112  1  0.90468709  0.58322375  0.05771284  1
  B  B113  1  0.90285856  0.58469039  0.39108901  1
  B  B114  1  0.90356274  0.58482316  0.72447596  1
  B  B115  1  0.90356274  0.41517684  0.27552404  1
  B  B116  1  0.90285856  0.41530961  0.60891099  1
  B  B117  1  0.90468709  0.41677625  0.94228716  1
  B  B118  1  0.59688341  0.08342065  0.22424198  1
  B  B119  1  0.59674329  0.08394842  0.55770961  1
  B  B120  1  0.59542583  0.08346662  0.89110603  1
  B  B121  1  0.59542583  0.91653338  0.10889397  1
  B  B122  1  0.59674329  0.91605158  0.44229039  1
  B  B123  1  0.59688341  0.91657935  0.77575802  1
  B  B124  1  0.90685666  0.82561921  0.13914975  1
  B  B125  1  0.90297145  0.82659512  0.47173414  1
  B  B126  1  0.90146467  0.82762356  0.80497204  1
  B  B127  1  0.90146467  0.17237644  0.19502796  1
  B  B128  1  0.90297145  0.17340488  0.52826586  1
  B  B129  1  0.90685666  0.17438079  0.86085025  1
  B  B130  1  0.59645573  0.32676070  0.30552363  1
  B  B131  1  0.59732544  0.32726858  0.63876930  1
  B  B132  1  0.59516655  0.32623947  0.97219684  1
  B  B133  1  0.59516655  0.67376053  0.02780316  1
  B  B134  1  0.59732544  0.67273142  0.36123070  1
  B  B135  1  0.59645573  0.67323930  0.69447637  1
  B  B136  1  0.09314334  0.17438079  0.13914975  1
  B  B137  1  0.09702855  0.17340488  0.47173414  1
  B  B138  1  0.09853533  0.17237644  0.80497204  1
  B  B139  1  0.09853533  0.82762356  0.19502796  1
  B  B140  1  0.09702855  0.82659512  0.52826586  1
  B  B141  1  0.09314334  0.82561921  0.86085025  1
  B  B142  1  0.40354427  0.67323930  0.30552363  1
  B  B143  1  0.40267456  0.67273142  0.63876930  1
  B  B144  1  0.40483345  0.67376053  0.97219684  1
  B  B145  1  0.40483345  0.32623947  0.02780316  1
  B  B146  1  0.40267456  0.32726858  0.36123070  1
  B  B147  1  0.40354427  0.32676070  0.69447637  1
  C  C148  1  0.00000000  0.50000000  0.16654077  1
  C  C149  1  0.00000000  0.50000000  0.50000000  1
  C  C150  1  0.00000000  0.50000000  0.83345923  1
  C  C151  1  0.50000000  -0.00000000  0.00000000  1
  C  C152  1  0.50000000  -0.00000000  0.33331107  1
  C  C153  1  0.50000000  -0.00000000  0.66668893  1
