# generated using pymatgen
data_Zn3Fe2Cu10(SnSe4)5
_symmetry_space_group_name_H-M   'P 1'
_cell_length_a   5.76946653
_cell_length_b   7.04413745
_cell_length_c   25.80214924
_cell_angle_alpha   90.31593537
_cell_angle_beta   90.00000000
_cell_angle_gamma   65.82515310
_symmetry_Int_Tables_number   1
_chemical_formula_structural   Zn3Fe2Cu10(SnSe4)5
_chemical_formula_sum   'Zn3 Fe2 Cu10 Sn5 Se20'
_cell_volume   956.64123877
_cell_formula_units_Z   1
loop_
 _symmetry_equiv_pos_site_id
 _symmetry_equiv_pos_as_xyz
  1  'x, y, z'
loop_
 _atom_site_type_symbol
 _atom_site_label
 _atom_site_symmetry_multiplicity
 _atom_site_fract_x
 _atom_site_fract_y
 _atom_site_fract_z
 _atom_site_occupancy
  Zn  Zn0  1  0.00017722  0.99993002  0.00001330  1
  Zn  Zn1  1  0.19999413  0.60000000  0.20000000  1
  Zn  Zn2  1  0.40010724  0.20006998  0.39998670  1
  Fe  Fe3  1  0.59964317  0.80001893  0.60003426  1
  Fe  Fe4  1  0.79966210  0.39998107  0.79996574  1
  Cu  Cu5  1  0.29996736  0.40000199  0.05003234  1
  Cu  Cu6  1  0.69909726  0.60038298  0.45012486  1
  Cu  Cu7  1  0.50004145  0.99991311  0.24998726  1
  Cu  Cu8  1  0.10132650  0.79974319  0.84989944  1
  Cu  Cu9  1  0.89995363  0.20012903  0.65000269  1
  Cu  Cu10  1  0.69948024  0.59961702  0.94987514  1
  Cu  Cu11  1  0.09996935  0.79999801  0.34996766  1
  Cu  Cu12  1  0.89995456  0.20008689  0.15001274  1
  Cu  Cu13  1  0.50008265  0.99987097  0.74999731  1
  Cu  Cu14  1  0.30106969  0.40025681  0.55010056  1
  Sn  Sn15  1  0.39978867  0.20049455  0.89970448  1
  Sn  Sn16  1  0.80020279  0.40012050  0.30008219  1
  Sn  Sn17  1  0.60032329  0.79987950  0.09991781  1
  Sn  Sn18  1  0.19937973  0.60000000  0.70000000  1
  Sn  Sn19  1  0.00028322  0.99950545  0.50029552  1
  Se  Se20  1  0.50749270  0.51974010  0.87311334  1
  Se  Se21  1  0.69924113  0.12106552  0.07519553  1
  Se  Se22  1  0.89935417  0.72098471  0.27513526  1
  Se  Se23  1  0.10099629  0.32272890  0.47494046  1
  Se  Se24  1  0.30779291  0.92165864  0.67310404  1
  Se  Se25  1  0.08173193  0.31316500  0.97953569  1
  Se  Se26  1  0.28341512  0.91324815  0.17910413  1
  Se  Se27  1  0.48304461  0.51333899  0.37932846  1
  Se  Se28  1  0.67923753  0.10630660  0.58018875  1
  Se  Se29  1  0.87817961  0.70628713  0.78042821  1
  Se  Se30  1  0.39638360  0.68666101  0.02067154  1
  Se  Se31  1  0.59666327  0.28675185  0.22089587  1
  Se  Se32  1  0.79489693  0.88683500  0.42046431  1
  Se  Se33  1  0.98446673  0.49371287  0.61957179  1
  Se  Se34  1  0.18554414  0.09369340  0.81981125  1
  Se  Se35  1  0.02033888  0.47901529  0.12486474  1
  Se  Se36  1  0.22030666  0.07893448  0.32480447  1
  Se  Se37  1  0.42723279  0.68025990  0.52688666  1
  Se  Se38  1  0.62945156  0.27834136  0.72689596  1
  Se  Se39  1  0.82372519  0.87727110  0.92505954  1
