# generated using pymatgen
data_TbDy3(FeCo)4
_symmetry_space_group_name_H-M   'P 1'
_cell_length_a   5.10160488
_cell_length_b   5.25697648
_cell_length_c   8.71800373
_cell_angle_alpha   72.45221132
_cell_angle_beta   90.82380548
_cell_angle_gamma   121.01267732
_symmetry_Int_Tables_number   1
_chemical_formula_structural   TbDy3(FeCo)4
_chemical_formula_sum   'Tb1 Dy3 Fe4 Co4'
_cell_volume   188.19717330
_cell_formula_units_Z   1
loop_
 _symmetry_equiv_pos_site_id
 _symmetry_equiv_pos_as_xyz
  1  'x, y, z'
loop_
 _atom_site_type_symbol
 _atom_site_label
 _atom_site_symmetry_multiplicity
 _atom_site_fract_x
 _atom_site_fract_y
 _atom_site_fract_z
 _atom_site_occupancy
  Tb  Tb0  1  0.50007811  0.00158348  0.49691114  1
  Dy  Dy1  1  0.87145083  0.74888180  0.37368723  1
  Dy  Dy2  1  0.37471131  0.74821817  0.87827498  1
  Dy  Dy3  1  0.00351155  0.00115966  0.00119224  1
  Fe  Fe4  1  0.18675477  0.37405118  0.43865240  1
  Fe  Fe5  1  0.68831593  0.37604180  0.93623233  1
  Fe  Fe6  1  0.93801275  0.37548787  0.18703701  1
  Fe  Fe7  1  0.43733764  0.37472961  0.68787842  1
  Co  Co8  1  0.43751800  0.37542457  0.18708070  1
  Co  Co9  1  0.93739555  0.37461777  0.68798642  1
  Co  Co10  1  0.43751800  0.87501273  0.18708070  1
  Co  Co11  1  0.93739555  0.87479136  0.68798642  1
