# generated using pymatgen
data_SrTiFe3(BiO4)3
_symmetry_space_group_name_H-M   'P 1'
_cell_length_a   5.63356675
_cell_length_b   5.63356687
_cell_length_c   9.87098312
_cell_angle_alpha   90.00000004
_cell_angle_beta   106.58036823
_cell_angle_gamma   120.00000067
_symmetry_Int_Tables_number   1
_chemical_formula_structural   SrTiFe3(BiO4)3
_chemical_formula_sum   'Sr1 Ti1 Fe3 Bi3 O12'
_cell_volume   256.15370473
_cell_formula_units_Z   1
loop_
 _symmetry_equiv_pos_site_id
 _symmetry_equiv_pos_as_xyz
  1  'x, y, z'
loop_
 _atom_site_type_symbol
 _atom_site_label
 _atom_site_symmetry_multiplicity
 _atom_site_fract_x
 _atom_site_fract_y
 _atom_site_fract_z
 _atom_site_occupancy
  Sr  Sr0  1  0.73149934  0.36574967  0.09724901  1
  Ti  Ti1  1  0.97906848  0.98953424  0.96860272  1
  Fe  Fe2  1  0.48323985  0.74161993  0.22485978  1
  Fe  Fe3  1  0.49131634  0.24565817  0.73697450  1
  Fe  Fe4  1  0.98766695  0.49383347  0.48150042  1
  Bi  Bi5  1  0.70767550  0.85383775  0.56151325  1
  Bi  Bi6  1  0.20682957  0.10341478  0.31024435  1
  Bi  Bi7  1  0.20772764  0.60386382  0.81159146  1
  O  O8  1  0.24812911  0.19189578  0.87378627  1
  O  O9  1  0.26337036  0.70032330  0.37612438  1
  O  O10  1  0.81755294  0.62565717  0.87378627  1
  O  O11  1  0.81307732  0.11275402  0.37612438  1
  O  O12  1  0.68189050  0.05623333  0.87378627  1
  O  O13  1  0.67580108  0.56304705  0.37612438  1
  O  O14  1  0.17022961  0.85986499  0.63159000  1
  O  O15  1  0.18765841  0.35516897  0.12696751  1
  O  O16  1  0.32122538  0.46136039  0.63159000  1
  O  O17  1  0.29447808  0.93930910  0.12696751  1
  O  O18  1  0.77172501  0.31036462  0.63159000  1
  O  O19  1  0.77179854  0.83248944  0.12696751  1
