# generated using pymatgen
data_TiFe3Bi3PbO12
_symmetry_space_group_name_H-M   'P 1'
_cell_length_a   6.00198352
_cell_length_b   9.69780955
_cell_length_c   5.45139447
_cell_angle_alpha   74.47809976
_cell_angle_beta   65.24335088
_cell_angle_gamma   84.28632937
_symmetry_Int_Tables_number   1
_chemical_formula_structural   TiFe3Bi3PbO12
_chemical_formula_sum   'Ti1 Fe3 Bi3 Pb1 O12'
_cell_volume   277.60495693
_cell_formula_units_Z   1
loop_
 _symmetry_equiv_pos_site_id
 _symmetry_equiv_pos_as_xyz
  1  'x, y, z'
loop_
 _atom_site_type_symbol
 _atom_site_label
 _atom_site_symmetry_multiplicity
 _atom_site_fract_x
 _atom_site_fract_y
 _atom_site_fract_z
 _atom_site_occupancy
  Ti  Ti0  1  0.51212323  0.01155355  0.70907450  1
  Fe  Fe1  1  0.25689549  0.24201551  0.23090871  1
  Fe  Fe2  1  0.76842542  0.75017653  0.21364891  1
  Fe  Fe3  1  0.00309660  0.51128730  0.71662883  1
  Bi  Bi4  1  0.55948716  0.37519727  0.55488686  1
  Bi  Bi5  1  0.05753756  0.87354950  0.53365758  1
  Bi  Bi6  1  0.33708211  0.60072721  0.04550762  1
  Pb  Pb7  1  0.85321376  0.12099192  0.01495781  1
  O  O8  1  0.47222099  0.15668187  0.90920087  1
  O  O9  1  -0.00004931  0.66503367  0.89603418  1
  O  O10  1  0.48198864  0.15980647  0.40960419  1
  O  O11  1  0.00308343  0.66876271  0.39034545  1
  O  O12  1  0.21510311  0.40157729  0.90886468  1
  O  O13  1  0.72040119  0.89929151  0.90288964  1
  O  O14  1  0.21161536  0.40883819  0.40524924  1
  O  O15  1  0.72203811  0.90362606  0.41447686  1
  O  O16  1  0.68613937  0.43033166  0.87192170  1
  O  O17  1  0.22495724  0.92190110  0.87590280  1
  O  O18  1  0.97369658  0.12781196  0.42438263  1
  O  O19  1  0.49694395  0.62283871  0.37985695  1
