# generated using pymatgen
data_TbZnCuAs2
_symmetry_space_group_name_H-M   'P 1'
_cell_length_a   4.12556796
_cell_length_b   4.12560631
_cell_length_c   6.72384292
_cell_angle_alpha   89.99965794
_cell_angle_beta   89.99929728
_cell_angle_gamma   60.00031005
_symmetry_Int_Tables_number   1
_chemical_formula_structural   TbZnCuAs2
_chemical_formula_sum   'Tb1 Zn1 Cu1 As2'
_cell_volume   99.11082159
_cell_formula_units_Z   1
loop_
 _symmetry_equiv_pos_site_id
 _symmetry_equiv_pos_as_xyz
  1  'x, y, z'
loop_
 _atom_site_type_symbol
 _atom_site_label
 _atom_site_symmetry_multiplicity
 _atom_site_fract_x
 _atom_site_fract_y
 _atom_site_fract_z
 _atom_site_occupancy
  Tb  Tb0  1  0.99999382  0.99999522  0.98375804  1
  Zn  Zn1  1  0.33332309  0.33332420  0.37597932  1
  Cu  Cu2  1  0.66668955  0.66668243  0.63965685  1
  As  As3  1  0.66665832  0.66666112  0.25243594  1
  As  As4  1  0.33333522  0.33333703  0.74816986  1
