# generated using pymatgen
data_Th14Cu51
_symmetry_space_group_name_H-M   'P 1'
_cell_length_a   8.86243549
_cell_length_b   11.85122626
_cell_length_c   11.85154358
_cell_angle_alpha   120.00248496
_cell_angle_beta   90.00000000
_cell_angle_gamma   90.00000000
_symmetry_Int_Tables_number   1
_chemical_formula_structural   Th14Cu51
_chemical_formula_sum   'Th14 Cu51'
_cell_volume   1077.98086259
_cell_formula_units_Z   1
loop_
 _symmetry_equiv_pos_site_id
 _symmetry_equiv_pos_as_xyz
  1  'x, y, z'
loop_
 _atom_site_type_symbol
 _atom_site_label
 _atom_site_symmetry_multiplicity
 _atom_site_fract_x
 _atom_site_fract_y
 _atom_site_fract_z
 _atom_site_occupancy
  Th  Th0  1  0.30370364  0.00001948  0.00000971  1
  Th  Th1  1  0.69629636  0.00001948  0.00000971  1
  Th  Th2  1  -0.00000000  0.26715691  0.89090962  1
  Th  Th3  1  -0.00000000  0.10906187  0.37626902  1
  Th  Th4  1  -0.00000000  0.62375237  0.73283216  1
  Th  Th5  1  -0.00000000  0.71491668  0.11341686  1
  Th  Th6  1  -0.00000000  0.88662056  0.60151312  1
  Th  Th7  1  -0.00000000  0.39849245  0.28507608  1
  Th  Th8  1  0.50000000  0.67424847  0.52731661  1
  Th  Th9  1  0.50000000  0.47270466  0.14693400  1
  Th  Th10  1  0.50000000  0.85308082  0.32579750  1
  Th  Th11  1  0.50000000  0.32748580  0.47496898  1
  Th  Th12  1  0.50000000  0.52501710  0.85250533  1
  Th  Th13  1  0.50000000  0.14745949  0.67247950  1
  Cu  Cu14  1  0.15674608  0.62118837  0.50429637  1
  Cu  Cu15  1  0.15675775  0.49568677  0.11686787  1
  Cu  Cu16  1  0.15675096  0.88311597  0.37879818  1
  Cu  Cu17  1  0.15373108  0.38199973  0.50180147  1
  Cu  Cu18  1  0.15378898  0.49820246  0.88019974  1
  Cu  Cu19  1  0.15376571  0.11977203  0.61795215  1
  Cu  Cu20  1  0.84626892  0.38199973  0.50180147  1
  Cu  Cu21  1  0.84621102  0.49820246  0.88019974  1
  Cu  Cu22  1  0.84623429  0.11977203  0.61795215  1
  Cu  Cu23  1  0.84325392  0.62118837  0.50429637  1
  Cu  Cu24  1  0.84324225  0.49568677  0.11686787  1
  Cu  Cu25  1  0.84324904  0.88311597  0.37879818  1
  Cu  Cu26  1  0.32341360  0.33271742  0.89942423  1
  Cu  Cu27  1  0.32338384  0.10056843  0.43328162  1
  Cu  Cu28  1  0.32339437  0.56670265  0.66725164  1
  Cu  Cu29  1  0.32606956  0.66418599  0.10036714  1
  Cu  Cu30  1  0.32605868  0.89963879  0.56384300  1
  Cu  Cu31  1  0.32605892  0.43617477  0.33581887  1
  Cu  Cu32  1  0.67393044  0.66418599  0.10036714  1
  Cu  Cu33  1  0.67394132  0.89963879  0.56384300  1
  Cu  Cu34  1  0.67394108  0.43617477  0.33581887  1
  Cu  Cu35  1  0.67658640  0.33271742  0.89942423  1
  Cu  Cu36  1  0.67661616  0.10056843  0.43328162  1
  Cu  Cu37  1  0.67660563  0.56670265  0.66725164  1
  Cu  Cu38  1  -0.00000000  0.66667540  0.33334433  1
  Cu  Cu39  1  -0.00000000  0.33333983  0.66667805  1
  Cu  Cu40  1  0.27498943  0.66665291  0.33332459  1
  Cu  Cu41  1  0.27446498  0.33331524  0.66666158  1
  Cu  Cu42  1  0.72553502  0.33331524  0.66666158  1
  Cu  Cu43  1  0.72501057  0.66665291  0.33332459  1
  Cu  Cu44  1  0.24426870  0.80648639  0.73114664  1
  Cu  Cu45  1  0.24426663  0.26886678  0.07533726  1
  Cu  Cu46  1  0.24423776  0.92465932  0.19352278  1
  Cu  Cu47  1  0.24575220  0.19980804  0.26930641  1
  Cu  Cu48  1  0.24582505  0.73066767  0.93054241  1
  Cu  Cu49  1  0.24582545  0.06949311  0.80013546  1
  Cu  Cu50  1  0.75424780  0.19980804  0.26930641  1
  Cu  Cu51  1  0.75417495  0.73066767  0.93054241  1
  Cu  Cu52  1  0.75417455  0.06949311  0.80013546  1
  Cu  Cu53  1  0.75573130  0.80648639  0.73114664  1
  Cu  Cu54  1  0.75573337  0.26886678  0.07533726  1
  Cu  Cu55  1  0.75576224  0.92465932  0.19352278  1
  Cu  Cu56  1  0.50000000  0.18374255  0.94151676  1
  Cu  Cu57  1  0.50000000  0.05850006  0.24225459  1
  Cu  Cu58  1  0.50000000  0.75782689  0.81629190  1
  Cu  Cu59  1  0.50000000  0.81556986  0.05834602  1
  Cu  Cu60  1  0.50000000  0.94165636  0.75721793  1
  Cu  Cu61  1  0.50000000  0.24283604  0.18450319  1
  Cu  Cu62  1  -0.00000000  0.97210442  0.86648849  1
  Cu  Cu63  1  -0.00000000  0.13351292  0.10564357  1
  Cu  Cu64  1  -0.00000000  0.89439384  0.02791817  1
