# generated using pymatgen
data_Tb3CuSe6
_symmetry_space_group_name_H-M   'P 1'
_cell_length_a   7.11467119
_cell_length_b   7.77984849
_cell_length_c   17.11074455
_cell_angle_alpha   90.00000000
_cell_angle_beta   89.60492376
_cell_angle_gamma   90.00000000
_symmetry_Int_Tables_number   1
_chemical_formula_structural   Tb3CuSe6
_chemical_formula_sum   'Tb12 Cu4 Se24'
_cell_volume   947.07540005
_cell_formula_units_Z   4
loop_
 _symmetry_equiv_pos_site_id
 _symmetry_equiv_pos_as_xyz
  1  'x, y, z'
loop_
 _atom_site_type_symbol
 _atom_site_label
 _atom_site_symmetry_multiplicity
 _atom_site_fract_x
 _atom_site_fract_y
 _atom_site_fract_z
 _atom_site_occupancy
  Tb  Tb0  1  0.26565547  0.93957030  0.75039005  1
  Tb  Tb1  1  0.73434453  0.06042970  0.24960995  1
  Tb  Tb2  1  0.26565547  0.56042970  0.25039005  1
  Tb  Tb3  1  0.73434453  0.43957030  0.74960995  1
  Tb  Tb4  1  0.23883421  0.55802306  0.58801962  1
  Tb  Tb5  1  0.76817966  0.44179644  0.09111519  1
  Tb  Tb6  1  0.23182034  0.94179644  0.40888481  1
  Tb  Tb7  1  0.76116579  0.05802306  0.91198038  1
  Tb  Tb8  1  0.76116579  0.44197694  0.41198038  1
  Tb  Tb9  1  0.23182034  0.55820356  0.90888481  1
  Tb  Tb10  1  0.76817966  0.05820356  0.59111519  1
  Tb  Tb11  1  0.23883421  0.94197694  0.08801962  1
  Cu  Cu12  1  0.39372507  0.21097772  0.52688595  1
  Cu  Cu13  1  0.60627493  0.71097772  0.97311405  1
  Cu  Cu14  1  0.60627493  0.78902228  0.47311405  1
  Cu  Cu15  1  0.39372507  0.28902228  0.02688595  1
  Se  Se16  1  0.39043109  0.90889338  0.58163492  1
  Se  Se17  1  0.61752702  0.09213052  0.08121253  1
  Se  Se18  1  0.38247298  0.59213052  0.41878747  1
  Se  Se19  1  0.60956891  0.40889338  0.91836508  1
  Se  Se20  1  0.60956891  0.09110662  0.41836508  1
  Se  Se21  1  0.38247298  0.90786948  0.91878747  1
  Se  Se22  1  0.61752702  0.40786948  0.58121253  1
  Se  Se23  1  0.39043109  0.59110662  0.08163492  1
  Se  Se24  1  0.38117539  0.59674813  0.74892463  1
  Se  Se25  1  0.61882461  0.40325187  0.25107537  1
  Se  Se26  1  0.38117539  0.90325187  0.24892463  1
  Se  Se27  1  0.61882461  0.09674813  0.75107537  1
  Se  Se28  1  0.07823062  0.25000393  0.67905661  1
  Se  Se29  1  0.92506658  0.75059627  0.17736598  1
  Se  Se30  1  0.07493342  0.25059627  0.32263402  1
  Se  Se31  1  0.92176938  0.75000393  0.82094339  1
  Se  Se32  1  0.92176938  0.74999607  0.32094339  1
  Se  Se33  1  0.07493342  0.24940373  0.82263402  1
  Se  Se34  1  0.92506658  0.74940373  0.67736598  1
  Se  Se35  1  0.07823062  0.24999607  0.17905661  1
  Se  Se36  1  0.06388995  0.25074488  0.49926884  1
  Se  Se37  1  0.93611005  0.75074488  0.00073116  1
  Se  Se38  1  0.93611005  0.74925512  0.50073116  1
  Se  Se39  1  0.06388995  0.24925512  0.99926884  1
