# generated using pymatgen
data_Ta2(PdRu)3
_symmetry_space_group_name_H-M   'P 1'
_cell_length_a   4.03388547
_cell_length_b   3.92643927
_cell_length_c   7.66279488
_cell_angle_alpha   90.00000000
_cell_angle_beta   90.00000000
_cell_angle_gamma   90.00000000
_symmetry_Int_Tables_number   1
_chemical_formula_structural   Ta2(PdRu)3
_chemical_formula_sum   'Ta2 Pd3 Ru3'
_cell_volume   121.36952397
_cell_formula_units_Z   1
loop_
 _symmetry_equiv_pos_site_id
 _symmetry_equiv_pos_as_xyz
  1  'x, y, z'
loop_
 _atom_site_type_symbol
 _atom_site_label
 _atom_site_symmetry_multiplicity
 _atom_site_fract_x
 _atom_site_fract_y
 _atom_site_fract_z
 _atom_site_occupancy
  Ta  Ta0  1  -0.00000000  0.00000000  0.99402626  1
  Ta  Ta1  1  0.00000000  -0.00000000  0.50597374  1
  Pd  Pd2  1  0.50000000  0.50000000  0.99945770  1
  Pd  Pd3  1  0.50000000  0.50000000  0.50054230  1
  Pd  Pd4  1  0.50000000  -0.00000000  0.25000000  1
  Ru  Ru5  1  0.50000000  -0.00000000  0.75000000  1
  Ru  Ru6  1  -0.00000000  0.50000000  0.25000000  1
  Ru  Ru7  1  -0.00000000  0.50000000  0.75000000  1
