# generated using pymatgen
data_SrEu4Se5
_symmetry_space_group_name_H-M   'P 1'
_cell_length_a   4.38139037
_cell_length_b   9.80162432
_cell_length_c   7.59144851
_cell_angle_alpha   97.42461996
_cell_angle_beta   73.22739924
_cell_angle_gamma   77.08511880
_symmetry_Int_Tables_number   1
_chemical_formula_structural   SrEu4Se5
_chemical_formula_sum   'Sr1 Eu4 Se5'
_cell_volume   297.62026517
_cell_formula_units_Z   1
loop_
 _symmetry_equiv_pos_site_id
 _symmetry_equiv_pos_as_xyz
  1  'x, y, z'
loop_
 _atom_site_type_symbol
 _atom_site_label
 _atom_site_symmetry_multiplicity
 _atom_site_fract_x
 _atom_site_fract_y
 _atom_site_fract_z
 _atom_site_occupancy
  Sr  Sr0  1  -0.00000000  0.00000000  0.00000000  1
  Eu  Eu1  1  0.19973219  0.40032211  0.20021350  1
  Eu  Eu2  1  0.40019135  0.79967772  0.39993958  1
  Eu  Eu3  1  0.59980865  0.20032228  0.60006042  1
  Eu  Eu4  1  0.80026781  0.59967789  0.79978650  1
  Se  Se5  1  0.89946927  0.30147907  0.89958238  1
  Se  Se6  1  0.10053073  0.69852093  0.10041762  1
  Se  Se7  1  0.29798765  0.10099969  0.30302501  1
  Se  Se8  1  0.50000000  0.50000000  0.50000000  1
  Se  Se9  1  0.70201235  0.89900031  0.69697499  1
