# generated using pymatgen
data_SrAlGa
_symmetry_space_group_name_H-M   'P 1'
_cell_length_a   4.40429285
_cell_length_b   4.40435035
_cell_length_c   4.83249786
_cell_angle_alpha   90.00000000
_cell_angle_beta   90.00000000
_cell_angle_gamma   59.99641258
_symmetry_Int_Tables_number   1
_chemical_formula_structural   SrAlGa
_chemical_formula_sum   'Sr1 Al1 Ga1'
_cell_volume   81.17917769
_cell_formula_units_Z   1
loop_
 _symmetry_equiv_pos_site_id
 _symmetry_equiv_pos_as_xyz
  1  'x, y, z'
loop_
 _atom_site_type_symbol
 _atom_site_label
 _atom_site_symmetry_multiplicity
 _atom_site_fract_x
 _atom_site_fract_y
 _atom_site_fract_z
 _atom_site_occupancy
  Sr  Sr0  1  0.99998417  0.99999434  0.00000000  1
  Al  Al1  1  0.66661378  0.66665784  0.50000000  1
  Ga  Ga2  1  0.33330205  0.33334782  0.50000000  1
