# generated using pymatgen
data_SrV4O10
_symmetry_space_group_name_H-M   'P 1'
_cell_length_a   6.18396849
_cell_length_b   6.18060972
_cell_length_c   9.14637945
_cell_angle_alpha   86.87682812
_cell_angle_beta   86.89375511
_cell_angle_gamma   35.64969191
_symmetry_Int_Tables_number   1
_chemical_formula_structural   SrV4O10
_chemical_formula_sum   'Sr1 V4 O10'
_cell_volume   203.41341751
_cell_formula_units_Z   1
loop_
 _symmetry_equiv_pos_site_id
 _symmetry_equiv_pos_as_xyz
  1  'x, y, z'
loop_
 _atom_site_type_symbol
 _atom_site_label
 _atom_site_symmetry_multiplicity
 _atom_site_fract_x
 _atom_site_fract_y
 _atom_site_fract_z
 _atom_site_occupancy
  Sr  Sr0  1  0.58594806  0.58631567  0.02138578  1
  V  V1  1  0.23053365  0.23249025  0.33014353  1
  V  V2  1  0.76879205  0.76619526  0.66772171  1
  V  V3  1  0.93106223  0.93502276  0.34200337  1
  V  V4  1  0.06915761  0.06744923  0.65942600  1
  O  O5  1  0.08879113  0.09077851  0.40989609  1
  O  O6  1  0.91142725  0.91172423  0.59282290  1
  O  O7  1  0.97038121  0.97509968  0.16062800  1
  O  O8  1  0.04994978  0.04737965  0.84574367  1
  O  O9  1  0.21047841  0.21211079  0.15143966  1
  O  O10  1  0.77199573  0.76732271  0.84696808  1
  O  O11  1  0.39295689  0.39645604  0.36251998  1
  O  O12  1  0.60511761  0.60386485  0.63163242  1
  O  O13  1  0.75969360  0.76209078  0.36247968  1
  O  O14  1  0.24023479  0.23881959  0.62639914  1
