# generated using pymatgen
data_TaNi
_symmetry_space_group_name_H-M   'P 1'
_cell_length_a   4.88928282
_cell_length_b   4.88928296
_cell_length_c   17.96568214
_cell_angle_alpha   82.17933953
_cell_angle_beta   89.99999743
_cell_angle_gamma   119.99999460
_symmetry_Int_Tables_number   1
_chemical_formula_structural   TaNi
_chemical_formula_sum   'Ta13 Ni13'
_cell_volume   367.31320093
_cell_formula_units_Z   13
loop_
 _symmetry_equiv_pos_site_id
 _symmetry_equiv_pos_as_xyz
  1  'x, y, z'
loop_
 _atom_site_type_symbol
 _atom_site_label
 _atom_site_symmetry_multiplicity
 _atom_site_fract_x
 _atom_site_fract_y
 _atom_site_fract_z
 _atom_site_occupancy
  Ta  Ta0  1  0.17267596  0.34535193  0.48197211  1
  Ta  Ta1  1  0.67251234  0.34502468  0.98246299  1
  Ta  Ta2  1  0.32748766  0.65497532  0.01753701  1
  Ta  Ta3  1  0.82732404  0.65464807  0.51802789  1
  Ta  Ta4  1  0.22571893  0.45143786  0.32284321  1
  Ta  Ta5  1  0.72521682  0.45043364  0.82434955  1
  Ta  Ta6  1  0.27478318  0.54956636  0.17565045  1
  Ta  Ta7  1  0.77428107  0.54856214  0.67715679  1
  Ta  Ta8  1  0.58384552  0.16769103  0.24846345  1
  Ta  Ta9  1  0.08281376  0.16562753  0.75155871  1
  Ta  Ta10  1  0.91718624  0.83437247  0.24844129  1
  Ta  Ta11  1  0.41615448  0.83230897  0.75153655  1
  Ta  Ta12  1  0.50000000  0.00000000  0.50000000  1
  Ni  Ni13  1  0.79518804  0.09084640  0.11396556  1
  Ni  Ni14  1  0.29132143  0.09145379  0.61722478  1
  Ni  Ni15  1  0.29565836  0.09084640  0.11396556  1
  Ni  Ni16  1  0.80013236  0.09145379  0.61722478  1
  Ni  Ni17  1  0.79518804  0.59037608  0.11396556  1
  Ni  Ni18  1  0.29132143  0.58264287  0.61722478  1
  Ni  Ni19  1  0.70867857  0.90854621  0.38277522  1
  Ni  Ni20  1  0.20481196  0.90915360  0.88603444  1
  Ni  Ni21  1  0.19986764  0.90854621  0.38277522  1
  Ni  Ni22  1  0.70434164  0.90915360  0.88603444  1
  Ni  Ni23  1  0.70867857  0.41735713  0.38277522  1
  Ni  Ni24  1  0.20481196  0.40962392  0.88603444  1
  Ni  Ni25  1  0.00000000  0.00000000  0.00000000  1
