# generated using pymatgen
data_Sr3CoSb2O9
_symmetry_space_group_name_H-M   'P 1'
_cell_length_a   5.69793904
_cell_length_b   9.91042011
_cell_length_c   8.18267768
_cell_angle_alpha   114.38285953
_cell_angle_beta   90.00000000
_cell_angle_gamma   106.70667938
_symmetry_Int_Tables_number   1
_chemical_formula_structural   Sr3CoSb2O9
_chemical_formula_sum   'Sr6 Co2 Sb4 O18'
_cell_volume   399.34211756
_cell_formula_units_Z   2
loop_
 _symmetry_equiv_pos_site_id
 _symmetry_equiv_pos_as_xyz
  1  'x, y, z'
loop_
 _atom_site_type_symbol
 _atom_site_label
 _atom_site_symmetry_multiplicity
 _atom_site_fract_x
 _atom_site_fract_y
 _atom_site_fract_z
 _atom_site_occupancy
  Sr  Sr0  1  0.50698040  0.01396079  0.24940566  1
  Sr  Sr1  1  0.15968660  0.31937221  0.90211187  1
  Sr  Sr2  1  0.83333300  0.66666700  0.60250344  1
  Sr  Sr3  1  0.15968660  0.31937221  0.41726134  1
  Sr  Sr4  1  0.83333300  0.66666700  0.06416256  1
  Sr  Sr5  1  0.50698040  0.01396079  0.76455513  1
  Co  Co6  1  0.00027342  0.00054685  0.00027342  1
  Co  Co7  1  0.66639358  0.33278615  0.66639358  1
  Sb  Sb8  1  0.33333300  0.66666700  0.83333300  1
  Sb  Sb9  1  0.00047955  0.00095910  0.50047955  1
  Sb  Sb10  1  0.66618745  0.33237390  0.16618745  1
  Sb  Sb11  1  0.33333300  0.66666700  0.33333300  1
  O  O12  1  0.33333300  0.66666700  0.08797297  1
  O  O13  1  0.99504742  0.99009483  0.73313158  1
  O  O14  1  0.67161958  0.34323817  0.40970375  1
  O  O15  1  0.33333300  0.66666700  0.57869303  1
  O  O16  1  0.99504742  0.99009483  0.25696325  1
  O  O17  1  0.67161958  0.34323817  0.93353542  1
  O  O18  1  0.16915612  0.82809176  0.91404638  1
  O  O19  1  0.83236696  0.16190338  0.58095119  1
  O  O20  1  0.49965714  0.50507909  0.25253954  1
  O  O21  1  0.65893664  0.82809176  0.91404638  1
  O  O22  1  0.32953542  0.16190338  0.58095119  1
  O  O23  1  0.00542195  0.50507909  0.25253954  1
  O  O24  1  0.00773036  0.50524124  0.75262062  1
  O  O25  1  0.66124505  0.82825391  0.41412746  1
  O  O26  1  0.33713058  0.17143062  0.08571481  1
  O  O27  1  0.49751088  0.50524124  0.75262062  1
  O  O28  1  0.16700986  0.82825391  0.41412746  1
  O  O29  1  0.83429904  0.17143062  0.08571481  1
