# generated using pymatgen
data_Sr4PrMn5O15
_symmetry_space_group_name_H-M   'P 1'
_cell_length_a   5.49291721
_cell_length_b   6.72347051
_cell_length_c   8.69325974
_cell_angle_alpha   105.01860237
_cell_angle_beta   108.41694567
_cell_angle_gamma   90.00000000
_symmetry_Int_Tables_number   1
_chemical_formula_structural   Sr4PrMn5O15
_chemical_formula_sum   'Sr4 Pr1 Mn5 O15'
_cell_volume   293.02981356
_cell_formula_units_Z   1
loop_
 _symmetry_equiv_pos_site_id
 _symmetry_equiv_pos_as_xyz
  1  'x, y, z'
loop_
 _atom_site_type_symbol
 _atom_site_label
 _atom_site_symmetry_multiplicity
 _atom_site_fract_x
 _atom_site_fract_y
 _atom_site_fract_z
 _atom_site_occupancy
  Sr  Sr0  1  0.00067205  0.50082699  0.00134410  1
  Sr  Sr1  1  0.60038441  0.89965080  0.20076883  1
  Sr  Sr2  1  0.19961559  0.30034920  0.39923117  1
  Sr  Sr3  1  0.79932795  0.69917301  0.59865590  1
  Pr  Pr4  1  0.40000000  0.10000000  0.80000000  1
  Mn  Mn5  1  0.40000000  0.60000000  0.80000000  1
  Mn  Mn6  1  0.19934411  0.79853854  0.39868822  1
  Mn  Mn7  1  0.79918061  0.20006348  0.59836121  1
  Mn  Mn8  1  0.00081939  -0.00006348  0.00163879  1
  Mn  Mn9  1  0.60065589  0.40146146  0.20131178  1
  O  O10  1  0.69275873  0.80723814  0.89685195  1
  O  O11  1  0.49870732  0.00256469  0.50899599  1
  O  O12  1  0.10724127  0.39276186  0.70314805  1
  O  O13  1  0.30129268  0.19743531  0.09100401  1
  O  O14  1  0.90000000  0.60000000  0.30000000  1
  O  O15  1  0.30255774  0.70925755  0.60511547  1
  O  O16  1  0.10020069  0.90199098  0.20040138  1
  O  O17  1  0.69979931  0.29800902  0.39959862  1
  O  O18  1  0.90000000  0.10000000  0.80000000  1
  O  O19  1  0.49744226  0.49074245  0.99488453  1
  O  O20  1  0.59590677  0.39276186  0.70314805  1
  O  O21  1  0.40000000  0.60000000  0.30000000  1
  O  O22  1  0.01028867  0.00256469  0.50899599  1
  O  O23  1  0.20409323  0.80723814  0.89685195  1
  O  O24  1  0.78971133  0.19743531  0.09100401  1
