# generated using pymatgen
data_Sr3Fe2RuO9
_symmetry_space_group_name_H-M   'P 1'
_cell_length_a   3.90984156
_cell_length_b   3.90984156
_cell_length_c   12.09901803
_cell_angle_alpha   90.00000000
_cell_angle_beta   90.00000000
_cell_angle_gamma   90.00000000
_symmetry_Int_Tables_number   1
_chemical_formula_structural   Sr3Fe2RuO9
_chemical_formula_sum   'Sr3 Fe2 Ru1 O9'
_cell_volume   184.95600716
_cell_formula_units_Z   1
loop_
 _symmetry_equiv_pos_site_id
 _symmetry_equiv_pos_as_xyz
  1  'x, y, z'
loop_
 _atom_site_type_symbol
 _atom_site_label
 _atom_site_symmetry_multiplicity
 _atom_site_fract_x
 _atom_site_fract_y
 _atom_site_fract_z
 _atom_site_occupancy
  Sr  Sr0  1  0.00000000  0.00000000  0.98344051  1
  Sr  Sr1  1  -0.00000000  -0.00000000  0.34989249  1
  Sr  Sr2  1  -0.00000000  -0.00000000  0.66666700  1
  Fe  Fe3  1  0.50000000  0.50000000  0.50415237  1
  Fe  Fe4  1  0.50000000  0.50000000  0.82918063  1
  Ru  Ru5  1  0.50000000  0.50000000  0.16666700  1
  O  O6  1  0.00000000  0.50000000  0.16666700  1
  O  O7  1  -0.00000000  0.50000000  0.49700724  1
  O  O8  1  0.00000000  0.50000000  0.83632576  1
  O  O9  1  0.50000000  0.50000000  0.00318295  1
  O  O10  1  0.50000000  0.50000000  0.33015005  1
  O  O11  1  0.50000000  0.50000000  0.66666700  1
  O  O12  1  0.50000000  -0.00000000  0.16666700  1
  O  O13  1  0.50000000  -0.00000000  0.49700724  1
  O  O14  1  0.50000000  0.00000000  0.83632576  1
