# generated using pymatgen
data_Sr6Y3Fe(Cu4O11)2
_symmetry_space_group_name_H-M   'P 1'
_cell_length_a   3.77269944
_cell_length_b   12.16286716
_cell_length_c   11.65099032
_cell_angle_alpha   108.61717688
_cell_angle_beta   90.00000000
_cell_angle_gamma   90.00000000
_symmetry_Int_Tables_number   1
_chemical_formula_structural   Sr6Y3Fe(Cu4O11)2
_chemical_formula_sum   'Sr6 Y3 Fe1 Cu8 O22'
_cell_volume   506.65158227
_cell_formula_units_Z   1
loop_
 _symmetry_equiv_pos_site_id
 _symmetry_equiv_pos_as_xyz
  1  'x, y, z'
loop_
 _atom_site_type_symbol
 _atom_site_label
 _atom_site_symmetry_multiplicity
 _atom_site_fract_x
 _atom_site_fract_y
 _atom_site_fract_z
 _atom_site_occupancy
  Sr  Sr0  1  0.50000000  0.82768916  0.77246830  1
  Sr  Sr1  1  0.50000000  0.82788411  0.44613507  1
  Sr  Sr2  1  0.50000000  0.81956539  0.10645002  1
  Sr  Sr3  1  0.50000000  0.17231084  0.56086570  1
  Sr  Sr4  1  0.50000000  0.18043461  0.22688298  1
  Sr  Sr5  1  0.50000000  0.17211589  0.88719793  1
  Y  Y6  1  0.50000000  0.50000000  0.66666700  1
  Y  Y7  1  0.50000000  0.50066929  0.33330754  1
  Y  Y8  1  0.50000000  0.49933071  0.00002546  1
  Fe  Fe9  1  0.00000000  -0.00000000  0.66666700  1
  Cu  Cu10  1  0.00000000  0.65386461  0.88440976  1
  Cu  Cu11  1  0.00000000  0.65200185  0.55081770  1
  Cu  Cu12  1  0.00000000  0.65388016  0.21805387  1
  Cu  Cu13  1  -0.00000000  0.34799815  0.78251530  1
  Cu  Cu14  1  -0.00000000  0.34613539  0.44892324  1
  Cu  Cu15  1  -0.00000000  0.34611984  0.11528013  1
  Cu  Cu16  1  0.00000000  0.99998210  0.00335109  1
  Cu  Cu17  1  -0.00000000  0.00001790  0.32998191  1
  O  O18  1  0.00000000  0.62683431  0.70952872  1
  O  O19  1  -0.00000000  0.62665088  0.37499318  1
  O  O20  1  -0.00000000  0.62809074  0.04271676  1
  O  O21  1  0.50000000  0.62330631  0.87530703  1
  O  O22  1  0.50000000  0.62153977  0.54050816  1
  O  O23  1  0.50000000  0.62321848  0.20695169  1
  O  O24  1  -0.00000000  0.37316569  0.62380428  1
  O  O25  1  0.00000000  0.37190926  0.29061724  1
  O  O26  1  0.00000000  0.37334912  0.95833982  1
  O  O27  1  0.50000000  0.37846023  0.79282584  1
  O  O28  1  0.50000000  0.37669369  0.45802597  1
  O  O29  1  0.50000000  0.37678152  0.12638131  1
  O  O30  1  -0.00000000  0.83647465  0.94722256  1
  O  O31  1  -0.00000000  0.83138196  0.61043170  1
  O  O32  1  -0.00000000  0.83653146  0.27713596  1
  O  O33  1  0.00000000  0.16861804  0.72290130  1
  O  O34  1  0.00000000  0.16352535  0.38611044  1
  O  O35  1  0.00000000  0.16346854  0.05619804  1
  O  O36  1  0.50000000  -0.00000000  0.66666700  1
  O  O37  1  0.00000000  0.99996876  0.84379223  1
  O  O38  1  0.00000000  -0.00000000  0.16666700  1
  O  O39  1  -0.00000000  0.00003124  0.48954077  1
