# generated using pymatgen
data_Sr3CaNdMn5O15
_symmetry_space_group_name_H-M   'P 1'
_cell_length_a   5.50390675
_cell_length_b   9.43284875
_cell_length_c   12.10221816
_cell_angle_alpha   82.63050782
_cell_angle_beta   77.23349516
_cell_angle_gamma   105.42662337
_symmetry_Int_Tables_number   1
_chemical_formula_structural   Sr3CaNdMn5O15
_chemical_formula_sum   'Sr6 Ca2 Nd2 Mn10 O30'
_cell_volume   578.89747591
_cell_formula_units_Z   2
loop_
 _symmetry_equiv_pos_site_id
 _symmetry_equiv_pos_as_xyz
  1  'x, y, z'
loop_
 _atom_site_type_symbol
 _atom_site_label
 _atom_site_symmetry_multiplicity
 _atom_site_fract_x
 _atom_site_fract_y
 _atom_site_fract_z
 _atom_site_occupancy
  Sr  Sr0  1  0.05138136  0.44868477  0.34943380  1
  Sr  Sr1  1  0.65479551  0.85122839  0.55070692  1
  Sr  Sr2  1  0.54773498  0.94929124  0.85300657  1
  Sr  Sr3  1  0.14904646  0.35032396  0.04930743  1
  Sr  Sr4  1  0.34905773  0.14846174  0.44809632  1
  Sr  Sr5  1  0.94902684  0.55147669  0.65189013  1
  Ca  Ca6  1  0.84760406  0.65036704  0.95058795  1
  Ca  Ca7  1  0.44743481  0.04923766  0.15358384  1
  Nd  Nd8  1  0.24873599  0.25084893  0.74614067  1
  Nd  Nd9  1  0.75587567  0.74978929  0.24699149  1
  Mn  Mn10  1  0.50199784  0.50122802  0.49845950  1
  Mn  Mn11  1  0.29923807  0.69994412  0.09794180  1
  Mn  Mn12  1  0.90183469  0.09970348  0.29752783  1
  Mn  Mn13  1  0.09900421  0.89836292  0.70222930  1
  Mn  Mn14  1  0.69850685  0.29973998  0.90278482  1
  Mn  Mn15  1  0.40079935  0.60032020  0.80155340  1
  Mn  Mn16  1  0.20323997  0.80170621  0.39823162  1
  Mn  Mn17  1  0.80016005  0.19984809  0.60024434  1
  Mn  Mn18  1  0.99762934  -0.00018361  0.00138413  1
  Mn  Mn19  1  0.59835425  0.39834592  0.19840761  1
  O  O20  1  0.85110863  0.65012061  0.44245002  1
  O  O21  1  0.64778640  0.84894594  0.05793477  1
  O  O22  1  0.25242586  0.24971982  0.24483244  1
  O  O23  1  0.44878213  0.05826887  0.65719079  1
  O  O24  1  0.04923832  0.44372555  0.84971312  1
  O  O25  1  0.75299893  0.74866267  0.75430817  1
  O  O26  1  0.55529945  0.94381008  0.33813324  1
  O  O27  1  0.15219099  0.35077312  0.55438729  1
  O  O28  1  0.34165653  0.15049208  0.94862965  1
  O  O29  1  0.94903716  0.55512533  0.15150411  1
  O  O30  1  0.57099940  0.42910501  0.35580887  1
  O  O31  1  0.38983871  0.62746341  0.95797549  1
  O  O32  1  0.98614332  0.01845384  0.15909832  1
  O  O33  1  0.17780446  0.83403287  0.55498633  1
  O  O34  1  0.78799652  0.23083651  0.75846726  1
  O  O35  1  0.43089335  0.57053648  0.64291776  1
  O  O36  1  0.21751568  0.77757782  0.23892935  1
  O  O37  1  0.82683337  0.16833295  0.44328550  1
  O  O38  1  0.03261251  0.98371292  0.84155786  1
  O  O39  1  0.63714602  0.38528258  0.03824610  1
  O  O40  1  0.63339545  0.35497574  0.57639970  1
  O  O41  1  0.45019759  0.56433017  0.17492017  1
  O  O42  1  0.03935427  0.95501860  0.37026623  1
  O  O43  1  0.23369334  0.75475196  0.77796589  1
  O  O44  1  0.82072843  0.15087433  0.98220399  1
  O  O45  1  0.37128590  0.64744555  0.42069298  1
  O  O46  1  0.13674546  0.83214197  0.02629028  1
  O  O47  1  0.74809661  0.23643529  0.22501194  1
  O  O48  1  0.96507392  0.04849192  0.63148571  1
  O  O49  1  0.54166325  0.43183095  0.82589716  1
