# generated using pymatgen
data_Sr2CeMn3O9
_symmetry_space_group_name_H-M   'P 1'
_cell_length_a   5.53581470
_cell_length_b   5.53581470
_cell_length_c   13.54969771
_cell_angle_alpha   90.78975008
_cell_angle_beta   89.21024992
_cell_angle_gamma   120.07042504
_symmetry_Int_Tables_number   1
_chemical_formula_structural   Sr2CeMn3O9
_chemical_formula_sum   'Sr4 Ce2 Mn6 O18'
_cell_volume   359.30207021
_cell_formula_units_Z   2
loop_
 _symmetry_equiv_pos_site_id
 _symmetry_equiv_pos_as_xyz
  1  'x, y, z'
loop_
 _atom_site_type_symbol
 _atom_site_label
 _atom_site_symmetry_multiplicity
 _atom_site_fract_x
 _atom_site_fract_y
 _atom_site_fract_z
 _atom_site_occupancy
  Sr  Sr0  1  0.50322235  0.49677765  0.24766671  1
  Sr  Sr1  1  0.83510832  0.16489168  0.58152230  1
  Sr  Sr2  1  0.83011065  0.16988935  0.08566629  1
  Sr  Sr3  1  0.49822568  0.50177432  0.75181170  1
  Ce  Ce4  1  0.15000818  0.84999182  0.91467925  1
  Ce  Ce5  1  0.18332482  0.81667518  0.41865375  1
  Mn  Mn6  1  0.49986676  0.50013324  0.00151584  1
  Mn  Mn7  1  0.83346624  0.16653376  0.33181716  1
  Mn  Mn8  1  0.16666700  0.83333300  0.66666700  1
  Mn  Mn9  1  0.16666700  0.83333300  0.16666700  1
  Mn  Mn10  1  0.50031579  0.49968421  0.49932468  1
  Mn  Mn11  1  0.83301721  0.16698279  0.83400832  1
  O  O12  1  0.30700030  0.18798583  0.09068451  1
  O  O13  1  0.61896330  0.85784219  0.42721216  1
  O  O14  1  0.98915025  0.53409598  0.77293445  1
  O  O15  1  0.52131883  0.97366730  0.24264849  1
  O  O16  1  0.86742898  0.65581725  0.56039855  1
  O  O17  1  0.19117619  0.28562930  0.90612184  1
  O  O18  1  0.81201417  0.69299970  0.09068451  1
  O  O19  1  0.14215781  0.38103670  0.42721216  1
  O  O20  1  0.46590402  0.01084975  0.77293445  1
  O  O21  1  0.02633270  0.47868117  0.24264849  1
  O  O22  1  0.34418275  0.13257102  0.56039855  1
  O  O23  1  0.71437070  0.80882381  0.90612184  1
  O  O24  1  0.30184456  0.69815544  0.04585037  1
  O  O25  1  0.64530206  0.35469794  0.39539152  1
  O  O26  1  0.98092615  0.01907385  0.73210523  1
  O  O27  1  0.03148844  0.96851156  0.28748263  1
  O  O28  1  0.35240685  0.64759315  0.60122777  1
  O  O29  1  0.68803194  0.31196806  0.93794248  1
