# generated using pymatgen
data_Sr2CaTi3O9
_symmetry_space_group_name_H-M   'P 1'
_cell_length_a   3.92825760
_cell_length_b   3.92825760
_cell_length_c   11.78460245
_cell_angle_alpha   90.00000000
_cell_angle_beta   90.00000000
_cell_angle_gamma   90.00000000
_symmetry_Int_Tables_number   1
_chemical_formula_structural   Sr2CaTi3O9
_chemical_formula_sum   'Sr2 Ca1 Ti3 O9'
_cell_volume   181.85064928
_cell_formula_units_Z   1
loop_
 _symmetry_equiv_pos_site_id
 _symmetry_equiv_pos_as_xyz
  1  'x, y, z'
loop_
 _atom_site_type_symbol
 _atom_site_label
 _atom_site_symmetry_multiplicity
 _atom_site_fract_x
 _atom_site_fract_y
 _atom_site_fract_z
 _atom_site_occupancy
  Sr  Sr0  1  0.50000000  0.50000000  0.49987824  1
  Sr  Sr1  1  0.50000000  0.50000000  0.83345476  1
  Ca  Ca2  1  0.50000000  0.50000000  0.16666700  1
  Ti  Ti3  1  -0.00000000  0.00000000  0.00093665  1
  Ti  Ti4  1  -0.00000000  -0.00000000  0.33239635  1
  Ti  Ti5  1  -0.00000000  -0.00000000  0.66666700  1
  O  O6  1  0.00000000  0.50000000  0.33227613  1
  O  O7  1  -0.00000000  0.50000000  0.66666700  1
  O  O8  1  -0.00000000  0.50000000  0.00105687  1
  O  O9  1  0.50000000  -0.00000000  0.33227613  1
  O  O10  1  0.50000000  0.00000000  0.66666700  1
  O  O11  1  0.50000000  0.00000000  0.00105687  1
  O  O12  1  -0.00000000  -0.00000000  0.16666700  1
  O  O13  1  -0.00000000  -0.00000000  0.49985539  1
  O  O14  1  0.00000000  -0.00000000  0.83347761  1
