# generated using pymatgen
data_Sr5Cd5P6(O12F)2
_symmetry_space_group_name_H-M   'P 1'
_cell_length_a   7.07598257
_cell_length_b   9.65511049
_cell_length_c   9.70506564
_cell_angle_alpha   60.17535871
_cell_angle_beta   90.00000000
_cell_angle_gamma   90.00000000
_symmetry_Int_Tables_number   1
_chemical_formula_structural   Sr5Cd5P6(O12F)2
_chemical_formula_sum   'Sr5 Cd5 P6 O24 F2'
_cell_volume   575.22508146
_cell_formula_units_Z   1
loop_
 _symmetry_equiv_pos_site_id
 _symmetry_equiv_pos_as_xyz
  1  'x, y, z'
loop_
 _atom_site_type_symbol
 _atom_site_label
 _atom_site_symmetry_multiplicity
 _atom_site_fract_x
 _atom_site_fract_y
 _atom_site_fract_z
 _atom_site_occupancy
  Sr  Sr0  1  0.75000000  0.25043653  0.76029908  1
  Sr  Sr1  1  0.75000000  0.98935663  0.24996931  1
  Sr  Sr2  1  0.75000000  0.75562273  0.99064291  1
  Sr  Sr3  1  0.25000000  0.75477045  0.23981860  1
  Sr  Sr4  1  0.25000000  0.01088946  0.75238787  1
  Cd  Cd5  1  0.25000000  0.26148084  0.98911724  1
  Cd  Cd6  1  0.50055235  0.66895645  0.66444536  1
  Cd  Cd7  1  0.00136234  0.33175981  0.33260381  1
  Cd  Cd8  1  0.49863766  0.33175981  0.33260381  1
  Cd  Cd9  1  0.99944765  0.66895645  0.66444536  1
  P  P10  1  0.75000000  0.02669682  0.59923723  1
  P  P11  1  0.75000000  0.37139257  0.02381186  1
  P  P12  1  0.75000000  0.59857811  0.37381072  1
  P  P13  1  0.25000000  0.97326069  0.40079476  1
  P  P14  1  0.25000000  0.62278341  0.97663681  1
  P  P15  1  0.25000000  0.40023085  0.62820412  1
  O  O16  1  0.75000000  0.13140346  0.41315552  1
  O  O17  1  0.75000000  0.45039431  0.13155378  1
  O  O18  1  0.75000000  0.41161606  0.45467230  1
  O  O19  1  0.25000000  0.86942051  0.58799720  1
  O  O20  1  0.25000000  0.53631182  0.87543910  1
  O  O21  1  0.25000000  0.58718097  0.54670654  1
  O  O22  1  0.75000000  0.84378965  0.65273112  1
  O  O23  1  0.75000000  0.50296745  0.84335347  1
  O  O24  1  0.75000000  0.65160492  0.50295851  1
  O  O25  1  0.25000000  0.15641934  0.34610580  1
  O  O26  1  0.25000000  0.49919878  0.15927939  1
  O  O27  1  0.25000000  0.34474176  0.50109561  1
  O  O28  1  0.57465694  0.06808474  0.66568358  1
  O  O29  1  0.57249086  0.26304312  0.06339809  1
  O  O30  1  0.57477001  0.66533280  0.26599367  1
  O  O31  1  0.07382097  0.92777195  0.33884509  1
  O  O32  1  0.07539729  0.73243884  0.93111164  1
  O  O33  1  0.07525011  0.33382700  0.73702346  1
  O  O34  1  0.42617903  0.92777195  0.33884509  1
  O  O35  1  0.42460271  0.73243884  0.93111164  1
  O  O36  1  0.42474989  0.33382700  0.73702346  1
  O  O37  1  0.92534306  0.06808474  0.66568358  1
  O  O38  1  0.92750914  0.26304312  0.06339809  1
  O  O39  1  0.92522999  0.66533280  0.26599367  1
  F  F40  1  0.75000000  0.99755240  0.99948385  1
  F  F41  1  0.25000000  0.01947006  0.00252794  1
