# generated using pymatgen
data_Sr2Ca2IrO6
_symmetry_space_group_name_H-M   'P 1'
_cell_length_a   6.75636254
_cell_length_b   6.79431513
_cell_length_c   6.79431576
_cell_angle_alpha   91.01290564
_cell_angle_beta   91.56224774
_cell_angle_gamma   91.56224737
_symmetry_Int_Tables_number   1
_chemical_formula_structural   Sr2Ca2IrO6
_chemical_formula_sum   'Sr4 Ca4 Ir2 O12'
_cell_volume   311.60730657
_cell_formula_units_Z   2
loop_
 _symmetry_equiv_pos_site_id
 _symmetry_equiv_pos_as_xyz
  1  'x, y, z'
loop_
 _atom_site_type_symbol
 _atom_site_label
 _atom_site_symmetry_multiplicity
 _atom_site_fract_x
 _atom_site_fract_y
 _atom_site_fract_z
 _atom_site_occupancy
  Sr  Sr0  1  0.25000000  0.61443245  0.88556755  1
  Sr  Sr1  1  0.11323810  0.75112479  0.38598468  1
  Sr  Sr2  1  0.75000000  0.38523534  0.11476466  1
  Sr  Sr3  1  0.38676190  0.11401532  0.74887521  1
  Ca  Ca4  1  0.25000000  0.24859312  0.25140688  1
  Ca  Ca5  1  0.75000000  0.75106933  0.74893067  1
  Ca  Ca6  1  0.61080244  0.89066394  0.25103559  1
  Ca  Ca7  1  0.88919756  0.24896441  0.60933606  1
  Ir  Ir8  1  0.50119295  0.49782930  0.49890716  1
  Ir  Ir9  1  0.99880705  0.00109284  0.00217070  1
  O  O10  1  0.55697620  0.20845985  0.42113737  1
  O  O11  1  0.20738760  0.41575997  0.55009317  1
  O  O12  1  0.42305135  0.55591753  0.21275246  1
  O  O13  1  0.04729905  0.92765338  0.71182313  1
  O  O14  1  0.91717086  0.71451550  0.05360715  1
  O  O15  1  0.71073722  0.04851401  0.92442778  1
  O  O16  1  0.45270095  0.78817687  0.57234662  1
  O  O17  1  0.78926278  0.57557222  0.45148599  1
  O  O18  1  0.58282914  0.44639285  0.78548450  1
  O  O19  1  0.94302380  0.07886263  0.29154015  1
  O  O20  1  0.07694865  0.28724754  0.94408247  1
  O  O21  1  0.29261240  0.94990683  0.08424003  1
