# generated using pymatgen
data_Sr6Pr3Cu6O17
_symmetry_space_group_name_H-M   'P 1'
_cell_length_a   3.79430084
_cell_length_b   11.57273121
_cell_length_c   11.84613098
_cell_angle_alpha   60.76056321
_cell_angle_beta   80.78443367
_cell_angle_gamma   90.00000000
_symmetry_Int_Tables_number   1
_chemical_formula_structural   Sr6Pr3Cu6O17
_chemical_formula_sum   'Sr6 Pr3 Cu6 O17'
_cell_volume   446.18179206
_cell_formula_units_Z   1
loop_
 _symmetry_equiv_pos_site_id
 _symmetry_equiv_pos_as_xyz
  1  'x, y, z'
loop_
 _atom_site_type_symbol
 _atom_site_label
 _atom_site_symmetry_multiplicity
 _atom_site_fract_x
 _atom_site_fract_y
 _atom_site_fract_z
 _atom_site_occupancy
  Sr  Sr0  1  0.18154438  0.50087750  0.64250450  1
  Sr  Sr1  1  0.82404889  0.49912250  0.35749550  1
  Sr  Sr2  1  0.82404889  0.14338200  0.35749550  1
  Sr  Sr3  1  0.18154438  0.85661800  0.64250450  1
  Sr  Sr4  1  0.19627286  0.19725999  0.60548002  1
  Sr  Sr5  1  0.80175288  0.80274001  0.39451998  1
  Pr  Pr6  1  0.00282037  -0.00000000  0.00000000  1
  Pr  Pr7  1  0.98343278  0.29645095  0.00000000  1
  Pr  Pr8  1  0.98343278  0.70354905  -0.00000000  1
  Cu  Cu9  1  0.60170895  0.95610419  0.79448755  1
  Cu  Cu10  1  0.39619650  0.04389581  0.20551245  1
  Cu  Cu11  1  0.39619650  0.75059174  0.20551245  1
  Cu  Cu12  1  0.60170895  0.24940826  0.79448755  1
  Cu  Cu13  1  0.62980684  0.58606368  0.82787264  1
  Cu  Cu14  1  0.45767948  0.41393632  0.17212736  1
  O  O15  1  0.50180380  0.86291810  0.00000000  1
  O  O16  1  0.50180380  0.13708190  -0.00000000  1
  O  O17  1  0.09223335  0.23497583  0.81399257  1
  O  O18  1  0.90622592  0.76502417  0.18600743  1
  O  O19  1  0.90622592  0.04896840  0.18600743  1
  O  O20  1  0.09223335  0.95103160  0.81399257  1
  O  O21  1  0.41422312  0.58059493  0.16240481  1
  O  O22  1  0.57662793  0.41940507  0.83759519  1
  O  O23  1  0.57662793  0.74299974  0.83759519  1
  O  O24  1  0.41422312  0.25700026  0.16240481  1
  O  O25  1  0.66843256  0.68023093  0.63953814  1
  O  O26  1  0.30797071  0.31976907  0.36046186  1
  O  O27  1  0.69981899  0.04367325  0.59836534  1
  O  O28  1  0.29818433  0.95632675  0.40163466  1
  O  O29  1  0.29818433  0.64203859  0.40163466  1
  O  O30  1  0.69981899  0.35796141  0.59836534  1
  O  O31  1  0.77816643  0.50000000  -0.00000000  1
