# generated using pymatgen
data_Sr4LaMn5O13
_symmetry_space_group_name_H-M   'P 1'
_cell_length_a   7.88134939
_cell_length_b   8.78614393
_cell_length_c   8.78614393
_cell_angle_alpha   90.00000000
_cell_angle_beta   90.00000000
_cell_angle_gamma   90.00000000
_symmetry_Int_Tables_number   1
_chemical_formula_structural   Sr4LaMn5O13
_chemical_formula_sum   'Sr8 La2 Mn10 O26'
_cell_volume   608.41121020
_cell_formula_units_Z   2
loop_
 _symmetry_equiv_pos_site_id
 _symmetry_equiv_pos_as_xyz
  1  'x, y, z'
loop_
 _atom_site_type_symbol
 _atom_site_label
 _atom_site_symmetry_multiplicity
 _atom_site_fract_x
 _atom_site_fract_y
 _atom_site_fract_z
 _atom_site_occupancy
  Sr  Sr0  1  0.25132658  0.27884593  0.11195510  1
  Sr  Sr1  1  0.25132658  0.72115407  0.88804490  1
  Sr  Sr2  1  0.75132658  0.11195510  0.72115407  1
  Sr  Sr3  1  0.75132658  0.88804490  0.27884593  1
  Sr  Sr4  1  0.74867342  0.72115407  0.88804490  1
  Sr  Sr5  1  0.74867342  0.27884593  0.11195510  1
  Sr  Sr6  1  0.24867342  0.88804490  0.27884593  1
  Sr  Sr7  1  0.24867342  0.11195510  0.72115407  1
  La  La8  1  0.25000000  0.50000000  0.50000000  1
  La  La9  1  0.75000000  0.50000000  0.50000000  1
  Mn  Mn10  1  0.50000000  0.59628636  0.19514374  1
  Mn  Mn11  1  0.50000000  0.40371364  0.80485626  1
  Mn  Mn12  1  0.00000000  0.19514374  0.40371364  1
  Mn  Mn13  1  0.00000000  0.80485626  0.59628636  1
  Mn  Mn14  1  0.00000000  0.60267049  0.20119405  1
  Mn  Mn15  1  0.00000000  0.39732951  0.79880595  1
  Mn  Mn16  1  0.50000000  0.20119405  0.39732951  1
  Mn  Mn17  1  0.50000000  0.79880595  0.60267049  1
  Mn  Mn18  1  0.50000000  -0.00000000  -0.00000000  1
  Mn  Mn19  1  0.00000000  -0.00000000  -0.00000000  1
  O  O20  1  0.00000000  0.73144335  0.39205560  1
  O  O21  1  0.00000000  0.26855665  0.60794440  1
  O  O22  1  0.50000000  0.39205560  0.26855665  1
  O  O23  1  0.50000000  0.60794440  0.73144335  1
  O  O24  1  0.50000000  0.67634900  0.41737548  1
  O  O25  1  0.50000000  0.32365100  0.58262452  1
  O  O26  1  0.00000000  0.41737548  0.32365100  1
  O  O27  1  0.00000000  0.58262452  0.67634900  1
  O  O28  1  0.24912741  0.58330052  0.18649032  1
  O  O29  1  0.24912741  0.41669948  0.81350968  1
  O  O30  1  0.74912741  0.18649032  0.41669948  1
  O  O31  1  0.74912741  0.81350968  0.58330052  1
  O  O32  1  0.75087259  0.41669948  0.81350968  1
  O  O33  1  0.75087259  0.58330052  0.18649032  1
  O  O34  1  0.25087259  0.81350968  0.58330052  1
  O  O35  1  0.25087259  0.18649032  0.41669948  1
  O  O36  1  0.50000000  0.78119369  0.07481537  1
  O  O37  1  0.50000000  0.21880631  0.92518463  1
  O  O38  1  0.00000000  0.07481537  0.21880631  1
  O  O39  1  0.00000000  0.92518463  0.78119369  1
  O  O40  1  0.25000000  -0.00000000  -0.00000000  1
  O  O41  1  0.75000000  -0.00000000  -0.00000000  1
  O  O42  1  0.00000000  0.77293658  0.06625964  1
  O  O43  1  0.00000000  0.22706342  0.93374036  1
  O  O44  1  0.50000000  0.06625964  0.22706342  1
  O  O45  1  0.50000000  0.93374036  0.77293658  1
