# generated using pymatgen
data_Sm2Cr(Fe8C)2
_symmetry_space_group_name_H-M   'P 1'
_cell_length_a   6.51050384
_cell_length_b   6.49252504
_cell_length_c   6.49252525
_cell_angle_alpha   83.24620890
_cell_angle_beta   83.24748556
_cell_angle_gamma   83.24749156
_symmetry_Int_Tables_number   1
_chemical_formula_structural   Sm2Cr(Fe8C)2
_chemical_formula_sum   'Sm2 Cr1 Fe16 C2'
_cell_volume   269.13963737
_cell_formula_units_Z   1
loop_
 _symmetry_equiv_pos_site_id
 _symmetry_equiv_pos_as_xyz
  1  'x, y, z'
loop_
 _atom_site_type_symbol
 _atom_site_label
 _atom_site_symmetry_multiplicity
 _atom_site_fract_x
 _atom_site_fract_y
 _atom_site_fract_z
 _atom_site_occupancy
  Sm  Sm0  1  0.66456804  0.64960408  0.64960408  1
  Sm  Sm1  1  0.34002476  0.35534126  0.35534126  1
  Cr  Cr2  1  0.09207256  0.09341904  0.09341904  1
  Fe  Fe3  1  0.85463501  0.34050555  0.34050555  1
  Fe  Fe4  1  0.34002993  0.34368102  0.85643007  1
  Fe  Fe5  1  0.34002993  0.85643007  0.34368102  1
  Fe  Fe6  1  0.14256206  0.65878061  0.65878061  1
  Fe  Fe7  1  0.66172821  0.65655512  0.14372057  1
  Fe  Fe8  1  0.66172821  0.14372057  0.65655512  1
  Fe  Fe9  1  0.28443619  0.71337774  0.99805411  1
  Fe  Fe10  1  0.71206379  0.00071557  0.28268237  1
  Fe  Fe11  1  0.00111354  0.28320426  0.71573459  1
  Fe  Fe12  1  0.28443619  0.99805411  0.71337774  1
  Fe  Fe13  1  0.00111354  0.71573459  0.28320426  1
  Fe  Fe14  1  0.71206379  0.28268237  0.00071557  1
  Fe  Fe15  1  0.00019382  0.00096602  0.49850104  1
  Fe  Fe16  1  0.00019382  0.49850104  0.00096602  1
  Fe  Fe17  1  0.49800904  0.00009304  0.00009304  1
  Fe  Fe18  1  0.90863655  0.90783444  0.90783444  1
  C  C19  1  0.50018051  0.50062305  0.00017645  1
  C  C20  1  0.50018051  0.00017645  0.50062305  1
