# generated using pymatgen
data_Si3NCl9
_symmetry_space_group_name_H-M   'P 1'
_cell_length_a   6.83892380
_cell_length_b   8.87859813
_cell_length_c   14.61837268
_cell_angle_alpha   93.07850563
_cell_angle_beta   99.77036754
_cell_angle_gamma   112.17815703
_symmetry_Int_Tables_number   1
_chemical_formula_structural   Si3NCl9
_chemical_formula_sum   'Si6 N2 Cl18'
_cell_volume   803.26214728
_cell_formula_units_Z   2
loop_
 _symmetry_equiv_pos_site_id
 _symmetry_equiv_pos_as_xyz
  1  'x, y, z'
loop_
 _atom_site_type_symbol
 _atom_site_label
 _atom_site_symmetry_multiplicity
 _atom_site_fract_x
 _atom_site_fract_y
 _atom_site_fract_z
 _atom_site_occupancy
  Si  Si0  1  0.95447150  0.11576347  0.82892229  1
  Si  Si1  1  0.17092265  0.93742481  0.24874610  1
  Si  Si2  1  0.79527775  0.62798309  0.14686140  1
  Si  Si3  1  0.22243988  0.45957765  0.79009280  1
  Si  Si4  1  0.86076285  0.22072499  0.63660555  1
  Si  Si5  1  0.99622216  0.63939749  0.35132617  1
  N  N6  1  0.00985459  0.26627949  0.75257387  1
  N  N7  1  0.98999202  0.73423946  0.24860195  1
  Cl  Cl8  1  0.51268854  0.44211258  0.82852561  1
  Cl  Cl9  1  0.48848668  0.56398297  0.16745338  1
  Cl  Cl10  1  0.16025106  0.20239348  0.95631145  1
  Cl  Cl11  1  0.82177116  0.77466829  0.04271838  1
  Cl  Cl12  1  0.70848738  0.37564477  0.60673669  1
  Cl  Cl13  1  0.27940034  0.61192120  0.39316947  1
  Cl  Cl14  1  0.62145064  0.99096247  0.61636327  1
  Cl  Cl15  1  0.38107908  0.02159972  0.37512048  1
  Cl  Cl16  1  0.65267615  0.04892307  0.85671738  1
  Cl  Cl17  1  0.35861644  0.95644173  0.15166823  1
  Cl  Cl18  1  0.25384245  0.60139876  0.68341077  1
  Cl  Cl19  1  0.76171779  0.40770734  0.32946754  1
  Cl  Cl20  1  0.99921230  0.91440976  0.77893005  1
  Cl  Cl21  1  0.01464422  0.09253990  0.23133425  1
  Cl  Cl22  1  0.16330814  0.58464993  0.89603781  1
  Cl  Cl23  1  0.83936210  0.42602258  0.09753689  1
  Cl  Cl24  1  0.04982934  0.21963293  0.54278725  1
  Cl  Cl25  1  0.93563280  0.76409808  0.45718096  1
