# generated using pymatgen
data_SmYCo10
_symmetry_space_group_name_H-M   'P 1'
_cell_length_a   3.93031645
_cell_length_b   4.91038527
_cell_length_c   8.51662837
_cell_angle_alpha   89.99999139
_cell_angle_beta   90.00000000
_cell_angle_gamma   90.00000000
_symmetry_Int_Tables_number   1
_chemical_formula_structural   SmYCo10
_chemical_formula_sum   'Sm1 Y1 Co10'
_cell_volume   164.36554513
_cell_formula_units_Z   1
loop_
 _symmetry_equiv_pos_site_id
 _symmetry_equiv_pos_as_xyz
  1  'x, y, z'
loop_
 _atom_site_type_symbol
 _atom_site_label
 _atom_site_symmetry_multiplicity
 _atom_site_fract_x
 _atom_site_fract_y
 _atom_site_fract_z
 _atom_site_occupancy
  Sm  Sm0  1  -0.00000000  0.99998625  0.00000000  1
  Y  Y1  1  0.00000000  0.49997795  0.50000000  1
  Co  Co2  1  0.00000000  0.99996091  0.33390724  1
  Co  Co3  1  -0.00000000  0.49995965  0.83244430  1
  Co  Co4  1  0.00000000  0.49995965  0.16755570  1
  Co  Co5  1  -0.00000000  0.99996091  0.66609276  1
  Co  Co6  1  0.50000000  0.00000827  0.50000000  1
  Co  Co7  1  0.50000000  0.50000569  -0.00000000  1
  Co  Co8  1  0.50000000  0.25104810  0.25148678  1
  Co  Co9  1  0.50000000  0.74894226  0.74852142  1
  Co  Co10  1  0.50000000  0.74894226  0.25147858  1
  Co  Co11  1  0.50000000  0.25104810  0.74851322  1
