# generated using pymatgen
data_Ni7Ge4
_symmetry_space_group_name_H-M   'P 1'
_cell_length_a   3.96800686
_cell_length_b   6.37399771
_cell_length_c   6.37399771
_cell_angle_alpha   76.63536980
_cell_angle_beta   71.87599908
_cell_angle_gamma   108.12400092
_symmetry_Int_Tables_number   1
_chemical_formula_structural   Ni7Ge4
_chemical_formula_sum   'Ni7 Ge4'
_cell_volume   135.67666918
_cell_formula_units_Z   1
loop_
 _symmetry_equiv_pos_site_id
 _symmetry_equiv_pos_as_xyz
  1  'x, y, z'
loop_
 _atom_site_type_symbol
 _atom_site_label
 _atom_site_symmetry_multiplicity
 _atom_site_fract_x
 _atom_site_fract_y
 _atom_site_fract_z
 _atom_site_occupancy
  Ni  Ni0  1  0.00581110  0.13365278  0.12199626  1
  Ni  Ni1  1  0.99713584  0.62290441  0.62824729  1
  Ni  Ni2  1  0.00581110  0.37800374  0.36634722  1
  Ni  Ni3  1  0.99713584  0.87175271  0.87709559  1
  Ni  Ni4  1  0.33506509  0.08523894  0.41476106  1
  Ni  Ni5  1  0.66642006  0.66261245  0.32928553  1
  Ni  Ni6  1  0.66642006  0.17071447  0.83738755  1
  Ge  Ge7  1  0.33272759  0.83076962  0.16515248  1
  Ge  Ge8  1  0.33272759  0.33484752  0.66923038  1
  Ge  Ge9  1  0.68468388  0.43358077  0.06641923  1
  Ge  Ge10  1  0.64276184  0.89257258  0.60742742  1
