# generated using pymatgen
data_RbTi3FeO8
_symmetry_space_group_name_H-M   'P 1'
_cell_length_a   3.01565766
_cell_length_b   7.38706647
_cell_length_c   7.44698923
_cell_angle_alpha   92.17906344
_cell_angle_beta   101.68172343
_cell_angle_gamma   78.22216427
_symmetry_Int_Tables_number   1
_chemical_formula_structural   RbTi3FeO8
_chemical_formula_sum   'Rb1 Ti3 Fe1 O8'
_cell_volume   159.03814439
_cell_formula_units_Z   1
loop_
 _symmetry_equiv_pos_site_id
 _symmetry_equiv_pos_as_xyz
  1  'x, y, z'
loop_
 _atom_site_type_symbol
 _atom_site_label
 _atom_site_symmetry_multiplicity
 _atom_site_fract_x
 _atom_site_fract_y
 _atom_site_fract_z
 _atom_site_occupancy
  Rb  Rb0  1  0.99869748  0.00252824  0.99992320  1
  Ti  Ti1  1  0.33106740  0.51309722  0.17523201  1
  Ti  Ti2  1  0.85394261  0.80903053  0.51691574  1
  Ti  Ti3  1  0.15059771  0.18345168  0.48464710  1
  Fe  Fe4  1  0.66490434  0.48486941  0.81467810  1
  O  O5  1  0.96038576  0.37393730  0.29470882  1
  O  O6  1  0.03586665  0.63142402  0.70315733  1
  O  O7  1  0.66691214  0.28872809  0.62255237  1
  O  O8  1  0.33334843  0.70758654  0.37428340  1
  O  O9  1  0.70775137  0.64354890  0.05905164  1
  O  O10  1  0.29894679  0.36092343  0.95881702  1
  O  O11  1  0.65447212  0.05160182  0.36054605  1
  O  O12  1  0.34310719  0.94927283  0.63548721  1
