# generated using pymatgen
data_Pr3Bi(Ru2O7)2
_symmetry_space_group_name_H-M   'P 1'
_cell_length_a   7.42604812
_cell_length_b   7.42604812
_cell_length_c   7.38295827
_cell_angle_alpha   90.00000000
_cell_angle_beta   59.80674508
_cell_angle_gamma   120.00000000
_symmetry_Int_Tables_number   1
_chemical_formula_structural   Pr3Bi(Ru2O7)2
_chemical_formula_sum   'Pr3 Bi1 Ru4 O14'
_cell_volume   287.04906956
_cell_formula_units_Z   1
loop_
 _symmetry_equiv_pos_site_id
 _symmetry_equiv_pos_as_xyz
  1  'x, y, z'
loop_
 _atom_site_type_symbol
 _atom_site_label
 _atom_site_symmetry_multiplicity
 _atom_site_fract_x
 _atom_site_fract_y
 _atom_site_fract_z
 _atom_site_occupancy
  Pr  Pr0  1  0.25000000  0.37500000  0.37500000  1
  Pr  Pr1  1  0.25000000  0.87500000  0.37500000  1
  Pr  Pr2  1  0.75000000  0.37500000  0.37500000  1
  Bi  Bi3  1  0.75000000  0.37500000  0.87500000  1
  Ru  Ru4  1  0.75000000  0.87500000  0.37500000  1
  Ru  Ru5  1  0.25000000  0.87500000  0.87500000  1
  Ru  Ru6  1  0.25000000  0.37500000  0.87500000  1
  Ru  Ru7  1  0.75000000  0.87500000  0.87500000  1
  O  O8  1  0.50002916  0.25001458  0.24995626  1
  O  O9  1  0.99997084  0.49998542  0.50004374  1
  O  O10  1  0.90858196  0.95429098  0.54553205  1
  O  O11  1  0.50017697  0.54588599  0.54553205  1
  O  O12  1  0.50017697  0.95429098  0.54553205  1
  O  O13  1  0.09516516  0.54758258  0.94969666  1
  O  O14  1  0.50272076  0.95513818  0.94969666  1
  O  O15  1  0.50272076  0.54758258  0.94969666  1
  O  O16  1  0.59141804  0.79570902  0.20446795  1
  O  O17  1  -0.00017697  0.20411401  0.20446795  1
  O  O18  1  -0.00017697  0.79570902  0.20446795  1
  O  O19  1  0.40483484  0.20241742  0.80030334  1
  O  O20  1  0.99727924  0.79486182  0.80030334  1
  O  O21  1  0.99727924  0.20241742  0.80030334  1
