# generated using pymatgen
data_RbNa2V5H10O19
_symmetry_space_group_name_H-M   'P 1'
_cell_length_a   8.56897404
_cell_length_b   10.30221001
_cell_length_c   11.50500499
_cell_angle_alpha   69.10943300
_cell_angle_beta   86.92895976
_cell_angle_gamma   66.73574377
_symmetry_Int_Tables_number   1
_chemical_formula_structural   RbNa2V5H10O19
_chemical_formula_sum   'Rb2 Na4 V10 H20 O38'
_cell_volume   867.21984010
_cell_formula_units_Z   2
loop_
 _symmetry_equiv_pos_site_id
 _symmetry_equiv_pos_as_xyz
  1  'x, y, z'
loop_
 _atom_site_type_symbol
 _atom_site_label
 _atom_site_symmetry_multiplicity
 _atom_site_fract_x
 _atom_site_fract_y
 _atom_site_fract_z
 _atom_site_occupancy
  Rb  Rb0  1  0.72973069  0.17832889  0.07019424  1
  Rb  Rb1  1  0.27026931  0.82167111  0.92980576  1
  Na  Na2  1  0.93602009  0.66875109  0.87129551  1
  Na  Na3  1  0.06397991  0.33124891  0.12870449  1
  Na  Na4  1  0.82377015  0.76305018  0.56399705  1
  Na  Na5  1  0.17622985  0.23694982  0.43600295  1
  V  V6  1  0.83619504  0.21553973  0.71684520  1
  V  V7  1  0.16380496  0.78446027  0.28315480  1
  V  V8  1  0.62173561  0.20359897  0.50877752  1
  V  V9  1  0.37826439  0.79640103  0.49122248  1
  V  V10  1  0.47014345  0.20921850  0.76668932  1
  V  V11  1  0.52985655  0.79078150  0.23331068  1
  V  V12  1  0.68947811  0.50084339  0.47748422  1
  V  V13  1  0.31052189  0.49915661  0.52251578  1
  V  V14  1  0.46929449  0.49449866  0.26597671  1
  V  V15  1  0.53070551  0.50550134  0.73402329  1
  H  H16  1  0.58973283  0.76789070  0.74749057  1
  H  H17  1  0.41026717  0.23210930  0.25250943  1
  H  H18  1  0.89562688  0.82333237  0.06113940  1
  H  H19  1  0.10437312  0.17666763  0.93886060  1
  H  H20  1  0.30353800  0.45931587  0.05303739  1
  H  H21  1  0.69646200  0.54068413  0.94696261  1
  H  H22  1  0.13495115  0.77746531  0.66168002  1
  H  H23  1  0.86504885  0.22253469  0.33831998  1
  H  H24  1  0.60057474  0.92813755  0.70160986  1
  H  H25  1  0.39942526  0.07186245  0.29839014  1
  H  H26  1  0.89467121  0.46914743  0.75365542  1
  H  H27  1  0.10532879  0.53085257  0.24634458  1
  H  H28  1  0.07404521  0.46345446  0.71242007  1
  H  H29  1  0.92595479  0.53654554  0.28757993  1
  H  H30  1  0.83413897  0.93467011  0.92309314  1
  H  H31  1  0.16586103  0.06532989  0.07690686  1
  H  H32  1  0.29110683  0.43316061  0.92936502  1
  H  H33  1  0.70889317  0.56683939  0.07063498  1
  H  H34  1  0.98020429  0.93129500  0.65691716  1
  H  H35  1  0.01979571  0.06870500  0.34308284  1
  O  O36  1  0.82838933  0.12652596  0.60153375  1
  O  O37  1  0.17161067  0.87347404  0.39846625  1
  O  O38  1  0.92114913  0.83445590  0.97514650  1
  O  O39  1  0.07885087  0.16554410  0.02485350  1
  O  O40  1  0.51461752  0.12515034  0.64237180  1
  O  O41  1  0.48538248  0.87484966  0.35762820  1
  O  O42  1  0.02944107  0.81941311  0.69839990  1
  O  O43  1  0.97055893  0.18058689  0.30160010  1
  O  O44  1  0.55473781  0.63044642  0.17320871  1
  O  O45  1  0.44526219  0.36955358  0.82679129  1
  O  O46  1  0.73616621  0.62934720  0.34884182  1
  O  O47  1  0.26383379  0.37065280  0.65115818  1
  O  O48  1  0.60947009  0.62977807  0.57282908  1
  O  O49  1  0.39052991  0.37022193  0.42717092  1
  O  O50  1  0.56766853  0.38137367  0.60308552  1
  O  O51  1  0.43233147  0.61862633  0.39691448  1
  O  O52  1  0.39065835  0.10317694  0.86980161  1
  O  O53  1  0.60934165  0.89682306  0.13019839  1
  O  O54  1  0.96866984  0.52584445  0.73913210  1
  O  O55  1  0.03133016  0.47415555  0.26086790  1
  O  O56  1  0.21979562  0.47480562  0.98896351  1
  O  O57  1  0.78020438  0.52519438  0.01103649  1
  O  O58  1  0.49340236  0.38501581  0.18296272  1
  O  O59  1  0.50659764  0.61498419  0.81703728  1
  O  O60  1  0.24360355  0.62540180  0.21926593  1
  O  O61  1  0.75639645  0.37459820  0.78073407  1
  O  O62  1  0.66142820  0.08729730  0.43363636  1
  O  O63  1  0.33857180  0.91270270  0.56636364  1
  O  O64  1  0.67888551  0.37185283  0.38701123  1
  O  O65  1  0.32111449  0.62814717  0.61298877  1
  O  O66  1  0.88096595  0.37113109  0.56427623  1
  O  O67  1  0.11903405  0.62886891  0.43572377  1
  O  O68  1  0.70419236  0.12382439  0.81998957  1
  O  O69  1  0.29580764  0.87617561  0.18001043  1
  O  O70  1  0.67031902  0.81713720  0.73216100  1
  O  O71  1  0.32968098  0.18286280  0.26783900  1
  O  O72  1  0.03025826  0.11510469  0.78689203  1
  O  O73  1  0.96974174  0.88489531  0.21310797  1
