# generated using pymatgen
data_Nb5(SeS)2
_symmetry_space_group_name_H-M   'P 1'
_cell_length_a   3.37759572
_cell_length_b   7.10327461
_cell_length_c   7.28280161
_cell_angle_alpha   91.40873005
_cell_angle_beta   103.40828051
_cell_angle_gamma   76.24626567
_symmetry_Int_Tables_number   1
_chemical_formula_structural   Nb5(SeS)2
_chemical_formula_sum   'Nb5 Se2 S2'
_cell_volume   165.00639390
_cell_formula_units_Z   1
loop_
 _symmetry_equiv_pos_site_id
 _symmetry_equiv_pos_as_xyz
  1  'x, y, z'
loop_
 _atom_site_type_symbol
 _atom_site_label
 _atom_site_symmetry_multiplicity
 _atom_site_fract_x
 _atom_site_fract_y
 _atom_site_fract_z
 _atom_site_occupancy
  Nb  Nb0  1  0.00000000  0.00000000  -0.00000000  1
  Nb  Nb1  1  0.70219499  0.66987904  0.07426902  1
  Nb  Nb2  1  0.29780501  0.33012096  0.92573098  1
  Nb  Nb3  1  0.62234229  0.07657073  0.32125532  1
  Nb  Nb4  1  0.37765771  0.92342927  0.67874468  1
  Se  Se5  1  0.71145404  0.23217835  0.65508642  1
  Se  Se6  1  0.28854596  0.76782165  0.34491358  1
  S  S7  1  0.93776524  0.32834968  0.20388016  1
  S  S8  1  0.06223476  0.67165032  0.79611984  1
