# generated using pymatgen
data_NbSnSb
_symmetry_space_group_name_H-M   'P 1'
_cell_length_a   5.71221373
_cell_length_b   5.54599745
_cell_length_c   5.54599745
_cell_angle_alpha   62.30170687
_cell_angle_beta   74.94146890
_cell_angle_gamma   105.05853110
_symmetry_Int_Tables_number   1
_chemical_formula_structural   NbSnSb
_chemical_formula_sum   'Nb2 Sn2 Sb2'
_cell_volume   134.51986225
_cell_formula_units_Z   2
loop_
 _symmetry_equiv_pos_site_id
 _symmetry_equiv_pos_as_xyz
  1  'x, y, z'
loop_
 _atom_site_type_symbol
 _atom_site_label
 _atom_site_symmetry_multiplicity
 _atom_site_fract_x
 _atom_site_fract_y
 _atom_site_fract_z
 _atom_site_occupancy
  Nb  Nb0  1  -0.00000000  0.25000000  0.75000000  1
  Nb  Nb1  1  -0.00000000  0.75000000  0.25000000  1
  Sn  Sn2  1  0.50000000  0.34645809  0.84645809  1
  Sn  Sn3  1  0.50000000  0.65354191  0.15354191  1
  Sb  Sb4  1  0.19828610  0.84914305  0.65085695  1
  Sb  Sb5  1  0.80171390  0.15085695  0.34914305  1
