# generated using pymatgen
data_Nd3Si3Ni
_symmetry_space_group_name_H-M   'P 1'
_cell_length_a   4.02934120
_cell_length_b   4.32984645
_cell_length_c   9.47619366
_cell_angle_alpha   76.79363055
_cell_angle_beta   77.72503715
_cell_angle_gamma   90.00000000
_symmetry_Int_Tables_number   1
_chemical_formula_structural   Nd3Si3Ni
_chemical_formula_sum   'Nd3 Si3 Ni1'
_cell_volume   157.06869310
_cell_formula_units_Z   1
loop_
 _symmetry_equiv_pos_site_id
 _symmetry_equiv_pos_as_xyz
  1  'x, y, z'
loop_
 _atom_site_type_symbol
 _atom_site_label
 _atom_site_symmetry_multiplicity
 _atom_site_fract_x
 _atom_site_fract_y
 _atom_site_fract_z
 _atom_site_occupancy
  Nd  Nd0  1  0.68524735  0.18524735  0.62950529  1
  Nd  Nd1  1  0.31787010  0.81787010  0.36425980  1
  Nd  Nd2  1  0.99934306  0.99934306  0.00131389  1
  Si  Si3  1  0.86408332  0.36408332  0.27183337  1
  Si  Si4  1  0.14081080  0.64081080  0.71837840  1
  Si  Si5  1  0.55938999  0.55938999  0.88122002  1
  Ni  Ni6  1  0.43325538  0.43325538  0.13348923  1
