# generated using pymatgen
data_Pr3Mn4PbO12
_symmetry_space_group_name_H-M   'P 1'
_cell_length_a   5.57770304
_cell_length_b   5.63596666
_cell_length_c   7.83735014
_cell_angle_alpha   90.00000000
_cell_angle_beta   90.00000000
_cell_angle_gamma   89.39574280
_symmetry_Int_Tables_number   1
_chemical_formula_structural   Pr3Mn4PbO12
_chemical_formula_sum   'Pr3 Mn4 Pb1 O12'
_cell_volume   246.35926577
_cell_formula_units_Z   1
loop_
 _symmetry_equiv_pos_site_id
 _symmetry_equiv_pos_as_xyz
  1  'x, y, z'
loop_
 _atom_site_type_symbol
 _atom_site_label
 _atom_site_symmetry_multiplicity
 _atom_site_fract_x
 _atom_site_fract_y
 _atom_site_fract_z
 _atom_site_occupancy
  Pr  Pr0  1  0.00692301  0.95756785  0.25000000  1
  Pr  Pr1  1  0.51208795  0.54836154  0.75000000  1
  Pr  Pr2  1  0.99316433  0.04132766  0.75000000  1
  Mn  Mn3  1  0.00154588  0.49788166  0.99937686  1
  Mn  Mn4  1  0.49881110  0.00476570  0.49940623  1
  Mn  Mn5  1  0.00154588  0.49788166  0.50062314  1
  Mn  Mn6  1  0.49881110  0.00476570  0.00059377  1
  Pb  Pb7  1  0.49481841  0.48167256  0.25000000  1
  O  O8  1  0.78498108  0.78537474  0.95681902  1
  O  O9  1  0.71995611  0.28509107  0.54726289  1
  O  O10  1  0.19805425  0.19923202  0.46824301  1
  O  O11  1  0.27940914  0.71771947  0.02583604  1
  O  O12  1  0.19805425  0.19923202  0.03175699  1
  O  O13  1  0.27940914  0.71771947  0.47416396  1
  O  O14  1  0.78498108  0.78537474  0.54318098  1
  O  O15  1  0.71995611  0.28509107  0.95273711  1
  O  O16  1  0.57189885  0.99789597  0.25000000  1
  O  O17  1  0.94572427  0.52484102  0.25000000  1
  O  O18  1  0.43089456  0.98839145  0.75000000  1
  O  O19  1  0.07897349  0.47981265  0.75000000  1
