# generated using pymatgen
data_NbSi4Mo
_symmetry_space_group_name_H-M   'P 1'
_cell_length_a   4.72212457
_cell_length_b   4.73723355
_cell_length_c   13.13676838
_cell_angle_alpha   90.00000000
_cell_angle_beta   90.00000000
_cell_angle_gamma   60.26748206
_symmetry_Int_Tables_number   1
_chemical_formula_structural   NbSi4Mo
_chemical_formula_sum   'Nb3 Si12 Mo3'
_cell_volume   255.17943829
_cell_formula_units_Z   3
loop_
 _symmetry_equiv_pos_site_id
 _symmetry_equiv_pos_as_xyz
  1  'x, y, z'
loop_
 _atom_site_type_symbol
 _atom_site_label
 _atom_site_symmetry_multiplicity
 _atom_site_fract_x
 _atom_site_fract_y
 _atom_site_fract_z
 _atom_site_occupancy
  Nb  Nb0  1  0.00000000  0.50000000  0.74996412  1
  Nb  Nb1  1  0.50000000  0.50000000  0.41635115  1
  Nb  Nb2  1  0.50000000  0.50000000  0.91714274  1
  Si  Si3  1  0.15779563  0.67603093  0.08418318  1
  Si  Si4  1  0.16204840  0.67910754  0.58334323  1
  Si  Si5  1  0.67626431  0.15945311  0.24908507  1
  Si  Si6  1  0.67961325  0.15849175  0.74902676  1
  Si  Si7  1  0.15992536  0.16377115  0.41663561  1
  Si  Si8  1  0.16363704  0.15676281  0.91773863  1
  Si  Si9  1  0.84220437  0.32396907  0.08418318  1
  Si  Si10  1  0.83795160  0.32089246  0.58334323  1
  Si  Si11  1  0.32373569  0.84054689  0.24908507  1
  Si  Si12  1  0.32038675  0.84150825  0.74902676  1
  Si  Si13  1  0.84007464  0.83622885  0.41663561  1
  Si  Si14  1  0.83636296  0.84323719  0.91773863  1
  Mo  Mo15  1  0.50000000  -0.00000000  0.08397194  1
  Mo  Mo16  1  0.50000000  -0.00000000  0.58316756  1
  Mo  Mo17  1  0.00000000  0.50000000  0.24937753  1
