# generated using pymatgen
data_Nd9Ga5Se21
_symmetry_space_group_name_H-M   'P 1'
_cell_length_a   12.28403505
_cell_length_b   12.28425358
_cell_length_c   12.28424226
_cell_angle_alpha   95.97685858
_cell_angle_beta   84.02299813
_cell_angle_gamma   84.02159262
_symmetry_Int_Tables_number   1
_chemical_formula_structural   Nd9Ga5Se21
_chemical_formula_sum   'Nd18 Ga10 Se42'
_cell_volume   1821.16240921
_cell_formula_units_Z   2
loop_
 _symmetry_equiv_pos_site_id
 _symmetry_equiv_pos_as_xyz
  1  'x, y, z'
loop_
 _atom_site_type_symbol
 _atom_site_label
 _atom_site_symmetry_multiplicity
 _atom_site_fract_x
 _atom_site_fract_y
 _atom_site_fract_z
 _atom_site_occupancy
  Nd  Nd0  1  0.25390869  0.11505664  0.88359505  1
  Nd  Nd1  1  0.91930822  0.45419410  0.22210379  1
  Nd  Nd2  1  0.59015618  0.78136358  0.55348863  1
  Nd  Nd3  1  0.44648937  0.40984199  0.78135049  1
  Nd  Nd4  1  0.11639733  0.74610358  0.11507188  1
  Nd  Nd5  1  0.77790969  0.08069761  0.45417849  1
  Nd  Nd6  1  0.54580928  0.22210466  0.08070550  1
  Nd  Nd7  1  0.21862498  0.55350490  0.40983798  1
  Nd  Nd8  1  0.88493741  0.88360925  0.74609104  1
  Nd  Nd9  1  0.41619749  0.21330483  0.44444076  1
  Nd  Nd10  1  0.07632866  0.54924788  0.78121163  1
  Nd  Nd11  1  0.74867996  0.87994975  0.11113791  1
  Nd  Nd12  1  0.21878404  0.92365702  0.54925278  1
  Nd  Nd13  1  0.88884928  0.25131764  0.87997335  1
  Nd  Nd14  1  0.55555916  0.58380044  0.21330399  1
  Nd  Nd15  1  0.12004889  0.11113836  0.25131841  1
  Nd  Nd16  1  0.78671092  0.44444608  0.58380353  1
  Nd  Nd17  1  0.45076462  0.78120719  0.92365306  1
  Ga  Ga18  1  0.94407048  0.72273130  0.39000823  1
  Ga  Ga19  1  0.60999059  0.05594300  0.72271639  1
  Ga  Ga20  1  0.27727751  0.39001442  0.05592381  1
  Ga  Ga21  1  0.44439165  0.88881707  0.22311147  1
  Ga  Ga22  1  0.11117271  0.22310007  0.55561731  1
  Ga  Ga23  1  0.77689584  0.55560898  0.88882762  1
  Ga  Ga24  1  0.14805298  0.85194526  0.85194930  1
  Ga  Ga25  1  0.84353966  0.15645957  0.15645496  1
  Ga  Ga26  1  0.34428628  0.65571401  0.65571149  1
  Ga  Ga27  1  0.64820544  0.35179408  0.35179601  1
  Se  Se28  1  0.69634248  0.55228327  0.39515204  1
  Se  Se29  1  0.34815633  0.88656111  0.74200679  1
  Se  Se30  1  0.01577238  0.23036158  0.08075132  1
  Se  Se31  1  0.91926003  0.98423510  0.23035621  1
  Se  Se32  1  0.60486509  0.30365417  0.55229712  1
  Se  Se33  1  0.25800354  0.65184849  0.88655721  1
  Se  Se34  1  0.11343035  0.74200504  0.65185203  1
  Se  Se35  1  0.76962985  0.08073658  0.98424317  1
  Se  Se36  1  0.44771402  0.39514671  0.30364995  1
  Se  Se37  1  0.63241471  0.13433941  0.27857207  1
  Se  Se38  1  0.28798207  0.46667606  0.61503140  1
  Se  Se39  1  0.96996919  0.78046861  0.93762383  1
  Se  Se40  1  0.38496238  0.71201331  0.46668241  1
  Se  Se41  1  0.06240113  0.03003540  0.78047463  1
  Se  Se42  1  0.72143150  0.36758835  0.13433395  1
  Se  Se43  1  0.21953998  0.93761060  0.03003112  1
  Se  Se44  1  0.86565724  0.27857202  0.36759168  1
  Se  Se45  1  0.53333625  0.61503030  0.71200263  1
  Se  Se46  1  0.97996607  0.53993369  0.44917923  1
  Se  Se47  1  0.64309091  0.87370270  0.78180896  1
  Se  Se48  1  0.30560339  0.20516007  0.11106116  1
  Se  Se49  1  0.88891846  0.69440101  0.20512557  1
  Se  Se50  1  0.55082726  0.02002100  0.53991465  1
  Se  Se51  1  0.21818464  0.35687564  0.87367321  1
  Se  Se52  1  0.12631890  0.78181680  0.35688597  1
  Se  Se53  1  0.79487561  0.11107763  0.69438858  1
  Se  Se54  1  0.46006491  0.44917163  0.02002212  1
  Se  Se55  1  0.52045138  0.96809677  0.06262622  1
  Se  Se56  1  0.18456493  0.30169326  0.39332812  1
  Se  Se57  1  0.84536307  0.63478014  0.72466045  1
  Se  Se58  1  0.60667262  0.81540308  0.30169434  1
  Se  Se59  1  0.27536841  0.15462626  0.63478710  1
  Se  Se60  1  0.93739331  0.47953964  0.96811201  1
  Se  Se61  1  0.36519142  0.72463832  0.15462694  1
  Se  Se62  1  0.03189027  0.06260993  0.47953609  1
  Se  Se63  1  0.69831023  0.39331522  0.81543050  1
  Se  Se64  1  0.81831089  0.84713099  0.51669630  1
  Se  Se65  1  0.48331177  0.18169986  0.84711508  1
  Se  Se66  1  0.15287128  0.51670943  0.18168335  1
  Se  Se67  1  0.65296943  0.68129441  0.01678797  1
  Se  Se68  1  0.31869563  0.01677993  0.34703157  1
  Se  Se69  1  0.98323537  0.34701723  0.68131412  1
