# generated using pymatgen
data_NaSi2H7O8
_symmetry_space_group_name_H-M   'P 1'
_cell_length_a   5.00640877
_cell_length_b   7.41333916
_cell_length_c   20.44137639
_cell_angle_alpha   90.00000000
_cell_angle_beta   90.00000000
_cell_angle_gamma   90.00000000
_symmetry_Int_Tables_number   1
_chemical_formula_structural   NaSi2H7O8
_chemical_formula_sum   'Na4 Si8 H28 O32'
_cell_volume   758.66545806
_cell_formula_units_Z   4
loop_
 _symmetry_equiv_pos_site_id
 _symmetry_equiv_pos_as_xyz
  1  'x, y, z'
loop_
 _atom_site_type_symbol
 _atom_site_label
 _atom_site_symmetry_multiplicity
 _atom_site_fract_x
 _atom_site_fract_y
 _atom_site_fract_z
 _atom_site_occupancy
  Na  Na0  1  0.50074076  0.75274811  0.51953749  1
  Na  Na1  1  0.99925924  0.25274811  0.98046251  1
  Na  Na2  1  0.50074076  0.25274811  0.48046251  1
  Na  Na3  1  0.99925924  0.75274811  0.01953749  1
  Si  Si4  1  0.95474925  0.45750747  0.29059514  1
  Si  Si5  1  0.54525075  0.95750747  0.20940486  1
  Si  Si6  1  0.45633002  0.53845329  0.20318905  1
  Si  Si7  1  0.04366998  0.03845329  0.29681095  1
  Si  Si8  1  0.04366998  0.53845329  0.70318905  1
  Si  Si9  1  0.45633002  0.03845329  0.79681095  1
  Si  Si10  1  0.54525075  0.45750747  0.79059514  1
  Si  Si11  1  0.95474925  0.95750747  0.70940486  1
  H  H12  1  0.32504622  0.54921706  0.39459493  1
  H  H13  1  0.17495378  0.04921706  0.10540507  1
  H  H14  1  0.82379104  0.44869338  0.10343765  1
  H  H15  1  0.67620896  0.94869338  0.39656235  1
  H  H16  1  0.67620896  0.44869338  0.60343765  1
  H  H17  1  0.82379104  0.94869338  0.89656235  1
  H  H18  1  0.17495378  0.54921706  0.89459493  1
  H  H19  1  0.32504622  0.04921706  0.60540507  1
  H  H20  1  0.64051614  0.55815307  0.39544568  1
  H  H21  1  0.85948386  0.05815307  0.10455432  1
  H  H22  1  0.14070596  0.43895785  0.10307048  1
  H  H23  1  0.35929404  0.93895785  0.39692952  1
  H  H24  1  0.35929404  0.43895785  0.60307048  1
  H  H25  1  0.14070596  0.93895785  0.89692952  1
  H  H26  1  0.85948386  0.55815307  0.89544568  1
  H  H27  1  0.64051614  0.05815307  0.60455432  1
  H  H28  1  0.00227249  0.83255397  0.45165833  1
  H  H29  1  0.49772751  0.33255397  0.04834167  1
  H  H30  1  0.49819643  0.13809892  0.02334688  1
  H  H31  1  0.00180357  0.63809892  0.47665312  1
  H  H32  1  0.00180357  0.13809892  0.52334688  1
  H  H33  1  0.49819643  0.63809892  0.97665312  1
  H  H34  1  0.49772751  0.83255397  0.95165833  1
  H  H35  1  0.00227249  0.33255397  0.54834167  1
  H  H36  1  0.99764258  0.72977901  0.35247381  1
  H  H37  1  0.50235742  0.22977901  0.14752619  1
  H  H38  1  0.50235742  0.72977901  0.85247381  1
  H  H39  1  0.99764258  0.22977901  0.64752619  1
  O  O40  1  0.00120997  0.76229979  0.49270775  1
  O  O41  1  0.49879003  0.26229979  0.00729225  1
  O  O42  1  0.00120997  0.26229979  0.50729225  1
  O  O43  1  0.49879003  0.76229979  0.99270775  1
  O  O44  1  0.51553565  0.46751874  0.57553149  1
  O  O45  1  0.98446435  0.96751874  0.92446851  1
  O  O46  1  0.01627440  0.53104489  0.92291179  1
  O  O47  1  0.48372560  0.03104489  0.57708821  1
  O  O48  1  0.48372560  0.53104489  0.42291179  1
  O  O49  1  0.01627440  0.03104489  0.07708821  1
  O  O50  1  0.98446435  0.46751874  0.07553149  1
  O  O51  1  0.51553565  0.96751874  0.42446851  1
  O  O52  1  0.00104051  0.25102708  0.31503903  1
  O  O53  1  0.49895949  0.75102708  0.18496097  1
  O  O54  1  0.00104051  0.75102708  0.68496097  1
  O  O55  1  0.49895949  0.25102708  0.81503903  1
  O  O56  1  0.15052143  0.51262351  0.23030006  1
  O  O57  1  0.34947857  0.01262351  0.26969994  1
  O  O58  1  0.64860957  0.48026914  0.26461331  1
  O  O59  1  0.85139043  0.98026914  0.23538669  1
  O  O60  1  0.85139043  0.48026914  0.76461331  1
  O  O61  1  0.64860957  0.98026914  0.73538669  1
  O  O62  1  0.34947857  0.51262351  0.73030006  1
  O  O63  1  0.15052143  0.01262351  0.76969994  1
  O  O64  1  0.99919075  0.58396618  0.35563305  1
  O  O65  1  0.50080925  0.08396618  0.14436695  1
  O  O66  1  0.50118191  0.41598854  0.13841780  1
  O  O67  1  0.99881809  0.91598854  0.36158220  1
  O  O68  1  0.99881809  0.41598854  0.63841780  1
  O  O69  1  0.50118191  0.91598854  0.86158220  1
  O  O70  1  0.50080925  0.58396618  0.85563305  1
  O  O71  1  0.99919075  0.08396618  0.64436695  1
