# generated using pymatgen
data_Na4Al3Fe(SiO3)8
_symmetry_space_group_name_H-M   'P 1'
_cell_length_a   5.30977446
_cell_length_b   9.45656905
_cell_length_c   8.71774843
_cell_angle_alpha   90.00000000
_cell_angle_beta   90.00000000
_cell_angle_gamma   104.60731366
_symmetry_Int_Tables_number   1
_chemical_formula_structural   Na4Al3Fe(SiO3)8
_chemical_formula_sum   'Na4 Al3 Fe1 Si8 O24'
_cell_volume   423.58875020
_cell_formula_units_Z   1
loop_
 _symmetry_equiv_pos_site_id
 _symmetry_equiv_pos_as_xyz
  1  'x, y, z'
loop_
 _atom_site_type_symbol
 _atom_site_label
 _atom_site_symmetry_multiplicity
 _atom_site_fract_x
 _atom_site_fract_y
 _atom_site_fract_z
 _atom_site_occupancy
  Na  Na0  1  0.25000000  0.50000000  0.79989356  1
  Na  Na1  1  0.75000000  -0.00000000  0.29950703  1
  Na  Na2  1  0.75000000  0.50000000  0.19978574  1
  Na  Na3  1  0.25000000  -0.00000000  0.70042670  1
  Al  Al4  1  0.75000000  -0.00000000  0.90364448  1
  Al  Al5  1  0.75000000  0.50000000  0.59804435  1
  Al  Al6  1  0.25000000  -0.00000000  0.09589347  1
  Fe  Fe7  1  0.25000000  0.50000000  0.40345723  1
  Si  Si8  1  0.43972459  0.71283716  0.08845868  1
  Si  Si9  1  0.93572229  0.20840657  0.59416776  1
  Si  Si10  1  0.06027541  0.28716284  0.08845868  1
  Si  Si11  1  0.56427771  0.79159343  0.59416776  1
  Si  Si12  1  0.56158209  0.28957754  0.90637801  1
  Si  Si13  1  0.06059497  0.79200542  0.40747547  1
  Si  Si14  1  0.93841791  0.71042246  0.90637801  1
  Si  Si15  1  0.43940503  0.20799458  0.40747547  1
  O  O16  1  0.51813405  0.89273876  0.07329082  1
  O  O17  1  0.00939493  0.38872058  0.58282510  1
  O  O18  1  0.98186595  0.10726124  0.07329082  1
  O  O19  1  0.49060507  0.61127942  0.58282510  1
  O  O20  1  0.48245590  0.10952600  0.92462950  1
  O  O21  1  0.96772009  0.61234338  0.42578149  1
  O  O22  1  0.01754410  0.89047400  0.92462950  1
  O  O23  1  0.53227991  0.38765662  0.42578149  1
  O  O24  1  0.15453630  0.64813757  0.00624825  1
  O  O25  1  0.65409585  0.14451777  0.50680953  1
  O  O26  1  0.34546370  0.35186243  0.00624825  1
  O  O27  1  0.84590415  0.85548223  0.50680953  1
  O  O28  1  0.84517396  0.35205440  0.99182299  1
  O  O29  1  0.34486175  0.85093341  0.49389640  1
  O  O30  1  0.65482604  0.64794560  0.99182299  1
  O  O31  1  0.15513825  0.14906659  0.49389640  1
  O  O32  1  0.44058937  0.64507626  0.25804043  1
  O  O33  1  0.93109907  0.13645343  0.76187003  1
  O  O34  1  0.05941063  0.35492374  0.25804043  1
  O  O35  1  0.56890093  0.86354657  0.76187003  1
  O  O36  1  0.56618754  0.36228391  0.73916978  1
  O  O37  1  0.06981076  0.86304278  0.23880948  1
  O  O38  1  0.93381246  0.63771609  0.73916978  1
  O  O39  1  0.43018924  0.13695722  0.23880948  1
