# generated using pymatgen
data_Mn5Ni8Sn3
_symmetry_space_group_name_H-M   'P 1'
_cell_length_a   4.22110513
_cell_length_b   4.22110513
_cell_length_c   14.00310796
_cell_angle_alpha   90.00000000
_cell_angle_beta   81.33132902
_cell_angle_gamma   120.00000000
_symmetry_Int_Tables_number   1
_chemical_formula_structural   Mn5Ni8Sn3
_chemical_formula_sum   'Mn5 Ni8 Sn3'
_cell_volume   212.77892461
_cell_formula_units_Z   1
loop_
 _symmetry_equiv_pos_site_id
 _symmetry_equiv_pos_as_xyz
  1  'x, y, z'
loop_
 _atom_site_type_symbol
 _atom_site_label
 _atom_site_symmetry_multiplicity
 _atom_site_fract_x
 _atom_site_fract_y
 _atom_site_fract_z
 _atom_site_occupancy
  Mn  Mn0  1  0.24905567  0.12452784  0.62641649  1
  Mn  Mn1  1  0.74710065  0.37355032  0.87934903  1
  Mn  Mn2  1  0.25289935  0.62644968  0.12065097  1
  Mn  Mn3  1  0.75094433  0.87547216  0.37358351  1
  Mn  Mn4  1  -0.00000000  -0.00000000  -0.00000000  1
  Ni  Ni5  1  0.62539422  0.81269711  0.56190867  1
  Ni  Ni6  1  0.12009573  0.06004786  0.81985641  1
  Ni  Ni7  1  0.62900458  0.31450229  0.05649313  1
  Ni  Ni8  1  0.12542570  0.56271285  0.31186144  1
  Ni  Ni9  1  0.87457430  0.43728715  0.68813856  1
  Ni  Ni10  1  0.37099542  0.68549771  0.94350687  1
  Ni  Ni11  1  0.87990427  0.93995214  0.18014359  1
  Ni  Ni12  1  0.37460578  0.18730289  0.43809133  1
  Sn  Sn13  1  0.50165180  0.25082590  0.24752230  1
  Sn  Sn14  1  -0.00000000  0.50000000  0.50000000  1
  Sn  Sn15  1  0.49834820  0.74917410  0.75247770  1
