# generated using pymatgen
data_Pr2(InCu3)3
_symmetry_space_group_name_H-M   'P 1'
_cell_length_a   5.18254012
_cell_length_b   10.80582553
_cell_length_c   17.10350180
_cell_angle_alpha   90.00000000
_cell_angle_beta   90.00000000
_cell_angle_gamma   90.00000000
_symmetry_Int_Tables_number   1
_chemical_formula_structural   Pr2(InCu3)3
_chemical_formula_sum   'Pr8 In12 Cu36'
_cell_volume   957.82388268
_cell_formula_units_Z   4
loop_
 _symmetry_equiv_pos_site_id
 _symmetry_equiv_pos_as_xyz
  1  'x, y, z'
loop_
 _atom_site_type_symbol
 _atom_site_label
 _atom_site_symmetry_multiplicity
 _atom_site_fract_x
 _atom_site_fract_y
 _atom_site_fract_z
 _atom_site_occupancy
  Pr  Pr0  1  0.50000000  0.88915339  0.74445604  1
  Pr  Pr1  1  0.50000000  0.11084661  0.25554396  1
  Pr  Pr2  1  0.00000000  0.61084661  0.24445604  1
  Pr  Pr3  1  0.00000000  0.38915339  0.75554396  1
  Pr  Pr4  1  0.50000000  0.50000000  0.50000000  1
  Pr  Pr5  1  0.00000000  -0.00000000  0.00000000  1
  Pr  Pr6  1  0.50000000  0.50000000  0.00000000  1
  Pr  Pr7  1  0.00000000  -0.00000000  0.50000000  1
  In  In8  1  0.50000000  0.57636668  0.80771179  1
  In  In9  1  0.50000000  0.42363332  0.19228821  1
  In  In10  1  0.00000000  0.92363332  0.30771179  1
  In  In11  1  0.00000000  0.07636668  0.69228821  1
  In  In12  1  0.50000000  0.80562837  0.55351976  1
  In  In13  1  0.50000000  0.19437163  0.44648024  1
  In  In14  1  0.00000000  0.69437163  0.05351976  1
  In  In15  1  0.00000000  0.30562837  0.94648024  1
  In  In16  1  0.50000000  0.79726856  0.28143543  1
  In  In17  1  0.50000000  0.20273144  0.71856457  1
  In  In18  1  0.00000000  0.70273144  0.78143543  1
  In  In19  1  0.00000000  0.29726856  0.21856457  1
  Cu  Cu20  1  0.50000000  0.65905882  0.14775299  1
  Cu  Cu21  1  0.50000000  0.34094118  0.85224701  1
  Cu  Cu22  1  0.00000000  0.84094118  0.64775299  1
  Cu  Cu23  1  0.00000000  0.15905882  0.35224701  1
  Cu  Cu24  1  0.25646431  0.63205598  0.65347736  1
  Cu  Cu25  1  0.25646431  0.36794402  0.34652264  1
  Cu  Cu26  1  0.24353569  0.86794402  0.15347736  1
  Cu  Cu27  1  0.24353569  0.13205598  0.84652264  1
  Cu  Cu28  1  0.74353569  0.36794402  0.34652264  1
  Cu  Cu29  1  0.74353569  0.63205598  0.65347736  1
  Cu  Cu30  1  0.75646431  0.13205598  0.84652264  1
  Cu  Cu31  1  0.75646431  0.86794402  0.15347736  1
  Cu  Cu32  1  0.50000000  0.95332672  0.40892002  1
  Cu  Cu33  1  0.50000000  0.04667328  0.59107998  1
  Cu  Cu34  1  0.00000000  0.54667328  0.90892002  1
  Cu  Cu35  1  0.00000000  0.45332672  0.09107998  1
  Cu  Cu36  1  0.25609993  0.75663470  0.91192250  1
  Cu  Cu37  1  0.25609993  0.24336530  0.08807750  1
  Cu  Cu38  1  0.24390007  0.74336530  0.41192250  1
  Cu  Cu39  1  0.24390007  0.25663470  0.58807750  1
  Cu  Cu40  1  0.74390007  0.24336530  0.08807750  1
  Cu  Cu41  1  0.74390007  0.75663470  0.91192250  1
  Cu  Cu42  1  0.75609993  0.25663470  0.58807750  1
  Cu  Cu43  1  0.75609993  0.74336530  0.41192250  1
  Cu  Cu44  1  0.50000000  0.56670132  0.33351754  1
  Cu  Cu45  1  0.50000000  0.43329868  0.66648246  1
  Cu  Cu46  1  0.00000000  0.93329868  0.83351754  1
  Cu  Cu47  1  0.00000000  0.06670132  0.16648246  1
  Cu  Cu48  1  0.50000000  0.80957220  0.03436843  1
  Cu  Cu49  1  0.50000000  0.19042780  0.96563157  1
  Cu  Cu50  1  0.00000000  0.69042780  0.53436843  1
  Cu  Cu51  1  0.00000000  0.30957220  0.46563157  1
  Cu  Cu52  1  0.50000000  0.95879728  0.91375638  1
  Cu  Cu53  1  0.50000000  0.04120272  0.08624362  1
  Cu  Cu54  1  0.00000000  0.54120272  0.41375638  1
  Cu  Cu55  1  0.00000000  0.45879728  0.58624362  1
