# generated using pymatgen
data_Na2Cu4P2ClO9
_symmetry_space_group_name_H-M   'P 1'
_cell_length_a   6.52748287
_cell_length_b   10.46334407
_cell_length_c   13.63707673
_cell_angle_alpha   90.00000000
_cell_angle_beta   90.00000000
_cell_angle_gamma   90.00000000
_symmetry_Int_Tables_number   1
_chemical_formula_structural   Na2Cu4P2ClO9
_chemical_formula_sum   'Na8 Cu16 P8 Cl4 O36'
_cell_volume   931.40278352
_cell_formula_units_Z   4
loop_
 _symmetry_equiv_pos_site_id
 _symmetry_equiv_pos_as_xyz
  1  'x, y, z'
loop_
 _atom_site_type_symbol
 _atom_site_label
 _atom_site_symmetry_multiplicity
 _atom_site_fract_x
 _atom_site_fract_y
 _atom_site_fract_z
 _atom_site_occupancy
  Na  Na0  1  0.00020952  0.99985454  0.30518168  1
  Na  Na1  1  0.50020952  0.00014546  0.30518168  1
  Na  Na2  1  0.00020952  0.99985454  0.69481832  1
  Na  Na3  1  0.50020952  0.00014546  0.69481832  1
  Na  Na4  1  0.00020952  0.49985454  0.80518168  1
  Na  Na5  1  0.50020952  0.50014546  0.80518168  1
  Na  Na6  1  0.00020952  0.49985454  0.19481832  1
  Na  Na7  1  0.50020952  0.50014546  0.19481832  1
  Cu  Cu8  1  0.75011465  0.69864441  0.38612521  1
  Cu  Cu9  1  0.25011465  0.30135559  0.38612521  1
  Cu  Cu10  1  0.25011465  0.30135559  0.61387479  1
  Cu  Cu11  1  0.75011465  0.69864441  0.61387479  1
  Cu  Cu12  1  0.75011465  0.19864441  0.88612521  1
  Cu  Cu13  1  0.25011465  0.80135559  0.88612521  1
  Cu  Cu14  1  0.25011465  0.80135559  0.11387479  1
  Cu  Cu15  1  0.75011465  0.19864441  0.11387479  1
  Cu  Cu16  1  0.50001587  0.99996531  0.00000000  1
  Cu  Cu17  1  0.00001587  0.00003469  0.00000000  1
  Cu  Cu18  1  0.50001587  0.49996531  0.50000000  1
  Cu  Cu19  1  0.00001587  0.50003469  0.50000000  1
  Cu  Cu20  1  0.75612661  0.62289234  0.00000000  1
  Cu  Cu21  1  0.25612661  0.37710766  0.00000000  1
  Cu  Cu22  1  0.75612661  0.12289234  0.50000000  1
  Cu  Cu23  1  0.25612661  0.87710766  0.50000000  1
  P  P24  1  0.75012271  0.79725759  0.16595037  1
  P  P25  1  0.25012271  0.20274241  0.16595037  1
  P  P26  1  0.25012271  0.20274241  0.83404963  1
  P  P27  1  0.75012271  0.79725759  0.83404963  1
  P  P28  1  0.75012271  0.29725759  0.66595037  1
  P  P29  1  0.25012271  0.70274241  0.66595037  1
  P  P30  1  0.25012271  0.70274241  0.33404963  1
  P  P31  1  0.75012271  0.29725759  0.33404963  1
  Cl  Cl32  1  0.74919087  0.89956194  0.50000000  1
  Cl  Cl33  1  0.24919087  0.10043806  0.50000000  1
  Cl  Cl34  1  0.74919087  0.39956194  0.00000000  1
  Cl  Cl35  1  0.24919087  0.60043806  0.00000000  1
  O  O36  1  0.55519267  0.86220798  0.12393991  1
  O  O37  1  0.44489481  0.13765599  0.12388267  1
  O  O38  1  0.94489481  0.86234401  0.12388267  1
  O  O39  1  0.05519267  0.13779202  0.12393991  1
  O  O40  1  0.44489481  0.13765599  0.87611733  1
  O  O41  1  0.55519267  0.86220798  0.87606009  1
  O  O42  1  0.05519267  0.13779202  0.87606009  1
  O  O43  1  0.94489481  0.86234401  0.87611733  1
  O  O44  1  0.55519267  0.36220798  0.62393991  1
  O  O45  1  0.44489481  0.63765599  0.62388267  1
  O  O46  1  0.94489481  0.36234401  0.62388267  1
  O  O47  1  0.05519267  0.63779202  0.62393991  1
  O  O48  1  0.44489481  0.63765599  0.37611733  1
  O  O49  1  0.55519267  0.36220798  0.37606009  1
  O  O50  1  0.05519267  0.63779202  0.37606009  1
  O  O51  1  0.94489481  0.36234401  0.37611733  1
  O  O52  1  0.74997651  0.82045896  0.27900098  1
  O  O53  1  0.24997651  0.17954104  0.27900098  1
  O  O54  1  0.24997651  0.17954104  0.72099902  1
  O  O55  1  0.74997651  0.82045896  0.72099902  1
  O  O56  1  0.74997651  0.32045896  0.77900098  1
  O  O57  1  0.24997651  0.67954104  0.77900098  1
  O  O58  1  0.24997651  0.67954104  0.22099902  1
  O  O59  1  0.74997651  0.32045896  0.22099902  1
  O  O60  1  0.75081757  0.65080688  0.14204121  1
  O  O61  1  0.25081757  0.34919312  0.14204121  1
  O  O62  1  0.25081757  0.34919312  0.85795879  1
  O  O63  1  0.75081757  0.65080688  0.85795879  1
  O  O64  1  0.75081757  0.15080688  0.64204121  1
  O  O65  1  0.25081757  0.84919312  0.64204121  1
  O  O66  1  0.25081757  0.84919312  0.35795879  1
  O  O67  1  0.75081757  0.15080688  0.35795879  1
  O  O68  1  0.75000975  0.58818716  0.50000000  1
  O  O69  1  0.25000975  0.41181284  0.50000000  1
  O  O70  1  0.75000975  0.08818716  0.00000000  1
  O  O71  1  0.25000975  0.91181284  0.00000000  1
