# generated using pymatgen
data_Nb3FeSe10
_symmetry_space_group_name_H-M   'P 1'
_cell_length_a   3.53167719
_cell_length_b   9.40664691
_cell_length_c   10.21165122
_cell_angle_alpha   113.16446116
_cell_angle_beta   90.00000000
_cell_angle_gamma   90.00000000
_symmetry_Int_Tables_number   1
_chemical_formula_structural   Nb3FeSe10
_chemical_formula_sum   'Nb3 Fe1 Se10'
_cell_volume   311.89372518
_cell_formula_units_Z   1
loop_
 _symmetry_equiv_pos_site_id
 _symmetry_equiv_pos_as_xyz
  1  'x, y, z'
loop_
 _atom_site_type_symbol
 _atom_site_label
 _atom_site_symmetry_multiplicity
 _atom_site_fract_x
 _atom_site_fract_y
 _atom_site_fract_z
 _atom_site_occupancy
  Nb  Nb0  1  0.75000000  0.72306632  0.63183272  1
  Nb  Nb1  1  0.25000000  0.27839553  0.35993127  1
  Nb  Nb2  1  0.25000000  0.54471631  0.91678337  1
  Fe  Fe3  1  0.75000000  0.45309781  0.09972853  1
  Se  Se4  1  0.25000000  0.95397804  0.75505096  1
  Se  Se5  1  0.75000000  0.04604120  0.23942186  1
  Se  Se6  1  0.25000000  0.51133970  0.63007527  1
  Se  Se7  1  0.75000000  0.48522917  0.35269881  1
  Se  Se8  1  0.25000000  0.83868771  0.50296988  1
  Se  Se9  1  0.75000000  0.16535814  0.49084803  1
  Se  Se10  1  0.75000000  0.75717787  0.91250675  1
  Se  Se11  1  0.25000000  0.26660963  0.08872298  1
  Se  Se12  1  0.75000000  0.33057423  0.84382305  1
  Se  Se13  1  0.25000000  0.64572836  0.17560652  1
