# generated using pymatgen
data_MnCoB2O5
_symmetry_space_group_name_H-M   'P 1'
_cell_length_a   3.27709055
_cell_length_b   6.25575153
_cell_length_c   9.48975962
_cell_angle_alpha   104.34054644
_cell_angle_beta   91.31951587
_cell_angle_gamma   91.80864807
_symmetry_Int_Tables_number   1
_chemical_formula_structural   MnCoB2O5
_chemical_formula_sum   'Mn2 Co2 B4 O10'
_cell_volume   188.29494753
_cell_formula_units_Z   2
loop_
 _symmetry_equiv_pos_site_id
 _symmetry_equiv_pos_as_xyz
  1  'x, y, z'
loop_
 _atom_site_type_symbol
 _atom_site_label
 _atom_site_symmetry_multiplicity
 _atom_site_fract_x
 _atom_site_fract_y
 _atom_site_fract_z
 _atom_site_occupancy
  Mn  Mn0  1  0.26087044  0.78517993  0.63816269  1
  Mn  Mn1  1  0.73912956  0.21482007  0.36183731  1
  Co  Co2  1  0.76965115  0.62977597  0.90005189  1
  Co  Co3  1  0.23034885  0.37022403  0.09994811  1
  B  B4  1  0.31663613  0.32099917  0.65245811  1
  B  B5  1  0.68336387  0.67900083  0.34754189  1
  B  B6  1  0.67433966  0.12264118  0.83419356  1
  B  B7  1  0.32566034  0.87735882  0.16580644  1
  O  O8  1  0.78353495  0.91005241  0.82282392  1
  O  O9  1  0.21646505  0.08994759  0.17717608  1
  O  O10  1  0.45704949  0.14280110  0.70568152  1
  O  O11  1  0.54295051  0.85719890  0.29431848  1
  O  O12  1  0.74952528  0.30593697  0.94681331  1
  O  O13  1  0.25047472  0.69406303  0.05318669  1
  O  O14  1  0.27763522  0.52303923  0.74902352  1
  O  O15  1  0.72236478  0.47696077  0.25097648  1
  O  O16  1  0.23993808  0.28107098  0.50718882  1
  O  O17  1  0.76006192  0.71892902  0.49281118  1
