# generated using pymatgen
data_LiNd(MoO4)2
_symmetry_space_group_name_H-M   'P 1'
_cell_length_a   5.30804234
_cell_length_b   5.30804234
_cell_length_c   6.85033002
_cell_angle_alpha   67.20533915
_cell_angle_beta   67.20533915
_cell_angle_gamma   90.00000000
_symmetry_Int_Tables_number   1
_chemical_formula_structural   LiNd(MoO4)2
_chemical_formula_sum   'Li1 Nd1 Mo2 O8'
_cell_volume   161.46043939
_cell_formula_units_Z   1
loop_
 _symmetry_equiv_pos_site_id
 _symmetry_equiv_pos_as_xyz
  1  'x, y, z'
loop_
 _atom_site_type_symbol
 _atom_site_label
 _atom_site_symmetry_multiplicity
 _atom_site_fract_x
 _atom_site_fract_y
 _atom_site_fract_z
 _atom_site_occupancy
  Li  Li0  1  0.37500000  0.62500000  0.25000000  1
  Nd  Nd1  1  0.62500000  0.37500000  0.75000000  1
  Mo  Mo2  1  0.87500000  0.12500000  0.25000000  1
  Mo  Mo3  1  0.12500000  0.87500000  0.75000000  1
  O  O4  1  0.93662898  0.28062158  0.42354265  1
  O  O5  1  0.63982838  0.79583577  0.42354265  1
  O  O6  1  0.28726806  0.63991224  0.91778722  1
  O  O7  1  0.79494472  0.94230054  0.91778722  1
  O  O8  1  0.05769946  0.71273194  0.58221278  1
  O  O9  1  0.36008776  0.20505528  0.58221278  1
  O  O10  1  0.71937842  0.36017162  0.07645735  1
  O  O11  1  0.20416423  0.06337102  0.07645735  1
