# generated using pymatgen
data_Mn20Si12C
_symmetry_space_group_name_H-M   'P 1'
_cell_length_a   4.80186934
_cell_length_b   6.86676932
_cell_length_c   11.91602468
_cell_angle_alpha   89.99999999
_cell_angle_beta   89.99999996
_cell_angle_gamma   90.05943206
_symmetry_Int_Tables_number   1
_chemical_formula_structural   Mn20Si12C
_chemical_formula_sum   'Mn20 Si12 C1'
_cell_volume   392.91079174
_cell_formula_units_Z   1
loop_
 _symmetry_equiv_pos_site_id
 _symmetry_equiv_pos_as_xyz
  1  'x, y, z'
loop_
 _atom_site_type_symbol
 _atom_site_label
 _atom_site_symmetry_multiplicity
 _atom_site_fract_x
 _atom_site_fract_y
 _atom_site_fract_z
 _atom_site_occupancy
  Mn  Mn0  1  0.50000004  0.00000233  0.33160463  1
  Mn  Mn1  1  0.50000503  0.50000370  0.83507442  1
  Mn  Mn2  1  0.50000503  0.50000370  0.16492558  1
  Mn  Mn3  1  0.50000004  0.00000233  0.66839537  1
  Mn  Mn4  1  -0.00000469  0.50000437  0.16743045  1
  Mn  Mn5  1  0.99999577  0.99999740  0.66551317  1
  Mn  Mn6  1  0.99999577  0.99999740  0.33448683  1
  Mn  Mn7  1  -0.00000469  0.50000437  0.83256955  1
  Mn  Mn8  1  0.74802496  0.74438123  0.50000000  1
  Mn  Mn9  1  0.74178058  0.23809693  0.00000000  1
  Mn  Mn10  1  0.74853653  0.37749504  0.37658433  1
  Mn  Mn11  1  0.74051372  0.88072631  0.88141468  1
  Mn  Mn12  1  0.74051372  0.88072631  0.11858532  1
  Mn  Mn13  1  0.74853653  0.37749504  0.62341567  1
  Mn  Mn14  1  0.25196073  0.25563664  0.50000000  1
  Mn  Mn15  1  0.25823261  0.76190945  -0.00000000  1
  Mn  Mn16  1  0.25948505  0.11928473  0.11857241  1
  Mn  Mn17  1  0.25145434  0.62247892  0.62341573  1
  Mn  Mn18  1  0.25145434  0.62247892  0.37658427  1
  Mn  Mn19  1  0.25948505  0.11928473  0.88142759  1
  Si  Si20  1  0.74999639  0.10344585  0.50000000  1
  Si  Si21  1  0.76130490  0.59686908  -0.00000000  1
  Si  Si22  1  0.76196528  0.19996834  0.20023027  1
  Si  Si23  1  0.75105000  0.69986960  0.69988026  1
  Si  Si24  1  0.75105000  0.69986960  0.30011974  1
  Si  Si25  1  0.76196528  0.19996834  0.79976973  1
  Si  Si26  1  0.24999656  0.89654050  0.50000000  1
  Si  Si27  1  0.23870573  0.40314815  0.00000000  1
  Si  Si28  1  0.24894393  0.30011228  0.30009867  1
  Si  Si29  1  0.23804469  0.80004040  0.79977190  1
  Si  Si30  1  0.23804469  0.80004040  0.20022810  1
  Si  Si31  1  0.24894393  0.30011228  0.69990133  1
  C  C32  1  0.50001819  0.00000532  0.00000000  1
