# generated using pymatgen
data_Nd2(InCu3)3
_symmetry_space_group_name_H-M   'P 1'
_cell_length_a   5.17091251
_cell_length_b   10.70687571
_cell_length_c   17.10494058
_cell_angle_alpha   90.00000000
_cell_angle_beta   90.00000000
_cell_angle_gamma   90.00000000
_symmetry_Int_Tables_number   1
_chemical_formula_structural   Nd2(InCu3)3
_chemical_formula_sum   'Nd8 In12 Cu36'
_cell_volume   947.00336198
_cell_formula_units_Z   4
loop_
 _symmetry_equiv_pos_site_id
 _symmetry_equiv_pos_as_xyz
  1  'x, y, z'
loop_
 _atom_site_type_symbol
 _atom_site_label
 _atom_site_symmetry_multiplicity
 _atom_site_fract_x
 _atom_site_fract_y
 _atom_site_fract_z
 _atom_site_occupancy
  Nd  Nd0  1  0.50000000  0.87841560  0.73614748  1
  Nd  Nd1  1  0.50000000  0.12158440  0.26385252  1
  Nd  Nd2  1  0.00000000  0.62158440  0.23614748  1
  Nd  Nd3  1  0.00000000  0.37841560  0.76385252  1
  Nd  Nd4  1  0.50000000  0.50000000  0.50000000  1
  Nd  Nd5  1  0.00000000  -0.00000000  -0.00000000  1
  Nd  Nd6  1  0.50000000  0.50000000  -0.00000000  1
  Nd  Nd7  1  0.00000000  0.00000000  0.50000000  1
  In  In8  1  0.50000000  0.80600226  0.54914898  1
  In  In9  1  0.50000000  0.19399774  0.45085102  1
  In  In10  1  0.00000000  0.69399774  0.04914898  1
  In  In11  1  0.00000000  0.30600226  0.95085102  1
  In  In12  1  0.50000000  0.58325221  0.80608550  1
  In  In13  1  0.50000000  0.41674779  0.19391450  1
  In  In14  1  0.00000000  0.91674779  0.30608550  1
  In  In15  1  0.00000000  0.08325221  0.69391450  1
  In  In16  1  0.50000000  0.95880148  0.90952962  1
  In  In17  1  0.50000000  0.04119852  0.09047038  1
  In  In18  1  0.00000000  0.54119852  0.40952962  1
  In  In19  1  0.00000000  0.45880148  0.59047038  1
  Cu  Cu20  1  0.25822333  0.64077416  0.66075390  1
  Cu  Cu21  1  0.25822333  0.35922584  0.33924610  1
  Cu  Cu22  1  0.24177667  0.85922584  0.16075390  1
  Cu  Cu23  1  0.24177667  0.14077416  0.83924610  1
  Cu  Cu24  1  0.74177667  0.35922584  0.33924610  1
  Cu  Cu25  1  0.74177667  0.64077416  0.66075390  1
  Cu  Cu26  1  0.75822333  0.14077416  0.83924610  1
  Cu  Cu27  1  0.75822333  0.85922584  0.16075390  1
  Cu  Cu28  1  0.50000000  0.65778160  0.15271465  1
  Cu  Cu29  1  0.50000000  0.34221840  0.84728535  1
  Cu  Cu30  1  0.00000000  0.84221840  0.65271465  1
  Cu  Cu31  1  0.00000000  0.15778160  0.34728535  1
  Cu  Cu32  1  0.50000000  0.95385947  0.40353173  1
  Cu  Cu33  1  0.50000000  0.04614053  0.59646827  1
  Cu  Cu34  1  0.00000000  0.54614053  0.90353173  1
  Cu  Cu35  1  0.00000000  0.45385947  0.09646827  1
  Cu  Cu36  1  0.24476681  0.74683425  0.90611931  1
  Cu  Cu37  1  0.24476681  0.25316575  0.09388069  1
  Cu  Cu38  1  0.25523319  0.75316575  0.40611931  1
  Cu  Cu39  1  0.25523319  0.24683425  0.59388069  1
  Cu  Cu40  1  0.75523319  0.25316575  0.09388069  1
  Cu  Cu41  1  0.75523319  0.74683425  0.90611931  1
  Cu  Cu42  1  0.74476681  0.24683425  0.59388069  1
  Cu  Cu43  1  0.74476681  0.75316575  0.40611931  1
  Cu  Cu44  1  0.50000000  0.57071043  0.32895834  1
  Cu  Cu45  1  0.50000000  0.42928957  0.67104166  1
  Cu  Cu46  1  0.00000000  0.92928957  0.82895834  1
  Cu  Cu47  1  0.00000000  0.07071043  0.17104166  1
  Cu  Cu48  1  0.50000000  0.79763191  0.03495152  1
  Cu  Cu49  1  0.50000000  0.20236809  0.96504848  1
  Cu  Cu50  1  0.00000000  0.70236809  0.53495152  1
  Cu  Cu51  1  0.00000000  0.29763191  0.46504848  1
  Cu  Cu52  1  0.50000000  0.79858313  0.28116965  1
  Cu  Cu53  1  0.50000000  0.20141687  0.71883035  1
  Cu  Cu54  1  0.00000000  0.70141687  0.78116965  1
  Cu  Cu55  1  0.00000000  0.29858313  0.21883035  1
