# generated using pymatgen
data_Li3SNO3
_symmetry_space_group_name_H-M   'P 1'
_cell_length_a   4.86794292
_cell_length_b   5.39064126
_cell_length_c   6.22185760
_cell_angle_alpha   90.00000000
_cell_angle_beta   90.00000000
_cell_angle_gamma   90.00000000
_symmetry_Int_Tables_number   1
_chemical_formula_structural   Li3SNO3
_chemical_formula_sum   'Li6 S2 N2 O6'
_cell_volume   163.26984311
_cell_formula_units_Z   2
loop_
 _symmetry_equiv_pos_site_id
 _symmetry_equiv_pos_as_xyz
  1  'x, y, z'
loop_
 _atom_site_type_symbol
 _atom_site_label
 _atom_site_symmetry_multiplicity
 _atom_site_fract_x
 _atom_site_fract_y
 _atom_site_fract_z
 _atom_site_occupancy
  Li  Li0  1  0.51536196  0.85466758  0.00000000  1
  Li  Li1  1  0.01536196  0.14533242  0.50000000  1
  Li  Li2  1  0.50836030  0.32205769  0.25714323  1
  Li  Li3  1  0.50836030  0.32205769  0.74285677  1
  Li  Li4  1  0.00836030  0.67794231  0.24285677  1
  Li  Li5  1  0.00836030  0.67794231  0.75714323  1
  S  S6  1  0.50282976  0.83374928  0.50000000  1
  S  S7  1  0.00282976  0.16625072  0.00000000  1
  N  N8  1  0.59602495  0.09644689  0.50000000  1
  N  N9  1  0.09602495  0.90355311  0.00000000  1
  O  O10  1  0.68731691  0.19697746  0.00000000  1
  O  O11  1  0.18731691  0.80302254  0.50000000  1
  O  O12  1  0.59757291  0.68131219  0.30289761  1
  O  O13  1  0.59757291  0.68131219  0.69710239  1
  O  O14  1  0.09757291  0.31868781  0.19710239  1
  O  O15  1  0.09757291  0.31868781  0.80289761  1
