# generated using pymatgen
data_LuTh
_symmetry_space_group_name_H-M   'P 1'
_cell_length_a   3.51751444
_cell_length_b   3.51751444
_cell_length_c   6.05475289
_cell_angle_alpha   73.11357589
_cell_angle_beta   90.00000000
_cell_angle_gamma   120.00000000
_symmetry_Int_Tables_number   1
_chemical_formula_structural   LuTh
_chemical_formula_sum   'Lu1 Th1'
_cell_volume   61.11990716
_cell_formula_units_Z   1
loop_
 _symmetry_equiv_pos_site_id
 _symmetry_equiv_pos_as_xyz
  1  'x, y, z'
loop_
 _atom_site_type_symbol
 _atom_site_label
 _atom_site_symmetry_multiplicity
 _atom_site_fract_x
 _atom_site_fract_y
 _atom_site_fract_z
 _atom_site_occupancy
  Lu  Lu0  1  0.00000000  0.00000000  0.00000000  1
  Th  Th1  1  0.50000000  0.00000000  0.50000000  1
