# generated using pymatgen
data_Mn(VSi3)2
_symmetry_space_group_name_H-M   'P 1'
_cell_length_a   4.45990130
_cell_length_b   4.49767801
_cell_length_c   6.35550134
_cell_angle_alpha   90.00000000
_cell_angle_beta   90.00000000
_cell_angle_gamma   60.27745285
_symmetry_Int_Tables_number   1
_chemical_formula_structural   Mn(VSi3)2
_chemical_formula_sum   'Mn1 V2 Si6'
_cell_volume   110.71372891
_cell_formula_units_Z   1
loop_
 _symmetry_equiv_pos_site_id
 _symmetry_equiv_pos_as_xyz
  1  'x, y, z'
loop_
 _atom_site_type_symbol
 _atom_site_label
 _atom_site_symmetry_multiplicity
 _atom_site_fract_x
 _atom_site_fract_y
 _atom_site_fract_z
 _atom_site_occupancy
  Mn  Mn0  1  0.50000000  0.00000000  0.16666700  1
  V  V1  1  -0.00000000  0.50000000  0.49672270  1
  V  V2  1  0.50000000  0.50000000  0.83661030  1
  Si  Si3  1  0.16498850  0.67002301  0.16666700  1
  Si  Si4  1  0.67102330  0.16349652  0.49905625  1
  Si  Si5  1  0.16548018  0.16349652  0.83427675  1
  Si  Si6  1  0.83501150  0.32997699  0.16666700  1
  Si  Si7  1  0.32897670  0.83650348  0.49905625  1
  Si  Si8  1  0.83451982  0.83650348  0.83427675  1
