# generated using pymatgen
data_Li3Ag3Sn2
_symmetry_space_group_name_H-M   'P 1'
_cell_length_a   4.71266485
_cell_length_b   4.71266485
_cell_length_c   8.12332949
_cell_angle_alpha   73.13786612
_cell_angle_beta   90.00000000
_cell_angle_gamma   120.00000000
_symmetry_Int_Tables_number   1
_chemical_formula_structural   Li3Ag3Sn2
_chemical_formula_sum   'Li3 Ag3 Sn2'
_cell_volume   147.21717703
_cell_formula_units_Z   1
loop_
 _symmetry_equiv_pos_site_id
 _symmetry_equiv_pos_as_xyz
  1  'x, y, z'
loop_
 _atom_site_type_symbol
 _atom_site_label
 _atom_site_symmetry_multiplicity
 _atom_site_fract_x
 _atom_site_fract_y
 _atom_site_fract_z
 _atom_site_occupancy
  Li  Li0  1  0.25067915  0.50135831  0.24796254  1
  Li  Li1  1  0.74949474  0.49898947  0.75151579  1
  Li  Li2  1  0.87491036  0.74982073  0.37526891  1
  Ag  Ag3  1  0.37518760  0.75037521  0.87443719  1
  Ag  Ag4  1  0.99898985  0.99797971  0.00303044  1
  Ag  Ag5  1  0.50071951  0.00143903  0.49784146  1
  Sn  Sn6  1  0.62408128  0.24816256  0.12775616  1
  Sn  Sn7  1  0.12593749  0.25187499  0.62218752  1
