# generated using pymatgen
data_KP2(W3O11)2
_symmetry_space_group_name_H-M   'P 1'
_cell_length_a   5.45235939
_cell_length_b   6.81061318
_cell_length_c   12.13898147
_cell_angle_alpha   92.74697833
_cell_angle_beta   90.00000000
_cell_angle_gamma   90.00000000
_symmetry_Int_Tables_number   1
_chemical_formula_structural   KP2(W3O11)2
_chemical_formula_sum   'K1 P2 W6 O22'
_cell_volume   450.24988385
_cell_formula_units_Z   1
loop_
 _symmetry_equiv_pos_site_id
 _symmetry_equiv_pos_as_xyz
  1  'x, y, z'
loop_
 _atom_site_type_symbol
 _atom_site_label
 _atom_site_symmetry_multiplicity
 _atom_site_fract_x
 _atom_site_fract_y
 _atom_site_fract_z
 _atom_site_occupancy
  K  K0  1  0.75000000  0.86078880  0.50247009  1
  P  P1  1  0.75000000  0.33323960  0.59705183  1
  P  P2  1  0.25000000  0.66550689  0.40197146  1
  W  W3  1  0.75000000  0.35318933  0.31447502  1
  W  W4  1  0.25000000  0.64251874  0.68532673  1
  W  W5  1  0.75000000  0.99179072  0.80972101  1
  W  W6  1  0.25000000  0.00809133  0.19146818  1
  W  W7  1  0.75000000  0.67149227  0.06113762  1
  W  W8  1  0.25000000  0.32886043  0.94023459  1
  O  O9  1  0.98272997  0.45616176  0.61825937  1
  O  O10  1  0.48676885  0.54789076  0.38213834  1
  O  O11  1  0.01323115  0.54789076  0.38213834  1
  O  O12  1  0.51727003  0.45616176  0.61825937  1
  O  O13  1  0.75000000  0.25490182  0.47359497  1
  O  O14  1  0.25000000  0.74495260  0.52578283  1
  O  O15  1  0.50158713  0.17929794  0.27063942  1
  O  O16  1  0.00101250  0.81959781  0.72817919  1
  O  O17  1  0.49898750  0.81959781  0.72817919  1
  O  O18  1  0.99841287  0.17929794  0.27063942  1
  O  O19  1  0.75000000  0.14809090  0.66478283  1
  O  O20  1  0.25000000  0.85157600  0.33518374  1
  O  O21  1  0.75000000  0.83000585  0.92846400  1
  O  O22  1  0.25000000  0.17040214  0.07129745  1
  O  O23  1  0.49994265  0.84249126  0.13231256  1
  O  O24  1  0.00038774  0.15785909  0.86802433  1
  O  O25  1  0.49961226  0.15785909  0.86802433  1
  O  O26  1  0.00005735  0.84249126  0.13231256  1
  O  O27  1  0.75000000  0.50146855  0.19341276  1
  O  O28  1  0.25000000  0.49778655  0.80746517  1
  O  O29  1  0.00056944  0.49942012  0.99977664  1
  O  O30  1  0.49943056  0.49942012  0.99977664  1
