# generated using pymatgen
data_LiFeSiO4
_symmetry_space_group_name_H-M   'P 1'
_cell_length_a   5.10620550
_cell_length_b   8.52557329
_cell_length_c   8.54153856
_cell_angle_alpha   103.97078020
_cell_angle_beta   90.00000000
_cell_angle_gamma   90.00000000
_symmetry_Int_Tables_number   1
_chemical_formula_structural   LiFeSiO4
_chemical_formula_sum   'Li4 Fe4 Si4 O16'
_cell_volume   360.84215424
_cell_formula_units_Z   4
loop_
 _symmetry_equiv_pos_site_id
 _symmetry_equiv_pos_as_xyz
  1  'x, y, z'
loop_
 _atom_site_type_symbol
 _atom_site_label
 _atom_site_symmetry_multiplicity
 _atom_site_fract_x
 _atom_site_fract_y
 _atom_site_fract_z
 _atom_site_occupancy
  Li  Li0  1  0.32062835  0.84788401  0.84311334  1
  Li  Li1  1  0.17937165  0.34788401  0.34311334  1
  Li  Li2  1  0.69466690  0.39952487  0.90020596  1
  Li  Li3  1  0.80533310  0.89952487  0.40020596  1
  Fe  Fe4  1  0.68206938  0.15704018  0.16048410  1
  Fe  Fe5  1  0.81793062  0.65704018  0.66048410  1
  Fe  Fe6  1  0.31601474  0.59405498  0.09554569  1
  Fe  Fe7  1  0.18398526  0.09405498  0.59554569  1
  Si  Si8  1  0.31859649  0.71896362  0.46964679  1
  Si  Si9  1  0.18140351  0.21896362  0.96964679  1
  Si  Si10  1  0.68211655  0.28154383  0.53082588  1
  Si  Si11  1  0.81788345  0.78154383  0.03082588  1
  O  O12  1  0.68322189  0.61940023  0.06973704  1
  O  O13  1  0.81677811  0.11940023  0.56973704  1
  O  O14  1  0.29069005  0.39205188  0.94287521  1
  O  O15  1  0.20930995  0.89205188  0.44287521  1
  O  O16  1  0.36289347  0.25452960  0.51607681  1
  O  O17  1  0.13710653  0.75452960  0.01607681  1
  O  O18  1  0.63844932  0.72982276  0.49613997  1
  O  O19  1  0.86155068  0.22982276  0.99613997  1
  O  O20  1  0.18257891  0.68800149  0.63435415  1
  O  O21  1  0.31742109  0.18800149  0.13435415  1
  O  O22  1  0.79611093  0.30128264  0.35592386  1
  O  O23  1  0.70388907  0.80128264  0.85592386  1
  O  O24  1  0.25696102  0.07469612  0.80931226  1
  O  O25  1  0.24303898  0.57469612  0.30931226  1
  O  O26  1  0.74575157  0.94120380  0.17575893  1
  O  O27  1  0.75424843  0.44120380  0.67575893  1
