# generated using pymatgen
data_Li2Zr6MnCl15
_symmetry_space_group_name_H-M   'P 1'
_cell_length_a   9.14958542
_cell_length_b   9.14958542
_cell_length_c   9.14958542
_cell_angle_alpha   71.04019828
_cell_angle_beta   71.04019828
_cell_angle_gamma   110.49897280
_symmetry_Int_Tables_number   1
_chemical_formula_structural   Li2Zr6MnCl15
_chemical_formula_sum   'Li2 Zr6 Mn1 Cl15'
_cell_volume   589.49119953
_cell_formula_units_Z   1
loop_
 _symmetry_equiv_pos_site_id
 _symmetry_equiv_pos_as_xyz
  1  'x, y, z'
loop_
 _atom_site_type_symbol
 _atom_site_label
 _atom_site_symmetry_multiplicity
 _atom_site_fract_x
 _atom_site_fract_y
 _atom_site_fract_z
 _atom_site_occupancy
  Li  Li0  1  0.25000000  0.75000000  0.50000000  1
  Li  Li1  1  0.75000000  0.25000000  0.50000000  1
  Zr  Zr2  1  0.23566398  0.23566398  0.00000000  1
  Zr  Zr3  1  0.22718326  0.00000000  0.77281674  1
  Zr  Zr4  1  0.00000000  0.22718326  0.77281674  1
  Zr  Zr5  1  0.76433602  0.76433602  -0.00000000  1
  Zr  Zr6  1  0.77281674  0.00000000  0.22718326  1
  Zr  Zr7  1  0.00000000  0.77281674  0.22718326  1
  Mn  Mn8  1  0.00000000  0.00000000  0.00000000  1
  Cl  Cl9  1  0.50000000  0.50000000  0.00000000  1
  Cl  Cl10  1  0.50000000  0.00000000  0.50000000  1
  Cl  Cl11  1  0.00000000  0.50000000  0.50000000  1
  Cl  Cl12  1  0.24156700  0.24156700  0.51686601  1
  Cl  Cl13  1  0.24528075  0.49178432  0.75349643  1
  Cl  Cl14  1  0.49178432  0.24528075  0.75349643  1
  Cl  Cl15  1  0.75843300  0.24156700  -0.00000000  1
  Cl  Cl16  1  0.75471925  0.00122282  0.75349643  1
  Cl  Cl17  1  0.50821568  0.75471925  0.24650357  1
  Cl  Cl18  1  0.24156700  0.75843300  0.00000000  1
  Cl  Cl19  1  0.75471925  0.50821568  0.24650357  1
  Cl  Cl20  1  0.00122282  0.75471925  0.75349643  1
  Cl  Cl21  1  0.75843300  0.75843300  0.48313399  1
  Cl  Cl22  1  0.24528075  0.99877718  0.24650357  1
  Cl  Cl23  1  0.99877718  0.24528075  0.24650357  1
