# generated using pymatgen
data_LaNi4(BiO4)3
_symmetry_space_group_name_H-M   'P 1'
_cell_length_a   5.45861328
_cell_length_b   5.71171186
_cell_length_c   7.89638022
_cell_angle_alpha   87.81431652
_cell_angle_beta   90.80404468
_cell_angle_gamma   88.72888246
_symmetry_Int_Tables_number   1
_chemical_formula_structural   LaNi4(BiO4)3
_chemical_formula_sum   'La1 Ni4 Bi3 O12'
_cell_volume   245.92661931
_cell_formula_units_Z   1
loop_
 _symmetry_equiv_pos_site_id
 _symmetry_equiv_pos_as_xyz
  1  'x, y, z'
loop_
 _atom_site_type_symbol
 _atom_site_label
 _atom_site_symmetry_multiplicity
 _atom_site_fract_x
 _atom_site_fract_y
 _atom_site_fract_z
 _atom_site_occupancy
  La  La0  1  0.01753279  0.94260390  0.24487963  1
  Ni  Ni1  1  0.00057435  0.49906263  0.50260490  1
  Ni  Ni2  1  0.00442598  0.49892087  0.99896730  1
  Ni  Ni3  1  0.50141741  0.00084214  0.99861793  1
  Ni  Ni4  1  0.49742066  0.00282407  0.50254659  1
  Bi  Bi5  1  0.99188838  0.05991681  0.77529149  1
  Bi  Bi6  1  0.51743789  0.56420696  0.72711887  1
  Bi  Bi7  1  0.48972037  0.43969671  0.28167090  1
  O  O8  1  0.85927896  0.53511564  0.25155506  1
  O  O9  1  0.14747018  0.46644254  0.74686508  1
  O  O10  1  0.21100612  0.22725496  0.42000673  1
  O  O11  1  0.78623142  0.77740763  0.57870687  1
  O  O12  1  0.39336726  0.92457483  0.75677243  1
  O  O13  1  0.59220414  0.07591066  0.24364605  1
  O  O14  1  0.67013773  0.31706658  0.54381817  1
  O  O15  1  0.31675873  0.69574857  0.44836507  1
  O  O16  1  0.82414958  0.81976599  0.95872751  1
  O  O17  1  0.16911964  0.16609291  0.02312062  1
  O  O18  1  0.31923208  0.65974862  0.08526499  1
  O  O19  1  0.69062635  0.32679697  0.91145381  1
