# generated using pymatgen
data_Rb2Ba12Ca17V28(Cu3O28)4
_symmetry_space_group_name_H-M   'P 1'
_cell_length_a   11.39239974
_cell_length_b   19.73582985
_cell_length_c   12.50780045
_cell_angle_alpha   89.98358118
_cell_angle_beta   90.00000000
_cell_angle_gamma   90.00000000
_symmetry_Int_Tables_number   1
_chemical_formula_structural   Rb2Ba12Ca17V28(Cu3O28)4
_chemical_formula_sum   'Rb2 Ba12 Ca17 V28 Cu12 O112'
_cell_volume   2812.23451137
_cell_formula_units_Z   1
loop_
 _symmetry_equiv_pos_site_id
 _symmetry_equiv_pos_as_xyz
  1  'x, y, z'
loop_
 _atom_site_type_symbol
 _atom_site_label
 _atom_site_symmetry_multiplicity
 _atom_site_fract_x
 _atom_site_fract_y
 _atom_site_fract_z
 _atom_site_occupancy
  Rb  Rb0  1  0.50000000  0.83384003  0.55810862  1
  Rb  Rb1  1  -0.00000000  0.66743818  0.05721968  1
  Ba  Ba2  1  0.21832096  0.07120597  0.24798568  1
  Ba  Ba3  1  0.71123581  0.57117402  0.25092662  1
  Ba  Ba4  1  0.50000000  0.35395579  0.24785756  1
  Ba  Ba5  1  -0.00000000  0.86028477  0.25076296  1
  Ba  Ba6  1  0.78167904  0.07120597  0.24798568  1
  Ba  Ba7  1  0.28876419  0.57117402  0.25092662  1
  Ba  Ba8  1  0.78721632  0.93146332  0.75249579  1
  Ba  Ba9  1  0.29073095  0.42846816  0.75243026  1
  Ba  Ba10  1  0.50000000  0.64165395  0.75144210  1
  Ba  Ba11  1  -0.00000000  0.13909969  0.75326522  1
  Ba  Ba12  1  0.21278368  0.93146332  0.75249579  1
  Ba  Ba13  1  0.70926905  0.42846816  0.75243026  1
  Ca  Ca14  1  0.31150089  0.77132133  0.96521229  1
  Ca  Ca15  1  0.80508646  0.26773749  0.96744923  1
  Ca  Ca16  1  0.50000000  0.96248236  0.96630172  1
  Ca  Ca17  1  -0.00000000  0.45921252  0.96518413  1
  Ca  Ca18  1  0.68849911  0.77132133  0.96521229  1
  Ca  Ca19  1  0.19491354  0.26773749  0.96744923  1
  Ca  Ca20  1  0.68558936  0.22762040  0.46509309  1
  Ca  Ca21  1  0.18803577  0.73011103  0.46504811  1
  Ca  Ca22  1  0.50000000  0.04241138  0.46411561  1
  Ca  Ca23  1  -0.00000000  0.54179480  0.46585274  1
  Ca  Ca24  1  0.31441064  0.22762040  0.46509309  1
  Ca  Ca25  1  0.81196423  0.73011103  0.46504811  1
  Ca  Ca26  1  -0.00000000  0.99921405  0.50569860  1
  Ca  Ca27  1  0.50000000  0.50065860  0.50644023  1
  Ca  Ca28  1  -0.00000000  0.00089869  0.00516673  1
  Ca  Ca29  1  0.50000000  0.49923378  0.00563768  1
  Ca  Ca30  1  -0.00000000  0.33204431  0.58527519  1
  V  V31  1  0.50000000  0.83361705  0.82029038  1
  V  V32  1  -0.00000000  0.33306715  0.81912612  1
  V  V33  1  0.50000000  0.16678173  0.31400551  1
  V  V34  1  -0.00000000  0.66657357  0.31948438  1
  V  V35  1  0.26250360  0.08752100  0.59084286  1
  V  V36  1  0.76270926  0.58763718  0.59114359  1
  V  V37  1  0.50000000  0.32512822  0.58998870  1
  V  V38  1  -0.00000000  0.82492739  0.59099491  1
  V  V39  1  0.73749640  0.08752100  0.59084286  1
  V  V40  1  0.23729074  0.58763718  0.59114359  1
  V  V41  1  0.73756422  0.91230964  0.09161612  1
  V  V42  1  0.23733915  0.41260812  0.09140329  1
  V  V43  1  0.50000000  0.67485078  0.09059542  1
  V  V44  1  -0.00000000  0.17491428  0.09118126  1
  V  V45  1  0.26243578  0.91230964  0.09161612  1
  V  V46  1  0.76266085  0.41260812  0.09140329  1
  V  V47  1  0.26394646  0.91201055  0.41236698  1
  V  V48  1  0.77479962  0.40839151  0.41593492  1
  V  V49  1  0.73605354  0.91201055  0.41236698  1
  V  V50  1  0.22520038  0.40839151  0.41593492  1
  V  V51  1  0.50000000  0.67571464  0.41261369  1
  V  V52  1  -0.00000000  0.18308791  0.41657950  1
  V  V53  1  0.73417293  0.08891556  0.91246041  1
  V  V54  1  0.23557915  0.58785165  0.91210897  1
  V  V55  1  0.26582707  0.08891556  0.91246041  1
  V  V56  1  0.76442085  0.58785165  0.91210897  1
  V  V57  1  0.50000000  0.32271291  0.91253421  1
  V  V58  1  -0.00000000  0.82413477  0.91270713  1
  Cu  Cu59  1  0.31080557  0.77052128  0.24739956  1
  Cu  Cu60  1  0.80975271  0.27019817  0.24545659  1
  Cu  Cu61  1  0.50000000  0.95959590  0.24756154  1
  Cu  Cu62  1  -0.00000000  0.45944593  0.24545958  1
  Cu  Cu63  1  0.68919443  0.77052128  0.24739956  1
  Cu  Cu64  1  0.19024729  0.27019817  0.24545659  1
  Cu  Cu65  1  0.68872386  0.22929382  0.74735613  1
  Cu  Cu66  1  0.18944392  0.72965262  0.74733920  1
  Cu  Cu67  1  0.50000000  0.04080111  0.74755261  1
  Cu  Cu68  1  -0.00000000  0.54076256  0.74715131  1
  Cu  Cu69  1  0.31127614  0.22929382  0.74735613  1
  Cu  Cu70  1  0.81055608  0.72965262  0.74733920  1
  O  O71  1  0.50000000  0.16662971  0.45579009  1
  O  O72  1  -0.00000000  0.66683460  0.45992063  1
  O  O73  1  0.50000000  0.83350647  0.96057600  1
  O  O74  1  -0.00000000  0.33289302  0.95851750  1
  O  O75  1  0.28399938  0.90484564  0.54651835  1
  O  O76  1  0.82418168  0.39176341  0.54566577  1
  O  O77  1  0.71600062  0.90484564  0.54651835  1
  O  O78  1  0.17581832  0.39176341  0.54566577  1
  O  O79  1  0.50000000  0.68931825  0.54657326  1
  O  O80  1  -0.00000000  0.21608318  0.54646515  1
  O  O81  1  0.71783990  0.09470108  0.04546873  1
  O  O82  1  0.21496899  0.59498248  0.04610243  1
  O  O83  1  0.28216010  0.09470108  0.04546873  1
  O  O84  1  0.78503101  0.59498248  0.04610243  1
  O  O85  1  0.50000000  0.31173763  0.04560331  1
  O  O86  1  -0.00000000  0.81034774  0.04658964  1
  O  O87  1  0.74642347  0.17200378  0.63493921  1
  O  O88  1  0.24755579  0.67206523  0.63512506  1
  O  O89  1  0.38447139  0.04083978  0.63463324  1
  O  O90  1  0.88473233  0.54070518  0.63441269  1
  O  O91  1  0.37004897  0.28637751  0.63393219  1
  O  O92  1  0.86961652  0.78595658  0.63411172  1
  O  O93  1  0.62995103  0.28637751  0.63393219  1
  O  O94  1  0.13038348  0.78595658  0.63411172  1
  O  O95  1  0.25357653  0.17200378  0.63493921  1
  O  O96  1  0.75244421  0.67206523  0.63512506  1
  O  O97  1  0.61552861  0.04083978  0.63463324  1
  O  O98  1  0.11526767  0.54070518  0.63441269  1
  O  O99  1  0.25237682  0.82768458  0.13553389  1
  O  O100  1  0.75218112  0.32798964  0.13469010  1
  O  O101  1  0.61596402  0.95940239  0.13552024  1
  O  O102  1  0.11515925  0.45972788  0.13396533  1
  O  O103  1  0.63042598  0.71340379  0.13449994  1
  O  O104  1  0.13079221  0.21365985  0.13382717  1
  O  O105  1  0.36957402  0.71340379  0.13449994  1
  O  O106  1  0.86920779  0.21365985  0.13382717  1
  O  O107  1  0.74762318  0.82768458  0.13553389  1
  O  O108  1  0.24781888  0.32798964  0.13469010  1
  O  O109  1  0.38403598  0.95940239  0.13552024  1
  O  O110  1  0.88484075  0.45972788  0.13396533  1
  O  O111  1  0.63085969  0.71148037  0.36011645  1
  O  O112  1  0.13012930  0.21231773  0.35641116  1
  O  O113  1  0.25066781  0.82840484  0.35992279  1
  O  O114  1  0.75179639  0.32868332  0.35622454  1
  O  O115  1  0.61762697  0.96029027  0.36049917  1
  O  O116  1  0.11718295  0.45986006  0.35669915  1
  O  O117  1  0.38237303  0.96029027  0.36049917  1
  O  O118  1  0.88281705  0.45986006  0.35669915  1
  O  O119  1  0.36914031  0.71148037  0.36011645  1
  O  O120  1  0.86987070  0.21231773  0.35641116  1
  O  O121  1  0.74933219  0.82840484  0.35992279  1
  O  O122  1  0.24820361  0.32868332  0.35622454  1
  O  O123  1  0.36634032  0.28982396  0.85868372  1
  O  O124  1  0.86912793  0.78800458  0.86025269  1
  O  O125  1  0.75242094  0.17237765  0.85851974  1
  O  O126  1  0.24900604  0.67121497  0.85958508  1
  O  O127  1  0.38147099  0.03849447  0.85898144  1
  O  O128  1  0.88270258  0.53908340  0.86006392  1
  O  O129  1  0.61852901  0.03849447  0.85898144  1
  O  O130  1  0.11729742  0.53908340  0.86006392  1
  O  O131  1  0.63365968  0.28982396  0.85868372  1
  O  O132  1  0.13087207  0.78800458  0.86025269  1
  O  O133  1  0.24757906  0.17237765  0.85851974  1
  O  O134  1  0.75099396  0.67121497  0.85958508  1
  O  O135  1  0.37197175  0.20986858  0.28170970  1
  O  O136  1  0.87339951  0.70810821  0.27910731  1
  O  O137  1  0.62802825  0.20986858  0.28170970  1
  O  O138  1  0.12660049  0.70810821  0.27910731  1
  O  O139  1  0.50000000  0.08164009  0.28084341  1
  O  O140  1  -0.00000000  0.58217991  0.28034997  1
  O  O141  1  0.62596173  0.79113693  0.78009543  1
  O  O142  1  0.12315365  0.29288409  0.76739981  1
  O  O143  1  0.37403827  0.79113693  0.78009543  1
  O  O144  1  0.87684635  0.29288409  0.76739981  1
  O  O145  1  0.50000000  0.91752667  0.77888816  1
  O  O146  1  -0.00000000  0.41558695  0.77086692  1
  O  O147  1  0.50000000  0.40908669  0.88230459  1
  O  O148  1  -0.00000000  0.91008279  0.88301437  1
  O  O149  1  0.86387798  0.04577858  0.88232714  1
  O  O150  1  0.36453205  0.54472910  0.88278170  1
  O  O151  1  0.13612202  0.04577858  0.88232714  1
  O  O152  1  0.63546795  0.54472910  0.88278170  1
  O  O153  1  0.50000000  0.58959714  0.38201299  1
  O  O154  1  -0.00000000  0.09638885  0.40020458  1
  O  O155  1  0.13522599  0.95507921  0.38249025  1
  O  O156  1  0.64430067  0.45192675  0.39925192  1
  O  O157  1  0.86477401  0.95507921  0.38249025  1
  O  O158  1  0.35569933  0.45192675  0.39925192  1
  O  O159  1  0.13584764  0.95480838  0.13004622  1
  O  O160  1  0.63619849  0.45470887  0.13156218  1
  O  O161  1  0.86415236  0.95480838  0.13004622  1
  O  O162  1  0.36380151  0.45470887  0.13156218  1
  O  O163  1  0.50000000  0.59035761  0.13039553  1
  O  O164  1  -0.00000000  0.09091760  0.13202893  1
  O  O165  1  0.86517101  0.04589772  0.62988320  1
  O  O166  1  0.36326286  0.54445064  0.63039137  1
  O  O167  1  0.13482899  0.04589772  0.62988320  1
  O  O168  1  0.63673714  0.54445064  0.63039137  1
  O  O169  1  0.50000000  0.40963322  0.63012778  1
  O  O170  1  -0.00000000  0.90926653  0.63115631  1
  O  O171  1  0.28089944  0.09481929  0.45514093  1
  O  O172  1  0.78193365  0.59349448  0.45516330  1
  O  O173  1  0.50000000  0.31285738  0.45427051  1
  O  O174  1  -0.00000000  0.81282571  0.45496324  1
  O  O175  1  0.71910056  0.09481929  0.45514093  1
  O  O176  1  0.21806635  0.59349448  0.45516330  1
  O  O177  1  0.71913334  0.90533816  0.95563019  1
  O  O178  1  0.21817435  0.40653593  0.95529165  1
  O  O179  1  0.50000000  0.68692477  0.95467444  1
  O  O180  1  -0.00000000  0.18729439  0.95501189  1
  O  O181  1  0.28086666  0.90533816  0.95563019  1
  O  O182  1  0.78182565  0.40653593  0.95529165  1
