# generated using pymatgen
data_LuSc(FeO3)2
_symmetry_space_group_name_H-M   'P 1'
_cell_length_a   5.95049255
_cell_length_b   5.95052980
_cell_length_c   11.68921380
_cell_angle_alpha   90.00024738
_cell_angle_beta   90.00038481
_cell_angle_gamma   59.99935731
_symmetry_Int_Tables_number   1
_chemical_formula_structural   LuSc(FeO3)2
_chemical_formula_sum   'Lu3 Sc3 Fe6 O18'
_cell_volume   358.44429413
_cell_formula_units_Z   3
loop_
 _symmetry_equiv_pos_site_id
 _symmetry_equiv_pos_as_xyz
  1  'x, y, z'
loop_
 _atom_site_type_symbol
 _atom_site_label
 _atom_site_symmetry_multiplicity
 _atom_site_fract_x
 _atom_site_fract_y
 _atom_site_fract_z
 _atom_site_occupancy
  Lu  Lu0  1  0.33332898  0.33334535  0.26680112  1
  Lu  Lu1  1  0.66668684  0.66664580  0.26687438  1
  Lu  Lu2  1  0.66663942  0.66668401  0.76654478  1
  Sc  Sc3  1  0.33332737  0.33332778  0.76594961  1
  Sc  Sc4  1  0.00000338  0.00002454  0.22663410  1
  Sc  Sc5  1  0.99999398  0.99998251  0.72701139  1
  Fe  Fe6  1  0.66774762  0.00124573  0.50114012  1
  Fe  Fe7  1  0.00124738  0.33104036  0.50116184  1
  Fe  Fe8  1  0.33104967  0.66774564  0.50114508  1
  Fe  Fe9  1  0.33089506  0.00162487  0.99911416  1
  Fe  Fe10  1  0.00164113  0.66743277  0.99910925  1
  Fe  Fe11  1  0.66742366  0.33087942  0.99910333  1
  O  O12  1  0.33335503  0.33332294  0.47759045  1
  O  O13  1  0.66667727  0.66670023  0.48090626  1
  O  O14  1  0.66666481  0.66664033  0.97648568  1
  O  O15  1  0.33332031  0.33332265  0.98077835  1
  O  O16  1  0.70137456  0.99952223  0.33297291  1
  O  O17  1  0.99953498  0.29911074  0.33299751  1
  O  O18  1  0.29911148  0.70137372  0.33298333  1
  O  O19  1  0.29945110  0.01023341  0.83064897  1
  O  O20  1  0.01023817  0.69030711  0.83064339  1
  O  O21  1  0.69029203  0.29946728  0.83063788  1
  O  O22  1  0.99997840  0.00000694  0.02543403  1
  O  O23  1  0.00001335  0.00000401  0.52962581  1
  O  O24  1  0.35215235  0.99943615  0.16575000  1
  O  O25  1  0.99944697  0.64840752  0.16576474  1
  O  O26  1  0.64841535  0.35213825  0.16576197  1
  O  O27  1  0.64098158  0.00696874  0.66753355  1
  O  O28  1  0.00696574  0.35204776  0.66755188  1
  O  O29  1  0.35204204  0.64101119  0.66754414  1
