# generated using pymatgen
data_Li2ZnGe3
_symmetry_space_group_name_H-M   'P 1'
_cell_length_a   4.22187028
_cell_length_b   4.22572535
_cell_length_c   6.81348638
_cell_angle_alpha   90.00000000
_cell_angle_beta   89.97124393
_cell_angle_gamma   59.96978972
_symmetry_Int_Tables_number   1
_chemical_formula_structural   Li2ZnGe3
_chemical_formula_sum   'Li2 Zn1 Ge3'
_cell_volume   105.23829768
_cell_formula_units_Z   1
loop_
 _symmetry_equiv_pos_site_id
 _symmetry_equiv_pos_as_xyz
  1  'x, y, z'
loop_
 _atom_site_type_symbol
 _atom_site_label
 _atom_site_symmetry_multiplicity
 _atom_site_fract_x
 _atom_site_fract_y
 _atom_site_fract_z
 _atom_site_occupancy
  Li  Li0  1  0.00023354  0.99988323  0.71815405  1
  Li  Li1  1  0.99962513  0.00018743  0.28050922  1
  Zn  Zn2  1  0.33367198  0.33316401  0.53984396  1
  Ge  Ge3  1  0.66637934  0.66681033  0.45747067  1
  Ge  Ge4  1  0.66665429  0.66667285  0.07180391  1
  Ge  Ge5  1  0.33343572  0.33328214  0.93221819  1
