# generated using pymatgen
data_Li7Ge12
_symmetry_space_group_name_H-M   'P 1'
_cell_length_a   8.14018941
_cell_length_b   11.64765108
_cell_length_c   15.27248149
_cell_angle_alpha   90.00083889
_cell_angle_beta   89.97846300
_cell_angle_gamma   90.04242807
_symmetry_Int_Tables_number   1
_chemical_formula_structural   Li7Ge12
_chemical_formula_sum   'Li28 Ge48'
_cell_volume   1448.04587353
_cell_formula_units_Z   4
loop_
 _symmetry_equiv_pos_site_id
 _symmetry_equiv_pos_as_xyz
  1  'x, y, z'
loop_
 _atom_site_type_symbol
 _atom_site_label
 _atom_site_symmetry_multiplicity
 _atom_site_fract_x
 _atom_site_fract_y
 _atom_site_fract_z
 _atom_site_occupancy
  Li  Li0  1  0.85994391  0.58683159  0.98955475  1
  Li  Li1  1  0.14005609  0.41316841  0.01044525  1
  Li  Li2  1  0.85466777  0.91824544  0.50897168  1
  Li  Li3  1  0.14533223  0.08175456  0.49102832  1
  Li  Li4  1  0.81035644  0.22571022  0.52467315  1
  Li  Li5  1  0.18964356  0.77428978  0.47532685  1
  Li  Li6  1  0.81900925  0.26525389  0.97400663  1
  Li  Li7  1  0.18099075  0.73474611  0.02599337  1
  Li  Li8  1  0.44316147  0.60173199  0.56880495  1
  Li  Li9  1  0.55683853  0.39826801  0.43119505  1
  Li  Li10  1  0.44098764  0.89951754  0.93025234  1
  Li  Li11  1  0.55901236  0.10048246  0.06974766  1
  Li  Li12  1  0.44430988  0.22255900  0.56995486  1
  Li  Li13  1  0.55569012  0.77744100  0.43004514  1
  Li  Li14  1  0.44201678  0.27199044  0.92715619  1
  Li  Li15  1  0.55798322  0.72800956  0.07284381  1
  Li  Li16  1  0.72667081  0.91704586  0.77557122  1
  Li  Li17  1  0.27332919  0.08295414  0.22442878  1
  Li  Li18  1  0.72675526  0.58586683  0.72233686  1
  Li  Li19  1  0.27324474  0.41413317  0.27766314  1
  Li  Li20  1  0.81792609  0.59404797  0.51661507  1
  Li  Li21  1  0.18207391  0.40595203  0.48338493  1
  Li  Li22  1  0.81968824  0.90812109  0.98346600  1
  Li  Li23  1  0.18031176  0.09187891  0.01653400  1
  Li  Li24  1  0.72238146  0.24760748  0.74885295  1
  Li  Li25  1  0.27761854  0.75239252  0.25114705  1
  Li  Li26  1  0.40228957  0.56663387  0.94925984  1
  Li  Li27  1  0.59771043  0.43336613  0.05074016  1
  Ge  Ge28  1  0.64279414  0.45821623  0.87762328  1
  Ge  Ge29  1  0.35720586  0.54178377  0.12237672  1
  Ge  Ge30  1  0.63249331  0.03821473  0.61699914  1
  Ge  Ge31  1  0.36750669  0.96178527  0.38300086  1
  Ge  Ge32  1  0.93113720  0.74379461  0.83646338  1
  Ge  Ge33  1  0.06886280  0.25620539  0.16353662  1
  Ge  Ge34  1  0.92940244  0.75810904  0.66295137  1
  Ge  Ge35  1  0.07059756  0.24189096  0.33704863  1
  Ge  Ge36  1  0.93704802  0.41519150  0.65560633  1
  Ge  Ge37  1  0.06295198  0.58480850  0.34439367  1
  Ge  Ge38  1  0.93669973  0.08416756  0.84436331  1
  Ge  Ge39  1  0.06330027  0.91583244  0.15563669  1
  Ge  Ge40  1  0.10094910  0.58950309  0.60845593  1
  Ge  Ge41  1  0.89905090  0.41049691  0.39154407  1
  Ge  Ge42  1  0.10257897  0.91082036  0.89272048  1
  Ge  Ge43  1  0.89742103  0.08917964  0.10727952  1
  Ge  Ge44  1  0.93722041  0.42132500  0.82874381  1
  Ge  Ge45  1  0.06277959  0.57867500  0.17125619  1
  Ge  Ge46  1  0.93230751  0.07542171  0.67019961  1
  Ge  Ge47  1  0.06769249  0.92457829  0.32980039  1
  Ge  Ge48  1  0.11524970  0.58328651  0.87761344  1
  Ge  Ge49  1  0.88475030  0.41671349  0.12238656  1
  Ge  Ge50  1  0.12021968  0.91615201  0.62086473  1
  Ge  Ge51  1  0.87978032  0.08384799  0.37913527  1
  Ge  Ge52  1  0.28097669  0.58505319  0.74044771  1
  Ge  Ge53  1  0.71902331  0.41494681  0.25955229  1
  Ge  Ge54  1  0.27904910  0.91540588  0.75914105  1
  Ge  Ge55  1  0.72095090  0.08459412  0.24085895  1
  Ge  Ge56  1  0.47365256  0.75082892  0.74958133  1
  Ge  Ge57  1  0.52634744  0.24917108  0.25041867  1
  Ge  Ge58  1  0.64210026  0.41334269  0.59913644  1
  Ge  Ge59  1  0.35789974  0.58665731  0.40086356  1
  Ge  Ge60  1  0.64204300  0.08592846  0.90224682  1
  Ge  Ge61  1  0.35795700  0.91407154  0.09775318  1
  Ge  Ge62  1  0.47331007  0.41951274  0.73964158  1
  Ge  Ge63  1  0.52668993  0.58048726  0.26035842  1
  Ge  Ge64  1  0.47534464  0.07850416  0.76047847  1
  Ge  Ge65  1  0.52465536  0.92149584  0.23952153  1
  Ge  Ge66  1  0.10760346  0.24400692  0.61776079  1
  Ge  Ge67  1  0.89239654  0.75599308  0.38223921  1
  Ge  Ge68  1  0.10999342  0.25444041  0.88379450  1
  Ge  Ge69  1  0.89000658  0.74555959  0.11620550  1
  Ge  Ge70  1  0.63657957  0.69993410  0.88716847  1
  Ge  Ge71  1  0.36342043  0.30006590  0.11283153  1
  Ge  Ge72  1  0.63254013  0.80437548  0.61136033  1
  Ge  Ge73  1  0.36745987  0.19562452  0.38863967  1
  Ge  Ge74  1  0.28651597  0.24854904  0.75033232  1
  Ge  Ge75  1  0.71348403  0.75145096  0.24966768  1
