# generated using pymatgen
data_Ho5(Sn3Rh)6
_symmetry_space_group_name_H-M   'P 1'
_cell_length_a   9.89485282
_cell_length_b   9.89485282
_cell_length_c   9.89485282
_cell_angle_alpha   90.00000000
_cell_angle_beta   60.00000000
_cell_angle_gamma   120.00000000
_symmetry_Int_Tables_number   1
_chemical_formula_structural   Ho5(Sn3Rh)6
_chemical_formula_sum   'Ho5 Sn18 Rh6'
_cell_volume   685.03540628
_cell_formula_units_Z   1
loop_
 _symmetry_equiv_pos_site_id
 _symmetry_equiv_pos_as_xyz
  1  'x, y, z'
loop_
 _atom_site_type_symbol
 _atom_site_label
 _atom_site_symmetry_multiplicity
 _atom_site_fract_x
 _atom_site_fract_y
 _atom_site_fract_z
 _atom_site_occupancy
  Ho  Ho0  1  -0.00000000  0.00000000  0.00000000  1
  Ho  Ho1  1  0.25974097  0.62987049  0.11038854  1
  Ho  Ho2  1  0.74025903  0.62987049  0.62987049  1
  Ho  Ho3  1  0.74025903  0.11038854  0.62987049  1
  Ho  Ho4  1  0.25974097  0.62987049  0.62987049  1
  Sn  Sn5  1  0.82366264  0.41183132  0.76450604  1
  Sn  Sn6  1  0.17633736  0.41183132  0.41183132  1
  Sn  Sn7  1  0.17633736  0.76450604  0.41183132  1
  Sn  Sn8  1  0.82366264  0.41183132  0.41183132  1
  Sn  Sn9  1  0.50000000  0.25000000  0.25000000  1
  Sn  Sn10  1  0.65031347  0.00757959  0.34210695  1
  Sn  Sn11  1  0.01515917  0.00757959  0.34210695  1
  Sn  Sn12  1  0.65031347  0.64273388  0.34210695  1
  Sn  Sn13  1  0.34968653  0.00757959  0.64273388  1
  Sn  Sn14  1  0.98484083  0.64273388  0.00757959  1
  Sn  Sn15  1  0.34968653  0.00757959  0.00757959  1
  Sn  Sn16  1  0.34968653  0.34210695  0.00757959  1
  Sn  Sn17  1  0.98484083  0.34210695  0.00757959  1
  Sn  Sn18  1  0.34968653  0.34210695  0.64273388  1
  Sn  Sn19  1  0.65031347  0.64273388  0.00757959  1
  Sn  Sn20  1  0.01515917  0.00757959  0.64273388  1
  Sn  Sn21  1  0.65031347  0.00757959  0.00757959  1
  Sn  Sn22  1  0.50000000  0.75000000  0.75000000  1
  Rh  Rh23  1  0.49177853  0.74588926  0.25411074  1
  Rh  Rh24  1  -0.00000000  0.25411074  0.25411074  1
  Rh  Rh25  1  -0.00000000  0.74588926  0.25411074  1
  Rh  Rh26  1  0.50822147  0.25411074  0.74588926  1
  Rh  Rh27  1  -0.00000000  0.74588926  0.74588926  1
  Rh  Rh28  1  -0.00000000  0.25411074  0.74588926  1
