# generated using pymatgen
data_HoAgTe2
_symmetry_space_group_name_H-M   'P 1'
_cell_length_a   4.50544911
_cell_length_b   4.50543551
_cell_length_c   7.31668350
_cell_angle_alpha   90.00241757
_cell_angle_beta   90.00000000
_cell_angle_gamma   120.00011177
_symmetry_Int_Tables_number   1
_chemical_formula_structural   HoAgTe2
_chemical_formula_sum   'Ho1 Ag1 Te2'
_cell_volume   128.62319047
_cell_formula_units_Z   1
loop_
 _symmetry_equiv_pos_site_id
 _symmetry_equiv_pos_as_xyz
  1  'x, y, z'
loop_
 _atom_site_type_symbol
 _atom_site_label
 _atom_site_symmetry_multiplicity
 _atom_site_fract_x
 _atom_site_fract_y
 _atom_site_fract_z
 _atom_site_occupancy
  Ho  Ho0  1  -0.00000066  -0.00000132  0.98664733  1
  Ag  Ag1  1  0.33332928  0.66665856  0.38509400  1
  Te  Te2  1  0.33330926  0.66661852  0.76687087  1
  Te  Te3  1  0.66666212  0.33332424  0.23138780  1
