# generated using pymatgen
data_K9In9GeSb22
_symmetry_space_group_name_H-M   'P 1'
_cell_length_a   11.54743479
_cell_length_b   11.86476224
_cell_length_c   13.63405728
_cell_angle_alpha   113.25634192
_cell_angle_beta   114.15666359
_cell_angle_gamma   90.80983428
_symmetry_Int_Tables_number   1
_chemical_formula_structural   K9In9GeSb22
_chemical_formula_sum   'K9 In9 Ge1 Sb22'
_cell_volume   1531.11710803
_cell_formula_units_Z   1
loop_
 _symmetry_equiv_pos_site_id
 _symmetry_equiv_pos_as_xyz
  1  'x, y, z'
loop_
 _atom_site_type_symbol
 _atom_site_label
 _atom_site_symmetry_multiplicity
 _atom_site_fract_x
 _atom_site_fract_y
 _atom_site_fract_z
 _atom_site_occupancy
  K  K0  1  0.12910924  0.14776518  0.61123541  1
  K  K1  1  0.87020012  0.85353340  0.38986962  1
  K  K2  1  0.45248958  0.49562309  0.64282990  1
  K  K3  1  0.54729317  0.50602309  0.35801344  1
  K  K4  1  0.49951800  0.49986947  0.99929861  1
  K  K5  1  0.87310455  0.82957758  0.73873380  1
  K  K6  1  0.12591617  0.17094352  0.26095648  1
  K  K7  1  0.12199187  0.18604483  0.94031122  1
  K  K8  1  0.87774729  0.81409411  0.05887890  1
  In  In9  1  0.23941797  0.74239112  0.83241447  1
  In  In10  1  0.76034072  0.25762882  0.16739667  1
  In  In11  1  0.25035460  0.74638670  0.47205878  1
  In  In12  1  0.75048549  0.25434780  0.52963349  1
  In  In13  1  0.75600949  0.21484422  0.82655473  1
  In  In14  1  0.24423589  0.78588824  0.17247644  1
  In  In15  1  0.57404587  0.92964057  0.83657986  1
  In  In16  1  0.42534445  0.06900723  0.16409741  1
  In  In17  1  0.58785471  0.92338140  0.50330003  1
  Ge  Ge18  1  0.41679990  0.07362782  0.49784121  1
  Sb  Sb19  1  0.51733081  0.75707224  0.92309267  1
  Sb  Sb20  1  0.48287391  0.24403375  0.07710808  1
  Sb  Sb21  1  0.38345657  0.08418975  0.82342249  1
  Sb  Sb22  1  0.61627617  0.91472768  0.17434659  1
  Sb  Sb23  1  0.12311424  0.80417513  0.62753455  1
  Sb  Sb24  1  0.87548896  0.19660722  0.37224828  1
  Sb  Sb25  1  0.51398963  0.76133450  0.25286097  1
  Sb  Sb26  1  0.48096472  0.23086640  0.73333096  1
  Sb  Sb27  1  0.08133215  0.41706899  0.52283861  1
  Sb  Sb28  1  0.91794910  0.58295676  0.47704252  1
  Sb  Sb29  1  0.12313606  0.48358739  0.76304222  1
  Sb  Sb30  1  0.87613952  0.51653835  0.23704927  1
  Sb  Sb31  1  0.52533089  0.76141107  0.59480094  1
  Sb  Sb32  1  0.47008198  0.22867524  0.40996763  1
  Sb  Sb33  1  0.83681617  0.08757338  0.64280321  1
  Sb  Sb34  1  0.17749087  0.92419050  0.36634073  1
  Sb  Sb35  1  0.86706151  0.50951470  0.72862743  1
  Sb  Sb36  1  0.13254559  0.49257811  0.27194627  1
  Sb  Sb37  1  0.82627342  0.09290455  0.98377002  1
  Sb  Sb38  1  0.17224144  0.90761039  0.01538035  1
  Sb  Sb39  1  0.86225803  0.48334938  0.92966465  1
  Sb  Sb40  1  0.13558918  0.51841633  0.07030111  1
