# generated using pymatgen
data_Ho3(Ga2Co)2
_symmetry_space_group_name_H-M   'P 1'
_cell_length_a   4.25635895
_cell_length_b   5.68589319
_cell_length_c   15.26513516
_cell_angle_alpha   82.49068330
_cell_angle_beta   98.01396081
_cell_angle_gamma   111.98050802
_symmetry_Int_Tables_number   1
_chemical_formula_structural   Ho3(Ga2Co)2
_chemical_formula_sum   'Ho6 Ga8 Co4'
_cell_volume   337.99321634
_cell_formula_units_Z   2
loop_
 _symmetry_equiv_pos_site_id
 _symmetry_equiv_pos_as_xyz
  1  'x, y, z'
loop_
 _atom_site_type_symbol
 _atom_site_label
 _atom_site_symmetry_multiplicity
 _atom_site_fract_x
 _atom_site_fract_y
 _atom_site_fract_z
 _atom_site_occupancy
  Ho  Ho0  1  0.71677364  0.69795778  0.73559051  1
  Ho  Ho1  1  0.38247784  0.68971294  0.07524275  1
  Ho  Ho2  1  0.04519926  0.70116436  0.38923316  1
  Ho  Ho3  1  0.61829657  0.29901721  0.93757592  1
  Ho  Ho4  1  0.28515360  0.30320451  0.26710169  1
  Ho  Ho5  1  0.95042166  0.30118894  0.59965537  1
  Ga  Ga6  1  0.60606955  0.67869470  0.53344541  1
  Ga  Ga7  1  0.27654456  0.67953956  0.87354955  1
  Ga  Ga8  1  0.09683505  0.10965353  0.08401657  1
  Ga  Ga9  1  0.76579694  0.11928919  0.41230369  1
  Ga  Ga10  1  0.43376112  0.12144268  0.74608057  1
  Ga  Ga11  1  0.57154213  0.89415844  0.24892482  1
  Ga  Ga12  1  0.24453301  0.90621089  0.58285613  1
  Ga  Ga13  1  0.91607577  0.90982533  0.92232621  1
  Co  Co14  1  0.72367559  0.30959482  0.13775636  1
  Co  Co15  1  0.37451239  0.28798174  0.46104204  1
  Co  Co16  1  0.04501827  0.29545248  0.79458507  1
  Co  Co17  1  0.94731304  0.69591087  0.19871420  1
