# generated using pymatgen
data_Hf20Co5P11
_symmetry_space_group_name_H-M   'P 1'
_cell_length_a   3.59415194
_cell_length_b   10.22463313
_cell_length_c   17.08082295
_cell_angle_alpha   89.74240006
_cell_angle_beta   90.00000000
_cell_angle_gamma   90.00000000
_symmetry_Int_Tables_number   1
_chemical_formula_structural   Hf20Co5P11
_chemical_formula_sum   'Hf20 Co5 P11'
_cell_volume   627.69485432
_cell_formula_units_Z   1
loop_
 _symmetry_equiv_pos_site_id
 _symmetry_equiv_pos_as_xyz
  1  'x, y, z'
loop_
 _atom_site_type_symbol
 _atom_site_label
 _atom_site_symmetry_multiplicity
 _atom_site_fract_x
 _atom_site_fract_y
 _atom_site_fract_z
 _atom_site_occupancy
  Hf  Hf0  1  0.25000000  0.98545519  0.77127289  1
  Hf  Hf1  1  0.25000000  0.51266401  0.27213727  1
  Hf  Hf2  1  0.75000000  0.01215845  0.22775319  1
  Hf  Hf3  1  0.75000000  0.48783913  0.73237815  1
  Hf  Hf4  1  0.25000000  0.61980121  0.97279706  1
  Hf  Hf5  1  0.25000000  0.87849266  0.47650108  1
  Hf  Hf6  1  0.75000000  0.37892302  0.02199637  1
  Hf  Hf7  1  0.75000000  0.12146154  0.52316572  1
  Hf  Hf8  1  0.25000000  0.25432467  0.66790272  1
  Hf  Hf9  1  0.25000000  0.24632976  0.16811942  1
  Hf  Hf10  1  0.75000000  0.74699807  0.33198893  1
  Hf  Hf11  1  0.75000000  0.74968791  0.83163417  1
  Hf  Hf12  1  0.25000000  0.55922166  0.57692562  1
  Hf  Hf13  1  0.25000000  0.93940260  0.07644383  1
  Hf  Hf14  1  0.75000000  0.43918222  0.42395971  1
  Hf  Hf15  1  0.75000000  0.05980699  0.92369414  1
  Hf  Hf16  1  0.25000000  0.32153631  0.86764808  1
  Hf  Hf17  1  0.25000000  0.18465084  0.36839691  1
  Hf  Hf18  1  0.75000000  0.68500290  0.13244714  1
  Hf  Hf19  1  0.75000000  0.81640033  0.63111709  1
  Co  Co20  1  0.25000000  0.86705484  0.91214542  1
  Co  Co21  1  0.25000000  0.63368853  0.41181285  1
  Co  Co22  1  0.75000000  0.13508616  0.08884895  1
  Co  Co23  1  0.75000000  0.36703976  0.58635950  1
  Co  Co24  1  0.75000000  0.50333102  0.88648953  1
  P  P25  1  0.25000000  0.31087106  0.50944139  1
  P  P26  1  0.25000000  0.18777794  0.00911490  1
  P  P27  1  0.75000000  0.68812852  0.49083744  1
  P  P28  1  0.75000000  0.81289269  0.99221506  1
  P  P29  1  0.25000000  0.68724593  0.71668818  1
  P  P30  1  0.25000000  0.81436322  0.21783110  1
  P  P31  1  0.75000000  0.31470013  0.28228200  1
  P  P32  1  0.75000000  0.18198224  0.78178011  1
  P  P33  1  0.25000000  0.00614652  0.61562406  1
  P  P34  1  0.25000000  0.49586925  0.11617040  1
  P  P35  1  0.75000000  0.99448274  0.38407960  1
