# generated using pymatgen
data_Ga2Si4Mo3
_symmetry_space_group_name_H-M   'P 1'
_cell_length_a   4.73747720
_cell_length_b   4.73728900
_cell_length_c   6.57127744
_cell_angle_alpha   89.80897933
_cell_angle_beta   90.18922168
_cell_angle_gamma   59.93264125
_symmetry_Int_Tables_number   1
_chemical_formula_structural   Ga2Si4Mo3
_chemical_formula_sum   'Ga2 Si4 Mo3'
_cell_volume   127.62997546
_cell_formula_units_Z   1
loop_
 _symmetry_equiv_pos_site_id
 _symmetry_equiv_pos_as_xyz
  1  'x, y, z'
loop_
 _atom_site_type_symbol
 _atom_site_label
 _atom_site_symmetry_multiplicity
 _atom_site_fract_x
 _atom_site_fract_y
 _atom_site_fract_z
 _atom_site_occupancy
  Ga  Ga0  1  0.16291205  0.66930281  0.67020169  1
  Ga  Ga1  1  0.66931340  0.16291869  0.99645868  1
  Si  Si2  1  0.15949460  0.15962274  0.33335897  1
  Si  Si3  1  0.84127352  0.32430920  0.66516902  1
  Si  Si4  1  0.32442063  0.84132026  0.00149535  1
  Si  Si5  1  0.84038992  0.84036730  0.33335446  1
  Mo  Mo6  1  0.49676396  0.99738479  0.65764064  1
  Mo  Mo7  1  0.99731237  0.49684140  0.00900145  1
  Mo  Mo8  1  0.50351955  0.50353281  0.33331976  1
