# generated using pymatgen
data_Hf5ScSi4
_symmetry_space_group_name_H-M   'P 1'
_cell_length_a   3.71128898
_cell_length_b   7.02757235
_cell_length_c   7.02757235
_cell_angle_alpha   90.00000000
_cell_angle_beta   90.00000000
_cell_angle_gamma   90.00000000
_symmetry_Int_Tables_number   1
_chemical_formula_structural   Hf5ScSi4
_chemical_formula_sum   'Hf5 Sc1 Si4'
_cell_volume   183.28858689
_cell_formula_units_Z   1
loop_
 _symmetry_equiv_pos_site_id
 _symmetry_equiv_pos_as_xyz
  1  'x, y, z'
loop_
 _atom_site_type_symbol
 _atom_site_label
 _atom_site_symmetry_multiplicity
 _atom_site_fract_x
 _atom_site_fract_y
 _atom_site_fract_z
 _atom_site_occupancy
  Hf  Hf0  1  0.50000000  0.16910786  0.67549888  1
  Hf  Hf1  1  0.50000000  0.83089214  0.32450112  1
  Hf  Hf2  1  0.50000000  0.32450112  0.16910786  1
  Hf  Hf3  1  0.50000000  0.67549888  0.83089214  1
  Hf  Hf4  1  0.00000000  0.00000000  0.00000000  1
  Sc  Sc5  1  0.00000000  0.50000000  0.50000000  1
  Si  Si6  1  0.00000000  0.62369791  0.12393742  1
  Si  Si7  1  -0.00000000  0.37630209  0.87606258  1
  Si  Si8  1  0.00000000  0.87606258  0.62369791  1
  Si  Si9  1  -0.00000000  0.12393742  0.37630209  1
