# generated using pymatgen
data_La5Ti6S3(ClO5)3
_symmetry_space_group_name_H-M   'P 1'
_cell_length_a   10.84278228
_cell_length_b   10.85926940
_cell_length_c   10.85926940
_cell_angle_alpha   70.56294825
_cell_angle_beta   70.87245224
_cell_angle_gamma   109.91168761
_symmetry_Int_Tables_number   1
_chemical_formula_structural   La5Ti6S3(ClO5)3
_chemical_formula_sum   'La10 Ti12 S6 Cl6 O30'
_cell_volume   983.48664192
_cell_formula_units_Z   2
loop_
 _symmetry_equiv_pos_site_id
 _symmetry_equiv_pos_as_xyz
  1  'x, y, z'
loop_
 _atom_site_type_symbol
 _atom_site_label
 _atom_site_symmetry_multiplicity
 _atom_site_fract_x
 _atom_site_fract_y
 _atom_site_fract_z
 _atom_site_occupancy
  La  La0  1  0.66255748  0.66794213  0.00538465  1
  La  La1  1  0.33744252  0.33205787  0.99461535  1
  La  La2  1  -0.00000000  0.33925728  0.66074272  1
  La  La3  1  -0.00000000  0.66074272  0.33925728  1
  La  La4  1  0.35654981  0.00694807  0.65039826  1
  La  La5  1  0.64345019  0.99305193  0.34960174  1
  La  La6  1  -0.00000000  0.50000000  -0.00000000  1
  La  La7  1  0.50000000  0.50000000  0.50000000  1
  La  La8  1  0.50000000  -0.00000000  -0.00000000  1
  La  La9  1  -0.00000000  -0.00000000  0.50000000  1
  Ti  Ti10  1  0.69674946  0.36506071  0.93929586  1
  Ti  Ti11  1  0.69674946  0.63604532  0.66831125  1
  Ti  Ti12  1  0.30325054  0.63493929  0.06070414  1
  Ti  Ti13  1  0.30325054  0.36395468  0.33168875  1
  Ti  Ti14  1  0.64970354  0.30020626  0.65050272  1
  Ti  Ti15  1  0.93545665  0.30358613  0.36812948  1
  Ti  Ti16  1  0.35029646  0.69979374  0.34949728  1
  Ti  Ti17  1  0.06454335  0.69641387  0.63187052  1
  Ti  Ti18  1  0.64786932  0.34514384  0.29962155  1
  Ti  Ti19  1  0.35213068  0.05250912  0.30272548  1
  Ti  Ti20  1  0.35213068  0.65485616  0.70037845  1
  Ti  Ti21  1  0.64786932  0.94749088  0.69727452  1
  S  S22  1  0.81621530  0.60975623  0.20459461  1
  S  S23  1  0.18378470  0.39024377  0.79540539  1
  S  S24  1  0.81621530  0.02080991  0.79354093  1
  S  S25  1  0.18378470  0.97919009  0.20645907  1
  S  S26  1  0.39024046  0.20446840  0.81422795  1
  S  S27  1  0.60975954  0.79553160  0.18577205  1
  Cl  Cl28  1  0.79556990  0.18054300  0.02637191  1
  Cl  Cl29  1  0.20443010  0.81945700  0.97362809  1
  Cl  Cl30  1  0.20443010  0.17805820  0.61502690  1
  Cl  Cl31  1  0.79556990  0.82194180  0.38497310  1
  Cl  Cl32  1  0.97631385  0.79693292  0.82061907  1
  Cl  Cl33  1  0.02368615  0.20306708  0.17938093  1
  O  O34  1  0.72446293  0.42445012  0.07378652  1
  O  O35  1  0.50220585  0.57712734  0.70119572  1
  O  O36  1  0.49779415  0.79659844  0.92507850  1
  O  O37  1  0.27553707  0.20175055  0.30001281  1
  O  O38  1  0.70873638  0.27804912  0.79832457  1
  O  O39  1  0.07433405  0.50110706  0.20214681  1
  O  O40  1  0.29126362  0.49293905  0.43068726  1
  O  O41  1  0.92566595  0.72351914  0.57322699  1
  O  O42  1  0.57325260  0.29291256  0.50201665  1
  O  O43  1  0.42674740  0.92473075  0.28034004  1
  O  O44  1  0.20095911  0.70916397  0.72367589  1
  O  O45  1  0.79904089  0.07536500  0.49179514  1
  O  O46  1  0.27553707  0.57554988  0.92621348  1
  O  O47  1  0.49779415  0.42287266  0.29880428  1
  O  O48  1  0.50220585  0.20340156  0.07492150  1
  O  O49  1  0.72446293  0.79824945  0.69998719  1
  O  O50  1  0.29126362  0.72195088  0.20167543  1
  O  O51  1  0.92566595  0.49889294  0.79785319  1
  O  O52  1  0.70873638  0.50706095  0.56931274  1
  O  O53  1  0.07433405  0.27648086  0.42677301  1
  O  O54  1  0.42674740  0.70708744  0.49798335  1
  O  O55  1  0.57325260  0.07526925  0.71965996  1
  O  O56  1  0.79904089  0.29083603  0.27632411  1
  O  O57  1  0.20095911  0.92463500  0.50820486  1
  O  O58  1  0.62653191  0.49964361  0.87311170  1
  O  O59  1  0.37346809  0.50035639  0.12688830  1
  O  O60  1  0.86968809  0.37019553  0.50050744  1
  O  O61  1  0.13031191  0.62980447  0.49949256  1
  O  O62  1  0.50000000  0.12905106  0.37094894  1
  O  O63  1  0.50000000  0.87094894  0.62905106  1
