# generated using pymatgen
data_Ga3Te3As
_symmetry_space_group_name_H-M   'P 1'
_cell_length_a   4.17206167
_cell_length_b   7.26649801
_cell_length_c   7.30808617
_cell_angle_alpha   81.41095249
_cell_angle_beta   90.00000000
_cell_angle_gamma   73.31707116
_symmetry_Int_Tables_number   1
_chemical_formula_structural   Ga3Te3As
_chemical_formula_sum   'Ga3 Te3 As1'
_cell_volume   209.63309140
_cell_formula_units_Z   1
loop_
 _symmetry_equiv_pos_site_id
 _symmetry_equiv_pos_as_xyz
  1  'x, y, z'
loop_
 _atom_site_type_symbol
 _atom_site_label
 _atom_site_symmetry_multiplicity
 _atom_site_fract_x
 _atom_site_fract_y
 _atom_site_fract_z
 _atom_site_occupancy
  Ga  Ga0  1  0.99801200  0.00397600  0.98341906  1
  Ga  Ga1  1  0.25087664  0.49824673  0.73710975  1
  Ga  Ga2  1  0.49685593  0.00628815  0.51693263  1
  Te  Te3  1  0.30909997  0.38180006  0.41856059  1
  Te  Te4  1  0.57389663  0.85220674  0.19190995  1
  Te  Te5  1  0.80474107  0.39051787  0.96633706  1
  As  As6  1  0.06651777  0.86696446  0.68573096  1
