# generated using pymatgen
data_K2ZnSi3O8
_symmetry_space_group_name_H-M   'P 1'
_cell_length_a   5.36874793
_cell_length_b   6.87435912
_cell_length_c   6.90556842
_cell_angle_alpha   92.97598530
_cell_angle_beta   111.47748871
_cell_angle_gamma   66.52250941
_symmetry_Int_Tables_number   1
_chemical_formula_structural   K2ZnSi3O8
_chemical_formula_sum   'K2 Zn1 Si3 O8'
_cell_volume   216.20952434
_cell_formula_units_Z   1
loop_
 _symmetry_equiv_pos_site_id
 _symmetry_equiv_pos_as_xyz
  1  'x, y, z'
loop_
 _atom_site_type_symbol
 _atom_site_label
 _atom_site_symmetry_multiplicity
 _atom_site_fract_x
 _atom_site_fract_y
 _atom_site_fract_z
 _atom_site_occupancy
  K  K0  1  0.23940422  0.70833875  0.18207194  1
  K  K1  1  0.79091622  0.33027079  0.86184006  1
  Zn  Zn2  1  0.54644239  0.11917842  0.22229892  1
  Si  Si3  1  0.41544503  0.90553148  0.74187488  1
  Si  Si4  1  0.95352117  0.70500719  0.60302083  1
  Si  Si5  1  0.04276879  0.29537043  0.39028600  1
  O  O6  1  0.26080775  0.73640314  0.74391913  1
  O  O7  1  0.19048327  0.33890283  0.24164710  1
  O  O8  1  0.75606180  0.75515561  0.75403379  1
  O  O9  1  0.71139508  0.33013231  0.24869043  1
  O  O10  1  0.23570298  0.04713597  0.51217482  1
  O  O11  1  0.78281020  0.83720209  0.37688761  1
  O  O12  1  0.41630411  0.04305189  0.93415619  1
  O  O13  1  0.05993701  0.44631911  0.58909831  1
