# generated using pymatgen
data_GaCuTeSe
_symmetry_space_group_name_H-M   'P 1'
_cell_length_a   5.88490633
_cell_length_b   5.89888156
_cell_length_c   7.16636771
_cell_angle_alpha   65.69668422
_cell_angle_beta   65.75796846
_cell_angle_gamma   90.00000000
_symmetry_Int_Tables_number   1
_chemical_formula_structural   GaCuTeSe
_chemical_formula_sum   'Ga2 Cu2 Te2 Se2'
_cell_volume   202.41657382
_cell_formula_units_Z   2
loop_
 _symmetry_equiv_pos_site_id
 _symmetry_equiv_pos_as_xyz
  1  'x, y, z'
loop_
 _atom_site_type_symbol
 _atom_site_label
 _atom_site_symmetry_multiplicity
 _atom_site_fract_x
 _atom_site_fract_y
 _atom_site_fract_z
 _atom_site_occupancy
  Ga  Ga0  1  0.24127406  0.74127406  0.51745188  1
  Ga  Ga1  1  0.50872594  0.50872594  0.98254812  1
  Cu  Cu2  1  0.74077352  0.24077352  0.51845295  1
  Cu  Cu3  1  0.00922648  0.00922648  0.98154705  1
  Te  Te4  1  0.11152317  0.12500000  0.25000000  1
  Te  Te5  1  0.63847683  0.62500000  0.25000000  1
  Se  Se6  1  0.37500000  0.88090363  0.75000000  1
  Se  Se7  1  0.87500000  0.36909637  0.75000000  1
