# generated using pymatgen
data_Dy2In3Cu
_symmetry_space_group_name_H-M   'P 1'
_cell_length_a   4.71639809
_cell_length_b   4.71714255
_cell_length_c   7.45042951
_cell_angle_alpha   90.00000000
_cell_angle_beta   89.99477562
_cell_angle_gamma   59.99477292
_symmetry_Int_Tables_number   1
_chemical_formula_structural   Dy2In3Cu
_chemical_formula_sum   'Dy2 In3 Cu1'
_cell_volume   143.54184284
_cell_formula_units_Z   1
loop_
 _symmetry_equiv_pos_site_id
 _symmetry_equiv_pos_as_xyz
  1  'x, y, z'
loop_
 _atom_site_type_symbol
 _atom_site_label
 _atom_site_symmetry_multiplicity
 _atom_site_fract_x
 _atom_site_fract_y
 _atom_site_fract_z
 _atom_site_occupancy
  Dy  Dy0  1  0.99998705  0.00000648  0.72297248  1
  Dy  Dy1  1  0.99996309  0.00001846  0.26283694  1
  In  In2  1  0.66667815  0.66666093  0.48354056  1
  In  In3  1  0.66669741  0.66665130  0.05227497  1
  In  In4  1  0.33336073  0.33331964  0.93293030  1
  Cu  Cu5  1  0.33331358  0.33334321  0.54544475  1
