# generated using pymatgen
data_DyZnCuAs2
_symmetry_space_group_name_H-M   'P 1'
_cell_length_a   4.12493576
_cell_length_b   4.12493575
_cell_length_c   6.73093186
_cell_angle_alpha   89.99972641
_cell_angle_beta   89.99972640
_cell_angle_gamma   60.00006763
_symmetry_Int_Tables_number   1
_chemical_formula_structural   DyZnCuAs2
_chemical_formula_sum   'Dy1 Zn1 Cu1 As2'
_cell_volume   99.18374442
_cell_formula_units_Z   1
loop_
 _symmetry_equiv_pos_site_id
 _symmetry_equiv_pos_as_xyz
  1  'x, y, z'
loop_
 _atom_site_type_symbol
 _atom_site_label
 _atom_site_symmetry_multiplicity
 _atom_site_fract_x
 _atom_site_fract_y
 _atom_site_fract_z
 _atom_site_occupancy
  Dy  Dy0  1  0.99999582  0.99999582  0.98353144  1
  Zn  Zn1  1  0.33332707  0.33332707  0.37658880  1
  Cu  Cu2  1  0.66668063  0.66668063  0.63950950  1
  As  As3  1  0.66666200  0.66666200  0.25097220  1
  As  As4  1  0.33333448  0.33333448  0.74939806  1
