# generated using pymatgen
data_CoNi(SbS)2
_symmetry_space_group_name_H-M   'P 1'
_cell_length_a   5.88231796
_cell_length_b   5.87592736
_cell_length_c   5.88471009
_cell_angle_alpha   90.00000000
_cell_angle_beta   90.00000000
_cell_angle_gamma   89.84597768
_symmetry_Int_Tables_number   1
_chemical_formula_structural   CoNi(SbS)2
_chemical_formula_sum   'Co2 Ni2 Sb4 S4'
_cell_volume   203.39881450
_cell_formula_units_Z   2
loop_
 _symmetry_equiv_pos_site_id
 _symmetry_equiv_pos_as_xyz
  1  'x, y, z'
loop_
 _atom_site_type_symbol
 _atom_site_label
 _atom_site_symmetry_multiplicity
 _atom_site_fract_x
 _atom_site_fract_y
 _atom_site_fract_z
 _atom_site_occupancy
  Co  Co0  1  0.02026679  0.48062713  0.52046195  1
  Co  Co1  1  0.47973321  0.51937287  0.02046195  1
  Ni  Ni2  1  0.52136805  0.02183089  0.47892642  1
  Ni  Ni3  1  0.97863195  0.97816911  0.97892642  1
  Sb  Sb4  1  0.36966225  0.13640316  0.87027532  1
  Sb  Sb5  1  0.13033775  0.86359684  0.37027532  1
  Sb  Sb6  1  0.86678062  0.37322839  0.13409789  1
  Sb  Sb7  1  0.63321938  0.62677161  0.63409789  1
  S  S8  1  0.61684645  0.87502687  0.11845779  1
  S  S9  1  0.88315355  0.12497313  0.61845779  1
  S  S10  1  0.12368227  0.61576690  0.87778063  1
  S  S11  1  0.37631773  0.38423310  0.37778063  1
