# generated using pymatgen
data_DyTiFe5Co6
_symmetry_space_group_name_H-M   'P 1'
_cell_length_a   4.68816129
_cell_length_b   6.40449377
_cell_length_c   6.40449377
_cell_angle_alpha   98.16309168
_cell_angle_beta   111.46948267
_cell_angle_gamma   68.53051733
_symmetry_Int_Tables_number   1
_chemical_formula_structural   DyTiFe5Co6
_chemical_formula_sum   'Dy1 Ti1 Fe5 Co6'
_cell_volume   166.52957888
_cell_formula_units_Z   1
loop_
 _symmetry_equiv_pos_site_id
 _symmetry_equiv_pos_as_xyz
  1  'x, y, z'
loop_
 _atom_site_type_symbol
 _atom_site_label
 _atom_site_symmetry_multiplicity
 _atom_site_fract_x
 _atom_site_fract_y
 _atom_site_fract_z
 _atom_site_occupancy
  Dy  Dy0  1  0.00000000  0.00327528  0.00327528  1
  Ti  Ti1  1  -0.00000000  0.62499234  0.62499234  1
  Fe  Fe2  1  0.49892742  0.00313003  0.50306372  1
  Fe  Fe3  1  0.00100627  0.00313003  0.50306372  1
  Fe  Fe4  1  0.50107258  0.50306372  0.00313003  1
  Fe  Fe5  1  0.99899373  0.50306372  0.00313003  1
  Fe  Fe6  1  0.50000000  0.22956531  0.22956531  1
  Co  Co7  1  0.72158132  0.78081550  0.22397815  1
  Co  Co8  1  0.27841868  0.22397815  0.78081550  1
  Co  Co9  1  0.50000000  0.77617054  0.77617054  1
  Co  Co10  1  0.64288830  0.35686047  0.64263707  1
  Co  Co11  1  0.35711170  0.64263707  0.35686047  1
  Co  Co12  1  0.00000000  0.34931785  0.34931785  1
