# generated using pymatgen
data_CsHgSbSe3
_symmetry_space_group_name_H-M   'P 1'
_cell_length_a   4.35510330
_cell_length_b   8.39538007
_cell_length_c   11.56417880
_cell_angle_alpha   90.00000000
_cell_angle_beta   90.00000000
_cell_angle_gamma   74.96702030
_symmetry_Int_Tables_number   1
_chemical_formula_structural   CsHgSbSe3
_chemical_formula_sum   'Cs2 Hg2 Sb2 Se6'
_cell_volume   408.34791205
_cell_formula_units_Z   2
loop_
 _symmetry_equiv_pos_site_id
 _symmetry_equiv_pos_as_xyz
  1  'x, y, z'
loop_
 _atom_site_type_symbol
 _atom_site_label
 _atom_site_symmetry_multiplicity
 _atom_site_fract_x
 _atom_site_fract_y
 _atom_site_fract_z
 _atom_site_occupancy
  Cs  Cs0  1  0.25592934  0.48814132  0.24793040  1
  Cs  Cs1  1  0.74407066  0.51185868  0.74793040  1
  Hg  Hg2  1  0.54931592  0.90136816  0.25721542  1
  Hg  Hg3  1  0.45068408  0.09863184  0.75721542  1
  Sb  Sb4  1  0.99126650  0.01746701  0.01074468  1
  Sb  Sb5  1  0.00873350  0.98253299  0.51074468  1
  Se  Se6  1  0.62494452  0.75011097  0.45818554  1
  Se  Se7  1  0.38698517  0.22602966  0.54520671  1
  Se  Se8  1  0.61301483  0.77397034  0.04520671  1
  Se  Se9  1  0.37505548  0.24988903  0.95818554  1
  Se  Se10  1  0.94081528  0.11836944  0.23101727  1
  Se  Se11  1  0.05918472  0.88163056  0.73101727  1
