# generated using pymatgen
data_Er2Al3Cu
_symmetry_space_group_name_H-M   'P 1'
_cell_length_a   5.48884552
_cell_length_b   5.48884552
_cell_length_c   5.37642387
_cell_angle_alpha   90.00000000
_cell_angle_beta   59.30585425
_cell_angle_gamma   120.00000000
_symmetry_Int_Tables_number   1
_chemical_formula_structural   Er2Al3Cu
_chemical_formula_sum   'Er2 Al3 Cu1'
_cell_volume   113.31915016
_cell_formula_units_Z   1
loop_
 _symmetry_equiv_pos_site_id
 _symmetry_equiv_pos_as_xyz
  1  'x, y, z'
loop_
 _atom_site_type_symbol
 _atom_site_label
 _atom_site_symmetry_multiplicity
 _atom_site_fract_x
 _atom_site_fract_y
 _atom_site_fract_z
 _atom_site_occupancy
  Er  Er0  1  0.50246874  0.75123437  0.74629690  1
  Er  Er1  1  0.99753126  0.99876563  0.00370310  1
  Al  Al2  1  0.25000000  0.37500000  0.37500000  1
  Al  Al3  1  0.25000000  0.87500000  0.37500000  1
  Al  Al4  1  0.75000000  0.37500000  0.37500000  1
  Cu  Cu5  1  0.75000000  0.37500000  0.87500000  1
