# generated using pymatgen
data_CeTiFe11
_symmetry_space_group_name_H-M   'P 1'
_cell_length_a   4.67318633
_cell_length_b   6.50249489
_cell_length_c   6.50249489
_cell_angle_alpha   96.74927367
_cell_angle_beta   111.05954652
_cell_angle_gamma   68.94045348
_symmetry_Int_Tables_number   1
_chemical_formula_structural   CeTiFe11
_chemical_formula_sum   'Ce1 Ti1 Fe11'
_cell_volume   172.06440321
_cell_formula_units_Z   1
loop_
 _symmetry_equiv_pos_site_id
 _symmetry_equiv_pos_as_xyz
  1  'x, y, z'
loop_
 _atom_site_type_symbol
 _atom_site_label
 _atom_site_symmetry_multiplicity
 _atom_site_fract_x
 _atom_site_fract_y
 _atom_site_fract_z
 _atom_site_occupancy
  Ce  Ce0  1  0.00680528  0.99319472  0.00680528  1
  Ti  Ti1  1  0.62950975  0.37049025  0.62950975  1
  Fe  Fe2  1  0.73289483  0.76710517  0.23289483  1
  Fe  Fe3  1  0.27226170  0.22773830  0.77226170  1
  Fe  Fe4  1  0.49923203  0.77792826  0.77639232  1
  Fe  Fe5  1  0.49923203  0.22360768  0.22207174  1
  Fe  Fe6  1  0.50094404  0.99919124  0.50021603  1
  Fe  Fe7  1  0.00008074  0.99919124  0.50021603  1
  Fe  Fe8  1  0.50094404  0.49978397  0.00080876  1
  Fe  Fe9  1  0.00008074  0.49978397  0.00080876  1
  Fe  Fe10  1  0.35490999  0.64509001  0.35490999  1
  Fe  Fe11  1  0.00155241  0.35624680  0.35935162  1
  Fe  Fe12  1  0.00155241  0.64064838  0.64375320  1
