# generated using pymatgen
data_Cd4Mo3WO16
_symmetry_space_group_name_H-M   'P 1'
_cell_length_a   5.24011549
_cell_length_b   5.24011549
_cell_length_c   11.50623789
_cell_angle_alpha   90.00000000
_cell_angle_beta   90.00000000
_cell_angle_gamma   90.00000000
_symmetry_Int_Tables_number   1
_chemical_formula_structural   Cd4Mo3WO16
_chemical_formula_sum   'Cd4 Mo3 W1 O16'
_cell_volume   315.94760405
_cell_formula_units_Z   1
loop_
 _symmetry_equiv_pos_site_id
 _symmetry_equiv_pos_as_xyz
  1  'x, y, z'
loop_
 _atom_site_type_symbol
 _atom_site_label
 _atom_site_symmetry_multiplicity
 _atom_site_fract_x
 _atom_site_fract_y
 _atom_site_fract_z
 _atom_site_occupancy
  Cd  Cd0  1  0.50000000  0.75000000  0.12485569  1
  Cd  Cd1  1  0.00000000  0.25000000  0.62514431  1
  Cd  Cd2  1  0.00000000  0.75000000  0.37500000  1
  Cd  Cd3  1  0.50000000  0.25000000  0.87500000  1
  Mo  Mo4  1  0.00000000  0.25000000  0.12505252  1
  Mo  Mo5  1  0.50000000  0.75000000  0.62494748  1
  Mo  Mo6  1  0.50000000  0.25000000  0.37500000  1
  W  W7  1  0.00000000  0.75000000  0.87500000  1
  O  O8  1  0.84158596  0.49467480  0.20989794  1
  O  O9  1  0.34017938  0.99388174  0.70995883  1
  O  O10  1  0.15841404  0.00532520  0.20989794  1
  O  O11  1  0.65982062  0.50611826  0.70995883  1
  O  O12  1  0.74501065  0.40849094  0.45976395  1
  O  O13  1  0.24761098  0.91016942  0.96066152  1
  O  O14  1  0.25498935  0.09150906  0.45976395  1
  O  O15  1  0.75238902  0.58983058  0.96066152  1
  O  O16  1  0.65849094  0.00498935  0.29023605  1
  O  O17  1  0.16016942  0.50238902  0.78933848  1
  O  O18  1  0.34150906  0.49501065  0.29023605  1
  O  O19  1  0.83983058  0.99761098  0.78933848  1
  O  O20  1  0.75611826  0.09017938  0.04004117  1
  O  O21  1  0.25532520  0.59158596  0.54010206  1
  O  O22  1  0.24388174  0.40982062  0.04004117  1
  O  O23  1  0.74467480  0.90841404  0.54010206  1
