# generated using pymatgen
data_Cu12Mo3S5O36
_symmetry_space_group_name_H-M   'P 1'
_cell_length_a   6.82741555
_cell_length_b   7.48574547
_cell_length_c   13.69445605
_cell_angle_alpha   89.97976842
_cell_angle_beta   90.00000000
_cell_angle_gamma   90.00000000
_symmetry_Int_Tables_number   1
_chemical_formula_structural   Cu12Mo3S5O36
_chemical_formula_sum   'Cu12 Mo3 S5 O36'
_cell_volume   699.90025618
_cell_formula_units_Z   1
loop_
 _symmetry_equiv_pos_site_id
 _symmetry_equiv_pos_as_xyz
  1  'x, y, z'
loop_
 _atom_site_type_symbol
 _atom_site_label
 _atom_site_symmetry_multiplicity
 _atom_site_fract_x
 _atom_site_fract_y
 _atom_site_fract_z
 _atom_site_occupancy
  Cu  Cu0  1  0.00028427  0.49979017  0.00027987  1
  Cu  Cu1  1  0.49609717  0.99861431  0.49354280  1
  Cu  Cu2  1  0.49971573  0.49979017  0.00027987  1
  Cu  Cu3  1  0.00390283  0.99861431  0.49354280  1
  Cu  Cu4  1  0.25000000  0.82320305  0.06160558  1
  Cu  Cu5  1  0.25000000  0.34293347  0.44418731  1
  Cu  Cu6  1  0.75000000  0.17307722  0.94678266  1
  Cu  Cu7  1  0.75000000  0.67502489  0.55219763  1
  Cu  Cu8  1  0.25000000  0.65625725  0.84187866  1
  Cu  Cu9  1  0.25000000  0.15370010  0.65885010  1
  Cu  Cu10  1  0.75000000  0.34553940  0.15998575  1
  Cu  Cu11  1  0.75000000  0.82159451  0.33896201  1
  Mo  Mo12  1  0.75000000  0.75099733  0.81342932  1
  Mo  Mo13  1  0.75000000  0.25154421  0.68640576  1
  Mo  Mo14  1  0.25000000  0.25205919  0.18824071  1
  S  S15  1  0.25000000  0.16799177  0.89897550  1
  S  S16  1  0.25000000  0.67016496  0.59782002  1
  S  S17  1  0.75000000  0.83356242  0.10045602  1
  S  S18  1  0.75000000  0.32938333  0.40018807  1
  S  S19  1  0.25000000  0.74088805  0.31655494  1
  O  O20  1  0.25000000  0.97197750  0.90666216  1
  O  O21  1  0.25000000  0.47285865  0.58464848  1
  O  O22  1  0.75000000  0.03041420  0.09108423  1
  O  O23  1  0.75000000  0.52626662  0.40991278  1
  O  O24  1  0.25000000  0.72175129  0.70199782  1
  O  O25  1  0.25000000  0.23219493  0.79615241  1
  O  O26  1  0.75000000  0.27042829  0.29705143  1
  O  O27  1  0.75000000  0.77190855  0.20285123  1
  O  O28  1  0.96974634  0.62692947  0.84854846  1
  O  O29  1  0.53045459  0.12681199  0.65291140  1
  O  O30  1  0.46944774  0.37416447  0.15117386  1
  O  O31  1  0.07238395  0.85036786  0.34526450  1
  O  O32  1  0.03055226  0.37416447  0.15117386  1
  O  O33  1  0.42761605  0.85036786  0.34526450  1
  O  O34  1  0.53025366  0.62692947  0.84854846  1
  O  O35  1  0.96954541  0.12681199  0.65291140  1
  O  O36  1  0.25000000  0.60568773  0.98522195  1
  O  O37  1  0.25000000  0.11134414  0.51686246  1
  O  O38  1  0.75000000  0.39617631  0.01879838  1
  O  O39  1  0.75000000  0.89310093  0.47278822  1
  O  O40  1  0.75000000  0.79893838  0.68761903  1
  O  O41  1  0.75000000  0.29984015  0.81237678  1
  O  O42  1  0.25000000  0.21434735  0.31558807  1
  O  O43  1  0.25000000  0.70250949  0.21136469  1
  O  O44  1  0.75000000  0.95953040  0.87512058  1
  O  O45  1  0.75000000  0.46045652  0.62434944  1
  O  O46  1  0.25000000  0.04237644  0.12764148  1
  O  O47  1  0.25000000  0.56966659  0.37081947  1
  O  O48  1  0.07325045  0.24253932  0.95021418  1
  O  O49  1  0.42799367  0.74722046  0.54948192  1
  O  O50  1  0.57207322  0.75897701  0.05019312  1
  O  O51  1  0.92700919  0.25473714  0.45067432  1
  O  O52  1  0.92792678  0.75897701  0.05019312  1
  O  O53  1  0.57299081  0.25473714  0.45067432  1
  O  O54  1  0.42674955  0.24253932  0.95021418  1
  O  O55  1  0.07200633  0.74722046  0.54948192  1
