# generated using pymatgen
data_Cr6Cd(CuO6)2
_symmetry_space_group_name_H-M   'P 1'
_cell_length_a   6.11138942
_cell_length_b   13.38425027
_cell_length_c   6.11138942
_cell_angle_alpha   76.80268430
_cell_angle_beta   90.00000000
_cell_angle_gamma   76.80268430
_symmetry_Int_Tables_number   1
_chemical_formula_structural   Cr6Cd(CuO6)2
_chemical_formula_sum   'Cr12 Cd2 Cu4 O24'
_cell_volume   473.11661736
_cell_formula_units_Z   2
loop_
 _symmetry_equiv_pos_site_id
 _symmetry_equiv_pos_as_xyz
  1  'x, y, z'
loop_
 _atom_site_type_symbol
 _atom_site_label
 _atom_site_symmetry_multiplicity
 _atom_site_fract_x
 _atom_site_fract_y
 _atom_site_fract_z
 _atom_site_occupancy
  Cr  Cr0  1  0.79025193  0.41761554  0.54070957  1
  Cr  Cr1  1  0.12196994  0.75422788  0.87616943  1
  Cr  Cr2  1  0.45959867  0.07873600  0.20749389  1
  Cr  Cr3  1  0.46166433  0.07873600  0.71376910  1
  Cr  Cr4  1  0.79213353  0.41761554  0.04167589  1
  Cr  Cr5  1  0.12380218  0.75422788  0.36960270  1
  Cr  Cr6  1  0.12595743  0.24905146  0.87453347  1
  Cr  Cr7  1  0.45917211  0.58793000  0.20500167  1
  Cr  Cr8  1  0.79049757  0.91243912  0.54286482  1
  Cr  Cr9  1  0.29706430  0.91243912  0.54469706  1
  Cr  Cr10  1  0.62499111  0.24905146  0.87641507  1
  Cr  Cr11  1  0.95289690  0.58793000  0.20706733  1
  Cd  Cd12  1  0.91857916  0.16284268  0.41857916  1
  Cd  Cd13  1  0.24808784  0.50382432  0.74808784  1
  Cu  Cu14  1  0.58333300  0.83333300  0.08333300  1
  Cu  Cu15  1  0.00147973  0.99704053  0.00147973  1
  Cu  Cu16  1  0.33333300  0.33333300  0.33333300  1
  Cu  Cu17  1  0.66518727  0.66962647  0.66518727  1
  O  O18  1  0.25677563  0.06811663  0.46691255  1
  O  O19  1  0.58382607  0.40645906  0.79766966  1
  O  O20  1  0.90309777  0.74867230  0.12659403  1
  O  O21  1  0.23490399  0.08718539  0.95517347  1
  O  O22  1  0.56375358  0.42592390  0.28584877  1
  O  O23  1  0.90470805  0.75398503  0.62216520  1
  O  O24  1  0.00971588  0.40645906  0.79587229  1
  O  O25  1  0.34822993  0.74867230  0.12473367  1
  O  O26  1  0.67510674  0.06811663  0.46496983  1
  O  O27  1  0.67790962  0.08718539  0.95764015  1
  O  O28  1  0.01032352  0.42592390  0.28822833  1
  O  O29  1  0.34130691  0.75398503  0.62384976  1
  O  O30  1  0.86899734  0.26020794  0.65695112  1
  O  O31  1  0.19975345  0.59854937  0.99155926  1
  O  O32  1  0.54007297  0.91799470  0.31843707  1
  O  O33  1  0.37843867  0.24074310  0.10291342  1
  O  O34  1  0.70902585  0.57948061  0.43176201  1
  O  O35  1  0.04281724  0.91268197  0.76195895  1
  O  O36  1  0.54193333  0.91799470  0.76356923  1
  O  O37  1  0.87079471  0.26020794  0.08284093  1
  O  O38  1  0.20169617  0.59854937  0.40989037  1
  O  O39  1  0.38081823  0.24074310  0.65634348  1
  O  O40  1  0.71149253  0.57948061  0.98875638  1
  O  O41  1  0.04450180  0.91268197  0.32536009  1
