# generated using pymatgen
data_CePt4Rh
_symmetry_space_group_name_H-M   'P 1'
_cell_length_a   4.43608666
_cell_length_b   5.36991220
_cell_length_c   5.36999187
_cell_angle_alpha   59.99944734
_cell_angle_beta   90.00000000
_cell_angle_gamma   90.00000000
_symmetry_Int_Tables_number   1
_chemical_formula_structural   CePt4Rh
_chemical_formula_sum   'Ce1 Pt4 Rh1'
_cell_volume   110.78196072
_cell_formula_units_Z   1
loop_
 _symmetry_equiv_pos_site_id
 _symmetry_equiv_pos_as_xyz
  1  'x, y, z'
loop_
 _atom_site_type_symbol
 _atom_site_label
 _atom_site_symmetry_multiplicity
 _atom_site_fract_x
 _atom_site_fract_y
 _atom_site_fract_z
 _atom_site_occupancy
  Ce  Ce0  1  -0.00000000  0.99998885  0.00000845  1
  Pt  Pt1  1  -0.00000000  0.66662178  0.66668847  1
  Pt  Pt2  1  0.50000000  0.49932728  0.49932515  1
  Pt  Pt3  1  0.50000000  0.49932312  0.00135779  1
  Pt  Pt4  1  0.50000000  0.00133914  0.49933176  1
  Rh  Rh5  1  0.00000000  0.33329982  0.33338839  1
