# generated using pymatgen
data_CeAl(CuNi)2
_symmetry_space_group_name_H-M   'P 1'
_cell_length_a   4.10179356
_cell_length_b   4.94491588
_cell_length_c   4.94491518
_cell_angle_alpha   61.98394769
_cell_angle_beta   90.00000000
_cell_angle_gamma   90.00000000
_symmetry_Int_Tables_number   1
_chemical_formula_structural   CeAl(CuNi)2
_chemical_formula_sum   'Ce1 Al1 Cu2 Ni2'
_cell_volume   88.54453527
_cell_formula_units_Z   1
loop_
 _symmetry_equiv_pos_site_id
 _symmetry_equiv_pos_as_xyz
  1  'x, y, z'
loop_
 _atom_site_type_symbol
 _atom_site_label
 _atom_site_symmetry_multiplicity
 _atom_site_fract_x
 _atom_site_fract_y
 _atom_site_fract_z
 _atom_site_occupancy
  Ce  Ce0  1  0.00000000  0.99998890  0.00001110  1
  Al  Al1  1  0.50000000  0.49999690  0.50000310  1
  Cu  Cu2  1  0.50000000  0.49999221  0.00001311  1
  Cu  Cu3  1  0.50000000  0.99998689  0.50000779  1
  Ni  Ni4  1  -0.00000000  0.33578686  0.33585176  1
  Ni  Ni5  1  -0.00000000  0.66414824  0.66421314  1
