# generated using pymatgen
data_Cr6Cd(CuO6)2
_symmetry_space_group_name_H-M   'P 1'
_cell_length_a   6.11538590
_cell_length_b   8.43551021
_cell_length_c   10.53707400
_cell_angle_alpha   66.40446384
_cell_angle_beta   73.14067012
_cell_angle_gamma   90.00000000
_symmetry_Int_Tables_number   1
_chemical_formula_structural   Cr6Cd(CuO6)2
_chemical_formula_sum   'Cr12 Cd2 Cu4 O24'
_cell_volume   472.51953005
_cell_formula_units_Z   2
loop_
 _symmetry_equiv_pos_site_id
 _symmetry_equiv_pos_as_xyz
  1  'x, y, z'
loop_
 _atom_site_type_symbol
 _atom_site_label
 _atom_site_symmetry_multiplicity
 _atom_site_fract_x
 _atom_site_fract_y
 _atom_site_fract_z
 _atom_site_occupancy
  Cr  Cr0  1  0.08405895  0.70752623  0.83400870  1
  Cr  Cr1  1  0.41711974  0.04493435  0.16872124  1
  Cr  Cr2  1  0.75264544  0.37346388  0.49668641  1
  Cr  Cr3  1  0.58260705  0.20820193  0.83265730  1
  Cr  Cr4  1  0.91402156  0.53681729  0.16998059  1
  Cr  Cr5  1  0.24954726  0.88032159  0.49794576  1
  Cr  Cr6  1  0.24663031  0.37007782  0.00460063  1
  Cr  Cr7  1  0.58590638  0.71230079  0.33398782  1
  Cr  Cr8  1  0.91739554  0.04060566  0.66384253  1
  Cr  Cr9  1  0.42003669  0.04134546  0.66206637  1
  Cr  Cr10  1  0.74927146  0.37111419  0.00282447  1
  Cr  Cr11  1  0.08075962  0.71295561  0.33267818  1
  Cd  Cd12  1  0.16715109  0.41772095  0.66558524  1
  Cd  Cd13  1  0.49951591  0.74997219  0.00108176  1
  Cu  Cu14  1  0.83333300  0.08298716  0.33333300  1
  Cu  Cu15  1  0.99949895  0.00078465  0.00086740  1
  Cu  Cu16  1  0.33333300  0.33173652  0.33333300  1
  Cu  Cu17  1  0.66716805  0.66831905  0.66579960  1
  O  O18  1  0.45781836  0.27647816  0.66283438  1
  O  O19  1  0.78865637  0.60719107  0.00107653  1
  O  O20  1  0.11015048  0.95335971  0.33219974  1
  O  O21  1  0.27955528  0.13088339  0.00204901  1
  O  O22  1  0.61003266  0.46859079  0.33442786  1
  O  O23  1  0.94731362  0.79846232  0.66672969  1
  O  O24  1  0.20884864  0.60597854  0.00383262  1
  O  O25  1  0.55651552  0.95222646  0.33446626  1
  O  O26  1  0.87801063  0.27493460  0.66559047  1
  O  O27  1  0.71935338  0.13185800  -0.00006269  1
  O  O28  1  0.05663334  0.46968565  0.33223814  1
  O  O29  1  0.38711172  0.79959940  0.66461799  1
  O  O30  1  0.07123015  0.45770860  0.86163473  1
  O  O31  1  0.40528585  0.79792491  0.19343846  1
  O  O32  1  0.74422719  0.12435213  0.51460306  1
  O  O33  1  0.42744020  0.29304379  0.14861713  1
  O  O34  1  0.76127596  0.62500166  0.48102875  1
  O  O35  1  0.09579791  0.96122814  0.81172601  1
  O  O36  1  0.59543685  0.98600933  0.80503227  1
  O  O37  1  0.92243881  0.30562219  0.15206294  1
  O  O38  1  0.26138115  0.65803037  0.47322854  1
  O  O39  1  0.57086909  0.43962115  0.85494099  1
  O  O40  1  0.90539104  0.77269640  0.18563825  1
  O  O41  1  0.23922580  0.10832792  0.51804887  1
