# generated using pymatgen
data_Ce3SbAs2
_symmetry_space_group_name_H-M   'P 1'
_cell_length_a   4.29270371
_cell_length_b   6.11799555
_cell_length_c   7.49126713
_cell_angle_alpha   114.10071399
_cell_angle_beta   73.35063952
_cell_angle_gamma   90.00000000
_symmetry_Int_Tables_number   1
_chemical_formula_structural   Ce3SbAs2
_chemical_formula_sum   'Ce3 Sb1 As2'
_cell_volume   170.51537039
_cell_formula_units_Z   1
loop_
 _symmetry_equiv_pos_site_id
 _symmetry_equiv_pos_as_xyz
  1  'x, y, z'
loop_
 _atom_site_type_symbol
 _atom_site_label
 _atom_site_symmetry_multiplicity
 _atom_site_fract_x
 _atom_site_fract_y
 _atom_site_fract_z
 _atom_site_occupancy
  Ce  Ce0  1  0.00000000  0.00000000  0.00000000  1
  Ce  Ce1  1  0.32227567  0.67772433  0.35544767  1
  Ce  Ce2  1  0.67772433  0.32227567  0.64455233  1
  Sb  Sb3  1  0.00000000  0.50000000  -0.00000000  1
  As  As4  1  0.33755389  0.16244611  0.32489121  1
  As  As5  1  0.66244611  0.83755389  0.67510879  1
