# generated using pymatgen
data_Ce3UAl8
_symmetry_space_group_name_H-M   'P 1'
_cell_length_a   5.56712948
_cell_length_b   5.56712948
_cell_length_c   9.65998419
_cell_angle_alpha   73.25251881
_cell_angle_beta   90.00000000
_cell_angle_gamma   120.00000000
_symmetry_Int_Tables_number   1
_chemical_formula_structural   Ce3UAl8
_chemical_formula_sum   'Ce3 U1 Al8'
_cell_volume   244.50699635
_cell_formula_units_Z   1
loop_
 _symmetry_equiv_pos_site_id
 _symmetry_equiv_pos_as_xyz
  1  'x, y, z'
loop_
 _atom_site_type_symbol
 _atom_site_label
 _atom_site_symmetry_multiplicity
 _atom_site_fract_x
 _atom_site_fract_y
 _atom_site_fract_z
 _atom_site_occupancy
  Ce  Ce0  1  0.37491874  0.74983748  0.87524379  1
  Ce  Ce1  1  0.99645553  0.99291106  0.01063341  1
  Ce  Ce2  1  0.50298493  0.00596986  0.49104521  1
  U  U3  1  0.87515925  0.75031849  0.37452226  1
  Al  Al4  1  0.43666867  0.37432487  0.18900646  1
  Al  Al5  1  0.93762772  0.37664786  0.68572441  1
  Al  Al6  1  0.43666867  0.87333733  0.18900646  1
  Al  Al7  1  0.93762772  0.87525545  0.68572441  1
  Al  Al8  1  0.18773306  0.37546612  0.43680082  1
  Al  Al9  1  0.68747937  0.37495874  0.93756189  1
  Al  Al10  1  0.93765620  0.37432487  0.18900646  1
  Al  Al11  1  0.43902014  0.37664786  0.68572441  1
