# generated using pymatgen
data_CaCo3(SiO3)4
_symmetry_space_group_name_H-M   'P 1'
_cell_length_a   5.30235566
_cell_length_b   6.70447524
_cell_length_c   6.70447524
_cell_angle_alpha   84.79703392
_cell_angle_beta   77.34050584
_cell_angle_gamma   77.34050584
_symmetry_Int_Tables_number   1
_chemical_formula_structural   CaCo3(SiO3)4
_chemical_formula_sum   'Ca1 Co3 Si4 O12'
_cell_volume   226.66554468
_cell_formula_units_Z   1
loop_
 _symmetry_equiv_pos_site_id
 _symmetry_equiv_pos_as_xyz
  1  'x, y, z'
loop_
 _atom_site_type_symbol
 _atom_site_label
 _atom_site_symmetry_multiplicity
 _atom_site_fract_x
 _atom_site_fract_y
 _atom_site_fract_z
 _atom_site_occupancy
  Ca  Ca0  1  0.75000000  0.70127554  0.29872446  1
  Co  Co1  1  0.75000000  0.09162632  0.90837368  1
  Co  Co2  1  0.25000000  0.90013703  0.09986297  1
  Co  Co3  1  0.25000000  0.25281158  0.74718842  1
  Si  Si4  1  0.74853995  0.61563635  0.79737017  1
  Si  Si5  1  0.75146005  0.20262983  0.38436365  1
  Si  Si6  1  0.25948630  0.38096180  0.19905883  1
  Si  Si7  1  0.24051370  0.80094117  0.61903820  1
  O  O8  1  0.65033270  0.78411122  0.97301731  1
  O  O9  1  0.84966730  0.02698269  0.21588878  1
  O  O10  1  0.35393223  0.20281027  0.02994202  1
  O  O11  1  0.14606777  0.97005798  0.79718973  1
  O  O12  1  0.86687349  0.37946928  0.86436779  1
  O  O13  1  0.63312651  0.13563221  0.62053072  1
  O  O14  1  0.17078266  0.61049457  0.11294268  1
  O  O15  1  0.32921734  0.88705732  0.38950543  1
  O  O16  1  0.50752703  0.62943655  0.66749001  1
  O  O17  1  0.99247297  0.33250999  0.37056345  1
  O  O18  1  0.50407760  0.37846471  0.31834639  1
  O  O19  1  0.99592240  0.68165361  0.62153529  1
