# generated using pymatgen
data_Ce5Sb4As
_symmetry_space_group_name_H-M   'P 1'
_cell_length_a   4.45515271
_cell_length_b   15.96252072
_cell_length_c   4.45515271
_cell_angle_alpha   98.02183141
_cell_angle_beta   90.00000000
_cell_angle_gamma   81.97816859
_symmetry_Int_Tables_number   1
_chemical_formula_structural   Ce5Sb4As
_chemical_formula_sum   'Ce5 Sb4 As1'
_cell_volume   310.59893561
_cell_formula_units_Z   1
loop_
 _symmetry_equiv_pos_site_id
 _symmetry_equiv_pos_as_xyz
  1  'x, y, z'
loop_
 _atom_site_type_symbol
 _atom_site_label
 _atom_site_symmetry_multiplicity
 _atom_site_fract_x
 _atom_site_fract_y
 _atom_site_fract_z
 _atom_site_occupancy
  Ce  Ce0  1  0.19990759  0.60018482  0.80009241  1
  Ce  Ce1  1  0.60009241  0.79981518  0.39990759  1
  Ce  Ce2  1  0.99563551  0.00872897  0.00436449  1
  Ce  Ce3  1  0.40000000  0.20000000  0.60000000  1
  Ce  Ce4  1  0.80436449  0.39127103  0.19563551  1
  Sb  Sb5  1  0.30022080  0.39955839  0.69977920  1
  Sb  Sb6  1  0.70147991  0.59704017  0.29852009  1
  Sb  Sb7  1  0.09852009  0.80295983  0.90147991  1
  Sb  Sb8  1  0.49977920  0.00044161  0.50022080  1
  As  As9  1  0.90000000  0.20000000  0.10000000  1
