# generated using pymatgen
data_Ca2MgAl2(SiO4)3
_symmetry_space_group_name_H-M   'P 1'
_cell_length_a   5.35191220
_cell_length_b   6.60128054
_cell_length_c   6.59067455
_cell_angle_alpha   84.25569457
_cell_angle_beta   77.44864229
_cell_angle_gamma   78.12657658
_symmetry_Int_Tables_number   1
_chemical_formula_structural   Ca2MgAl2(SiO4)3
_chemical_formula_sum   'Ca2 Mg1 Al2 Si3 O12'
_cell_volume   222.04359833
_cell_formula_units_Z   1
loop_
 _symmetry_equiv_pos_site_id
 _symmetry_equiv_pos_as_xyz
  1  'x, y, z'
loop_
 _atom_site_type_symbol
 _atom_site_label
 _atom_site_symmetry_multiplicity
 _atom_site_fract_x
 _atom_site_fract_y
 _atom_site_fract_z
 _atom_site_occupancy
  Ca  Ca0  1  0.74590844  0.70244553  0.30774345  1
  Ca  Ca1  1  0.24376353  0.31144046  0.69974238  1
  Mg  Mg2  1  0.25472623  0.90870560  0.09118159  1
  Al  Al3  1  0.72074651  0.61491126  0.81211733  1
  Al  Al4  1  0.75321952  0.08842618  0.90717071  1
  Si  Si5  1  0.77377596  0.19312128  0.38264853  1
  Si  Si6  1  0.27937118  0.37818851  0.19290766  1
  Si  Si7  1  0.21985926  0.80339257  0.61720076  1
  O  O8  1  0.47694370  0.63007591  0.66428340  1
  O  O9  1  0.01031760  0.32841487  0.36518021  1
  O  O10  1  0.50724721  0.36599155  0.33627390  1
  O  O11  1  0.99933729  0.66105800  0.61731216  1
  O  O12  1  0.64878338  0.82376818  0.97440022  1
  O  O13  1  0.85589751  0.03132820  0.19790507  1
  O  O14  1  0.38104912  0.20114534  0.02128391  1
  O  O15  1  0.11664379  0.97385230  0.79995416  1
  O  O16  1  0.82205673  0.35606920  0.89387703  1
  O  O17  1  0.68464522  0.11201049  0.62275197  1
  O  O18  1  0.18893536  0.61155091  0.10865149  1
  O  O19  1  0.31677245  0.90410364  0.38741404  1
