# generated using pymatgen
data_BaSrNd4O8
_symmetry_space_group_name_H-M   'P 1'
_cell_length_a   3.61133518
_cell_length_b   10.52565592
_cell_length_c   12.50839033
_cell_angle_alpha   90.00000000
_cell_angle_beta   90.00000000
_cell_angle_gamma   90.00000000
_symmetry_Int_Tables_number   1
_chemical_formula_structural   BaSrNd4O8
_chemical_formula_sum   'Ba2 Sr2 Nd8 O16'
_cell_volume   475.46482442
_cell_formula_units_Z   2
loop_
 _symmetry_equiv_pos_site_id
 _symmetry_equiv_pos_as_xyz
  1  'x, y, z'
loop_
 _atom_site_type_symbol
 _atom_site_label
 _atom_site_symmetry_multiplicity
 _atom_site_fract_x
 _atom_site_fract_y
 _atom_site_fract_z
 _atom_site_occupancy
  Ba  Ba0  1  0.75000000  0.75173226  0.14743686  1
  Ba  Ba1  1  0.75000000  0.25173226  0.35256314  1
  Sr  Sr2  1  0.25000000  0.24821275  0.85269003  1
  Sr  Sr3  1  0.25000000  0.74821275  0.64730997  1
  Nd  Nd4  1  0.75000000  0.07200076  0.61682254  1
  Nd  Nd5  1  0.75000000  0.57200076  0.88317746  1
  Nd  Nd6  1  0.25000000  0.92584938  0.38890757  1
  Nd  Nd7  1  0.25000000  0.42584938  0.11109243  1
  Nd  Nd8  1  0.75000000  0.08578253  0.10691230  1
  Nd  Nd9  1  0.75000000  0.58578253  0.39308770  1
  Nd  Nd10  1  0.25000000  0.91652362  0.88622430  1
  Nd  Nd11  1  0.25000000  0.41652362  0.61377570  1
  O  O12  1  0.75000000  0.98773504  0.28300697  1
  O  O13  1  0.75000000  0.48773504  0.21699303  1
  O  O14  1  0.25000000  0.01061449  0.71808538  1
  O  O15  1  0.25000000  0.51061449  0.78191462  1
  O  O16  1  0.75000000  0.07430823  0.91779678  1
  O  O17  1  0.75000000  0.57430823  0.58220322  1
  O  O18  1  0.25000000  0.93410737  0.07436434  1
  O  O19  1  0.25000000  0.43410737  0.42563566  1
  O  O20  1  0.75000000  0.28500070  0.68264368  1
  O  O21  1  0.75000000  0.78500070  0.81735632  1
  O  O22  1  0.25000000  0.71479230  0.32601202  1
  O  O23  1  0.25000000  0.21479230  0.17398798  1
  O  O24  1  0.75000000  0.36784752  0.97889520  1
  O  O25  1  0.75000000  0.86784752  0.52110480  1
  O  O26  1  0.25000000  0.62549307  0.01345941  1
  O  O27  1  0.25000000  0.12549307  0.48654059  1
