# generated using pymatgen
data_CaTi8Zn2O19
_symmetry_space_group_name_H-M   'P 1'
_cell_length_a   9.30870796
_cell_length_b   9.28606427
_cell_length_c   9.30507973
_cell_angle_alpha   68.57990195
_cell_angle_beta   68.48729792
_cell_angle_gamma   68.51845304
_symmetry_Int_Tables_number   1
_chemical_formula_structural   CaTi8Zn2O19
_chemical_formula_sum   'Ca2 Ti16 Zn4 O38'
_cell_volume   671.10059186
_cell_formula_units_Z   2
loop_
 _symmetry_equiv_pos_site_id
 _symmetry_equiv_pos_as_xyz
  1  'x, y, z'
loop_
 _atom_site_type_symbol
 _atom_site_label
 _atom_site_symmetry_multiplicity
 _atom_site_fract_x
 _atom_site_fract_y
 _atom_site_fract_z
 _atom_site_occupancy
  Ca  Ca0  1  0.99634356  0.00415073  0.99951954  1
  Ca  Ca1  1  0.50067811  0.49783178  0.50162121  1
  Ti  Ti2  1  0.28241104  0.84830768  0.70344938  1
  Ti  Ti3  1  0.69472890  0.27742075  0.85004389  1
  Ti  Ti4  1  0.85043308  0.69634700  0.28105509  1
  Ti  Ti5  1  0.71593750  0.14985578  0.30803318  1
  Ti  Ti6  1  0.30394411  0.72170844  0.14908216  1
  Ti  Ti7  1  0.15023864  0.29706989  0.72424888  1
  Ti  Ti8  1  0.92366872  0.35284198  0.52778666  1
  Ti  Ti9  1  0.52748499  0.91977528  0.35651786  1
  Ti  Ti10  1  0.36350029  0.52041904  0.92032057  1
  Ti  Ti11  1  0.08075923  0.64055288  0.47157211  1
  Ti  Ti12  1  0.47835613  0.07817072  0.64254447  1
  Ti  Ti13  1  0.64382566  0.47249202  0.07769692  1
  Ti  Ti14  1  0.64904002  0.87388329  0.98220726  1
  Ti  Ti15  1  0.98498930  0.65488395  0.86551629  1
  Ti  Ti16  1  0.13098278  0.01323357  0.35320642  1
  Ti  Ti17  1  0.01722256  0.34596785  0.13233609  1
  Zn  Zn18  1  0.69146091  0.69131478  0.69012406  1
  Zn  Zn19  1  0.30684724  0.31086495  0.30874112  1
  Zn  Zn20  1  0.86629759  0.98865978  0.65271941  1
  Zn  Zn21  1  0.34637013  0.13224181  0.01219405  1
  O  O22  1  0.53996577  0.70178405  0.08005946  1
  O  O23  1  0.07701573  0.54592560  0.69998943  1
  O  O24  1  0.69420483  0.08536603  0.53269223  1
  O  O25  1  0.46331458  0.30730242  0.91471941  1
  O  O26  1  0.92054172  0.46055284  0.29670880  1
  O  O27  1  0.29966825  0.92181748  0.45768701  1
  O  O28  1  0.76091369  0.93190843  0.28419346  1
  O  O29  1  0.28674015  0.76284133  0.93159428  1
  O  O30  1  0.93306278  0.28426751  0.75609286  1
  O  O31  1  0.23787725  0.06781601  0.71668700  1
  O  O32  1  0.71561908  0.24566139  0.06583868  1
  O  O33  1  0.06876136  0.71125849  0.23917945  1
  O  O34  1  0.75899428  0.05830835  0.86502656  1
  O  O35  1  0.84626342  0.76330483  0.05895467  1
  O  O36  1  0.06408910  0.84024770  0.77292796  1
  O  O37  1  0.22740332  0.93763857  0.15954994  1
  O  O38  1  0.13412436  0.24327131  0.93993562  1
  O  O39  1  0.93983937  0.15516024  0.23414682  1
  O  O40  1  0.78726456  0.77558871  0.79696318  1
  O  O41  1  0.20405067  0.21892194  0.21632026  1
  O  O42  1  0.36714777  0.62708409  0.70591276  1
  O  O43  1  0.70783500  0.36435803  0.62606615  1
  O  O44  1  0.62817050  0.70340289  0.36865284  1
  O  O45  1  0.63260197  0.37492267  0.29379187  1
  O  O46  1  0.29620114  0.63059545  0.37193511  1
  O  O47  1  0.37172134  0.29320676  0.63656957  1
  O  O48  1  0.49980111  0.00182145  0.84990118  1
  O  O49  1  0.85963940  0.48634593  0.01399469  1
  O  O50  1  0.01776667  0.85769121  0.47610883  1
  O  O51  1  0.52097704  0.98028195  0.14464517  1
  O  O52  1  0.13977072  0.51356459  0.98795484  1
  O  O53  1  0.99688872  0.14784550  0.50330769  1
  O  O54  1  0.51289157  0.86392275  0.61052974  1
  O  O55  1  0.60859336  0.51787223  0.86452473  1
  O  O56  1  0.86409744  0.61369201  0.51130247  1
  O  O57  1  0.48565111  0.13663798  0.38415933  1
  O  O58  1  0.38967504  0.48662534  0.13509806  1
  O  O59  1  0.13533535  0.39319198  0.48574129  1
