# generated using pymatgen
data_Co2H31S2N9O11
_symmetry_space_group_name_H-M   'P 1'
_cell_length_a   7.05521557
_cell_length_b   8.82519987
_cell_length_c   9.24781091
_cell_angle_alpha   68.19555405
_cell_angle_beta   67.61066287
_cell_angle_gamma   73.65806099
_symmetry_Int_Tables_number   1
_chemical_formula_structural   Co2H31S2N9O11
_chemical_formula_sum   'Co2 H31 S2 N9 O11'
_cell_volume   487.70088668
_cell_formula_units_Z   1
loop_
 _symmetry_equiv_pos_site_id
 _symmetry_equiv_pos_as_xyz
  1  'x, y, z'
loop_
 _atom_site_type_symbol
 _atom_site_label
 _atom_site_symmetry_multiplicity
 _atom_site_fract_x
 _atom_site_fract_y
 _atom_site_fract_z
 _atom_site_occupancy
  Co  Co0  1  0.53558632  0.61457032  0.33298831  1
  Co  Co1  1  0.45986679  0.37733848  0.67521310  1
  H  H2  1  0.83176865  0.81446657  0.19469129  1
  H  H3  1  0.18448716  0.18900872  0.79885244  1
  H  H4  1  0.41426277  0.93826538  0.31913046  1
  H  H5  1  0.58371761  0.07181357  0.68551761  1
  H  H6  1  0.86812878  0.85981197  0.42139123  1
  H  H7  1  0.12694597  0.13784633  0.58142845  1
  H  H8  1  0.78835805  0.35211354  0.24062380  1
  H  H9  1  0.22319907  0.63732874  0.74563135  1
  H  H10  1  0.54896040  0.35130542  0.24761815  1
  H  H11  1  0.47010050  0.62990687  0.73022373  1
  H  H12  1  0.92757256  0.64058122  0.14350646  1
  H  H13  1  0.08940810  0.36338287  0.84786360  1
  H  H14  1  0.44149976  0.77506735  0.05770700  1
  H  H15  1  0.55687109  0.22649170  0.94175703  1
  H  H16  1  0.76856274  0.78607348  0.04949284  1
  H  H17  1  0.23947713  0.21461541  0.94941268  1
  H  H18  1  0.69854921  0.47782157  0.08684443  1
  H  H19  1  0.31398104  0.51626891  0.89936813  1
  H  H20  1  0.30457427  0.62013618  0.16366565  1
  H  H21  1  0.68856558  0.38193367  0.82543068  1
  H  H22  1  0.21973201  0.79495109  0.21471000  1
  H  H23  1  0.77051598  0.20386329  0.78295615  1
  H  H24  1  0.96332048  0.01796901  0.29785883  1
  H  H25  1  0.03412205  0.97954092  0.70623143  1
  H  H26  1  0.50017218  0.83232300  0.47933773  1
  H  H27  1  0.49668828  0.17228623  0.52569267  1
  H  H28  1  0.26069532  0.82955312  0.48946883  1
  H  H29  1  0.72799053  0.18923826  0.51737997  1
  H  H30  1  0.26556344  0.40958376  0.47973210  1
  H  H31  1  0.17209613  0.56442592  0.56075706  1
  H  H32  1  0.81405826  0.43402354  0.46929875  1
  S  S33  1  0.79191057  0.74526094  0.75467622  1
  S  S34  1  0.20512119  0.26149181  0.24720970  1
  N  N35  1  0.65710134  0.42591070  0.21226005  1
  N  N36  1  0.35371654  0.56039807  0.77331445  1
  N  N37  1  0.41202362  0.83001683  0.41402432  1
  N  N38  1  0.57736926  0.18176532  0.59289013  1
  N  N39  1  0.79745194  0.72936913  0.16033483  1
  N  N40  1  0.21826850  0.27267959  0.83575995  1
  N  N41  1  0.35212434  0.71536058  0.17295258  1
  N  N42  1  0.63827086  0.28435653  0.82289714  1
  N  N43  1  0.30553406  0.48955219  0.51632993  1
  O  O44  1  0.70352315  0.78077814  0.62029579  1
  O  O45  1  0.29014466  0.23747598  0.38176673  1
  O  O46  1  0.66152437  0.85200419  0.86267977  1
  O  O47  1  0.34275601  0.15186281  0.14448361  1
  O  O48  1  0.00851326  0.78650645  0.68203764  1
  O  O49  1  0.99277392  0.21385976  0.32431649  1
  O  O50  1  0.80070022  0.56622133  0.85109646  1
  O  O51  1  0.19253343  0.43817149  0.14454084  1
  O  O52  1  0.94368618  0.90923974  0.30406187  1
  O  O53  1  0.05328993  0.08939083  0.69879286  1
  O  O54  1  0.67736445  0.50062118  0.50019672  1
