# generated using pymatgen
data_BaSm5Al3Si9N20O
_symmetry_space_group_name_H-M   'P 1'
_cell_length_a   6.18512197
_cell_length_b   9.58290162
_cell_length_c   9.57446611
_cell_angle_alpha   120.02315220
_cell_angle_beta   90.30152137
_cell_angle_gamma   89.84941500
_symmetry_Int_Tables_number   1
_chemical_formula_structural   BaSm5Al3Si9N20O
_chemical_formula_sum   'Ba1 Sm5 Al3 Si9 N20 O1'
_cell_volume   491.34112469
_cell_formula_units_Z   1
loop_
 _symmetry_equiv_pos_site_id
 _symmetry_equiv_pos_as_xyz
  1  'x, y, z'
loop_
 _atom_site_type_symbol
 _atom_site_label
 _atom_site_symmetry_multiplicity
 _atom_site_fract_x
 _atom_site_fract_y
 _atom_site_fract_z
 _atom_site_occupancy
  Ba  Ba0  1  0.99931937  0.00281870  0.00162387  1
  Sm  Sm1  1  0.50394771  0.33490092  0.66994361  1
  Sm  Sm2  1  0.49666714  0.66801146  0.33208181  1
  Sm  Sm3  1  0.49852743  0.75055434  0.99985113  1
  Sm  Sm4  1  0.50486099  0.00119813  0.75121701  1
  Sm  Sm5  1  0.49866730  0.24894288  0.24909694  1
  Al  Al6  1  0.74462934  0.60679101  0.61454890  1
  Al  Al7  1  0.74534282  0.38753817  0.99404202  1
  Al  Al8  1  0.25592745  0.99365294  0.38626153  1
  Si  Si9  1  0.00733779  0.53093220  0.81615811  1
  Si  Si10  1  0.00287725  0.18370690  0.71508337  1
  Si  Si11  1  0.01246386  0.28481492  0.46580726  1
  Si  Si12  1  0.99253375  0.46625290  0.28503576  1
  Si  Si13  1  0.99774453  0.71493462  0.18397977  1
  Si  Si14  1  0.98812933  0.81844964  0.53341859  1
  Si  Si15  1  0.75048781  0.00836999  0.39985895  1
  Si  Si16  1  0.25018083  0.39961002  0.00751863  1
  Si  Si17  1  0.25081996  0.60936687  0.60057837  1
  N  N18  1  0.48618880  0.50977259  0.51192659  1
  N  N19  1  0.48618643  0.48718410  0.99666643  1
  N  N20  1  0.51450361  0.99538144  0.48640080  1
  N  N21  1  0.75020366  0.57704231  0.79029100  1
  N  N22  1  0.74906475  0.21296013  0.79010221  1
  N  N23  1  0.75644797  0.19987570  0.42160193  1
  N  N24  1  0.24562045  0.42083236  0.19787949  1
  N  N25  1  0.25219046  0.78960019  0.21182058  1
  N  N26  1  0.24465312  0.77941265  0.57885564  1
  N  N27  1  0.00909679  0.52020929  0.00000475  1
  N  N28  1  0.99678147  0.00021442  0.51980962  1
  N  N29  1  0.00904896  0.48113234  0.48076084  1
  N  N30  1  0.20809704  0.64640096  0.79700010  1
  N  N31  1  0.20776986  0.20244882  0.84783744  1
  N  N32  1  0.20907126  0.16026802  0.34563057  1
  N  N33  1  0.79055640  0.34842303  0.16330976  1
  N  N34  1  0.79227600  0.84725608  0.20265988  1
  N  N35  1  0.79078262  0.81373922  0.65305531  1
  N  N36  1  0.07838009  0.33237197  0.66562723  1
  N  N37  1  0.92336357  0.66568083  0.33314583  1
  O  O38  1  0.49925203  0.99894694  0.99950838  1
