# generated using pymatgen
data_Ce2Co16Cu
_symmetry_space_group_name_H-M   'P 1'
_cell_length_a   8.12172575
_cell_length_b   8.35746491
_cell_length_c   8.35746491
_cell_angle_alpha   119.96592420
_cell_angle_beta   90.01015325
_cell_angle_gamma   89.98984675
_symmetry_Int_Tables_number   1
_chemical_formula_structural   Ce2Co16Cu
_chemical_formula_sum   'Ce4 Co32 Cu2'
_cell_volume   491.44745227
_cell_formula_units_Z   2
loop_
 _symmetry_equiv_pos_site_id
 _symmetry_equiv_pos_as_xyz
  1  'x, y, z'
loop_
 _atom_site_type_symbol
 _atom_site_label
 _atom_site_symmetry_multiplicity
 _atom_site_fract_x
 _atom_site_fract_y
 _atom_site_fract_z
 _atom_site_occupancy
  Ce  Ce0  1  0.24732542  0.66608779  0.33391221  1
  Ce  Ce1  1  0.75267458  0.33391221  0.66608779  1
  Ce  Ce2  1  0.74791250  0.00012705  0.99987295  1
  Ce  Ce3  1  0.25208750  0.99987295  0.00012705  1
  Co  Co4  1  0.74875309  0.67060121  0.04671785  1
  Co  Co5  1  0.74868430  0.37621965  0.32943023  1
  Co  Co6  1  0.74875127  0.95319667  0.62391258  1
  Co  Co7  1  0.74875127  0.37608742  0.04680333  1
  Co  Co8  1  0.74875309  0.95328215  0.32939879  1
  Co  Co9  1  0.74868430  0.67056977  0.62378035  1
  Co  Co10  1  0.25124691  0.32939879  0.95328215  1
  Co  Co11  1  0.25131570  0.62378035  0.67056977  1
  Co  Co12  1  0.25124873  0.04680333  0.37608742  1
  Co  Co13  1  0.25124873  0.62391258  0.95319667  1
  Co  Co14  1  0.25124691  0.04671785  0.67060121  1
  Co  Co15  1  0.25131570  0.32943023  0.37621965  1
  Co  Co16  1  0.47765870  0.83344593  0.66733958  1
  Co  Co17  1  0.47750654  0.83364395  0.16635605  1
  Co  Co18  1  0.47765870  0.33266042  0.16655407  1
  Co  Co19  1  0.52234130  0.16655407  0.33266042  1
  Co  Co20  1  0.52249346  0.16635605  0.83364395  1
  Co  Co21  1  0.52234130  0.66733958  0.83344593  1
  Co  Co22  1  0.98186856  0.16419077  0.32821754  1
  Co  Co23  1  0.98167301  0.16405769  0.83594231  1
  Co  Co24  1  0.98186856  0.67178246  0.83580923  1
  Co  Co25  1  0.01813144  0.83580923  0.67178246  1
  Co  Co26  1  0.01832699  0.83594231  0.16405769  1
  Co  Co27  1  0.01813144  0.32821754  0.16419077  1
  Co  Co28  1  0.50000000  0.50000000  -0.00000000  1
  Co  Co29  1  0.50000000  0.50000000  0.50000000  1
  Co  Co30  1  0.50000000  -0.00000000  0.50000000  1
  Co  Co31  1  -0.00000000  0.50000000  -0.00000000  1
  Co  Co32  1  -0.00000000  0.50000000  0.50000000  1
  Co  Co33  1  -0.00000000  -0.00000000  0.50000000  1
  Co  Co34  1  0.59230740  0.66645050  0.33354950  1
  Co  Co35  1  0.40769260  0.33354950  0.66645050  1
  Cu  Cu36  1  0.11081986  0.33338159  0.66661841  1
  Cu  Cu37  1  0.88918014  0.66661841  0.33338159  1
