# generated using pymatgen
data_CaZrSi3H4O11
_symmetry_space_group_name_H-M   'P 1'
_cell_length_a   7.41641421
_cell_length_b   10.31299409
_cell_length_c   12.91969806
_cell_angle_alpha   90.00000000
_cell_angle_beta   90.00000000
_cell_angle_gamma   90.00000000
_symmetry_Int_Tables_number   1
_chemical_formula_structural   CaZrSi3H4O11
_chemical_formula_sum   'Ca4 Zr4 Si12 H16 O44'
_cell_volume   988.16873803
_cell_formula_units_Z   4
loop_
 _symmetry_equiv_pos_site_id
 _symmetry_equiv_pos_as_xyz
  1  'x, y, z'
loop_
 _atom_site_type_symbol
 _atom_site_label
 _atom_site_symmetry_multiplicity
 _atom_site_fract_x
 _atom_site_fract_y
 _atom_site_fract_z
 _atom_site_occupancy
  Ca  Ca0  1  -0.00000000  0.50000000  -0.00000000  1
  Ca  Ca1  1  -0.00000000  0.50000000  0.50000000  1
  Ca  Ca2  1  0.50000000  -0.00000000  -0.00000000  1
  Ca  Ca3  1  0.50000000  -0.00000000  0.50000000  1
  Zr  Zr4  1  0.75751479  0.50000000  0.25000000  1
  Zr  Zr5  1  0.74248521  -0.00000000  0.25000000  1
  Zr  Zr6  1  0.24248521  0.50000000  0.75000000  1
  Zr  Zr7  1  0.25751479  0.00000000  0.75000000  1
  Si  Si8  1  0.04625249  0.24764800  0.15192886  1
  Si  Si9  1  0.04625249  0.75235200  0.34807114  1
  Si  Si10  1  0.45374751  0.25235200  0.15192886  1
  Si  Si11  1  0.45374751  0.74764800  0.34807114  1
  Si  Si12  1  0.95374751  0.75235200  0.84807114  1
  Si  Si13  1  0.95374751  0.24764800  0.65192886  1
  Si  Si14  1  0.54625249  0.74764800  0.84807114  1
  Si  Si15  1  0.54625249  0.25235200  0.65192886  1
  Si  Si16  1  0.25000000  0.25000000  0.94554923  1
  Si  Si17  1  0.25000000  0.75000000  0.55445077  1
  Si  Si18  1  0.75000000  0.75000000  0.05445077  1
  Si  Si19  1  0.75000000  0.25000000  0.44554923  1
  H  H20  1  0.62983950  0.37802844  0.95765874  1
  H  H21  1  0.62983950  0.62197156  0.54234126  1
  H  H22  1  0.87016050  0.12197156  0.95765874  1
  H  H23  1  0.87016050  0.87802844  0.54234126  1
  H  H24  1  0.37016050  0.62197156  0.04234126  1
  H  H25  1  0.37016050  0.37802844  0.45765874  1
  H  H26  1  0.12983950  0.87802844  0.04234126  1
  H  H27  1  0.12983950  0.12197156  0.45765874  1
  H  H28  1  0.64186683  0.48223126  0.87062158  1
  H  H29  1  0.64186683  0.51776874  0.62937842  1
  H  H30  1  0.85813317  0.01776874  0.87062158  1
  H  H31  1  0.85813317  0.98223126  0.62937842  1
  H  H32  1  0.35813317  0.51776874  0.12937842  1
  H  H33  1  0.35813317  0.48223126  0.37062158  1
  H  H34  1  0.14186683  0.98223126  0.12937842  1
  H  H35  1  0.14186683  0.01776874  0.37062158  1
  O  O36  1  0.94236594  0.12046661  0.19244781  1
  O  O37  1  0.94236594  0.87953339  0.30755219  1
  O  O38  1  0.55763406  0.37953339  0.19244781  1
  O  O39  1  0.55763406  0.62046661  0.30755219  1
  O  O40  1  0.05763406  0.87953339  0.80755219  1
  O  O41  1  0.05763406  0.12046661  0.69244781  1
  O  O42  1  0.44236594  0.62046661  0.80755219  1
  O  O43  1  0.44236594  0.37953339  0.69244781  1
  O  O44  1  0.94941075  0.38768412  0.16545732  1
  O  O45  1  0.94941075  0.61231588  0.33454268  1
  O  O46  1  0.55058925  0.11231588  0.16545732  1
  O  O47  1  0.55058925  0.88768412  0.33454268  1
  O  O48  1  0.05058925  0.61231588  0.83454268  1
  O  O49  1  0.05058925  0.38768412  0.66545732  1
  O  O50  1  0.44941075  0.88768412  0.83454268  1
  O  O51  1  0.44941075  0.11231588  0.66545732  1
  O  O52  1  0.21135590  0.38185372  0.88225212  1
  O  O53  1  0.21135590  0.61814628  0.61774788  1
  O  O54  1  0.28864410  0.11814628  0.88225212  1
  O  O55  1  0.28864410  0.88185372  0.61774788  1
  O  O56  1  0.78864410  0.61814628  0.11774788  1
  O  O57  1  0.78864410  0.38185372  0.38225212  1
  O  O58  1  0.71135590  0.88185372  0.11774788  1
  O  O59  1  0.71135590  0.11814628  0.38225212  1
  O  O60  1  0.06981514  0.23627071  0.02217021  1
  O  O61  1  0.06981514  0.76372929  0.47782979  1
  O  O62  1  0.43018486  0.26372929  0.02217021  1
  O  O63  1  0.43018486  0.73627071  0.47782979  1
  O  O64  1  0.93018486  0.76372929  0.97782979  1
  O  O65  1  0.93018486  0.23627071  0.52217021  1
  O  O66  1  0.56981514  0.73627071  0.97782979  1
  O  O67  1  0.56981514  0.26372929  0.52217021  1
  O  O68  1  0.71446990  0.43693905  0.92267916  1
  O  O69  1  0.71446990  0.56306095  0.57732084  1
  O  O70  1  0.78553010  0.06306095  0.92267916  1
  O  O71  1  0.78553010  0.93693905  0.57732084  1
  O  O72  1  0.28553010  0.56306095  0.07732084  1
  O  O73  1  0.28553010  0.43693905  0.42267916  1
  O  O74  1  0.21446990  0.93693905  0.07732084  1
  O  O75  1  0.21446990  0.06306095  0.42267916  1
  O  O76  1  0.25000000  0.25000000  0.20099247  1
  O  O77  1  0.25000000  0.75000000  0.29900753  1
  O  O78  1  0.75000000  0.75000000  0.79900753  1
  O  O79  1  0.75000000  0.25000000  0.70099247  1
