# generated using pymatgen
data_Ca2Eu2In3Ge4
_symmetry_space_group_name_H-M   'P 1'
_cell_length_a   4.70581865
_cell_length_b   7.41704942
_cell_length_c   8.67728988
_cell_angle_alpha   106.39932005
_cell_angle_beta   74.26685987
_cell_angle_gamma   90.00000000
_symmetry_Int_Tables_number   1
_chemical_formula_structural   Ca2Eu2In3Ge4
_chemical_formula_sum   'Ca2 Eu2 In3 Ge4'
_cell_volume   278.69650782
_cell_formula_units_Z   1
loop_
 _symmetry_equiv_pos_site_id
 _symmetry_equiv_pos_as_xyz
  1  'x, y, z'
loop_
 _atom_site_type_symbol
 _atom_site_label
 _atom_site_symmetry_multiplicity
 _atom_site_fract_x
 _atom_site_fract_y
 _atom_site_fract_z
 _atom_site_occupancy
  Ca  Ca0  1  0.57624548  0.63342211  0.84750904  1
  Ca  Ca1  1  0.42375452  0.36657789  0.15249096  1
  Eu  Eu2  1  0.35314554  0.92340054  0.29370892  1
  Eu  Eu3  1  0.64685446  0.07659946  0.70629108  1
  In  In4  1  -0.00000000  0.00000000  0.00000000  1
  In  In5  1  0.21342667  0.37525548  0.57314666  1
  In  In6  1  0.78657333  0.62474452  0.42685334  1
  Ge  Ge7  1  0.05388230  0.34158542  0.89223541  1
  Ge  Ge8  1  0.94611770  0.65841458  0.10776459  1
  Ge  Ge9  1  0.19019017  0.77117681  0.61961967  1
  Ge  Ge10  1  0.80980983  0.22882319  0.38038033  1
