# generated using pymatgen
data_Ca2HoMn4BiO12
_symmetry_space_group_name_H-M   'P 1'
_cell_length_a   5.40277368
_cell_length_b   5.57478957
_cell_length_c   7.60385902
_cell_angle_alpha   90.00000000
_cell_angle_beta   90.00000000
_cell_angle_gamma   89.69919474
_symmetry_Int_Tables_number   1
_chemical_formula_structural   Ca2HoMn4BiO12
_chemical_formula_sum   'Ca2 Ho1 Mn4 Bi1 O12'
_cell_volume   229.01995508
_cell_formula_units_Z   1
loop_
 _symmetry_equiv_pos_site_id
 _symmetry_equiv_pos_as_xyz
  1  'x, y, z'
loop_
 _atom_site_type_symbol
 _atom_site_label
 _atom_site_symmetry_multiplicity
 _atom_site_fract_x
 _atom_site_fract_y
 _atom_site_fract_z
 _atom_site_occupancy
  Ca  Ca0  1  0.01250549  0.95214729  0.25000000  1
  Ca  Ca1  1  0.51019625  0.55229288  0.75000000  1
  Ho  Ho2  1  0.98551467  0.06187449  0.75000000  1
  Mn  Mn3  1  -0.00154402  0.50347105  0.99684861  1
  Mn  Mn4  1  0.49994686  0.99851524  0.50295649  1
  Mn  Mn5  1  -0.00154402  0.50347105  0.50315139  1
  Mn  Mn6  1  0.49994686  0.99851524  0.99704351  1
  Bi  Bi7  1  0.48893037  0.44782048  0.25000000  1
  O  O8  1  0.58180458  0.02168868  0.25000000  1
  O  O9  1  0.91353472  0.52543976  0.25000000  1
  O  O10  1  0.39887445  0.97716004  0.75000000  1
  O  O11  1  0.08451929  0.46673399  0.75000000  1
  O  O12  1  0.29934136  0.70345384  0.04153677  1
  O  O13  1  0.20148143  0.20355968  0.46154817  1
  O  O14  1  0.71086260  0.28734506  0.55069566  1
  O  O15  1  0.80197185  0.80107633  0.94773551  1
  O  O16  1  0.71086260  0.28734506  0.94930434  1
  O  O17  1  0.80197185  0.80107633  0.55226449  1
  O  O18  1  0.29934136  0.70345384  0.45846323  1
  O  O19  1  0.20148143  0.20355968  0.03845183  1
