# generated using pymatgen
data_Ce2VCo16
_symmetry_space_group_name_H-M   'P 1'
_cell_length_a   8.15046336
_cell_length_b   8.31372157
_cell_length_c   8.31874536
_cell_angle_alpha   60.01997527
_cell_angle_beta   90.00713109
_cell_angle_gamma   90.00000000
_symmetry_Int_Tables_number   1
_chemical_formula_structural   Ce2VCo16
_chemical_formula_sum   'Ce4 V2 Co32'
_cell_volume   488.26277400
_cell_formula_units_Z   2
loop_
 _symmetry_equiv_pos_site_id
 _symmetry_equiv_pos_as_xyz
  1  'x, y, z'
loop_
 _atom_site_type_symbol
 _atom_site_label
 _atom_site_symmetry_multiplicity
 _atom_site_fract_x
 _atom_site_fract_y
 _atom_site_fract_z
 _atom_site_occupancy
  Ce  Ce0  1  0.26064404  0.66736625  0.66526749  1
  Ce  Ce1  1  0.73935596  0.33263375  0.33473251  1
  Ce  Ce2  1  0.75326073  0.00019458  0.99961084  1
  Ce  Ce3  1  0.24673927  0.99980542  0.00038916  1
  V  V4  1  0.11339852  0.33317188  0.33365624  1
  V  V5  1  0.88660148  0.66682812  0.66634376  1
  Co  Co6  1  0.75014799  0.67180919  0.37247591  1
  Co  Co7  1  0.75026826  0.37234075  0.95553428  1
  Co  Co8  1  0.75024640  0.95558947  0.67187190  1
  Co  Co9  1  0.75024640  0.37253862  0.67187190  1
  Co  Co10  1  0.75014799  0.95571490  0.37247591  1
  Co  Co11  1  0.75026826  0.67212497  0.95553428  1
  Co  Co12  1  0.24985201  0.32819081  0.62752409  1
  Co  Co13  1  0.24973174  0.62765925  0.04446572  1
  Co  Co14  1  0.24975360  0.04441053  0.32812810  1
  Co  Co15  1  0.24975360  0.62746138  0.32812810  1
  Co  Co16  1  0.24985201  0.04428510  0.62752409  1
  Co  Co17  1  0.24973174  0.32787503  0.04446572  1
  Co  Co18  1  0.48067374  0.83313133  0.83281900  1
  Co  Co19  1  0.48043371  0.83301722  0.33396557  1
  Co  Co20  1  0.48067374  0.33404967  0.83281900  1
  Co  Co21  1  0.51932626  0.16686867  0.16718100  1
  Co  Co22  1  0.51956629  0.16698278  0.66603443  1
  Co  Co23  1  0.51932626  0.66595033  0.16718100  1
  Co  Co24  1  0.97412809  0.16896961  0.16924192  1
  Co  Co25  1  0.97405213  0.16910416  0.66179169  1
  Co  Co26  1  0.97412809  0.66178848  0.16924192  1
  Co  Co27  1  0.02587191  0.83103039  0.83075808  1
  Co  Co28  1  0.02594787  0.83089584  0.33820831  1
  Co  Co29  1  0.02587191  0.33821152  0.83075808  1
  Co  Co30  1  0.50000000  0.50000000  0.50000000  1
  Co  Co31  1  0.50000000  0.50000000  0.00000000  1
  Co  Co32  1  0.50000000  0.00000000  0.50000000  1
  Co  Co33  1  0.00000000  0.50000000  0.50000000  1
  Co  Co34  1  0.00000000  0.50000000  0.00000000  1
  Co  Co35  1  0.00000000  0.00000000  0.50000000  1
  Co  Co36  1  0.60996715  0.66676566  0.66646867  1
  Co  Co37  1  0.39003285  0.33323434  0.33353133  1
