# generated using pymatgen
data_BaPr2Mn3O9
_symmetry_space_group_name_H-M   'P 1'
_cell_length_a   5.59979079
_cell_length_b   5.59979079
_cell_length_c   13.70097823
_cell_angle_alpha   89.32828334
_cell_angle_beta   90.67171666
_cell_angle_gamma   120.19336375
_symmetry_Int_Tables_number   1
_chemical_formula_structural   BaPr2Mn3O9
_chemical_formula_sum   'Ba2 Pr4 Mn6 O18'
_cell_volume   371.30994813
_cell_formula_units_Z   2
loop_
 _symmetry_equiv_pos_site_id
 _symmetry_equiv_pos_as_xyz
  1  'x, y, z'
loop_
 _atom_site_type_symbol
 _atom_site_label
 _atom_site_symmetry_multiplicity
 _atom_site_fract_x
 _atom_site_fract_y
 _atom_site_fract_z
 _atom_site_occupancy
  Ba  Ba0  1  0.16083727  0.83916273  0.58329864  1
  Ba  Ba1  1  0.17249673  0.82750327  0.08336736  1
  Pr  Pr2  1  0.84242531  0.15757469  0.90930881  1
  Pr  Pr3  1  0.50762333  0.49237667  0.25278974  1
  Pr  Pr4  1  0.82570967  0.17429033  0.41387726  1
  Pr  Pr5  1  0.49090769  0.50909231  0.75735819  1
  Mn  Mn6  1  0.16666700  0.83333300  0.33333300  1
  Mn  Mn7  1  0.83003766  0.16996234  0.66371605  1
  Mn  Mn8  1  0.50329534  0.49670466  0.00295095  1
  Mn  Mn9  1  0.16666700  0.83333300  0.83333300  1
  Mn  Mn10  1  0.83547404  0.16452596  0.16595218  1
  Mn  Mn11  1  0.49785896  0.50214104  0.50071482  1
  O  O12  1  0.84247486  0.63021001  0.41954279  1
  O  O13  1  0.52446321  0.97678306  0.76421020  1
  O  O14  1  0.19739405  0.32306122  0.09954528  1
  O  O15  1  0.65639422  0.86406105  0.56712172  1
  O  O16  1  0.31011706  0.19112921  0.90245580  1
  O  O17  1  0.96354301  0.50914186  0.24712421  1
  O  O18  1  0.36978999  0.15752514  0.41954279  1
  O  O19  1  0.02321694  0.47553679  0.76421020  1
  O  O20  1  0.67693878  0.80260595  0.09954528  1
  O  O21  1  0.13593895  0.34360578  0.56712172  1
  O  O22  1  0.80887079  0.68988294  0.90245580  1
  O  O23  1  0.49085814  0.03645699  0.24712421  1
  O  O24  1  0.97809715  0.02190285  0.27429791  1
  O  O25  1  0.63688785  0.36311215  0.60987832  1
  O  O26  1  0.32552475  0.67447525  0.92629215  1
  O  O27  1  0.00780925  0.99219075  0.74037385  1
  O  O28  1  0.69644515  0.30355485  0.05678868  1
  O  O29  1  0.35523585  0.64476415  0.39236909  1
