# generated using pymatgen
data_Ba3TiNb4O15
_symmetry_space_group_name_H-M   'P 1'
_cell_length_a   4.12425259
_cell_length_b   12.67461519
_cell_length_c   12.73975826
_cell_angle_alpha   90.00000000
_cell_angle_beta   90.00000000
_cell_angle_gamma   89.87014747
_symmetry_Int_Tables_number   1
_chemical_formula_structural   Ba3TiNb4O15
_chemical_formula_sum   'Ba6 Ti2 Nb8 O30'
_cell_volume   665.94768017
_cell_formula_units_Z   2
loop_
 _symmetry_equiv_pos_site_id
 _symmetry_equiv_pos_as_xyz
  1  'x, y, z'
loop_
 _atom_site_type_symbol
 _atom_site_label
 _atom_site_symmetry_multiplicity
 _atom_site_fract_x
 _atom_site_fract_y
 _atom_site_fract_z
 _atom_site_occupancy
  Ba  Ba0  1  0.03200909  0.49520648  0.49718998  1
  Ba  Ba1  1  0.03200909  0.99520648  0.00281002  1
  Ba  Ba2  1  0.04174551  0.83020178  0.32215706  1
  Ba  Ba3  1  0.05129469  0.17556524  0.66620684  1
  Ba  Ba4  1  0.05129469  0.67556524  0.83379316  1
  Ba  Ba5  1  0.04174551  0.33020178  0.17784294  1
  Ti  Ti6  1  0.50138956  0.28662205  0.41896367  1
  Ti  Ti7  1  0.50138956  0.78662205  0.08103633  1
  Nb  Nb8  1  0.51077259  0.71579104  0.57385671  1
  Nb  Nb9  1  0.51077259  0.21579104  0.92614329  1
  Nb  Nb10  1  0.51503217  0.42413568  0.70871219  1
  Nb  Nb11  1  0.51404004  0.57486596  0.28574626  1
  Nb  Nb12  1  0.51503217  0.92413568  0.79128781  1
  Nb  Nb13  1  0.51404004  0.07486596  0.21425374  1
  Nb  Nb14  1  0.60102183  0.00644547  0.50116188  1
  Nb  Nb15  1  0.60102183  0.50644547  0.99883812  1
  O  O16  1  0.07409478  0.29352811  0.42042493  1
  O  O17  1  0.05667330  0.70545887  0.57799637  1
  O  O18  1  0.05667330  0.20545887  0.92200363  1
  O  O19  1  0.07409478  0.79352811  0.07957507  1
  O  O20  1  0.05678061  0.42165568  0.70848762  1
  O  O21  1  0.05593411  0.57785788  0.29362586  1
  O  O22  1  0.05678061  0.92165568  0.79151238  1
  O  O23  1  0.05593411  0.07785788  0.20637414  1
  O  O24  1  0.05201289  0.00066006  0.49893264  1
  O  O25  1  0.05201289  0.50066006  0.00106736  1
  O  O26  1  0.54821641  0.49116783  0.15680420  1
  O  O27  1  0.54899258  0.50745642  0.84482646  1
  O  O28  1  0.54899258  0.00745642  0.65517354  1
  O  O29  1  0.54821641  0.99116783  0.34319580  1
  O  O30  1  0.55236206  0.15807758  0.50382846  1
  O  O31  1  0.54935730  0.84360739  0.49302671  1
  O  O32  1  0.55236206  0.65807758  0.99617154  1
  O  O33  1  0.54935730  0.34360739  0.00697329  1
  O  O34  1  0.55662145  0.43070696  0.35940263  1
  O  O35  1  0.55765672  0.56690505  0.64075686  1
  O  O36  1  0.55765672  0.06690505  0.85924314  1
  O  O37  1  0.55662145  0.93070696  0.14059737  1
  O  O38  1  0.55442010  0.35754173  0.57097760  1
  O  O39  1  0.55654484  0.63868983  0.43259565  1
  O  O40  1  0.55442010  0.85754173  0.92902240  1
  O  O41  1  0.55654484  0.13868983  0.06740435  1
  O  O42  1  0.55420479  0.71703959  0.21894173  1
  O  O43  1  0.55982256  0.28081333  0.78316995  1
  O  O44  1  0.55982256  0.78081333  0.71683005  1
  O  O45  1  0.55420479  0.21703959  0.28105827  1
