# generated using pymatgen
data_Ca3Fe7(SiO4)6
_symmetry_space_group_name_H-M   'P 1'
_cell_length_a   10.42419750
_cell_length_b   10.42419750
_cell_length_c   10.42419750
_cell_angle_alpha   70.52877937
_cell_angle_beta   70.52877937
_cell_angle_gamma   109.47122063
_symmetry_Int_Tables_number   1
_chemical_formula_structural   Ca3Fe7(SiO4)6
_chemical_formula_sum   'Ca6 Fe14 Si12 O48'
_cell_volume   871.97895172
_cell_formula_units_Z   2
loop_
 _symmetry_equiv_pos_site_id
 _symmetry_equiv_pos_as_xyz
  1  'x, y, z'
loop_
 _atom_site_type_symbol
 _atom_site_label
 _atom_site_symmetry_multiplicity
 _atom_site_fract_x
 _atom_site_fract_y
 _atom_site_fract_z
 _atom_site_occupancy
  Ca  Ca0  1  0.37500000  0.62500000  0.25000000  1
  Ca  Ca1  1  0.12500000  0.87500000  0.75000000  1
  Ca  Ca2  1  0.37500000  0.75000000  0.87500000  1
  Ca  Ca3  1  0.12500000  0.25000000  0.62500000  1
  Ca  Ca4  1  0.25000000  0.62500000  0.62500000  1
  Ca  Ca5  1  0.75000000  0.87500000  0.87500000  1
  Fe  Fe6  1  0.50000000  0.00513520  -0.00000000  1
  Fe  Fe7  1  0.50513520  0.50000000  0.50000000  1
  Fe  Fe8  1  0.99486480  0.49486480  0.00513520  1
  Fe  Fe9  1  0.00000000  -0.00000000  0.49486480  1
  Fe  Fe10  1  0.50000000  0.49486480  -0.00000000  1
  Fe  Fe11  1  0.50513520  0.00513520  0.49486480  1
  Fe  Fe12  1  0.99486480  0.50000000  0.50000000  1
  Fe  Fe13  1  -0.00000000  -0.00000000  0.00513520  1
  Fe  Fe14  1  0.62500000  0.37500000  0.75000000  1
  Fe  Fe15  1  0.87500000  0.12500000  0.25000000  1
  Fe  Fe16  1  0.62500000  0.25000000  0.12500000  1
  Fe  Fe17  1  0.87500000  0.75000000  0.37500000  1
  Fe  Fe18  1  0.75000000  0.37500000  0.37500000  1
  Fe  Fe19  1  0.25000000  0.12500000  0.12500000  1
  Si  Si20  1  0.12185924  0.37185924  0.25000000  1
  Si  Si21  1  0.37814076  0.12814076  0.75000000  1
  Si  Si22  1  0.62814076  0.75000000  0.62185924  1
  Si  Si23  1  0.87185924  0.25000000  0.87814076  1
  Si  Si24  1  0.25000000  0.87814076  0.37185924  1
  Si  Si25  1  0.75000000  0.62185924  0.12814076  1
  Si  Si26  1  0.87185924  0.62185924  0.75000000  1
  Si  Si27  1  0.62814076  0.87814076  0.25000000  1
  Si  Si28  1  0.37814076  0.25000000  0.37185924  1
  Si  Si29  1  0.12185924  0.75000000  0.12814076  1
  Si  Si30  1  0.75000000  0.12814076  0.62185924  1
  Si  Si31  1  0.25000000  0.37185924  0.87814076  1
  O  O32  1  0.51900642  0.30853984  0.60601701  1
  O  O33  1  0.41455685  0.12502343  0.89398299  1
  O  O34  1  0.08544315  0.19146016  0.28953342  1
  O  O35  1  0.98099358  0.37497657  0.21046658  1
  O  O36  1  0.69146016  0.21046658  0.91455685  1
  O  O37  1  0.87497657  0.28953342  0.01900642  1
  O  O38  1  0.80853984  0.89398299  0.48099358  1
  O  O39  1  0.62502343  0.60601701  0.58544315  1
  O  O40  1  0.78953342  0.48099358  0.12502343  1
  O  O41  1  0.71046658  0.58544315  0.30853984  1
  O  O42  1  0.10601701  0.91455685  0.37497657  1
  O  O43  1  0.39398299  0.01900642  0.19146016  1
  O  O44  1  0.49242825  0.69589070  0.39380658  1
  O  O45  1  0.58969728  0.88623483  0.10619342  1
  O  O46  1  0.91030272  0.80410930  0.70346245  1
  O  O47  1  0.00757175  0.61376517  0.79653755  1
  O  O48  1  0.30410930  0.79653755  0.08969728  1
  O  O49  1  0.11376517  0.70346245  0.99242825  1
  O  O50  1  0.19589070  0.10619342  0.50757175  1
  O  O51  1  0.38623483  0.39380658  0.41030272  1
  O  O52  1  0.20346245  0.50757175  0.88623483  1
  O  O53  1  0.29653755  0.41030272  0.69589070  1
  O  O54  1  0.89380658  0.08969728  0.61376517  1
  O  O55  1  0.60619342  0.99242825  0.80410930  1
  O  O56  1  0.49242825  0.79653755  0.61376517  1
  O  O57  1  0.58969728  0.70346245  0.80410930  1
  O  O58  1  0.91030272  0.10619342  0.88623483  1
  O  O59  1  0.00757175  0.39380658  0.69589070  1
  O  O60  1  0.30410930  0.50757175  0.10619342  1
  O  O61  1  0.11376517  0.41030272  0.39380658  1
  O  O62  1  0.19589070  0.08969728  0.79653755  1
  O  O63  1  0.38623483  0.99242825  0.70346245  1
  O  O64  1  0.20346245  0.69589070  0.41030272  1
  O  O65  1  0.29653755  0.88623483  0.50757175  1
  O  O66  1  0.89380658  0.80410930  0.99242825  1
  O  O67  1  0.60619342  0.61376517  0.08969728  1
  O  O68  1  0.51900642  0.21046658  0.37497657  1
  O  O69  1  0.41455685  0.28953342  0.19146016  1
  O  O70  1  0.08544315  0.89398299  0.12502343  1
  O  O71  1  0.98099358  0.60601701  0.30853984  1
  O  O72  1  0.69146016  0.48099358  0.89398299  1
  O  O73  1  0.87497657  0.58544315  0.60601701  1
  O  O74  1  0.80853984  0.91455685  0.21046658  1
  O  O75  1  0.62502343  0.01900642  0.28953342  1
  O  O76  1  0.78953342  0.30853984  0.58544315  1
  O  O77  1  0.71046658  0.12502343  0.48099358  1
  O  O78  1  0.10601701  0.19146016  0.01900642  1
  O  O79  1  0.39398299  0.37497657  0.91455685  1
