# generated using pymatgen
data_BaSr(FeO2)4
_symmetry_space_group_name_H-M   'P 1'
_cell_length_a   5.48345373
_cell_length_b   8.30368669
_cell_length_c   10.46439619
_cell_angle_alpha   66.62427958
_cell_angle_beta   90.00000000
_cell_angle_gamma   90.00000000
_symmetry_Int_Tables_number   1
_chemical_formula_structural   BaSr(FeO2)4
_chemical_formula_sum   'Ba2 Sr2 Fe8 O16'
_cell_volume   437.36647110
_cell_formula_units_Z   2
loop_
 _symmetry_equiv_pos_site_id
 _symmetry_equiv_pos_as_xyz
  1  'x, y, z'
loop_
 _atom_site_type_symbol
 _atom_site_label
 _atom_site_symmetry_multiplicity
 _atom_site_fract_x
 _atom_site_fract_y
 _atom_site_fract_z
 _atom_site_occupancy
  Ba  Ba0  1  0.71980601  0.61735802  0.76528396  1
  Ba  Ba1  1  0.21980601  0.38264198  0.23471604  1
  Sr  Sr2  1  0.75028086  0.12848828  0.74302343  1
  Sr  Sr3  1  0.25028086  0.87151172  0.25697657  1
  Fe  Fe4  1  0.24812347  0.49543336  0.57966187  1
  Fe  Fe5  1  0.24812347  0.92490477  0.57966187  1
  Fe  Fe6  1  0.74812347  0.50456664  0.42033813  1
  Fe  Fe7  1  0.74812347  0.07509523  0.42033813  1
  Fe  Fe8  1  0.23528771  0.31387528  0.91235686  1
  Fe  Fe9  1  0.23528771  0.77376786  0.91235686  1
  Fe  Fe10  1  0.73528771  0.68612472  0.08764314  1
  Fe  Fe11  1  0.73528771  0.22623214  0.08764314  1
  O  O12  1  0.90110091  0.48421086  0.59127156  1
  O  O13  1  0.90110091  0.92451758  0.59127156  1
  O  O14  1  0.40110091  0.51578914  0.40872844  1
  O  O15  1  0.40110091  0.07548242  0.40872844  1
  O  O16  1  0.39147921  0.32594604  0.74569444  1
  O  O17  1  0.39147921  0.92835952  0.74569444  1
  O  O18  1  0.89147921  0.67405396  0.25430556  1
  O  O19  1  0.89147921  0.07164048  0.25430556  1
  O  O20  1  0.84938280  0.28361115  0.43277769  1
  O  O21  1  0.34938280  0.71638885  0.56722231  1
  O  O22  1  0.90269015  0.24411900  0.92227638  1
  O  O23  1  0.90269015  0.83360461  0.92227638  1
  O  O24  1  0.40269015  0.75588100  0.07772362  1
  O  O25  1  0.40269015  0.16639539  0.07772362  1
  O  O26  1  0.73816745  0.45370527  0.09258946  1
  O  O27  1  0.23816745  0.54629473  0.90741054  1
