# generated using pymatgen
data_Ba2Sr2CaTi5O15
_symmetry_space_group_name_H-M   'P 1'
_cell_length_a   3.97088634
_cell_length_b   8.88774403
_cell_length_c   8.87995547
_cell_angle_alpha   90.02265779
_cell_angle_beta   90.00000000
_cell_angle_gamma   90.00000000
_symmetry_Int_Tables_number   1
_chemical_formula_structural   Ba2Sr2CaTi5O15
_chemical_formula_sum   'Ba2 Sr2 Ca1 Ti5 O15'
_cell_volume   313.39332948
_cell_formula_units_Z   1
loop_
 _symmetry_equiv_pos_site_id
 _symmetry_equiv_pos_as_xyz
  1  'x, y, z'
loop_
 _atom_site_type_symbol
 _atom_site_label
 _atom_site_symmetry_multiplicity
 _atom_site_fract_x
 _atom_site_fract_y
 _atom_site_fract_z
 _atom_site_occupancy
  Ba  Ba0  1  0.50000000  0.70009562  0.09872304  1
  Ba  Ba1  1  0.50000000  0.10024094  0.30080148  1
  Sr  Sr2  1  0.50000000  0.49938316  0.50079726  1
  Sr  Sr3  1  0.50000000  0.90022543  0.70020203  1
  Ca  Ca4  1  0.50000000  0.29987054  0.89964886  1
  Ti  Ti5  1  0.00000000  0.20229031  0.60495801  1
  Ti  Ti6  1  0.00000000  0.59665767  0.79761525  1
  Ti  Ti7  1  0.00000000  0.00368518  0.99461902  1
  Ti  Ti8  1  0.00000000  0.39932192  0.19817129  1
  Ti  Ti9  1  -0.00000000  0.79808339  0.40465332  1
  O  O10  1  0.00000000  0.39865061  0.70263397  1
  O  O11  1  0.00000000  0.80287886  0.89298276  1
  O  O12  1  0.00000000  0.20412304  0.09202508  1
  O  O13  1  0.00000000  0.59716144  0.30439080  1
  O  O14  1  0.00000000  0.99734957  0.50771451  1
  O  O15  1  -0.00000000  0.30402454  0.40306309  1
  O  O16  1  0.00000000  0.69731080  0.60034228  1
  O  O17  1  0.00000000  0.10438899  0.80104824  1
  O  O18  1  0.00000000  0.49335273  0.99552674  1
  O  O19  1  -0.00000000  0.90068513  0.19991357  1
  O  O20  1  0.50000000  0.20315067  0.60910386  1
  O  O21  1  0.50000000  0.59480759  0.79533839  1
  O  O22  1  0.50000000  0.00708040  0.99130539  1
  O  O23  1  0.50000000  0.39895378  0.19684005  1
  O  O24  1  0.50000000  0.79622770  0.40758170  1
