# generated using pymatgen
data_Ba6Pr2Y(CuO2)12
_symmetry_space_group_name_H-M   'P 1'
_cell_length_a   5.53221144
_cell_length_b   13.93953051
_cell_length_c   8.74956587
_cell_angle_alpha   93.54453288
_cell_angle_beta   108.83560466
_cell_angle_gamma   95.63049826
_symmetry_Int_Tables_number   1
_chemical_formula_structural   Ba6Pr2Y(CuO2)12
_chemical_formula_sum   'Ba6 Pr2 Y1 Cu12 O24'
_cell_volume   632.38224150
_cell_formula_units_Z   1
loop_
 _symmetry_equiv_pos_site_id
 _symmetry_equiv_pos_as_xyz
  1  'x, y, z'
loop_
 _atom_site_type_symbol
 _atom_site_label
 _atom_site_symmetry_multiplicity
 _atom_site_fract_x
 _atom_site_fract_y
 _atom_site_fract_z
 _atom_site_occupancy
  Ba  Ba0  1  0.74289479  0.72845279  0.62148185  1
  Ba  Ba1  1  0.07576526  0.72695529  0.28773991  1
  Ba  Ba2  1  0.40897637  0.72701356  0.95465460  1
  Ba  Ba3  1  0.25769063  0.27298644  0.37867840  1
  Ba  Ba4  1  0.59090074  0.27304471  0.04559409  1
  Ba  Ba5  1  0.92377221  0.27154721  0.71185115  1
  Pr  Pr6  1  0.49928198  0.99999816  0.99836167  1
  Pr  Pr7  1  0.16738502  0.00000184  0.33497133  1
  Y  Y8  1  0.83333300  -0.00000000  0.66666700  1
  Cu  Cu9  1  0.47485723  0.42431600  0.73749457  1
  Cu  Cu10  1  0.80838518  0.42435219  0.40419707  1
  Cu  Cu11  1  0.14131390  0.42440771  0.07059670  1
  Cu  Cu12  1  0.19180977  0.57568400  0.59583843  1
  Cu  Cu13  1  0.52535310  0.57559229  0.26273630  1
  Cu  Cu14  1  0.85828082  0.57564781  0.92913693  1
  Cu  Cu15  1  0.37570586  0.12702812  0.68798829  1
  Cu  Cu16  1  0.70980938  0.12770520  0.35601923  1
  Cu  Cu17  1  0.04157245  0.12751459  0.01944371  1
  Cu  Cu18  1  0.29096114  0.87297188  0.64534471  1
  Cu  Cu19  1  0.62509355  0.87248541  0.31389029  1
  Cu  Cu20  1  0.95685762  0.87229480  0.97731377  1
  O  O21  1  0.52070934  0.56219060  0.76058444  1
  O  O22  1  0.85432492  0.56212587  0.42692014  1
  O  O23  1  0.18710564  0.56236743  0.09355435  1
  O  O24  1  0.14595766  0.43780940  0.57274856  1
  O  O25  1  0.47956136  0.43763257  0.23977865  1
  O  O26  1  0.81234108  0.43787413  0.90641386  1
  O  O27  1  0.43082157  0.29038060  0.71540659  1
  O  O28  1  0.76409135  0.29050251  0.38187739  1
  O  O29  1  0.09748224  0.29054538  0.04883169  1
  O  O30  1  0.23584543  0.70961940  0.61792641  1
  O  O31  1  0.56918376  0.70945462  0.28450231  1
  O  O32  1  0.90257565  0.70949749  0.95145561  1
  O  O33  1  0.63505560  0.89303686  0.81115216  1
  O  O34  1  0.96072113  0.89307893  0.48658926  1
  O  O35  1  0.29652476  0.88911830  0.14823845  1
  O  O36  1  0.03161140  0.10696314  0.52218084  1
  O  O37  1  0.37014224  0.11088170  0.18509455  1
  O  O38  1  0.70594487  0.10692107  0.84674474  1
  O  O39  1  0.54337926  0.10916184  0.52200366  1
  O  O40  1  0.87099732  0.11312506  0.18542281  1
  O  O41  1  0.19607881  0.10923197  0.84770224  1
  O  O42  1  0.47058819  0.89076803  0.48563076  1
  O  O43  1  0.79566868  0.88687494  0.14791119  1
  O  O44  1  0.12328774  0.89083816  0.81132934  1
