# generated using pymatgen
data_Ba4Nd4Ti3Mn(Cu2O11)2
_symmetry_space_group_name_H-M   'P 1'
_cell_length_a   5.55719326
_cell_length_b   5.55719326
_cell_length_c   15.97814684
_cell_angle_alpha   90.00000000
_cell_angle_beta   90.00000000
_cell_angle_gamma   90.00000000
_symmetry_Int_Tables_number   1
_chemical_formula_structural   Ba4Nd4Ti3Mn(Cu2O11)2
_chemical_formula_sum   'Ba4 Nd4 Ti3 Mn1 Cu4 O22'
_cell_volume   493.44347328
_cell_formula_units_Z   1
loop_
 _symmetry_equiv_pos_site_id
 _symmetry_equiv_pos_as_xyz
  1  'x, y, z'
loop_
 _atom_site_type_symbol
 _atom_site_label
 _atom_site_symmetry_multiplicity
 _atom_site_fract_x
 _atom_site_fract_y
 _atom_site_fract_z
 _atom_site_occupancy
  Ba  Ba0  1  0.50000000  0.00000000  0.76408374  1
  Ba  Ba1  1  0.00000000  0.50000000  0.76408374  1
  Ba  Ba2  1  0.50000000  0.00000000  0.23360414  1
  Ba  Ba3  1  0.00000000  0.50000000  0.23360414  1
  Nd  Nd4  1  0.50000000  0.00000000  0.99953794  1
  Nd  Nd5  1  0.00000000  0.50000000  0.99953794  1
  Nd  Nd6  1  0.50000000  0.00000000  0.50157717  1
  Nd  Nd7  1  0.00000000  0.50000000  0.50157717  1
  Ti  Ti8  1  0.50000000  0.50000000  0.62605809  1
  Ti  Ti9  1  0.00000000  0.00000000  0.37480417  1
  Ti  Ti10  1  0.50000000  0.50000000  0.37453737  1
  Mn  Mn11  1  0.00000000  0.00000000  0.62314268  1
  Cu  Cu12  1  0.00000000  0.00000000  0.89070845  1
  Cu  Cu13  1  0.50000000  0.50000000  0.89207124  1
  Cu  Cu14  1  0.00000000  0.00000000  0.10742823  1
  Cu  Cu15  1  0.50000000  0.50000000  0.10764907  1
  O  O16  1  0.24996624  0.24996624  0.90389814  1
  O  O17  1  0.75003376  0.75003376  0.90389814  1
  O  O18  1  0.24996624  0.75003376  0.90389814  1
  O  O19  1  0.75003376  0.24996624  0.90389814  1
  O  O20  1  0.24988598  0.24988598  0.09635326  1
  O  O21  1  0.75011402  0.75011402  0.09635326  1
  O  O22  1  0.24988598  0.75011402  0.09635326  1
  O  O23  1  0.75011402  0.24988598  0.09635326  1
  O  O24  1  0.00000000  0.00000000  0.74035238  1
  O  O25  1  0.50000000  0.50000000  0.74165419  1
  O  O26  1  0.00000000  0.00000000  0.25910038  1
  O  O27  1  0.50000000  0.50000000  0.25829458  1
  O  O28  1  0.24735786  0.24735786  0.61228814  1
  O  O29  1  0.75264214  0.75264214  0.61228814  1
  O  O30  1  0.24735786  0.75264214  0.61228814  1
  O  O31  1  0.75264214  0.24735786  0.61228814  1
  O  O32  1  0.25004435  0.25004435  0.38822989  1
  O  O33  1  0.74995565  0.74995565  0.38822989  1
  O  O34  1  0.25004435  0.74995565  0.38822989  1
  O  O35  1  0.74995565  0.25004435  0.38822989  1
  O  O36  1  0.00000000  0.00000000  0.50213841  1
  O  O37  1  0.50000000  0.50000000  0.50137700  1
