# generated using pymatgen
data_Al3FeSi2
_symmetry_space_group_name_H-M   'P 1'
_cell_length_a   6.04179029
_cell_length_b   6.04179029
_cell_length_c   6.40911754
_cell_angle_alpha   61.87847074
_cell_angle_beta   61.87847074
_cell_angle_gamma   90.00000000
_symmetry_Int_Tables_number   1
_chemical_formula_structural   Al3FeSi2
_chemical_formula_sum   'Al6 Fe2 Si4'
_cell_volume   174.39674779
_cell_formula_units_Z   2
loop_
 _symmetry_equiv_pos_site_id
 _symmetry_equiv_pos_as_xyz
  1  'x, y, z'
loop_
 _atom_site_type_symbol
 _atom_site_label
 _atom_site_symmetry_multiplicity
 _atom_site_fract_x
 _atom_site_fract_y
 _atom_site_fract_z
 _atom_site_occupancy
  Al  Al0  1  0.50179994  0.50179994  0.99640013  1
  Al  Al1  1  0.00179994  0.00179994  0.99640013  1
  Al  Al2  1  0.69491029  0.51551181  0.28957790  1
  Al  Al3  1  0.01551181  0.19491029  0.28957790  1
  Al  Al4  1  0.51551181  0.01551181  0.28957790  1
  Al  Al5  1  0.19491029  0.69491029  0.28957790  1
  Fe  Fe6  1  0.24485148  0.24485148  0.51029703  1
  Fe  Fe7  1  0.74485148  0.74485148  0.51029703  1
  Si  Si8  1  0.29394979  0.49897669  0.70707352  1
  Si  Si9  1  0.99897669  0.79394979  0.70707352  1
  Si  Si10  1  0.49897669  0.99897669  0.70707352  1
  Si  Si11  1  0.79394979  0.29394979  0.70707352  1
