# generated using pymatgen
data_Ba4YCu(WO6)2
_symmetry_space_group_name_H-M   'P 1'
_cell_length_a   5.96643623
_cell_length_b   8.48870603
_cell_length_c   5.96643623
_cell_angle_alpha   90.00000000
_cell_angle_beta   90.00000000
_cell_angle_gamma   90.00000000
_symmetry_Int_Tables_number   1
_chemical_formula_structural   Ba4YCu(WO6)2
_chemical_formula_sum   'Ba4 Y1 Cu1 W2 O12'
_cell_volume   302.18402443
_cell_formula_units_Z   1
loop_
 _symmetry_equiv_pos_site_id
 _symmetry_equiv_pos_as_xyz
  1  'x, y, z'
loop_
 _atom_site_type_symbol
 _atom_site_label
 _atom_site_symmetry_multiplicity
 _atom_site_fract_x
 _atom_site_fract_y
 _atom_site_fract_z
 _atom_site_occupancy
  Ba  Ba0  1  0.50000000  0.26613462  -0.00000000  1
  Ba  Ba1  1  0.00000000  0.73386538  0.50000000  1
  Ba  Ba2  1  0.50000000  0.73386538  0.00000000  1
  Ba  Ba3  1  -0.00000000  0.26613462  0.50000000  1
  Y  Y4  1  0.50000000  0.00000000  0.50000000  1
  Cu  Cu5  1  0.00000000  0.50000000  0.00000000  1
  W  W6  1  -0.00000000  0.00000000  0.00000000  1
  W  W7  1  0.50000000  0.50000000  0.50000000  1
  O  O8  1  0.00000000  0.22812312  0.00000000  1
  O  O9  1  0.50000000  0.73513259  0.50000000  1
  O  O10  1  0.26918103  0.50000000  0.26918103  1
  O  O11  1  0.76566116  0.00000000  0.76566116  1
  O  O12  1  0.26918103  0.50000000  0.73081897  1
  O  O13  1  0.76566116  0.00000000  0.23433884  1
  O  O14  1  -0.00000000  0.77187688  -0.00000000  1
  O  O15  1  0.50000000  0.26486741  0.50000000  1
  O  O16  1  0.73081897  0.50000000  0.73081897  1
  O  O17  1  0.23433884  -0.00000000  0.23433884  1
  O  O18  1  0.73081897  0.50000000  0.26918103  1
  O  O19  1  0.23433884  -0.00000000  0.76566116  1
