# generated using pymatgen
data_AsSClOF8
_symmetry_space_group_name_H-M   'P 1'
_cell_length_a   8.62469827
_cell_length_b   9.34304815
_cell_length_c   10.04766061
_cell_angle_alpha   90.00000000
_cell_angle_beta   95.37197562
_cell_angle_gamma   90.00000000
_symmetry_Int_Tables_number   1
_chemical_formula_structural   AsSClOF8
_chemical_formula_sum   'As4 S4 Cl4 O4 F32'
_cell_volume   806.09416580
_cell_formula_units_Z   4
loop_
 _symmetry_equiv_pos_site_id
 _symmetry_equiv_pos_as_xyz
  1  'x, y, z'
loop_
 _atom_site_type_symbol
 _atom_site_label
 _atom_site_symmetry_multiplicity
 _atom_site_fract_x
 _atom_site_fract_y
 _atom_site_fract_z
 _atom_site_occupancy
  As  As0  1  0.25358844  0.68607204  0.05802773  1
  As  As1  1  0.75379489  0.81207097  0.55842496  1
  As  As2  1  0.74620511  0.31207097  0.94157504  1
  As  As3  1  0.24641156  0.18607204  0.44197227  1
  S  S4  1  0.24608609  0.17709454  0.88004809  1
  S  S5  1  0.75605106  0.34766896  0.38707454  1
  S  S6  1  0.74394894  0.84766896  0.11292546  1
  S  S7  1  0.25391391  0.67709454  0.61995191  1
  Cl  Cl8  1  0.21669658  0.19821184  0.06545537  1
  Cl  Cl9  1  0.71334284  0.29480525  0.56407780  1
  Cl  Cl10  1  0.78665716  0.79480525  0.93592220  1
  Cl  Cl11  1  0.28330342  0.69821184  0.43454463  1
  O  O12  1  0.27585517  0.30055244  0.80775809  1
  O  O13  1  0.22414483  0.80055244  0.69224191  1
  O  O14  1  0.87838628  0.44233432  0.37008627  1
  O  O15  1  0.62161372  0.94233432  0.12991373  1
  F  F16  1  0.08540238  0.64850943  0.14060563  1
  F  F17  1  0.58477607  0.84872255  0.64025964  1
  F  F18  1  0.91522393  0.34872255  0.85974036  1
  F  F19  1  0.41459762  0.14850943  0.35939437  1
  F  F20  1  0.33520944  0.77861385  0.20544212  1
  F  F21  1  0.83510953  0.71809096  0.70528106  1
  F  F22  1  0.66489047  0.21809096  0.79471894  1
  F  F23  1  0.16479056  0.27861385  0.29455788  1
  F  F24  1  0.16604636  0.84951926  0.99808701  1
  F  F25  1  0.66537686  0.64903981  0.49698634  1
  F  F26  1  0.83462314  0.14903981  0.00301366  1
  F  F27  1  0.33395364  0.34951926  0.50191299  1
  F  F28  1  0.34332263  0.52713650  0.12135066  1
  F  F29  1  0.84229315  0.97109929  0.62226373  1
  F  F30  1  0.65770685  0.47109929  0.87773627  1
  F  F31  1  0.15667737  0.02713650  0.37864934  1
  F  F32  1  0.42243803  0.73067954  0.97784177  1
  F  F33  1  0.92268346  0.76702580  0.47879112  1
  F  F34  1  0.57731654  0.26702580  0.02120888  1
  F  F35  1  0.07756197  0.23067954  0.52215823  1
  F  F36  1  0.17391354  0.59596151  0.91285536  1
  F  F37  1  0.67560850  0.90240153  0.41290261  1
  F  F38  1  0.82439150  0.40240153  0.08709739  1
  F  F39  1  0.32608646  0.09596151  0.58714464  1
  F  F40  1  0.76910150  0.20427535  0.31398746  1
  F  F41  1  0.73089850  0.70427535  0.18601254  1
  F  F42  1  0.10514834  0.09165574  0.81853091  1
  F  F43  1  0.60002914  0.39832086  0.31630811  1
  F  F44  1  0.89997086  0.89832086  0.18369189  1
  F  F45  1  0.39485166  0.59165574  0.68146909  1
  F  F46  1  0.37011390  0.06013763  0.87355312  1
  F  F47  1  0.12988610  0.56013763  0.62644688  1
