# generated using pymatgen
data_B8O
_symmetry_space_group_name_H-M   'P 1'
_cell_length_a   5.13789690
_cell_length_b   7.36966101
_cell_length_c   5.31274361
_cell_angle_alpha   89.99999784
_cell_angle_beta   90.00000429
_cell_angle_gamma   92.42293987
_symmetry_Int_Tables_number   1
_chemical_formula_structural   B8O
_chemical_formula_sum   'B24 O3'
_cell_volume   200.98484665
_cell_formula_units_Z   3
loop_
 _symmetry_equiv_pos_site_id
 _symmetry_equiv_pos_as_xyz
  1  'x, y, z'
loop_
 _atom_site_type_symbol
 _atom_site_label
 _atom_site_symmetry_multiplicity
 _atom_site_fract_x
 _atom_site_fract_y
 _atom_site_fract_z
 _atom_site_occupancy
  B  B0  1  0.87849664  0.19965027  0.00000000  1
  B  B1  1  0.37488051  0.70274950  0.50000000  1
  B  B2  1  0.63374438  0.44167705  0.23504102  1
  B  B3  1  0.14516385  0.93466296  0.73956965  1
  B  B4  1  0.63374438  0.44167705  0.76495898  1
  B  B5  1  0.14516385  0.93466296  0.26043035  1
  B  B6  1  0.14582037  0.78129776  1.00000000  1
  B  B7  1  0.61753311  0.30060659  0.50000000  1
  B  B8  1  0.35202768  0.57282373  0.78154480  1
  B  B9  1  0.86246243  0.05868767  0.26240252  1
  B  B10  1  0.35202768  0.57282373  0.21845520  1
  B  B11  1  0.86246243  0.05868767  0.73759748  1
  B  B12  1  0.34150596  0.99606735  1.00000000  1
  B  B13  1  0.82809066  0.50289825  0.50000000  1
  B  B14  1  0.17053444  0.16567441  0.16647911  1
  B  B15  1  0.66333634  0.66967120  0.66888319  1
  B  B16  1  0.17053444  0.16567441  0.83352089  1
  B  B17  1  0.66333634  0.66967120  0.33111681  1
  B  B18  1  0.67098921  0.99492389  0.00000000  1
  B  B19  1  0.15760201  0.50503882  0.50000000  1
  B  B20  1  0.84024781  0.82658839  0.83470588  1
  B  B21  1  0.32411572  0.33768001  0.32998781  1
  B  B22  1  0.84024781  0.82658839  0.16529412  1
  B  B23  1  0.32411572  0.33768001  0.67001219  1
  O  O24  1  0.74107745  0.12005824  0.50000000  1
  O  O25  1  0.75707741  0.37929291  1.00000000  1
  O  O26  1  0.25966135  0.88048558  0.50000000  1
