# generated using pymatgen
data_Ba2EuTa3Ti2O15
_symmetry_space_group_name_H-M   'P 1'
_cell_length_a   3.95444085
_cell_length_b   12.48884085
_cell_length_c   12.56509918
_cell_angle_alpha   90.00000000
_cell_angle_beta   90.00000000
_cell_angle_gamma   90.00000000
_symmetry_Int_Tables_number   1
_chemical_formula_structural   Ba2EuTa3Ti2O15
_chemical_formula_sum   'Ba4 Eu2 Ta6 Ti4 O30'
_cell_volume   620.54479333
_cell_formula_units_Z   2
loop_
 _symmetry_equiv_pos_site_id
 _symmetry_equiv_pos_as_xyz
  1  'x, y, z'
loop_
 _atom_site_type_symbol
 _atom_site_label
 _atom_site_symmetry_multiplicity
 _atom_site_fract_x
 _atom_site_fract_y
 _atom_site_fract_z
 _atom_site_occupancy
  Ba  Ba0  1  -0.00000000  0.17287621  0.67235220  1
  Ba  Ba1  1  -0.00000000  0.82712379  0.32764780  1
  Ba  Ba2  1  0.00000000  0.32712379  0.17235220  1
  Ba  Ba3  1  0.00000000  0.67287621  0.82764780  1
  Eu  Eu4  1  -0.00000000  0.50000000  0.50000000  1
  Eu  Eu5  1  0.00000000  -0.00000000  0.00000000  1
  Ta  Ta6  1  0.50000000  0.57616172  0.28972092  1
  Ta  Ta7  1  0.50000000  0.42383828  0.71027908  1
  Ta  Ta8  1  0.50000000  0.07616172  0.21027908  1
  Ta  Ta9  1  0.50000000  0.92383828  0.78972092  1
  Ta  Ta10  1  0.50000000  -0.00000000  0.50000000  1
  Ta  Ta11  1  0.50000000  0.50000000  0.00000000  1
  Ti  Ti12  1  0.50000000  0.71230705  0.57453789  1
  Ti  Ti13  1  0.50000000  0.28769295  0.42546211  1
  Ti  Ti14  1  0.50000000  0.78769295  0.07453789  1
  Ti  Ti15  1  0.50000000  0.21230705  0.92546211  1
  O  O16  1  0.50000000  0.50795333  0.84223787  1
  O  O17  1  0.50000000  0.49204667  0.15776213  1
  O  O18  1  0.50000000  0.99204667  0.34223787  1
  O  O19  1  0.50000000  0.00795333  0.65776213  1
  O  O20  1  0.50000000  0.84172136  0.49505017  1
  O  O21  1  0.50000000  0.15827864  0.50494983  1
  O  O22  1  0.50000000  0.34172136  0.00494983  1
  O  O23  1  0.50000000  0.65827864  0.99505017  1
  O  O24  1  0.50000000  0.56499109  0.63501672  1
  O  O25  1  0.50000000  0.43500891  0.36498328  1
  O  O26  1  0.50000000  0.93500891  0.13501672  1
  O  O27  1  0.50000000  0.06499109  0.86498328  1
  O  O28  1  0.50000000  0.63614714  0.43500147  1
  O  O29  1  0.50000000  0.36385286  0.56499853  1
  O  O30  1  0.50000000  0.13614714  0.06499853  1
  O  O31  1  0.50000000  0.86385286  0.93500147  1
  O  O32  1  0.00000000  0.69387084  0.57469924  1
  O  O33  1  -0.00000000  0.30612916  0.42530076  1
  O  O34  1  -0.00000000  0.80612916  0.07469924  1
  O  O35  1  0.00000000  0.19387084  0.92530076  1
  O  O36  1  -0.00000000  0.57603796  0.30316238  1
  O  O37  1  0.00000000  0.42396204  0.69683762  1
  O  O38  1  -0.00000000  0.07603796  0.19683762  1
  O  O39  1  0.00000000  0.92396204  0.80316238  1
  O  O40  1  0.50000000  0.28328383  0.78285762  1
  O  O41  1  0.50000000  0.71671617  0.21714238  1
  O  O42  1  0.50000000  0.21671617  0.28285762  1
  O  O43  1  0.50000000  0.78328383  0.71714238  1
  O  O44  1  0.00000000  -0.00000000  0.50000000  1
  O  O45  1  0.00000000  0.50000000  0.00000000  1
