# generated using pymatgen
data_Ba10Er5Cu15O34
_symmetry_space_group_name_H-M   'P 1'
_cell_length_a   8.62276522
_cell_length_b   8.75698483
_cell_length_c   12.53240562
_cell_angle_alpha   106.37783238
_cell_angle_beta   98.23103781
_cell_angle_gamma   88.83387858
_symmetry_Int_Tables_number   1
_chemical_formula_structural   Ba10Er5Cu15O34
_chemical_formula_sum   'Ba10 Er5 Cu15 O34'
_cell_volume   898.36396277
_cell_formula_units_Z   1
loop_
 _symmetry_equiv_pos_site_id
 _symmetry_equiv_pos_as_xyz
  1  'x, y, z'
loop_
 _atom_site_type_symbol
 _atom_site_label
 _atom_site_symmetry_multiplicity
 _atom_site_fract_x
 _atom_site_fract_y
 _atom_site_fract_z
 _atom_site_occupancy
  Ba  Ba0  1  0.73634929  0.97255941  0.18168474  1
  Ba  Ba1  1  0.94497897  0.37244962  0.18897775  1
  Ba  Ba2  1  0.13552151  0.77305197  0.18167641  1
  Ba  Ba3  1  0.33689760  0.17211282  0.18143489  1
  Ba  Ba4  1  0.53072338  0.57878827  0.18893692  1
  Ba  Ba5  1  0.86927662  0.22121173  0.81106308  1
  Ba  Ba6  1  0.06310240  0.62788718  0.81856511  1
  Ba  Ba7  1  0.26447849  0.02694803  0.81832359  1
  Ba  Ba8  1  0.45502103  0.42755038  0.81102225  1
  Ba  Ba9  1  0.66365071  0.82744059  0.81831526  1
  Er  Er10  1  0.60050949  0.70063730  0.50130006  1
  Er  Er11  1  0.39967229  0.29941320  0.49874178  1
  Er  Er12  1  0.20000000  0.90000000  0.50000000  1
  Er  Er13  1  0.00032771  0.50058680  0.50125822  1
  Er  Er14  1  0.79949051  0.09936270  0.49869994  1
  Cu  Cu15  1  0.87178493  0.74345146  0.36028065  1
  Cu  Cu16  1  0.67252951  0.34486021  0.36009526  1
  Cu  Cu17  1  0.47144617  0.94432353  0.35873057  1
  Cu  Cu18  1  0.27190341  0.54390821  0.35936802  1
  Cu  Cu19  1  0.07174028  0.14242178  0.35863455  1
  Cu  Cu20  1  0.92855383  0.85567647  0.64126943  1
  Cu  Cu21  1  0.72747049  0.45513979  0.63990474  1
  Cu  Cu22  1  0.52821507  0.05654854  0.63971935  1
  Cu  Cu23  1  0.32825972  0.65757822  0.64136545  1
  Cu  Cu24  1  0.12809659  0.25609179  0.64063198  1
  Cu  Cu25  1  0.80603996  0.61230300  0.00027040  1
  Cu  Cu26  1  0.59396004  0.18769700  -0.00027040  1
  Cu  Cu27  1  0.39853236  0.79540846  0.00006864  1
  Cu  Cu28  1  0.20000000  0.40000000  -0.00000000  1
  Cu  Cu29  1  0.00146764  0.00459154  0.99993136  1
  O  O30  1  0.82235732  0.64659345  0.15154033  1
  O  O31  1  0.63852163  0.27489657  0.15208500  1
  O  O32  1  0.43027382  0.86277889  0.15914212  1
  O  O33  1  0.23186567  0.46368902  0.15915497  1
  O  O34  1  0.03335962  0.06426614  0.15915043  1
  O  O35  1  0.96972618  0.93722111  0.84085788  1
  O  O36  1  0.76147837  0.52510343  0.84791500  1
  O  O37  1  0.57764268  0.15340655  0.84845967  1
  O  O38  1  0.36664038  0.73573386  0.84084957  1
  O  O39  1  0.16813433  0.33631098  0.84084503  1
  O  O40  1  0.67623612  0.85307232  0.38231638  1
  O  O41  1  0.47677239  0.45290025  0.38237732  1
  O  O42  1  0.27656352  0.05322112  0.38278703  1
  O  O43  1  0.07653209  0.65289031  0.38241343  1
  O  O44  1  0.87633195  0.25293142  0.38237137  1
  O  O45  1  0.72376388  0.94692768  0.61768362  1
  O  O46  1  0.52366805  0.54706858  0.61762863  1
  O  O47  1  0.32346791  0.14710969  0.61758657  1
  O  O48  1  0.12343648  0.74677888  0.61721297  1
  O  O49  1  0.92322761  0.34709975  0.61762268  1
  O  O50  1  0.77645943  0.55277760  0.38249832  1
  O  O51  1  0.57645078  0.15275446  0.37931805  1
  O  O52  1  0.37642771  0.75218743  0.38079025  1
  O  O53  1  0.17570826  0.35240944  0.38060081  1
  O  O54  1  0.97554354  0.95121644  0.38000470  1
  O  O55  1  0.82354922  0.64724554  0.62068195  1
  O  O56  1  0.62354057  0.24722240  0.61750168  1
  O  O57  1  0.42445646  0.84878356  0.61999530  1
  O  O58  1  0.22429174  0.44759056  0.61939919  1
  O  O59  1  0.02357229  0.04781257  0.61920975  1
  O  O60  1  0.90523872  0.81155351  0.99998782  1
  O  O61  1  0.09934639  0.20683877  0.00014801  1
  O  O62  1  0.30065361  0.59316123  0.99985199  1
  O  O63  1  0.49476128  0.98844649  0.00001218  1
