# generated using pymatgen
data_Ba6Co6O16F
_symmetry_space_group_name_H-M   'P 1'
_cell_length_a   5.74741959
_cell_length_b   5.80583932
_cell_length_c   14.43698101
_cell_angle_alpha   90.00000000
_cell_angle_beta   90.00000000
_cell_angle_gamma   60.29523975
_symmetry_Int_Tables_number   1
_chemical_formula_structural   Ba6Co6O16F
_chemical_formula_sum   'Ba6 Co6 O16 F1'
_cell_volume   418.43624903
_cell_formula_units_Z   1
loop_
 _symmetry_equiv_pos_site_id
 _symmetry_equiv_pos_as_xyz
  1  'x, y, z'
loop_
 _atom_site_type_symbol
 _atom_site_label
 _atom_site_symmetry_multiplicity
 _atom_site_fract_x
 _atom_site_fract_y
 _atom_site_fract_z
 _atom_site_occupancy
  Ba  Ba0  1  0.99729551  0.00027301  0.50000000  1
  Ba  Ba1  1  0.68407646  0.63669891  -0.00000000  1
  Ba  Ba2  1  0.33710891  0.32477930  0.64708742  1
  Ba  Ba3  1  0.33710891  0.32477930  0.35291258  1
  Ba  Ba4  1  0.00134234  0.99893372  0.81221309  1
  Ba  Ba5  1  0.00134234  0.99893372  0.18778691  1
  Co  Co6  1  0.67282298  0.65427784  0.75584013  1
  Co  Co7  1  0.67282298  0.65427784  0.24415987  1
  Co  Co8  1  0.32518578  0.34967388  0.88151743  1
  Co  Co9  1  0.32518578  0.34967388  0.11848257  1
  Co  Co10  1  0.67044127  0.65335284  0.58525674  1
  Co  Co11  1  0.67044127  0.65335284  0.41474326  1
  O  O12  1  0.82855329  0.34153486  0.65647396  1
  O  O13  1  0.38298538  0.79838936  0.66863809  1
  O  O14  1  0.81807318  0.79813150  0.67072464  1
  O  O15  1  0.82855329  0.34153486  0.34352604  1
  O  O16  1  0.38298538  0.79838936  0.33136191  1
  O  O17  1  0.81807318  0.79813150  0.32927536  1
  O  O18  1  0.98767718  0.49914994  0.83411190  1
  O  O19  1  0.51525169  0.50024369  0.83252289  1
  O  O20  1  0.49746267  0.01094456  0.85079958  1
  O  O21  1  0.98767718  0.49914994  0.16588810  1
  O  O22  1  0.51525169  0.50024369  0.16747711  1
  O  O23  1  0.49746267  0.01094456  0.14920042  1
  O  O24  1  0.51630435  0.51722306  0.50000000  1
  O  O25  1  0.51845573  0.95405151  0.50000000  1
  O  O26  1  0.95743005  0.52358740  0.50000000  1
  O  O27  1  0.26441124  0.48441518  -0.00000000  1
  F  F28  1  0.94781733  0.10562798  -0.00000000  1
