# generated using pymatgen
data_Sr3LaTaAl3O12
_symmetry_space_group_name_H-M   'P 1'
_cell_length_a   7.75117628
_cell_length_b   7.80181365
_cell_length_c   7.75116945
_cell_angle_alpha   89.99863306
_cell_angle_beta   89.68442628
_cell_angle_gamma   90.00138409
_symmetry_Int_Tables_number   1
_chemical_formula_structural   Sr3LaTaAl3O12
_chemical_formula_sum   'Sr6 La2 Ta2 Al6 O24'
_cell_volume   468.73116550
_cell_formula_units_Z   2
loop_
 _symmetry_equiv_pos_site_id
 _symmetry_equiv_pos_as_xyz
  1  'x, y, z'
loop_
 _atom_site_type_symbol
 _atom_site_label
 _atom_site_symmetry_multiplicity
 _atom_site_fract_x
 _atom_site_fract_y
 _atom_site_fract_z
 _atom_site_occupancy
  Sr  Sr0  1  0.25000810  0.26156922  0.74999303  1
  Sr  Sr1  1  0.24997943  0.73842911  0.75001193  1
  Sr  Sr2  1  0.75001422  0.26157101  0.24998189  1
  Sr  Sr3  1  0.75001040  0.26217267  0.74999600  1
  Sr  Sr4  1  0.74999706  0.73842993  0.25001112  1
  Sr  Sr5  1  0.74999882  0.73782839  0.75001022  1
  La  La6  1  0.25000928  0.26354313  0.24998002  1
  La  La7  1  0.24998028  0.73645801  0.25000607  1
  Ta  Ta8  1  0.99738747  0.00000011  0.99738747  1
  Ta  Ta9  1  0.50261367  0.00000049  0.50261350  1
  Al  Al10  1  0.00036774  0.00000019  0.49963178  1
  Al  Al11  1  0.99754076  0.50000009  0.99754034  1
  Al  Al12  1  0.99747151  0.49999804  0.50253177  1
  Al  Al13  1  0.49963200  -0.00000099  0.00036777  1
  Al  Al14  1  0.50253174  0.50000269  0.99747131  1
  Al  Al15  1  0.50245756  0.49999952  0.50245745  1
  O  O16  1  0.24553108  0.99999910  0.49456080  1
  O  O17  1  0.25446755  0.00000036  0.00543977  1
  O  O18  1  0.25085940  0.50000261  0.49197405  1
  O  O19  1  0.24914387  0.49999752  0.00802835  1
  O  O20  1  0.75571181  -0.00000071  0.49912874  1
  O  O21  1  0.74428998  -0.00000001  0.00087162  1
  O  O22  1  0.74936324  0.49999802  0.49957737  1
  O  O23  1  0.75063393  0.50000279  0.00042263  1
  O  O24  1  0.00384261  0.25528169  0.00384072  1
  O  O25  1  0.00521221  0.24999162  0.49478877  1
  O  O26  1  0.00383998  0.74471891  0.00384310  1
  O  O27  1  0.00520789  0.75000924  0.49479195  1
  O  O28  1  0.49479200  0.24999143  0.00520852  1
  O  O29  1  0.49616007  0.25528573  0.49615776  1
  O  O30  1  0.49478694  0.75000704  0.00521281  1
  O  O31  1  0.49615748  0.74471321  0.49616033  1
  O  O32  1  0.00543892  0.99999955  0.25446861  1
  O  O33  1  0.00087136  0.00000054  0.74428900  1
  O  O34  1  0.00802735  0.50000289  0.24914352  1
  O  O35  1  0.00042240  0.49999584  0.75063491  1
  O  O36  1  0.49456063  0.00000028  0.24553223  1
  O  O37  1  0.49912933  0.99999906  0.75571029  1
  O  O38  1  0.49197226  0.49999716  0.25085940  1
  O  O39  1  0.49957766  0.50000454  0.74936309  1
