# generated using pymatgen
data_Ba10Er5Cu15O34
_symmetry_space_group_name_H-M   'P 1'
_cell_length_a   8.74531211
_cell_length_b   8.61823194
_cell_length_c   12.44786590
_cell_angle_alpha   105.91111962
_cell_angle_beta   97.76874055
_cell_angle_gamma   91.10276102
_symmetry_Int_Tables_number   1
_chemical_formula_structural   Ba10Er5Cu15O34
_chemical_formula_sum   'Ba10 Er5 Cu15 O34'
_cell_volume   892.39819237
_cell_formula_units_Z   1
loop_
 _symmetry_equiv_pos_site_id
 _symmetry_equiv_pos_as_xyz
  1  'x, y, z'
loop_
 _atom_site_type_symbol
 _atom_site_label
 _atom_site_symmetry_multiplicity
 _atom_site_fract_x
 _atom_site_fract_y
 _atom_site_fract_z
 _atom_site_occupancy
  Ba  Ba0  1  0.74088875  0.98212363  0.18874763  1
  Ba  Ba1  1  0.93691305  0.37361959  0.18176259  1
  Ba  Ba2  1  0.13636688  0.77277648  0.18201047  1
  Ba  Ba3  1  0.33564982  0.17167650  0.18151272  1
  Ba  Ba4  1  0.53457981  0.56872777  0.18854241  1
  Ba  Ba5  1  0.86435018  0.22832350  0.81848728  1
  Ba  Ba6  1  0.06363312  0.62722352  0.81798953  1
  Ba  Ba7  1  0.26308695  0.02638041  0.81823741  1
  Ba  Ba8  1  0.45911125  0.41787637  0.81125237  1
  Ba  Ba9  1  0.66542019  0.83127223  0.81145759  1
  Er  Er10  1  0.60000000  0.70000000  0.50000000  1
  Er  Er11  1  0.39920533  0.29981735  0.49876465  1
  Er  Er12  1  0.19966769  0.90025621  0.49997265  1
  Er  Er13  1  0.00033231  0.49974379  0.50002735  1
  Er  Er14  1  0.80079467  0.10018265  0.50123535  1
  Cu  Cu15  1  0.87149320  0.74418422  0.35993667  1
  Cu  Cu16  1  0.67186792  0.34323771  0.35891940  1
  Cu  Cu17  1  0.47237646  0.94380722  0.35984401  1
  Cu  Cu18  1  0.27085492  0.54337988  0.35819380  1
  Cu  Cu19  1  0.07226991  0.14325648  0.35820551  1
  Cu  Cu20  1  0.92914508  0.85662012  0.64180620  1
  Cu  Cu21  1  0.72762354  0.45619278  0.64015599  1
  Cu  Cu22  1  0.52813208  0.05676229  0.64108060  1
  Cu  Cu23  1  0.32850680  0.65581578  0.64006333  1
  Cu  Cu24  1  0.12773009  0.25674352  0.64179449  1
  Cu  Cu25  1  0.81152449  0.59424025  -0.00001986  1
  Cu  Cu26  1  0.60000000  0.20000000  0.00000000  1
  Cu  Cu27  1  0.38847551  0.80575975  0.00001986  1
  Cu  Cu28  1  0.20396949  0.39901797  0.00003979  1
  Cu  Cu29  1  0.99603051  0.00098203  -0.00003979  1
  O  O30  1  0.67679272  0.85280865  0.38237972  1
  O  O31  1  0.47604144  0.45255928  0.38027818  1
  O  O32  1  0.27674910  0.05146616  0.38032020  1
  O  O33  1  0.07521326  0.65283104  0.38053040  1
  O  O34  1  0.87597750  0.25194186  0.38075097  1
  O  O35  1  0.72395856  0.94744072  0.61972182  1
  O  O36  1  0.52320728  0.54719135  0.61762028  1
  O  O37  1  0.32402250  0.14805814  0.61924903  1
  O  O38  1  0.12478674  0.74716896  0.61946960  1
  O  O39  1  0.92325090  0.34853384  0.61967980  1
  O  O40  1  0.81723664  0.66816743  0.15209383  1
  O  O41  1  0.63192230  0.26382491  0.15965550  1
  O  O42  1  0.44365742  0.85338614  0.15209138  1
  O  O43  1  0.23289037  0.46254148  0.15969956  1
  O  O44  1  0.03104188  0.06513258  0.15980542  1
  O  O45  1  0.96710963  0.93745852  0.84030044  1
  O  O46  1  0.75634258  0.54661386  0.84790862  1
  O  O47  1  0.56807770  0.13617509  0.84034450  1
  O  O48  1  0.38276336  0.73183257  0.84790617  1
  O  O49  1  0.16895812  0.33486742  0.84019458  1
  O  O50  1  0.77641076  0.55295481  0.38211010  1
  O  O51  1  0.57654023  0.15308290  0.38220278  1
  O  O52  1  0.37616456  0.75236595  0.38206934  1
  O  O53  1  0.17634290  0.35291889  0.38219601  1
  O  O54  1  0.97652799  0.95292212  0.38207878  1
  O  O55  1  0.82383544  0.64763405  0.61793066  1
  O  O56  1  0.62345977  0.24691710  0.61779722  1
  O  O57  1  0.42358924  0.84704519  0.61788990  1
  O  O58  1  0.22347201  0.44707788  0.61792122  1
  O  O59  1  0.02365710  0.04708111  0.61780399  1
  O  O60  1  0.79302398  0.09997054  0.00001729  1
  O  O61  1  0.01222928  0.49427596  0.00006671  1
  O  O62  1  0.18777072  0.90572404  0.99993329  1
  O  O63  1  0.40697602  0.30002946  0.99998271  1
