# generated using pymatgen
data_AlInGaSb3
_symmetry_space_group_name_H-M   'P 1'
_cell_length_a   4.49897214
_cell_length_b   10.01622464
_cell_length_c   4.51254885
_cell_angle_alpha   103.01828300
_cell_angle_beta   90.00000000
_cell_angle_gamma   102.97843044
_symmetry_Int_Tables_number   1
_chemical_formula_structural   AlInGaSb3
_chemical_formula_sum   'Al1 In1 Ga1 Sb3'
_cell_volume   192.78595529
_cell_formula_units_Z   1
loop_
 _symmetry_equiv_pos_site_id
 _symmetry_equiv_pos_as_xyz
  1  'x, y, z'
loop_
 _atom_site_type_symbol
 _atom_site_label
 _atom_site_symmetry_multiplicity
 _atom_site_fract_x
 _atom_site_fract_y
 _atom_site_fract_z
 _atom_site_occupancy
  Al  Al0  1  0.66362726  0.32725351  0.66362726  1
  In  In1  1  0.33339713  0.66679527  0.33339713  1
  Ga  Ga2  1  0.00301298  0.00602596  0.00301298  1
  Sb  Sb3  1  0.74264745  0.48529489  0.24264745  1
  Sb  Sb4  1  0.42383066  0.84766033  0.92383066  1
  Sb  Sb5  1  0.08348452  0.16697004  0.58348452  1
