# generated using pymatgen
data_Ba6Si25
_symmetry_space_group_name_H-M   'P 1'
_cell_length_a   14.16619115
_cell_length_b   14.16619115
_cell_length_c   14.16619115
_cell_angle_alpha   90.00000000
_cell_angle_beta   90.00000000
_cell_angle_gamma   90.00000000
_symmetry_Int_Tables_number   1
_chemical_formula_structural   Ba6Si25
_chemical_formula_sum   'Ba24 Si100'
_cell_volume   2842.88500525
_cell_formula_units_Z   4
loop_
 _symmetry_equiv_pos_site_id
 _symmetry_equiv_pos_as_xyz
  1  'x, y, z'
loop_
 _atom_site_type_symbol
 _atom_site_label
 _atom_site_symmetry_multiplicity
 _atom_site_fract_x
 _atom_site_fract_y
 _atom_site_fract_z
 _atom_site_occupancy
  Si  Si0  1  0.04004403  0.04004403  0.04004403  1
  Si  Si1  1  0.29004403  0.20995597  0.79004403  1
  Si  Si2  1  0.79004403  0.29004403  0.20995597  1
  Si  Si3  1  0.20995597  0.79004403  0.29004403  1
  Si  Si4  1  0.45995597  0.95995597  0.54004403  1
  Si  Si5  1  0.54004403  0.45995597  0.95995597  1
  Si  Si6  1  0.95995597  0.54004403  0.45995597  1
  Si  Si7  1  0.70995597  0.70995597  0.70995597  1
  Si  Si8  1  0.20553168  0.04233231  0.99899554  1
  Si  Si9  1  0.45553168  0.25100446  0.79233231  1
  Si  Si10  1  0.95553168  0.24899554  0.20766769  1
  Si  Si11  1  0.74899554  0.29233231  0.04446832  1
  Si  Si12  1  0.25100446  0.79233231  0.45553168  1
  Si  Si13  1  0.20766769  0.95553168  0.24899554  1
  Si  Si14  1  0.29233231  0.04446832  0.74899554  1
  Si  Si15  1  0.99899554  0.20553168  0.04233231  1
  Si  Si16  1  0.04233231  0.99899554  0.20553168  1
  Si  Si17  1  0.45766769  0.00100446  0.70553168  1
  Si  Si18  1  0.49899554  0.29446832  0.95766769  1
  Si  Si19  1  0.95766769  0.49899554  0.29446832  1
  Si  Si20  1  0.50100446  0.79446832  0.54233231  1
  Si  Si21  1  0.00100446  0.70553168  0.45766769  1
  Si  Si22  1  0.54233231  0.50100446  0.79446832  1
  Si  Si23  1  0.70553168  0.45766769  0.00100446  1
  Si  Si24  1  0.79446832  0.54233231  0.50100446  1
  Si  Si25  1  0.29446832  0.95766769  0.49899554  1
  Si  Si26  1  0.79233231  0.45553168  0.25100446  1
  Si  Si27  1  0.70766769  0.54446832  0.75100446  1
  Si  Si28  1  0.24899554  0.20766769  0.95553168  1
  Si  Si29  1  0.75100446  0.70766769  0.54446832  1
  Si  Si30  1  0.04446832  0.74899554  0.29233231  1
  Si  Si31  1  0.54446832  0.75100446  0.70766769  1
  Si  Si32  1  0.12500000  0.16655874  0.41655874  1
  Si  Si33  1  0.37500000  0.83344126  0.91655874  1
  Si  Si34  1  0.87500000  0.66655874  0.08344126  1
  Si  Si35  1  0.16655874  0.41655874  0.12500000  1
  Si  Si36  1  0.83344126  0.91655874  0.37500000  1
  Si  Si37  1  0.08344126  0.87500000  0.66655874  1
  Si  Si38  1  0.41655874  0.12500000  0.16655874  1
  Si  Si39  1  0.33344126  0.58344126  0.62500000  1
  Si  Si40  1  0.91655874  0.37500000  0.83344126  1
  Si  Si41  1  0.58344126  0.62500000  0.33344126  1
  Si  Si42  1  0.66655874  0.08344126  0.87500000  1
  Si  Si43  1  0.62500000  0.33344126  0.58344126  1
  Si  Si44  1  0.24033829  0.93671471  0.87332988  1
  Si  Si45  1  0.49033829  0.37667012  0.68671471  1
  Si  Si46  1  0.99033829  0.12332988  0.31328529  1
  Si  Si47  1  0.62332988  0.18671471  0.00966171  1
  Si  Si48  1  0.37667012  0.68671471  0.49033829  1
  Si  Si49  1  0.31328529  0.99033829  0.12332988  1
  Si  Si50  1  0.18671471  0.00966171  0.62332988  1
  Si  Si51  1  0.87332988  0.24033829  0.93671471  1
  Si  Si52  1  0.93671471  0.87332988  0.24033829  1
  Si  Si53  1  0.56328529  0.12667012  0.74033829  1
  Si  Si54  1  0.37332988  0.25966171  0.06328529  1
  Si  Si55  1  0.06328529  0.37332988  0.25966171  1
  Si  Si56  1  0.62667012  0.75966171  0.43671471  1
  Si  Si57  1  0.12667012  0.74033829  0.56328529  1
  Si  Si58  1  0.43671471  0.62667012  0.75966171  1
  Si  Si59  1  0.74033829  0.56328529  0.12667012  1
  Si  Si60  1  0.75966171  0.43671471  0.62667012  1
  Si  Si61  1  0.25966171  0.06328529  0.37332988  1
  Si  Si62  1  0.68671471  0.49033829  0.37667012  1
  Si  Si63  1  0.81328529  0.50966171  0.87667012  1
  Si  Si64  1  0.12332988  0.31328529  0.99033829  1
  Si  Si65  1  0.87667012  0.81328529  0.50966171  1
  Si  Si66  1  0.00966171  0.62332988  0.18671471  1
  Si  Si67  1  0.50966171  0.87667012  0.81328529  1
  Si  Si68  1  0.41436404  0.86078972  0.07684922  1
  Si  Si69  1  0.66436404  0.17315078  0.61078972  1
  Si  Si70  1  0.16436404  0.32684922  0.38921028  1
  Si  Si71  1  0.82684922  0.11078972  0.83563596  1
  Si  Si72  1  0.17315078  0.61078972  0.66436404  1
  Si  Si73  1  0.38921028  0.16436404  0.32684922  1
  Si  Si74  1  0.11078972  0.83563596  0.82684922  1
  Si  Si75  1  0.07684922  0.41436404  0.86078972  1
  Si  Si76  1  0.86078972  0.07684922  0.41436404  1
  Si  Si77  1  0.63921028  0.92315078  0.91436404  1
  Si  Si78  1  0.57684922  0.08563596  0.13921028  1
  Si  Si79  1  0.13921028  0.57684922  0.08563596  1
  Si  Si80  1  0.42315078  0.58563596  0.36078972  1
  Si  Si81  1  0.92315078  0.91436404  0.63921028  1
  Si  Si82  1  0.36078972  0.42315078  0.58563596  1
  Si  Si83  1  0.91436404  0.63921028  0.92315078  1
  Si  Si84  1  0.58563596  0.36078972  0.42315078  1
  Si  Si85  1  0.08563596  0.13921028  0.57684922  1
  Si  Si86  1  0.61078972  0.66436404  0.17315078  1
  Si  Si87  1  0.88921028  0.33563596  0.67315078  1
  Si  Si88  1  0.32684922  0.38921028  0.16436404  1
  Si  Si89  1  0.67315078  0.88921028  0.33563596  1
  Si  Si90  1  0.83563596  0.82684922  0.11078972  1
  Si  Si91  1  0.33563596  0.67315078  0.88921028  1
  Si  Si92  1  0.32539778  0.32539778  0.32539778  1
  Si  Si93  1  0.57539778  0.92460222  0.07539778  1
  Si  Si94  1  0.07539778  0.57539778  0.92460222  1
  Si  Si95  1  0.92460222  0.07539778  0.57539778  1
  Si  Si96  1  0.17460222  0.67460222  0.82539778  1
  Si  Si97  1  0.82539778  0.17460222  0.67460222  1
  Si  Si98  1  0.67460222  0.82539778  0.17460222  1
  Si  Si99  1  0.42460222  0.42460222  0.42460222  1
  Ba  Ba100  1  0.18873730  0.18873730  0.18873730  1
  Ba  Ba101  1  0.43873730  0.06126270  0.93873730  1
  Ba  Ba102  1  0.93873730  0.43873730  0.06126270  1
  Ba  Ba103  1  0.06126270  0.93873730  0.43873730  1
  Ba  Ba104  1  0.31126270  0.81126270  0.68873730  1
  Ba  Ba105  1  0.68873730  0.31126270  0.81126270  1
  Ba  Ba106  1  0.81126270  0.68873730  0.31126270  1
  Ba  Ba107  1  0.56126270  0.56126270  0.56126270  1
  Ba  Ba108  1  0.87500000  0.87500000  0.87500000  1
  Ba  Ba109  1  0.12500000  0.37500000  0.62500000  1
  Ba  Ba110  1  0.62500000  0.12500000  0.37500000  1
  Ba  Ba111  1  0.37500000  0.62500000  0.12500000  1
  Ba  Ba112  1  0.12500000  0.80766322  0.05766322  1
  Ba  Ba113  1  0.37500000  0.19233678  0.55766322  1
  Ba  Ba114  1  0.87500000  0.30766322  0.44233678  1
  Ba  Ba115  1  0.80766322  0.05766322  0.12500000  1
  Ba  Ba116  1  0.19233678  0.55766322  0.37500000  1
  Ba  Ba117  1  0.44233678  0.87500000  0.30766322  1
  Ba  Ba118  1  0.05766322  0.12500000  0.80766322  1
  Ba  Ba119  1  0.69233678  0.94233678  0.62500000  1
  Ba  Ba120  1  0.55766322  0.37500000  0.19233678  1
  Ba  Ba121  1  0.94233678  0.62500000  0.69233678  1
  Ba  Ba122  1  0.30766322  0.44233678  0.87500000  1
  Ba  Ba123  1  0.62500000  0.69233678  0.94233678  1
