# generated using pymatgen
data_Cu3P
_symmetry_space_group_name_H-M   'P 1'
_cell_length_a   6.96700419
_cell_length_b   6.96700420
_cell_length_c   7.17908657
_cell_angle_alpha   90.00000000
_cell_angle_beta   90.00000000
_cell_angle_gamma   120.00000002
_symmetry_Int_Tables_number   1
_chemical_formula_structural   Cu3P
_chemical_formula_sum   'Cu18 P6'
_cell_volume   301.78105033
_cell_formula_units_Z   6
loop_
 _symmetry_equiv_pos_site_id
 _symmetry_equiv_pos_as_xyz
  1  'x, y, z'
loop_
 _atom_site_type_symbol
 _atom_site_label
 _atom_site_symmetry_multiplicity
 _atom_site_fract_x
 _atom_site_fract_y
 _atom_site_fract_z
 _atom_site_occupancy
  P  P0  1  0.66330885  0.00000000  0.25000000  1
  P  P1  1  0.00000000  0.66330885  0.25000000  1
  P  P2  1  0.33669115  0.33669115  0.25000000  1
  P  P3  1  0.33669115  0.00000000  0.75000000  1
  P  P4  1  0.00000000  0.33669115  0.75000000  1
  P  P5  1  0.66330885  0.66330885  0.75000000  1
  Cu  Cu6  1  0.37466645  0.06556655  0.07599937  1
  Cu  Cu7  1  0.93443345  0.30909990  0.07599937  1
  Cu  Cu8  1  0.69090010  0.62533355  0.07599937  1
  Cu  Cu9  1  0.30909990  0.93443345  0.42400063  1
  Cu  Cu10  1  0.62533355  0.69090010  0.42400063  1
  Cu  Cu11  1  0.06556655  0.37466645  0.42400063  1
  Cu  Cu12  1  0.62533355  0.93443345  0.92400063  1
  Cu  Cu13  1  0.06556655  0.69090010  0.92400063  1
  Cu  Cu14  1  0.30909990  0.37466645  0.92400063  1
  Cu  Cu15  1  0.69090010  0.06556655  0.57599937  1
  Cu  Cu16  1  0.37466645  0.30909990  0.57599937  1
  Cu  Cu17  1  0.93443345  0.62533355  0.57599937  1
  Cu  Cu18  1  0.33333333  0.66666667  0.17481752  1
  Cu  Cu19  1  0.66666667  0.33333333  0.32518248  1
  Cu  Cu20  1  0.66666667  0.33333333  0.82518248  1
  Cu  Cu21  1  0.33333333  0.66666667  0.67481752  1
  Cu  Cu22  1  0.00000000  0.00000000  0.25000000  1
  Cu  Cu23  1  0.00000000  0.00000000  0.75000000  1
