# generated using pymatgen
data_La2Fe14C
_symmetry_space_group_name_H-M   'P 1'
_cell_length_a   8.79276779
_cell_length_b   8.79276779
_cell_length_c   12.02189301
_cell_angle_alpha   90.00000000
_cell_angle_beta   90.00000000
_cell_angle_gamma   90.00000000
_symmetry_Int_Tables_number   1
_chemical_formula_structural   La2Fe14C
_chemical_formula_sum   'La8 Fe56 C4'
_cell_volume   929.44579405
_cell_formula_units_Z   4
loop_
 _symmetry_equiv_pos_site_id
 _symmetry_equiv_pos_as_xyz
  1  'x, y, z'
loop_
 _atom_site_type_symbol
 _atom_site_label
 _atom_site_symmetry_multiplicity
 _atom_site_fract_x
 _atom_site_fract_y
 _atom_site_fract_z
 _atom_site_occupancy
  C  C0  1  0.87533539  0.87533539  0.00000000  1
  C  C1  1  0.62466461  0.37533539  0.50000000  1
  C  C2  1  0.37533539  0.62466461  0.50000000  1
  C  C3  1  0.12466461  0.12466461  0.00000000  1
  Fe  Fe4  1  0.09825866  0.09825866  0.71220246  1
  Fe  Fe5  1  0.90174134  0.90174134  0.71220246  1
  Fe  Fe6  1  0.09825866  0.09825866  0.28779754  1
  Fe  Fe7  1  0.59825866  0.40174134  0.21220246  1
  Fe  Fe8  1  0.40174134  0.59825866  0.21220246  1
  Fe  Fe9  1  0.40174134  0.59825866  0.78779754  1
  Fe  Fe10  1  0.59825866  0.40174134  0.78779754  1
  Fe  Fe11  1  0.90174134  0.90174134  0.28779754  1
  Fe  Fe12  1  0.00000000  0.00000000  0.89435005  1
  Fe  Fe13  1  0.50000000  0.50000000  0.39435005  1
  Fe  Fe14  1  0.50000000  0.50000000  0.60564995  1
  Fe  Fe15  1  0.00000000  0.00000000  0.10564995  1
  Fe  Fe16  1  0.35973660  0.03627417  0.32193405  1
  Fe  Fe17  1  0.64026340  0.96372583  0.32193405  1
  Fe  Fe18  1  0.03627417  0.35973660  0.67806595  1
  Fe  Fe19  1  0.53627417  0.14026340  0.82193405  1
  Fe  Fe20  1  0.46372583  0.85973660  0.82193405  1
  Fe  Fe21  1  0.14026340  0.53627417  0.17806595  1
  Fe  Fe22  1  0.85973660  0.46372583  0.17806595  1
  Fe  Fe23  1  0.96372583  0.64026340  0.67806595  1
  Fe  Fe24  1  0.64026340  0.96372583  0.67806595  1
  Fe  Fe25  1  0.35973660  0.03627417  0.67806595  1
  Fe  Fe26  1  0.96372583  0.64026340  0.32193405  1
  Fe  Fe27  1  0.46372583  0.85973660  0.17806595  1
  Fe  Fe28  1  0.53627417  0.14026340  0.17806595  1
  Fe  Fe29  1  0.85973660  0.46372583  0.82193405  1
  Fe  Fe30  1  0.14026340  0.53627417  0.82193405  1
  Fe  Fe31  1  0.03627417  0.35973660  0.32193405  1
  Fe  Fe32  1  0.68283796  0.68283796  0.74511444  1
  Fe  Fe33  1  0.31716204  0.31716204  0.74511444  1
  Fe  Fe34  1  0.68283796  0.68283796  0.25488556  1
  Fe  Fe35  1  0.18283796  0.81716204  0.24511444  1
  Fe  Fe36  1  0.81716204  0.18283796  0.24511444  1
  Fe  Fe37  1  0.81716204  0.18283796  0.75488556  1
  Fe  Fe38  1  0.18283796  0.81716204  0.75488556  1
  Fe  Fe39  1  0.31716204  0.31716204  0.25488556  1
  Fe  Fe40  1  0.06567163  0.27529249  0.12021026  1
  Fe  Fe41  1  0.93432837  0.72470751  0.12021026  1
  Fe  Fe42  1  0.27529249  0.06567163  0.87978974  1
  Fe  Fe43  1  0.77529249  0.43432837  0.62021026  1
  Fe  Fe44  1  0.22470751  0.56567163  0.62021026  1
  Fe  Fe45  1  0.43432837  0.77529249  0.37978974  1
  Fe  Fe46  1  0.56567163  0.22470751  0.37978974  1
  Fe  Fe47  1  0.72470751  0.93432837  0.87978974  1
  Fe  Fe48  1  0.93432837  0.72470751  0.87978974  1
  Fe  Fe49  1  0.06567163  0.27529249  0.87978974  1
  Fe  Fe50  1  0.72470751  0.93432837  0.12021026  1
  Fe  Fe51  1  0.22470751  0.56567163  0.37978974  1
  Fe  Fe52  1  0.77529249  0.43432837  0.37978974  1
  Fe  Fe53  1  0.56567163  0.22470751  0.62021026  1
  Fe  Fe54  1  0.43432837  0.77529249  0.62021026  1
  Fe  Fe55  1  0.27529249  0.06567163  0.12021026  1
  Fe  Fe56  1  0.50000000  0.00000000  0.00000000  1
  Fe  Fe57  1  0.50000000  0.00000000  0.50000000  1
  Fe  Fe58  1  0.00000000  0.50000000  0.50000000  1
  Fe  Fe59  1  0.00000000  0.50000000  0.00000000  1
  La  La60  1  0.76066522  0.23933478  0.00000000  1
  La  La61  1  0.26066522  0.26066522  0.50000000  1
  La  La62  1  0.73933478  0.73933478  0.50000000  1
  La  La63  1  0.23933478  0.76066522  0.00000000  1
  La  La64  1  0.64195947  0.64195947  0.00000000  1
  La  La65  1  0.85804053  0.14195947  0.50000000  1
  La  La66  1  0.14195947  0.85804053  0.50000000  1
  La  La67  1  0.35804053  0.35804053  0.00000000  1
