# generated using pymatgen
data_Lu2SiO5
_symmetry_space_group_name_H-M   'P 1'
_cell_length_a   6.68238941
_cell_length_b   6.61146014
_cell_length_c   9.12020650
_cell_angle_alpha   90.00000000
_cell_angle_beta   100.32612820
_cell_angle_gamma   90.00000000
_symmetry_Int_Tables_number   1
_chemical_formula_structural   Lu2SiO5
_chemical_formula_sum   'Lu8 Si4 O20'
_cell_volume   396.40776579
_cell_formula_units_Z   4
loop_
 _symmetry_equiv_pos_site_id
 _symmetry_equiv_pos_as_xyz
  1  'x, y, z'
loop_
 _atom_site_type_symbol
 _atom_site_label
 _atom_site_symmetry_multiplicity
 _atom_site_fract_x
 _atom_site_fract_y
 _atom_site_fract_z
 _atom_site_occupancy
  O  O0  1  0.42107143  0.87706706  0.60604751  1
  O  O1  1  0.07892857  0.37706706  0.39395249  1
  O  O2  1  0.57892857  0.12293294  0.39395249  1
  O  O3  1  0.92107143  0.62293294  0.60604751  1
  O  O4  1  0.99454652  0.29926137  0.90179823  1
  O  O5  1  0.50545348  0.79926137  0.09820177  1
  O  O6  1  0.00545348  0.70073863  0.09820177  1
  O  O7  1  0.49454652  0.20073863  0.90179823  1
  O  O8  1  0.95834452  0.14851250  0.61489958  1
  O  O9  1  0.54165548  0.64851250  0.38510042  1
  O  O10  1  0.04165548  0.85148750  0.38510042  1
  O  O11  1  0.45834452  0.35148750  0.61489958  1
  O  O12  1  0.28914514  0.56119904  0.79103503  1
  O  O13  1  0.21085486  0.06119904  0.20896497  1
  O  O14  1  0.71085486  0.43880096  0.20896497  1
  O  O15  1  0.78914514  0.93880096  0.79103503  1
  O  O16  1  0.66856903  0.56527770  0.84808020  1
  O  O17  1  0.83143097  0.06527770  0.15191980  1
  O  O18  1  0.33143097  0.43472230  0.15191980  1
  O  O19  1  0.16856903  0.93472230  0.84808020  1
  Si  Si20  1  0.98577335  0.09844715  0.79745336  1
  Si  Si21  1  0.51422665  0.59844715  0.20254664  1
  Si  Si22  1  0.01422665  0.90155285  0.20254664  1
  Si  Si23  1  0.48577335  0.40155285  0.79745336  1
  Lu  Lu24  1  0.27592963  0.11738024  0.46325763  1
  Lu  Lu25  1  0.22407037  0.61738024  0.53674237  1
  Lu  Lu26  1  0.72407037  0.88261976  0.53674237  1
  Lu  Lu27  1  0.77592963  0.38261976  0.46325763  1
  Lu  Lu28  1  0.98931617  0.64196432  0.85117580  1
  Lu  Lu29  1  0.51068383  0.14196432  0.14882420  1
  Lu  Lu30  1  0.01068383  0.35803568  0.14882420  1
  Lu  Lu31  1  0.48931617  0.85803568  0.85117580  1
