# generated using pymatgen
data_Sr3Mn2O7
_symmetry_space_group_name_H-M   'P 1'
_cell_length_a   3.88005246
_cell_length_b   3.88005246
_cell_length_c   10.50390506
_cell_angle_alpha   100.64339234
_cell_angle_beta   100.64339235
_cell_angle_gamma   90.00000005
_symmetry_Int_Tables_number   1
_chemical_formula_structural   Sr3Mn2O7
_chemical_formula_sum   'Sr3 Mn2 O7'
_cell_volume   152.64462152
_cell_formula_units_Z   1
loop_
 _symmetry_equiv_pos_site_id
 _symmetry_equiv_pos_as_xyz
  1  'x, y, z'
loop_
 _atom_site_type_symbol
 _atom_site_label
 _atom_site_symmetry_multiplicity
 _atom_site_fract_x
 _atom_site_fract_y
 _atom_site_fract_z
 _atom_site_occupancy
  O  O0  1  0.90423003  0.40423081  0.80846211  1
  O  O1  1  0.40423081  0.90423072  0.80846215  1
  O  O2  1  0.09577016  0.59576940  0.19153836  1
  O  O3  1  0.59576937  0.09576949  0.19153831  1
  O  O4  1  0.80737986  0.80738205  0.61476227  1
  O  O5  1  0.00000000  0.00000000  0.00000000  1
  O  O6  1  0.19261768  0.19261816  0.38523801  1
  Mn  Mn7  1  0.09730884  0.09730948  0.19461700  1
  Mn  Mn8  1  0.90269134  0.90269073  0.80538251  1
  Sr  Sr9  1  0.49999896  0.49999991  0.99999987  1
  Sr  Sr10  1  0.31703115  0.31703292  0.63406403  1
  Sr  Sr11  1  0.68296903  0.68296728  0.36593548  1
