# generated using pymatgen
data_La3Ni2O7
_symmetry_space_group_name_H-M   'P 1'
_cell_length_a   5.45708770
_cell_length_b   5.60627234
_cell_length_c   10.53621703
_cell_angle_alpha   105.42921587
_cell_angle_beta   90.00000000
_cell_angle_gamma   90.00000000
_symmetry_Int_Tables_number   1
_chemical_formula_structural   La3Ni2O7
_chemical_formula_sum   'La6 Ni4 O14'
_cell_volume   310.72685278
_cell_formula_units_Z   2
loop_
 _symmetry_equiv_pos_site_id
 _symmetry_equiv_pos_as_xyz
  1  'x, y, z'
loop_
 _atom_site_type_symbol
 _atom_site_label
 _atom_site_symmetry_multiplicity
 _atom_site_fract_x
 _atom_site_fract_y
 _atom_site_fract_z
 _atom_site_occupancy
  O  O0  1  0.00000000  0.91461830  0.82923660  1
  O  O1  1  0.50000000  0.08538170  0.17076340  1
  O  O2  1  0.00000000  0.08538170  0.17076340  1
  O  O3  1  0.50000000  0.91461830  0.82923660  1
  O  O4  1  0.50000000  0.38826993  0.77653986  1
  O  O5  1  0.00000000  0.61173007  0.22346014  1
  O  O6  1  0.50000000  0.61173007  0.22346014  1
  O  O7  1  0.00000000  0.38826993  0.77653986  1
  O  O8  1  0.75000000  0.98734616  0.59032287  1
  O  O9  1  0.25000000  0.01265384  0.40967713  1
  O  O10  1  0.25000000  0.67361486  0.00000000  1
  O  O11  1  0.75000000  0.32638514  0.00000000  1
  O  O12  1  0.25000000  0.60297671  0.59032287  1
  O  O13  1  0.75000000  0.39702329  0.40967713  1
  Ni  Ni14  1  0.75000000  0.15550792  0.80509974  1
  Ni  Ni15  1  0.25000000  0.84449208  0.19490026  1
  Ni  Ni16  1  0.75000000  0.35040818  0.19490026  1
  Ni  Ni17  1  0.25000000  0.64959182  0.80509974  1
  La  La18  1  0.75000000  0.94401258  0.36058311  1
  La  La19  1  0.25000000  0.05598742  0.63941689  1
  La  La20  1  0.75000000  0.58342947  0.63941689  1
  La  La21  1  0.25000000  0.41657053  0.36058311  1
  La  La22  1  0.75000000  0.75062572  0.00000000  1
  La  La23  1  0.25000000  0.24937428  0.00000000  1
