# generated using pymatgen
data_V6O13
_symmetry_space_group_name_H-M   'P 1'
_cell_length_a   3.74441007
_cell_length_b   10.26382753
_cell_length_c   12.19594467
_cell_angle_alpha   100.85024524
_cell_angle_beta   90.00000000
_cell_angle_gamma   90.00000000
_symmetry_Int_Tables_number   1
_chemical_formula_structural   V6O13
_chemical_formula_sum   'V12 O26'
_cell_volume   460.33487484
_cell_formula_units_Z   2
loop_
 _symmetry_equiv_pos_site_id
 _symmetry_equiv_pos_as_xyz
  1  'x, y, z'
loop_
 _atom_site_type_symbol
 _atom_site_label
 _atom_site_symmetry_multiplicity
 _atom_site_fract_x
 _atom_site_fract_y
 _atom_site_fract_z
 _atom_site_occupancy
  O  O0  1  0.25005073  0.41212065  0.05702262  1
  O  O1  1  0.74994903  0.41212029  0.55702217  1
  O  O2  1  0.25101626  0.20259116  0.17455246  1
  O  O3  1  0.74898350  0.20259080  0.67455201  1
  O  O4  1  0.24919487  0.20095718  0.88275453  1
  O  O5  1  0.75080489  0.20095654  0.38275483  1
  O  O6  1  0.24935452  0.41544278  0.75124751  1
  O  O7  1  0.75064795  0.41544215  0.25124780  1
  O  O8  1  0.25057961  0.38873058  0.37822944  1
  O  O9  1  0.74942015  0.38873022  0.87822899  1
  O  O10  1  0.24912980  0.00362448  0.67757257  1
  O  O11  1  0.75086996  0.00362484  0.17757219  1
  O  O12  1  0.74914997  0.00271553  0.81718165  1
  O  O13  1  0.25084979  0.00271489  0.31718194  1
  O  O14  1  0.75058173  0.61816674  0.11630684  1
  O  O15  1  0.24941804  0.61816638  0.61630639  1
  O  O16  1  0.74935551  0.59226182  0.74310401  1
  O  O17  1  0.25064425  0.59226118  0.24310347  1
  O  O18  1  0.75021744  0.00364002  0.49473335  1
  O  O19  1  0.24992376  0.59413205  0.93666758  1
  O  O20  1  0.74915951  0.80532933  0.61029248  1
  O  O21  1  0.25084025  0.80532969  0.11029293  1
  O  O22  1  0.75100368  0.80499078  0.31985608  1
  O  O23  1  0.24899879  0.80499042  0.81985563  1
  O  O24  1  0.75007600  0.59413241  0.43666804  1
  O  O25  1  0.24978233  0.00364065  0.99473389  1
  V  V26  1  0.25063828  0.36999760  0.21172907  1
  V  V27  1  0.74936148  0.36999723  0.71172862  1
  V  V28  1  0.24936214  0.63689771  0.78243712  1
  V  V29  1  0.75063762  0.63689707  0.28243741  1
  V  V30  1  0.24942492  0.36761847  0.91051050  1
  V  V31  1  0.75057484  0.36761883  0.41051096  1
  V  V32  1  0.25056625  0.63914951  0.08349347  1
  V  V33  1  0.74943351  0.63915014  0.58349401  1
  V  V34  1  0.24906904  0.00051300  0.85450107  1
  V  V35  1  0.75093072  0.00051236  0.35450053  1
  V  V36  1  0.25109173  0.00593253  0.15213696  1
  V  V37  1  0.74890803  0.00593316  0.65213750  1
