# generated using pymatgen
data_Ti2CrO5
_symmetry_space_group_name_H-M   'P 1'
_cell_length_a   5.19895925
_cell_length_b   5.77347567
_cell_length_c   7.06817157
_cell_angle_alpha   107.08081225
_cell_angle_beta   90.00000000
_cell_angle_gamma   116.75941595
_symmetry_Int_Tables_number   1
_chemical_formula_structural   Ti2CrO5
_chemical_formula_sum   'Ti4 Cr2 O10'
_cell_volume   178.89491208
_cell_formula_units_Z   2
loop_
 _symmetry_equiv_pos_site_id
 _symmetry_equiv_pos_as_xyz
  1  'x, y, z'
loop_
 _atom_site_type_symbol
 _atom_site_label
 _atom_site_symmetry_multiplicity
 _atom_site_fract_x
 _atom_site_fract_y
 _atom_site_fract_z
 _atom_site_occupancy
  O  O0  1  0.79203644  0.00000000  0.75000000  1
  O  O1  1  0.20796356  0.00000000  0.25000000  1
  O  O2  1  0.27101749  0.83329737  0.55697274  1
  O  O3  1  0.43772012  0.16670263  0.94302726  1
  O  O4  1  0.72898251  0.16670263  0.44302726  1
  O  O5  1  0.56227988  0.83329737  0.05697274  1
  O  O6  1  0.39164549  0.40840219  0.67049311  1
  O  O7  1  0.98324330  0.59159781  0.82950689  1
  O  O8  1  0.60835451  0.59159781  0.32950689  1
  O  O9  1  0.01675670  0.40840219  0.17049311  1
  Ti  Ti10  1  0.61732296  0.26855720  0.22041644  1
  Ti  Ti11  1  0.34876577  0.73144280  0.27958356  1
  Ti  Ti12  1  0.65123423  0.26855720  0.72041644  1
  Ti  Ti13  1  0.38267704  0.73144280  0.77958356  1
  Cr  Cr14  1  0.00000000  0.00000000  0.00000000  1
  Cr  Cr15  1  0.00000000  0.00000000  0.50000000  1
