# generated using pymatgen
data_Al2Fe3(SiO4)3
_symmetry_space_group_name_H-M   'P 1'
_cell_length_a   10.09956728
_cell_length_b   10.09956728
_cell_length_c   10.09956728
_cell_angle_alpha   109.47122066
_cell_angle_beta   109.47122065
_cell_angle_gamma   109.47122061
_symmetry_Int_Tables_number   1
_chemical_formula_structural   Al2Fe3(SiO4)3
_chemical_formula_sum   'Al8 Fe12 Si12 O48'
_cell_volume   793.02414283
_cell_formula_units_Z   4
loop_
 _symmetry_equiv_pos_site_id
 _symmetry_equiv_pos_as_xyz
  1  'x, y, z'
loop_
 _atom_site_type_symbol
 _atom_site_label
 _atom_site_symmetry_multiplicity
 _atom_site_fract_x
 _atom_site_fract_y
 _atom_site_fract_z
 _atom_site_occupancy
  O  O0  1  0.29894750  0.48561344  0.38131650  1
  O  O1  1  0.01438656  0.31333406  0.89570306  1
  O  O2  1  0.11868350  0.60429694  0.91763100  1
  O  O3  1  0.20105250  0.58236900  0.18666594  1
  O  O4  1  0.20105250  0.11868350  0.01438656  1
  O  O5  1  0.58236900  0.18666594  0.20105250  1
  O  O6  1  0.60429694  0.18666594  0.48561344  1
  O  O7  1  0.18666594  0.20105250  0.58236900  1
  O  O8  1  0.89570306  0.38131650  0.58236900  1
  O  O9  1  0.31333406  0.91763100  0.29894750  1
  O  O10  1  0.91763100  0.29894750  0.31333406  1
  O  O11  1  0.01438656  0.20105250  0.11868350  1
  O  O12  1  0.18666594  0.48561344  0.60429694  1
  O  O13  1  0.58236900  0.89570306  0.38131650  1
  O  O14  1  0.11868350  0.01438656  0.20105250  1
  O  O15  1  0.48561344  0.60429694  0.18666594  1
  O  O16  1  0.38131650  0.58236900  0.89570306  1
  O  O17  1  0.89570306  0.01438656  0.31333406  1
  O  O18  1  0.60429694  0.91763100  0.11868350  1
  O  O19  1  0.10429694  0.61868350  0.41763100  1
  O  O20  1  0.91763100  0.11868350  0.60429694  1
  O  O21  1  0.38131650  0.29894750  0.48561344  1
  O  O22  1  0.31333406  0.89570306  0.01438656  1
  O  O23  1  0.29894750  0.31333406  0.91763100  1
  O  O24  1  0.70105250  0.51438656  0.61868350  1
  O  O25  1  0.98561344  0.68666594  0.10429694  1
  O  O26  1  0.88131650  0.39570306  0.08236900  1
  O  O27  1  0.79894750  0.41763100  0.81333406  1
  O  O28  1  0.79894750  0.88131650  0.98561344  1
  O  O29  1  0.41763100  0.81333406  0.79894750  1
  O  O30  1  0.39570306  0.81333406  0.51438656  1
  O  O31  1  0.81333406  0.79894750  0.41763100  1
  O  O32  1  0.70105250  0.68666594  0.08236900  1
  O  O33  1  0.68666594  0.10429694  0.98561344  1
  O  O34  1  0.61868350  0.70105250  0.51438656  1
  O  O35  1  0.51438656  0.61868350  0.70105250  1
  O  O36  1  0.08236900  0.88131650  0.39570306  1
  O  O37  1  0.39570306  0.08236900  0.88131650  1
  O  O38  1  0.10429694  0.98561344  0.68666594  1
  O  O39  1  0.61868350  0.41763100  0.10429694  1
  O  O40  1  0.51438656  0.39570306  0.81333406  1
  O  O41  1  0.88131650  0.98561344  0.79894750  1
  O  O42  1  0.41763100  0.10429694  0.61868350  1
  O  O43  1  0.81333406  0.51438656  0.39570306  1
  O  O44  1  0.98561344  0.79894750  0.88131650  1
  O  O45  1  0.08236900  0.70105250  0.68666594  1
  O  O46  1  0.68666594  0.08236900  0.70105250  1
  O  O47  1  0.48561344  0.38131650  0.29894750  1
  Al  Al48  1  0.50000000  0.00000000  0.00000000  1
  Al  Al49  1  0.00000000  0.00000000  0.00000000  1
  Al  Al50  1  0.00000000  0.50000000  0.00000000  1
  Al  Al51  1  0.00000000  0.00000000  0.50000000  1
  Al  Al52  1  0.00000000  0.50000000  0.50000000  1
  Al  Al53  1  0.50000000  0.00000000  0.50000000  1
  Al  Al54  1  0.50000000  0.50000000  0.00000000  1
  Al  Al55  1  0.50000000  0.50000000  0.50000000  1
  Si  Si56  1  0.25000000  0.12500000  0.87500000  1
  Si  Si57  1  0.87500000  0.25000000  0.12500000  1
  Si  Si58  1  0.62500000  0.75000000  0.37500000  1
  Si  Si59  1  0.25000000  0.62500000  0.37500000  1
  Si  Si60  1  0.37500000  0.62500000  0.75000000  1
  Si  Si61  1  0.75000000  0.37500000  0.62500000  1
  Si  Si62  1  0.87500000  0.12500000  0.75000000  1
  Si  Si63  1  0.12500000  0.75000000  0.87500000  1
  Si  Si64  1  0.12500000  0.87500000  0.25000000  1
  Si  Si65  1  0.62500000  0.37500000  0.25000000  1
  Si  Si66  1  0.37500000  0.25000000  0.62500000  1
  Si  Si67  1  0.75000000  0.87500000  0.12500000  1
  Fe  Fe68  1  0.62500000  0.25000000  0.87500000  1
  Fe  Fe69  1  0.87500000  0.75000000  0.62500000  1
  Fe  Fe70  1  0.75000000  0.62500000  0.87500000  1
  Fe  Fe71  1  0.25000000  0.87500000  0.62500000  1
  Fe  Fe72  1  0.87500000  0.62500000  0.25000000  1
  Fe  Fe73  1  0.62500000  0.87500000  0.75000000  1
  Fe  Fe74  1  0.37500000  0.75000000  0.12500000  1
  Fe  Fe75  1  0.12500000  0.25000000  0.37500000  1
  Fe  Fe76  1  0.25000000  0.37500000  0.12500000  1
  Fe  Fe77  1  0.75000000  0.12500000  0.37500000  1
  Fe  Fe78  1  0.12500000  0.37500000  0.75000000  1
  Fe  Fe79  1  0.37500000  0.12500000  0.25000000  1
