# generated using pymatgen
data_Sm4FeSe6O
_symmetry_space_group_name_H-M   'P 1'
_cell_length_a   9.58786900
_cell_length_b   9.58786901
_cell_length_c   6.96135511
_cell_angle_alpha   90.00000000
_cell_angle_beta   90.00000000
_cell_angle_gamma   119.99999998
_symmetry_Int_Tables_number   1
_chemical_formula_structural   Sm4FeSe6O
_chemical_formula_sum   'Sm8 Fe2 Se12 O2'
_cell_volume   554.20265714
_cell_formula_units_Z   2
loop_
 _symmetry_equiv_pos_site_id
 _symmetry_equiv_pos_as_xyz
  1  'x, y, z'
loop_
 _atom_site_type_symbol
 _atom_site_label
 _atom_site_symmetry_multiplicity
 _atom_site_fract_x
 _atom_site_fract_y
 _atom_site_fract_z
 _atom_site_occupancy
  O  O0  1  0.66666651  0.33333377  0.04138150  1
  O  O1  1  0.33333316  0.66666632  0.54138210  1
  Fe  Fe2  1  0.00000000  0.00000000  0.49970594  1
  Fe  Fe3  1  0.00000000  0.00000000  0.99970654  1
  Se  Se4  1  0.53171817  0.46828275  0.44532934  1
  Se  Se5  1  0.46828214  0.93656429  0.94532994  1
  Se  Se6  1  0.06343479  0.53171734  0.94532994  1
  Se  Se7  1  0.53171752  0.06343580  0.44532934  1
  Se  Se8  1  0.93656488  0.46828275  0.44532934  1
  Se  Se9  1  0.46828255  0.53171734  0.94532994  1
  Se  Se10  1  0.12713537  0.87286481  0.26646244  1
  Se  Se11  1  0.25427023  0.12713528  0.76646304  1
  Se  Se12  1  0.87286534  0.12713528  0.76646304  1
  Se  Se13  1  0.12713528  0.25427056  0.26646244  1
  Se  Se14  1  0.74572944  0.87286481  0.26646244  1
  Se  Se15  1  0.87286439  0.74572953  0.76646304  1
  Sm  Sm16  1  0.66666651  0.33333377  0.70766056  1
  Sm  Sm17  1  0.33333316  0.66666632  0.20765996  1
  Sm  Sm18  1  0.20135253  0.79864735  0.65941395  1
  Sm  Sm19  1  0.40270484  0.20135273  0.15941479  1
  Sm  Sm20  1  0.79864754  0.59729583  0.15941479  1
  Sm  Sm21  1  0.20135213  0.40270426  0.65941395  1
  Sm  Sm22  1  0.59729483  0.79864735  0.65941395  1
  Sm  Sm23  1  0.79864819  0.20135273  0.15941479  1
