# generated using pymatgen
data_TlTe
_symmetry_space_group_name_H-M   'P 1'
_cell_length_a   6.31754692
_cell_length_b   9.81701104
_cell_length_c   9.81701103
_cell_angle_alpha   84.05735243
_cell_angle_beta   71.23028383
_cell_angle_gamma   71.23028385
_symmetry_Int_Tables_number   1
_chemical_formula_structural   TlTe
_chemical_formula_sum   'Tl8 Te8'
_cell_volume   545.80987321
_cell_formula_units_Z   8
loop_
 _symmetry_equiv_pos_site_id
 _symmetry_equiv_pos_as_xyz
  1  'x, y, z'
loop_
 _atom_site_type_symbol
 _atom_site_label
 _atom_site_symmetry_multiplicity
 _atom_site_fract_x
 _atom_site_fract_y
 _atom_site_fract_z
 _atom_site_occupancy
  Te  Te0  1  0.75000000  0.00000000  0.00000000  1
  Te  Te1  1  0.25000000  0.00000000  0.00000000  1
  Te  Te2  1  0.50000000  0.50000000  0.50000000  1
  Te  Te3  1  0.00000000  0.50000000  0.50000000  1
  Te  Te4  1  0.83732303  0.50000000  0.82535393  1
  Te  Te5  1  0.66267697  0.17464607  0.50000000  1
  Te  Te6  1  0.33732303  0.82535393  0.50000000  1
  Te  Te7  1  0.16267697  0.50000000  0.17464607  1
  Tl  Tl8  1  0.57936097  0.69254728  0.14873078  1
  Tl  Tl9  1  0.42063903  0.30745272  0.85126922  1
  Tl  Tl10  1  0.72809175  0.85126922  0.69254728  1
  Tl  Tl11  1  0.27190825  0.14873078  0.30745272  1
  Tl  Tl12  1  0.92063903  0.85126922  0.30745272  1
  Tl  Tl13  1  0.22809175  0.69254728  0.85126922  1
  Tl  Tl14  1  0.77190825  0.30745272  0.14873078  1
  Tl  Tl15  1  0.07936097  0.14873078  0.69254728  1
