# generated using pymatgen
data_Sr2DyCu3(PbO4)2
_symmetry_space_group_name_H-M   'P 1'
_cell_length_a   3.83396461
_cell_length_b   3.83396462
_cell_length_c   16.03081411
_cell_angle_alpha   90.00000000
_cell_angle_beta   90.00000000
_cell_angle_gamma   90.00444147
_symmetry_Int_Tables_number   1
_chemical_formula_structural   Sr2DyCu3(PbO4)2
_chemical_formula_sum   'Sr2 Dy1 Cu3 Pb2 O8'
_cell_volume   235.64149937
_cell_formula_units_Z   1
loop_
 _symmetry_equiv_pos_site_id
 _symmetry_equiv_pos_as_xyz
  1  'x, y, z'
loop_
 _atom_site_type_symbol
 _atom_site_label
 _atom_site_symmetry_multiplicity
 _atom_site_fract_x
 _atom_site_fract_y
 _atom_site_fract_z
 _atom_site_occupancy
  O  O0  1  0.00000000  0.50000000  0.90918253  1
  O  O1  1  0.50000000  0.00000000  0.09081747  1
  O  O2  1  0.00000000  0.50000000  0.09081747  1
  O  O3  1  0.50000000  0.00000000  0.90918253  1
  O  O4  1  0.00000000  0.00000000  0.38362913  1
  O  O5  1  0.50000000  0.50000000  0.74965979  1
  O  O6  1  0.50000000  0.50000000  0.25034021  1
  O  O7  1  0.00000000  0.00000000  0.61637087  1
  Cu  Cu8  1  0.00000000  0.00000000  0.50000000  1
  Cu  Cu9  1  0.50000000  0.50000000  0.89649525  1
  Cu  Cu10  1  0.50000000  0.50000000  0.10350475  1
  Sr  Sr11  1  0.00000000  0.00000000  0.77961625  1
  Sr  Sr12  1  0.00000000  0.00000000  0.22038375  1
  Dy  Dy13  1  0.00000000  0.00000000  0.00000000  1
  Pb  Pb14  1  0.50000000  0.50000000  0.38688647  1
  Pb  Pb15  1  0.50000000  0.50000000  0.61311353  1
