# generated using pymatgen
data_TlI
_symmetry_space_group_name_H-M   'P 1'
_cell_length_a   4.74040726
_cell_length_b   5.30780328
_cell_length_c   7.08725567
_cell_angle_alpha   90.00000000
_cell_angle_beta   109.53798935
_cell_angle_gamma   90.00000000
_symmetry_Int_Tables_number   1
_chemical_formula_structural   TlI
_chemical_formula_sum   'Tl2 I2'
_cell_volume   168.05562260
_cell_formula_units_Z   2
loop_
 _symmetry_equiv_pos_site_id
 _symmetry_equiv_pos_as_xyz
  1  'x, y, z'
loop_
 _atom_site_type_symbol
 _atom_site_label
 _atom_site_symmetry_multiplicity
 _atom_site_fract_x
 _atom_site_fract_y
 _atom_site_fract_z
 _atom_site_occupancy
  I  I0  1  0.86741554  0.25000000  0.73483107  1
  I  I1  1  0.13258446  0.75000000  0.26516893  1
  Tl  Tl2  1  0.61398657  0.25000000  0.22797314  1
  Tl  Tl3  1  0.38601343  0.75000000  0.77202686  1
