# generated using pymatgen
data_UCrS3
_symmetry_space_group_name_H-M   'P 1'
_cell_length_a   6.10344248
_cell_length_b   7.06934737
_cell_length_c   8.86798416
_cell_angle_alpha   90.00000000
_cell_angle_beta   90.00000000
_cell_angle_gamma   90.00000000
_symmetry_Int_Tables_number   1
_chemical_formula_structural   UCrS3
_chemical_formula_sum   'U4 Cr4 S12'
_cell_volume   382.63006108
_cell_formula_units_Z   4
loop_
 _symmetry_equiv_pos_site_id
 _symmetry_equiv_pos_as_xyz
  1  'x, y, z'
loop_
 _atom_site_type_symbol
 _atom_site_label
 _atom_site_symmetry_multiplicity
 _atom_site_fract_x
 _atom_site_fract_y
 _atom_site_fract_z
 _atom_site_occupancy
  S  S0  1  0.33412361  0.82074822  0.94205433  1
  S  S1  1  0.16587639  0.32074822  0.94205433  1
  S  S2  1  0.66587639  0.17925178  0.05794567  1
  S  S3  1  0.33412361  0.82074822  0.55794567  1
  S  S4  1  0.14527247  0.04165508  0.25000000  1
  S  S5  1  0.64527247  0.45834492  0.75000000  1
  S  S6  1  0.35472753  0.54165508  0.25000000  1
  S  S7  1  0.85472753  0.95834492  0.75000000  1
  S  S8  1  0.16587639  0.32074822  0.55794567  1
  S  S9  1  0.66587639  0.17925178  0.44205433  1
  S  S10  1  0.83412361  0.67925178  0.05794567  1
  S  S11  1  0.83412361  0.67925178  0.44205433  1
  Cr  Cr12  1  0.00000000  0.00000000  0.00000000  1
  Cr  Cr13  1  0.00000000  0.00000000  0.50000000  1
  Cr  Cr14  1  0.50000000  0.50000000  0.50000000  1
  Cr  Cr15  1  0.50000000  0.50000000  0.00000000  1
  U  U16  1  0.94337102  0.38133236  0.25000000  1
  U  U17  1  0.44337102  0.11866764  0.75000000  1
  U  U18  1  0.55662898  0.88133236  0.25000000  1
  U  U19  1  0.05662898  0.61866764  0.75000000  1
