# generated using pymatgen
data_Nd4In5S13
_symmetry_space_group_name_H-M   'P 1'
_cell_length_a   3.97330004
_cell_length_b   12.00425948
_cell_length_c   21.70219881
_cell_angle_alpha   90.00000000
_cell_angle_beta   90.00000000
_cell_angle_gamma   90.00000000
_symmetry_Int_Tables_number   1
_chemical_formula_structural   Nd4In5S13
_chemical_formula_sum   'Nd8 In10 S26'
_cell_volume   1035.11946098
_cell_formula_units_Z   2
loop_
 _symmetry_equiv_pos_site_id
 _symmetry_equiv_pos_as_xyz
  1  'x, y, z'
loop_
 _atom_site_type_symbol
 _atom_site_label
 _atom_site_symmetry_multiplicity
 _atom_site_fract_x
 _atom_site_fract_y
 _atom_site_fract_z
 _atom_site_occupancy
  S  S0  1  0.00000000  0.00000000  0.50000000  1
  S  S1  1  0.00000000  0.50000000  0.00000000  1
  S  S2  1  0.50000000  0.83849158  0.61335886  1
  S  S3  1  0.50000000  0.16150842  0.38664114  1
  S  S4  1  0.50000000  0.33849158  0.88664114  1
  S  S5  1  0.50000000  0.66150842  0.11335886  1
  S  S6  1  0.00000000  0.66868771  0.73907204  1
  S  S7  1  0.00000000  0.33131229  0.26092796  1
  S  S8  1  0.00000000  0.16868771  0.76092796  1
  S  S9  1  0.00000000  0.83131229  0.23907204  1
  S  S10  1  0.00000000  0.70254191  0.47682479  1
  S  S11  1  0.00000000  0.29745809  0.52317521  1
  S  S12  1  0.00000000  0.20254191  0.02317521  1
  S  S13  1  0.00000000  0.79745809  0.97682479  1
  S  S14  1  0.50000000  0.49822236  0.59173713  1
  S  S15  1  0.50000000  0.50177764  0.40826287  1
  S  S16  1  0.50000000  0.99822236  0.90826287  1
  S  S17  1  0.50000000  0.00177764  0.09173713  1
  S  S18  1  0.50000000  0.65225622  0.86702399  1
  S  S19  1  0.50000000  0.34774378  0.13297601  1
  S  S20  1  0.50000000  0.15225622  0.63297601  1
  S  S21  1  0.50000000  0.84774378  0.36702399  1
  S  S22  1  0.50000000  0.07870282  0.23891977  1
  S  S23  1  0.50000000  0.92129718  0.76108023  1
  S  S24  1  0.50000000  0.57870282  0.26108023  1
  S  S25  1  0.50000000  0.42129718  0.73891977  1
  In  In26  1  0.50000000  0.65402757  0.67003051  1
  In  In27  1  0.50000000  0.34597243  0.32996949  1
  In  In28  1  0.50000000  0.15402757  0.82996949  1
  In  In29  1  0.50000000  0.84597243  0.17003051  1
  In  In30  1  0.50000000  0.84486440  0.49274948  1
  In  In31  1  0.50000000  0.15513560  0.50725052  1
  In  In32  1  0.50000000  0.34486440  0.00725052  1
  In  In33  1  0.50000000  0.65513560  0.99274948  1
  In  In34  1  0.00000000  0.50000000  0.50000000  1
  In  In35  1  0.00000000  0.00000000  0.00000000  1
  Nd  Nd36  1  0.00000000  0.48206798  0.83057208  1
  Nd  Nd37  1  0.00000000  0.51793202  0.16942792  1
  Nd  Nd38  1  0.00000000  0.98206798  0.66942792  1
  Nd  Nd39  1  0.00000000  0.01793202  0.33057208  1
  Nd  Nd40  1  0.00000000  0.66907601  0.34224859  1
  Nd  Nd41  1  0.00000000  0.33092399  0.65775141  1
  Nd  Nd42  1  0.00000000  0.16907601  0.15775141  1
  Nd  Nd43  1  0.00000000  0.83092399  0.84224859  1
