# generated using pymatgen
data_Bi2O3
_symmetry_space_group_name_H-M   'P 1'
_cell_length_a   5.72670429
_cell_length_b   8.07516447
_cell_length_c   8.07516447
_cell_angle_alpha   90.00000000
_cell_angle_beta   90.00000000
_cell_angle_gamma   90.00000000
_symmetry_Int_Tables_number   1
_chemical_formula_structural   Bi2O3
_chemical_formula_sum   'Bi8 O12'
_cell_volume   373.42854379
_cell_formula_units_Z   4
loop_
 _symmetry_equiv_pos_site_id
 _symmetry_equiv_pos_as_xyz
  1  'x, y, z'
loop_
 _atom_site_type_symbol
 _atom_site_label
 _atom_site_symmetry_multiplicity
 _atom_site_fract_x
 _atom_site_fract_y
 _atom_site_fract_z
 _atom_site_occupancy
  O  O0  1  0.56997856  0.00000000  0.50000000  1
  O  O1  1  0.43002144  0.50000000  0.00000000  1
  O  O2  1  0.93002144  0.50000000  0.00000000  1
  O  O3  1  0.06997856  0.00000000  0.50000000  1
  O  O4  1  0.43081278  0.71268312  0.67256351  1
  O  O5  1  0.43081278  0.28731688  0.32743649  1
  O  O6  1  0.56918722  0.32743649  0.71268312  1
  O  O7  1  0.56918722  0.67256351  0.28731688  1
  O  O8  1  0.93081278  0.17256351  0.21268312  1
  O  O9  1  0.06918722  0.21268312  0.82743649  1
  O  O10  1  0.06918722  0.78731688  0.17256351  1
  O  O11  1  0.93081278  0.82743649  0.78731688  1
  Bi  Bi12  1  0.74443396  0.76495779  0.53304736  1
  Bi  Bi13  1  0.74443396  0.23504221  0.46695264  1
  Bi  Bi14  1  0.25556604  0.46695264  0.76495779  1
  Bi  Bi15  1  0.25556604  0.53304736  0.23504221  1
  Bi  Bi16  1  0.24443396  0.96695264  0.73504221  1
  Bi  Bi17  1  0.75556604  0.73504221  0.03304736  1
  Bi  Bi18  1  0.75556604  0.26495779  0.96695264  1
  Bi  Bi19  1  0.24443396  0.03304736  0.26495779  1
