# generated using pymatgen
data_NpBr3
_symmetry_space_group_name_H-M   'P 1'
_cell_length_a   7.98807137
_cell_length_b   7.98807137
_cell_length_c   4.43653402
_cell_angle_alpha   90.00000000
_cell_angle_beta   90.00000000
_cell_angle_gamma   120.00000006
_symmetry_Int_Tables_number   1
_chemical_formula_structural   NpBr3
_chemical_formula_sum   'Np2 Br6'
_cell_volume   245.16491561
_cell_formula_units_Z   2
loop_
 _symmetry_equiv_pos_site_id
 _symmetry_equiv_pos_as_xyz
  1  'x, y, z'
loop_
 _atom_site_type_symbol
 _atom_site_label
 _atom_site_symmetry_multiplicity
 _atom_site_fract_x
 _atom_site_fract_y
 _atom_site_fract_z
 _atom_site_occupancy
  Br  Br0  1  0.61114954  0.69734450  0.75000000  1
  Br  Br1  1  0.91380504  0.61114954  0.25000000  1
  Br  Br2  1  0.38885046  0.30265550  0.25000000  1
  Br  Br3  1  0.08619496  0.38885046  0.75000000  1
  Br  Br4  1  0.30265550  0.91380504  0.75000000  1
  Br  Br5  1  0.69734450  0.08619496  0.25000000  1
  Np  Np6  1  0.66666667  0.33333333  0.75000000  1
  Np  Np7  1  0.33333333  0.66666667  0.25000000  1
