# generated using pymatgen
data_LiYb2Cl5
_symmetry_space_group_name_H-M   'P 1'
_cell_length_a   6.48639415
_cell_length_b   7.07439697
_cell_length_c   8.24570846
_cell_angle_alpha   95.00523659
_cell_angle_beta   113.16120023
_cell_angle_gamma   90.00000004
_symmetry_Int_Tables_number   1
_chemical_formula_structural   LiYb2Cl5
_chemical_formula_sum   'Li2 Yb4 Cl10'
_cell_volume   346.30745821
_cell_formula_units_Z   2
loop_
 _symmetry_equiv_pos_site_id
 _symmetry_equiv_pos_as_xyz
  1  'x, y, z'
loop_
 _atom_site_type_symbol
 _atom_site_label
 _atom_site_symmetry_multiplicity
 _atom_site_fract_x
 _atom_site_fract_y
 _atom_site_fract_z
 _atom_site_occupancy
  Li  Li0  1  0.00000000  0.00000000  0.50000000  1
  Li  Li1  1  0.50000000  0.50000000  0.50000000  1
  Cl  Cl2  1  0.47302281  0.42346761  0.18119577  1
  Cl  Cl3  1  0.93567429  0.25000000  0.00000000  1
  Cl  Cl4  1  0.06432571  0.75000000  0.00000000  1
  Cl  Cl5  1  0.14557282  0.31767572  0.43748517  1
  Cl  Cl6  1  0.85442718  0.68232428  0.56251483  1
  Cl  Cl7  1  0.29191234  0.81767572  0.43748517  1
  Cl  Cl8  1  0.70808766  0.18232428  0.56251483  1
  Cl  Cl9  1  0.52697719  0.57653239  0.81880423  1
  Cl  Cl10  1  0.70817296  0.92346761  0.18119577  1
  Cl  Cl11  1  0.29182704  0.07653239  0.81880423  1
  Yb  Yb12  1  0.87521429  0.56922552  0.20606971  1
  Yb  Yb13  1  0.33085542  0.06922552  0.20606971  1
  Yb  Yb14  1  0.12478571  0.43077448  0.79393029  1
  Yb  Yb15  1  0.66914458  0.93077448  0.79393029  1
