# generated using pymatgen
data_Pr4As3
_symmetry_space_group_name_H-M   'P 1'
_cell_length_a   7.90347281
_cell_length_b   7.90347280
_cell_length_c   7.90347281
_cell_angle_alpha   109.47122067
_cell_angle_beta   109.47122067
_cell_angle_gamma   109.47122060
_symmetry_Int_Tables_number   1
_chemical_formula_structural   Pr4As3
_chemical_formula_sum   'Pr8 As6'
_cell_volume   380.04235370
_cell_formula_units_Z   2
loop_
 _symmetry_equiv_pos_site_id
 _symmetry_equiv_pos_as_xyz
  1  'x, y, z'
loop_
 _atom_site_type_symbol
 _atom_site_label
 _atom_site_symmetry_multiplicity
 _atom_site_fract_x
 _atom_site_fract_y
 _atom_site_fract_z
 _atom_site_occupancy
  As  As0  1  0.25000000  0.62500000  0.37500000  1
  As  As1  1  0.37500000  0.25000000  0.62500000  1
  As  As2  1  0.12500000  0.75000000  0.87500000  1
  As  As3  1  0.87500000  0.12500000  0.75000000  1
  As  As4  1  0.62500000  0.37500000  0.25000000  1
  As  As5  1  0.75000000  0.87500000  0.12500000  1
  Pr  Pr6  1  0.13235489  0.13235489  0.13235489  1
  Pr  Pr7  1  0.86764511  0.50000000  0.00000000  1
  Pr  Pr8  1  0.00000000  0.86764511  0.50000000  1
  Pr  Pr9  1  0.50000000  0.00000000  0.86764511  1
  Pr  Pr10  1  0.00000000  0.36764511  0.50000000  1
  Pr  Pr11  1  0.50000000  0.00000000  0.36764511  1
  Pr  Pr12  1  0.36764511  0.50000000  0.00000000  1
  Pr  Pr13  1  0.63235489  0.63235489  0.63235489  1
