# generated using pymatgen
data_KGdP2H4O9
_symmetry_space_group_name_H-M   'P 1'
_cell_length_a   7.90497135
_cell_length_b   10.20604358
_cell_length_c   10.69764376
_cell_angle_alpha   90.00000000
_cell_angle_beta   90.00000000
_cell_angle_gamma   93.48973750
_symmetry_Int_Tables_number   1
_chemical_formula_structural   KGdP2H4O9
_chemical_formula_sum   'K4 Gd4 P8 H16 O36'
_cell_volume   861.46928524
_cell_formula_units_Z   4
loop_
 _symmetry_equiv_pos_site_id
 _symmetry_equiv_pos_as_xyz
  1  'x, y, z'
loop_
 _atom_site_type_symbol
 _atom_site_label
 _atom_site_symmetry_multiplicity
 _atom_site_fract_x
 _atom_site_fract_y
 _atom_site_fract_z
 _atom_site_occupancy
  H  H0  1  0.15217875  0.03571840  0.90709460  1
  H  H1  1  0.84782125  0.46428160  0.40709460  1
  H  H2  1  0.84782125  0.96428160  0.09290540  1
  H  H3  1  0.15217875  0.53571840  0.59290540  1
  H  H4  1  0.28986963  0.03670618  0.01749858  1
  H  H5  1  0.71013037  0.46329382  0.51749858  1
  H  H6  1  0.71013037  0.96329382  0.98250142  1
  H  H7  1  0.28986963  0.53670618  0.48250142  1
  H  H8  1  0.57019295  0.63139593  0.57524680  1
  H  H9  1  0.42980705  0.86860407  0.07524680  1
  H  H10  1  0.42980705  0.36860407  0.42475320  1
  H  H11  1  0.57019295  0.13139593  0.92475320  1
  H  H12  1  0.53468121  0.53753527  0.68927153  1
  H  H13  1  0.46531879  0.96246473  0.18927153  1
  H  H14  1  0.46531879  0.46246473  0.31072847  1
  H  H15  1  0.53468121  0.03753527  0.81072847  1
  O  O16  1  0.22632545  0.09259528  0.95915366  1
  O  O17  1  0.77367455  0.40740472  0.45915366  1
  O  O18  1  0.77367455  0.90740472  0.04084634  1
  O  O19  1  0.22632545  0.59259528  0.54084634  1
  O  O20  1  0.62015089  0.56087550  0.62442782  1
  O  O21  1  0.37984911  0.93912450  0.12442782  1
  O  O22  1  0.37984911  0.43912450  0.37557218  1
  O  O23  1  0.62015089  0.06087550  0.87557218  1
  O  O24  1  0.04912307  0.20590433  0.77051442  1
  O  O25  1  0.95087693  0.29409567  0.27051442  1
  O  O26  1  0.95087693  0.79409567  0.22948558  1
  O  O27  1  0.04912307  0.70590433  0.72948558  1
  O  O28  1  0.87372728  0.14716346  0.57880785  1
  O  O29  1  0.12627272  0.35283654  0.07880785  1
  O  O30  1  0.12627272  0.85283654  0.42119215  1
  O  O31  1  0.87372728  0.64716346  0.92119215  1
  O  O32  1  0.05478088  0.97643329  0.67885446  1
  O  O33  1  0.94521912  0.52356671  0.17885446  1
  O  O34  1  0.94521912  0.02356671  0.32114554  1
  O  O35  1  0.05478088  0.47643329  0.82114554  1
  O  O36  1  0.19345508  0.17164505  0.56080267  1
  O  O37  1  0.80654492  0.32835495  0.06080267  1
  O  O38  1  0.80654492  0.82835495  0.43919733  1
  O  O39  1  0.19345508  0.67164505  0.93919733  1
  O  O40  1  0.41452488  0.26493878  0.71732298  1
  O  O41  1  0.58547512  0.23506122  0.21732298  1
  O  O42  1  0.58547512  0.73506122  0.28267702  1
  O  O43  1  0.41452488  0.76493878  0.78267702  1
  O  O44  1  0.49155592  0.21580213  0.49252691  1
  O  O45  1  0.50844408  0.28419787  0.99252691  1
  O  O46  1  0.50844408  0.78419787  0.50747309  1
  O  O47  1  0.49155592  0.71580213  0.00747309  1
  O  O48  1  0.41955887  0.02661648  0.64673629  1
  O  O49  1  0.58044113  0.47338352  0.14673629  1
  O  O50  1  0.58044113  0.97338352  0.35326371  1
  O  O51  1  0.41955887  0.52661648  0.85326371  1
  P  P52  1  0.03401498  0.12198375  0.65220475  1
  P  P53  1  0.96598502  0.37801625  0.15220475  1
  P  P54  1  0.96598502  0.87801625  0.34779525  1
  P  P55  1  0.03401498  0.62198375  0.84779525  1
  P  P56  1  0.39141745  0.16837957  0.60827510  1
  P  P57  1  0.60858255  0.33162043  0.10827510  1
  P  P58  1  0.60858255  0.83162043  0.39172490  1
  P  P59  1  0.39141745  0.66837957  0.89172490  1
  K  K60  1  0.75349993  0.33272955  0.78127974  1
  K  K61  1  0.24650007  0.16727045  0.28127974  1
  K  K62  1  0.24650007  0.66727045  0.21872026  1
  K  K63  1  0.75349993  0.83272955  0.71872026  1
  Gd  Gd64  1  0.25183742  0.32620100  0.88660538  1
  Gd  Gd65  1  0.74816258  0.17379900  0.38660538  1
  Gd  Gd66  1  0.74816258  0.67379900  0.11339462  1
  Gd  Gd67  1  0.25183742  0.82620100  0.61339462  1
