# generated using pymatgen
data_BaGe2
_symmetry_space_group_name_H-M   'P 1'
_cell_length_a   4.82627975
_cell_length_b   4.82627975
_cell_length_c   8.19955151
_cell_angle_alpha   107.11565384
_cell_angle_beta   107.11565380
_cell_angle_gamma   90.00000005
_symmetry_Int_Tables_number   1
_chemical_formula_structural   BaGe2
_chemical_formula_sum   'Ba2 Ge4'
_cell_volume   173.66340331
_cell_formula_units_Z   2
loop_
 _symmetry_equiv_pos_site_id
 _symmetry_equiv_pos_as_xyz
  1  'x, y, z'
loop_
 _atom_site_type_symbol
 _atom_site_label
 _atom_site_symmetry_multiplicity
 _atom_site_fract_x
 _atom_site_fract_y
 _atom_site_fract_z
 _atom_site_occupancy
  Ge  Ge0  1  0.70812125  0.95812125  0.91624250  1
  Ge  Ge1  1  0.45812125  0.20812125  0.41624250  1
  Ge  Ge2  1  0.54187875  0.79187875  0.58375750  1
  Ge  Ge3  1  0.29187875  0.04187875  0.08375750  1
  Ba  Ba4  1  0.87500000  0.62500000  0.25000000  1
  Ba  Ba5  1  0.12500000  0.37500000  0.75000000  1
