# generated using pymatgen
data_YMnO3
_symmetry_space_group_name_H-M   'P 1'
_cell_length_a   5.33623054
_cell_length_b   5.88945471
_cell_length_c   7.49550978
_cell_angle_alpha   90.00000000
_cell_angle_beta   90.00000000
_cell_angle_gamma   90.00000000
_symmetry_Int_Tables_number   1
_chemical_formula_structural   YMnO3
_chemical_formula_sum   'Y4 Mn4 O12'
_cell_volume   235.56504432
_cell_formula_units_Z   4
loop_
 _symmetry_equiv_pos_site_id
 _symmetry_equiv_pos_as_xyz
  1  'x, y, z'
loop_
 _atom_site_type_symbol
 _atom_site_label
 _atom_site_symmetry_multiplicity
 _atom_site_fract_x
 _atom_site_fract_y
 _atom_site_fract_z
 _atom_site_occupancy
  Y  Y0  1  0.51815554  0.58293142  0.25000000  1
  Y  Y1  1  0.98184446  0.08293142  0.25000000  1
  Y  Y2  1  0.48184446  0.41706858  0.75000000  1
  Y  Y3  1  0.01815554  0.91706858  0.75000000  1
  Mn  Mn4  1  -0.00000000  0.50000000  0.00000000  1
  Mn  Mn5  1  0.50000000  0.00000000  0.50000000  1
  Mn  Mn6  1  0.00000000  0.50000000  0.50000000  1
  Mn  Mn7  1  0.50000000  0.00000000  -0.00000000  1
  O  O8  1  0.38313533  0.95836955  0.25000000  1
  O  O9  1  0.11686467  0.45836955  0.25000000  1
  O  O10  1  0.61686467  0.04163045  0.75000000  1
  O  O11  1  0.88313533  0.54163045  0.75000000  1
  O  O12  1  0.80008241  0.82716690  0.05566595  1
  O  O13  1  0.69991759  0.32716690  0.44433405  1
  O  O14  1  0.19991759  0.17283310  0.55566595  1
  O  O15  1  0.30008241  0.67283310  0.94433405  1
  O  O16  1  0.19991759  0.17283310  0.94433405  1
  O  O17  1  0.30008241  0.67283310  0.55566595  1
  O  O18  1  0.80008241  0.82716690  0.44433405  1
  O  O19  1  0.69991759  0.32716690  0.05566595  1
