# generated using pymatgen
data_BaDyFe2O5
_symmetry_space_group_name_H-M   'P 1'
_cell_length_a   3.97875596
_cell_length_b   7.73396613
_cell_length_c   7.93220879
_cell_angle_alpha   90.00000000
_cell_angle_beta   90.00000000
_cell_angle_gamma   90.00000000
_symmetry_Int_Tables_number   1
_chemical_formula_structural   BaDyFe2O5
_chemical_formula_sum   'Ba2 Dy2 Fe4 O10'
_cell_volume   244.08646913
_cell_formula_units_Z   2
loop_
 _symmetry_equiv_pos_site_id
 _symmetry_equiv_pos_as_xyz
  1  'x, y, z'
loop_
 _atom_site_type_symbol
 _atom_site_label
 _atom_site_symmetry_multiplicity
 _atom_site_fract_x
 _atom_site_fract_y
 _atom_site_fract_z
 _atom_site_occupancy
  O  O0  1  0.50000031  0.68164840  0.49418424  1
  O  O1  1  0.50000031  0.31835088  0.50581561  1
  O  O2  1  0.50000031  0.68164840  0.00581490  1
  O  O3  1  0.50000031  0.31835088  0.99418495  1
  O  O4  1  0.00000000  0.68326940  0.74999957  1
  O  O5  1  0.00000000  0.31673121  0.25000028  1
  O  O6  1  0.00000000  0.68323600  0.25000028  1
  O  O7  1  0.00000000  0.31676327  0.74999957  1
  O  O8  1  0.50000031  0.98506052  0.25000028  1
  O  O9  1  0.50000031  0.01494009  0.74999957  1
  Fe  Fe10  1  0.50000031  0.73704331  0.25000028  1
  Fe  Fe11  1  0.50000031  0.26295730  0.74999957  1
  Fe  Fe12  1  0.50000031  0.27983265  0.25000028  1
  Fe  Fe13  1  0.50000031  0.72016796  0.74999957  1
  Ba  Ba14  1  0.00000000  0.00000000  0.00000000  1
  Ba  Ba15  1  0.00000000  0.00000000  0.50000056  1
  Dy  Dy16  1  0.00000000  0.49999964  0.50000056  1
  Dy  Dy17  1  0.00000000  0.49999964  0.00000000  1
