# generated using pymatgen
data_CoSiH12(OF)6
_symmetry_space_group_name_H-M   'P 1'
_cell_length_a   6.40013813
_cell_length_b   6.40013814
_cell_length_c   6.40013813
_cell_angle_alpha   96.49782645
_cell_angle_beta   96.49782643
_cell_angle_gamma   96.49782646
_symmetry_Int_Tables_number   1
_chemical_formula_structural   CoSiH12(OF)6
_chemical_formula_sum   'Co1 Si1 H12 O6 F6'
_cell_volume   256.68788646
_cell_formula_units_Z   1
loop_
 _symmetry_equiv_pos_site_id
 _symmetry_equiv_pos_as_xyz
  1  'x, y, z'
loop_
 _atom_site_type_symbol
 _atom_site_label
 _atom_site_symmetry_multiplicity
 _atom_site_fract_x
 _atom_site_fract_y
 _atom_site_fract_z
 _atom_site_occupancy
  H  H0  1  0.31288677  0.20395787  0.81533200  1
  H  H1  1  0.20395806  0.81533178  0.31288651  1
  H  H2  1  0.81533207  0.31288588  0.20395738  1
  H  H3  1  0.68711401  0.79604265  0.18466784  1
  H  H4  1  0.79604271  0.18466874  0.68711333  1
  H  H5  1  0.18466851  0.68711305  0.79604227  1
  H  H6  1  0.40201956  0.20273697  0.05820131  1
  H  H7  1  0.20273770  0.05820200  0.40201930  1
  H  H8  1  0.05820123  0.40201973  0.20273682  1
  H  H9  1  0.79726308  0.94179852  0.59798055  1
  H  H10  1  0.94179797  0.59798077  0.79726285  1
  H  H11  1  0.59798122  0.79726355  0.94179853  1
  O  O12  1  0.12819157  0.93961964  0.30018569  1
  O  O13  1  0.93961935  0.30018645  0.12819132  1
  O  O14  1  0.69981453  0.87180901  0.06038149  1
  O  O15  1  0.87180921  0.06038088  0.69981415  1
  O  O16  1  0.06038143  0.69981407  0.87180853  1
  O  O17  1  0.30018624  0.12819151  0.93961836  1
  F  F18  1  0.67037964  0.70247488  0.43320607  1
  F  F19  1  0.70247554  0.43320669  0.67037990  1
  F  F20  1  0.43320594  0.67037869  0.70247426  1
  F  F21  1  0.32962113  0.29752564  0.56679377  1
  F  F22  1  0.56679307  0.32962024  0.29752522  1
  F  F23  1  0.29752523  0.56679383  0.32961995  1
  Si  Si24  1  0.50000039  0.50000026  0.49999992  1
  Co  Co25  1  0.00000000  0.00000000  0.00000000  1
