# generated using pymatgen
data_Co3(BO3)2
_symmetry_space_group_name_H-M   'P 1'
_cell_length_a   4.57234280
_cell_length_b   5.50238979
_cell_length_c   8.53012544
_cell_angle_alpha   89.98183411
_cell_angle_beta   90.00031302
_cell_angle_gamma   89.96400446
_symmetry_Int_Tables_number   1
_chemical_formula_structural   Co3(BO3)2
_chemical_formula_sum   'Co6 B4 O12'
_cell_volume   214.60777187
_cell_formula_units_Z   2
loop_
 _symmetry_equiv_pos_site_id
 _symmetry_equiv_pos_as_xyz
  1  'x, y, z'
loop_
 _atom_site_type_symbol
 _atom_site_label
 _atom_site_symmetry_multiplicity
 _atom_site_fract_x
 _atom_site_fract_y
 _atom_site_fract_z
 _atom_site_occupancy
  Co  Co0  1  0.99999351  0.50018959  0.81272457  1
  Co  Co1  1  0.99996920  0.99970992  -0.00006609  1
  Co  Co2  1  0.49988733  0.99973891  0.31250868  1
  Co  Co3  1  0.50017957  0.00035775  0.68736058  1
  Co  Co4  1  0.00008687  0.49957787  0.18738402  1
  Co  Co5  1  0.49991501  0.50030237  0.49984144  1
  B  B6  1  0.45789628  0.74516485  1.00003402  1
  B  B7  1  0.04266826  0.24547983  0.50018650  1
  B  B8  1  0.95722987  0.75506144  0.49995009  1
  B  B9  1  0.54212135  0.25434693  1.00000821  1
  O  O10  1  0.24946026  0.31721734  1.00001924  1
  O  O11  1  0.75030814  0.18233242  0.50005018  1
  O  O12  1  0.80104655  0.70798971  0.63789326  1
  O  O13  1  0.24962833  0.81832960  0.49985365  1
  O  O14  1  0.30167413  0.79215556  0.86196235  1
  O  O15  1  0.69869186  0.20801157  0.86196728  1
  O  O16  1  0.30125499  0.79174045  0.13794357  1
  O  O17  1  0.69856218  0.20731229  0.13797344  1
  O  O18  1  0.75050912  0.68210627  0.00016840  1
  O  O19  1  0.19901279  0.29254241  0.36219729  1
  O  O20  1  0.19900539  0.29255931  0.63805763  1
  O  O21  1  0.80089701  0.70777361  0.36198270  1
