# generated using pymatgen
data_MnVO4
_symmetry_space_group_name_H-M   'P 1'
_cell_length_a   5.02889322
_cell_length_b   5.02889322
_cell_length_c   6.45702741
_cell_angle_alpha   90.00000000
_cell_angle_beta   90.00000000
_cell_angle_gamma   68.71405779
_symmetry_Int_Tables_number   1
_chemical_formula_structural   MnVO4
_chemical_formula_sum   'Mn2 V2 O8'
_cell_volume   152.15666969
_cell_formula_units_Z   2
loop_
 _symmetry_equiv_pos_site_id
 _symmetry_equiv_pos_as_xyz
  1  'x, y, z'
loop_
 _atom_site_type_symbol
 _atom_site_label
 _atom_site_symmetry_multiplicity
 _atom_site_fract_x
 _atom_site_fract_y
 _atom_site_fract_z
 _atom_site_occupancy
  O  O0  1  0.22763177  0.22762948  0.46293939  1
  O  O1  1  0.73134000  0.21470512  0.25000064  1
  O  O2  1  0.21470420  0.73134202  0.25000064  1
  O  O3  1  0.26865944  0.78529594  0.75000034  1
  O  O4  1  0.22763177  0.22762948  0.03706190  1
  O  O5  1  0.77237047  0.77236947  0.96293909  1
  O  O6  1  0.78529524  0.26865903  0.75000034  1
  O  O7  1  0.77237047  0.77236947  0.53706160  1
  V  V8  1  0.64857429  0.64857287  0.75000034  1
  V  V9  1  0.35142597  0.35142604  0.25000064  1
  Mn  Mn10  1  0.00000000  0.00000000  0.49999970  1
  Mn  Mn11  1  0.00000000  0.00000000  0.00000000  1
