# generated using pymatgen
data_PbF2
_symmetry_space_group_name_H-M   'P 1'
_cell_length_a   3.94635977
_cell_length_b   6.56594505
_cell_length_c   7.80793976
_cell_angle_alpha   90.00000000
_cell_angle_beta   90.00000000
_cell_angle_gamma   90.00000000
_symmetry_Int_Tables_number   1
_chemical_formula_structural   PbF2
_chemical_formula_sum   'Pb4 F8'
_cell_volume   202.31606664
_cell_formula_units_Z   4
loop_
 _symmetry_equiv_pos_site_id
 _symmetry_equiv_pos_as_xyz
  1  'x, y, z'
loop_
 _atom_site_type_symbol
 _atom_site_label
 _atom_site_symmetry_multiplicity
 _atom_site_fract_x
 _atom_site_fract_y
 _atom_site_fract_z
 _atom_site_occupancy
  F  F0  1  0.25000000  0.98277830  0.64796055  1
  F  F1  1  0.75000000  0.01722170  0.35203945  1
  F  F2  1  0.25000000  0.48277830  0.85203945  1
  F  F3  1  0.75000000  0.51722170  0.14796055  1
  F  F4  1  0.75000000  0.14145010  0.92906175  1
  F  F5  1  0.25000000  0.85854990  0.07093825  1
  F  F6  1  0.75000000  0.64145010  0.57093825  1
  F  F7  1  0.25000000  0.35854990  0.42906175  1
  Pb  Pb8  1  0.25000000  0.75722130  0.40178298  1
  Pb  Pb9  1  0.75000000  0.24277870  0.59821702  1
  Pb  Pb10  1  0.25000000  0.25722130  0.09821702  1
  Pb  Pb11  1  0.75000000  0.74277870  0.90178298  1
