# generated using pymatgen
data_CrBiO3
_symmetry_space_group_name_H-M   'P 1'
_cell_length_a   5.56904834
_cell_length_b   5.56904835
_cell_length_c   9.76391202
_cell_angle_alpha   73.80585628
_cell_angle_beta   73.80585627
_cell_angle_gamma   60.17774859
_symmetry_Int_Tables_number   1
_chemical_formula_structural   CrBiO3
_chemical_formula_sum   'Cr4 Bi4 O12'
_cell_volume   248.69731320
_cell_formula_units_Z   4
loop_
 _symmetry_equiv_pos_site_id
 _symmetry_equiv_pos_as_xyz
  1  'x, y, z'
loop_
 _atom_site_type_symbol
 _atom_site_label
 _atom_site_symmetry_multiplicity
 _atom_site_fract_x
 _atom_site_fract_y
 _atom_site_fract_z
 _atom_site_occupancy
  O  O0  1  0.82990653  0.87360661  0.34048965  1
  O  O1  1  0.12639126  0.17009378  0.15951056  1
  O  O2  1  0.17009279  0.12639302  0.65951108  1
  O  O3  1  0.87360807  0.82990585  0.84048914  1
  O  O4  1  0.62785641  0.68277664  0.13491450  1
  O  O5  1  0.31722296  0.37214470  0.36508531  1
  O  O6  1  0.37214291  0.31722299  0.86508520  1
  O  O7  1  0.68277728  0.62785705  0.63491391  1
  O  O8  1  0.28097093  0.88605897  0.41642373  1
  O  O9  1  0.11394082  0.71902953  0.08357615  1
  O  O10  1  0.88605851  0.28097010  0.91642458  1
  O  O11  1  0.71903027  0.11394066  0.58357567  1
  Cr  Cr12  1  0.00000133  0.49999907  0.00000027  1
  Cr  Cr13  1  0.50000070  0.99999969  0.49999989  1
  Cr  Cr14  1  0.76076198  0.23923877  0.74999997  1
  Cr  Cr15  1  0.23923923  0.76076086  0.25000046  1
  Bi  Bi16  1  0.92289277  0.34550327  0.36917288  1
  Bi  Bi17  1  0.65449521  0.07710705  0.13082732  1
  Bi  Bi18  1  0.07710656  0.65449637  0.63082785  1
  Bi  Bi19  1  0.34550411  0.92289258  0.86917238  1
