# generated using pymatgen
data_Tl4HgI6
_symmetry_space_group_name_H-M   'P 1'
_cell_length_a   9.51306214
_cell_length_b   9.61601060
_cell_length_c   9.61601060
_cell_angle_alpha   90.00000000
_cell_angle_beta   90.00000000
_cell_angle_gamma   90.00000000
_symmetry_Int_Tables_number   1
_chemical_formula_structural   Tl4HgI6
_chemical_formula_sum   'Tl8 Hg2 I12'
_cell_volume   879.65059418
_cell_formula_units_Z   2
loop_
 _symmetry_equiv_pos_site_id
 _symmetry_equiv_pos_as_xyz
  1  'x, y, z'
loop_
 _atom_site_type_symbol
 _atom_site_label
 _atom_site_symmetry_multiplicity
 _atom_site_fract_x
 _atom_site_fract_y
 _atom_site_fract_z
 _atom_site_occupancy
  I  I0  1  0.50000000  0.35946991  0.17559493  1
  I  I1  1  0.50000000  0.64053009  0.82440507  1
  I  I2  1  0.50000000  0.17559493  0.64053009  1
  I  I3  1  0.50000000  0.82440507  0.35946991  1
  I  I4  1  0.00000000  0.67559493  0.85946991  1
  I  I5  1  0.00000000  0.14053009  0.67559493  1
  I  I6  1  0.00000000  0.85946991  0.32440507  1
  I  I7  1  0.00000000  0.32440507  0.14053009  1
  I  I8  1  0.78862764  0.50000000  0.50000000  1
  I  I9  1  0.71137236  0.00000000  0.00000000  1
  I  I10  1  0.28862764  0.00000000  0.00000000  1
  I  I11  1  0.21137236  0.50000000  0.50000000  1
  Hg  Hg12  1  0.50000000  0.50000000  0.50000000  1
  Hg  Hg13  1  0.00000000  0.00000000  0.00000000  1
  Tl  Tl14  1  0.75000000  0.34958036  0.84958036  1
  Tl  Tl15  1  0.75000000  0.15041964  0.34958036  1
  Tl  Tl16  1  0.75000000  0.84958036  0.65041964  1
  Tl  Tl17  1  0.75000000  0.65041964  0.15041964  1
  Tl  Tl18  1  0.25000000  0.65041964  0.15041964  1
  Tl  Tl19  1  0.25000000  0.84958036  0.65041964  1
  Tl  Tl20  1  0.25000000  0.15041964  0.34958036  1
  Tl  Tl21  1  0.25000000  0.34958036  0.84958036  1
