# generated using pymatgen
data_Nb3ClO7
_symmetry_space_group_name_H-M   'P 1'
_cell_length_a   3.90802560
_cell_length_b   11.07918046
_cell_length_c   15.86173605
_cell_angle_alpha   90.00000000
_cell_angle_beta   90.00000000
_cell_angle_gamma   90.00000000
_symmetry_Int_Tables_number   1
_chemical_formula_structural   Nb3ClO7
_chemical_formula_sum   'Nb12 Cl4 O28'
_cell_volume   686.77701992
_cell_formula_units_Z   4
loop_
 _symmetry_equiv_pos_site_id
 _symmetry_equiv_pos_as_xyz
  1  'x, y, z'
loop_
 _atom_site_type_symbol
 _atom_site_label
 _atom_site_symmetry_multiplicity
 _atom_site_fract_x
 _atom_site_fract_y
 _atom_site_fract_z
 _atom_site_occupancy
  O  O0  1  0.00675135  0.12600627  0.43302910  1
  O  O1  1  0.51499034  0.25000000  0.52520676  1
  O  O2  1  0.98500966  0.25000000  0.02520676  1
  O  O3  1  0.48500966  0.75000000  0.47479324  1
  O  O4  1  0.49303535  0.11570594  0.11341214  1
  O  O5  1  0.99303535  0.88429406  0.38658786  1
  O  O6  1  0.50696465  0.61570594  0.88658786  1
  O  O7  1  0.00696465  0.38429406  0.61341214  1
  O  O8  1  0.50696465  0.88429406  0.88658786  1
  O  O9  1  0.00696465  0.11570594  0.61341214  1
  O  O10  1  0.49303535  0.38429406  0.11341214  1
  O  O11  1  0.99303535  0.61570594  0.38658786  1
  O  O12  1  0.00243591  0.46990605  0.79978278  1
  O  O13  1  0.50243591  0.53009395  0.70021722  1
  O  O14  1  0.99756409  0.96990605  0.20021722  1
  O  O15  1  0.49324865  0.12600627  0.93302910  1
  O  O16  1  0.99756409  0.53009395  0.20021722  1
  O  O17  1  0.49756409  0.46990605  0.29978278  1
  O  O18  1  0.00243591  0.03009395  0.79978278  1
  O  O19  1  0.50243591  0.96990605  0.70021722  1
  O  O20  1  0.99324865  0.62600627  0.56697090  1
  O  O21  1  0.49324865  0.37399373  0.93302910  1
  O  O22  1  0.49756409  0.03009395  0.29978278  1
  O  O23  1  0.50675135  0.87399373  0.06697090  1
  O  O24  1  0.00675135  0.37399373  0.43302910  1
  O  O25  1  0.50675135  0.62600627  0.06697090  1
  O  O26  1  0.99324865  0.87399373  0.56697090  1
  O  O27  1  0.01499034  0.75000000  0.97479324  1
  Cl  Cl28  1  0.00736351  0.75000000  0.73991198  1
  Cl  Cl29  1  0.50736351  0.25000000  0.76008802  1
  Cl  Cl30  1  0.99263649  0.25000000  0.26008802  1
  Cl  Cl31  1  0.49263649  0.75000000  0.23991198  1
  Nb  Nb32  1  0.50088831  0.03710254  0.83556279  1
  Nb  Nb33  1  0.04946216  0.25000000  0.53088142  1
  Nb  Nb34  1  0.45053784  0.25000000  0.03088142  1
  Nb  Nb35  1  0.95053784  0.75000000  0.46911858  1
  Nb  Nb36  1  0.54946216  0.75000000  0.96911858  1
  Nb  Nb37  1  0.00088831  0.96289746  0.66443721  1
  Nb  Nb38  1  0.49911169  0.53710254  0.16443721  1
  Nb  Nb39  1  0.99911169  0.46289746  0.33556279  1
  Nb  Nb40  1  0.49911169  0.96289746  0.16443721  1
  Nb  Nb41  1  0.99911169  0.03710254  0.33556279  1
  Nb  Nb42  1  0.50088831  0.46289746  0.83556279  1
  Nb  Nb43  1  0.00088831  0.53710254  0.66443721  1
