# generated using pymatgen
data_Rb3Mn2Br7
_symmetry_space_group_name_H-M   'P 1'
_cell_length_a   5.40838323
_cell_length_b   5.40838323
_cell_length_c   14.42218796
_cell_angle_alpha   100.80704976
_cell_angle_beta   100.80704976
_cell_angle_gamma   90.00000003
_symmetry_Int_Tables_number   1
_chemical_formula_structural   Rb3Mn2Br7
_chemical_formula_sum   'Rb3 Mn2 Br7'
_cell_volume   406.75619994
_cell_formula_units_Z   1
loop_
 _symmetry_equiv_pos_site_id
 _symmetry_equiv_pos_as_xyz
  1  'x, y, z'
loop_
 _atom_site_type_symbol
 _atom_site_label
 _atom_site_symmetry_multiplicity
 _atom_site_fract_x
 _atom_site_fract_y
 _atom_site_fract_z
 _atom_site_occupancy
  Mn  Mn0  1  0.40008203  0.40008203  0.80016405  1
  Mn  Mn1  1  0.59991797  0.59991797  0.19983595  1
  Br  Br2  1  0.40407969  0.90407969  0.80815938  1
  Br  Br3  1  0.90407969  0.40407969  0.80815938  1
  Br  Br4  1  0.30555759  0.30555759  0.61111518  1
  Br  Br5  1  0.50000000  0.50000000  0.00000000  1
  Br  Br6  1  0.69444241  0.69444241  0.38888482  1
  Br  Br7  1  0.59592031  0.09592031  0.19184062  1
  Br  Br8  1  0.09592031  0.59592031  0.19184062  1
  Rb  Rb9  1  0.18082425  0.18082425  0.36164849  1
  Rb  Rb10  1  0.00000000  0.00000000  0.00000000  1
  Rb  Rb11  1  0.81917575  0.81917575  0.63835151  1
