# generated using pymatgen
data_Li5Bi2P5O18
_symmetry_space_group_name_H-M   'P 1'
_cell_length_a   9.53310320
_cell_length_b   11.23929243
_cell_length_c   6.79029565
_cell_angle_alpha   91.34974844
_cell_angle_beta   91.68292448
_cell_angle_gamma   97.36800227
_symmetry_Int_Tables_number   1
_chemical_formula_structural   Li5Bi2P5O18
_chemical_formula_sum   'Li10 Bi4 P10 O36'
_cell_volume   720.95587518
_cell_formula_units_Z   2
loop_
 _symmetry_equiv_pos_site_id
 _symmetry_equiv_pos_as_xyz
  1  'x, y, z'
loop_
 _atom_site_type_symbol
 _atom_site_label
 _atom_site_symmetry_multiplicity
 _atom_site_fract_x
 _atom_site_fract_y
 _atom_site_fract_z
 _atom_site_occupancy
  Li  Li0  1  0.04331835  0.86426412  0.98331449  1
  Li  Li1  1  0.95668165  0.13573588  0.01668551  1
  Li  Li2  1  0.88955927  0.64616931  0.17956338  1
  Li  Li3  1  0.77566332  0.33682255  0.86951890  1
  Li  Li4  1  0.72528757  0.40392411  0.40597683  1
  Li  Li5  1  0.11044073  0.35383069  0.82043662  1
  Li  Li6  1  0.22433668  0.66317745  0.13048110  1
  Li  Li7  1  0.27471243  0.59607589  0.59402317  1
  Li  Li8  1  0.37451328  0.85261444  0.33787011  1
  Li  Li9  1  0.62548672  0.14738556  0.66212989  1
  O  O10  1  0.88679332  0.47864103  0.25528314  1
  O  O11  1  0.97430881  0.67162850  0.58336835  1
  O  O12  1  0.91519680  0.11603343  0.35154866  1
  O  O13  1  0.97417999  0.31652869  0.04086291  1
  O  O14  1  0.02582001  0.68347131  0.95913709  1
  O  O15  1  0.08480320  0.88396657  0.64845134  1
  O  O16  1  0.02569119  0.32837150  0.41663165  1
  O  O17  1  0.02622722  0.18674469  0.68994873  1
  O  O18  1  0.11320668  0.52135897  0.74471686  1
  O  O19  1  0.15364696  0.47925759  0.20848279  1
  O  O20  1  0.20447644  0.73772861  0.42113554  1
  O  O21  1  0.15878499  0.04370108  0.01049428  1
  O  O22  1  0.33063675  0.82795335  0.03219323  1
  O  O23  1  0.23495775  0.20968876  0.27057812  1
  O  O24  1  0.39199437  0.92908898  0.69963345  1
  O  O25  1  0.30724182  0.33114076  0.88369376  1
  O  O26  1  0.27892016  0.00126758  0.34073707  1
  O  O27  1  0.97377278  0.81325531  0.31005127  1
  O  O28  1  0.37036465  0.42618531  0.56308438  1
  O  O29  1  0.43225162  0.60272622  0.18830771  1
  O  O30  1  0.41589074  0.11615115  0.06535494  1
  O  O31  1  0.43632053  0.21439033  0.63725969  1
  O  O32  1  0.56367947  0.78560967  0.36274031  1
  O  O33  1  0.58410926  0.88384885  0.93464506  1
  O  O34  1  0.56774838  0.39727378  0.81169229  1
  O  O35  1  0.62963535  0.57381469  0.43691562  1
  O  O36  1  0.57432776  0.28896614  0.24919093  1
  O  O37  1  0.72107984  0.99873242  0.65926293  1
  O  O38  1  0.69275818  0.66885924  0.11630624  1
  O  O39  1  0.60800563  0.07091102  0.30036655  1
  O  O40  1  0.76504225  0.79031124  0.72942188  1
  O  O41  1  0.66936325  0.17204665  0.96780677  1
  O  O42  1  0.84121501  0.95629892  0.98950572  1
  O  O43  1  0.79552356  0.26227139  0.57886446  1
  O  O44  1  0.84635304  0.52074241  0.79151721  1
  O  O45  1  0.42567224  0.71103386  0.75080907  1
  P  P46  1  0.57898415  0.65875609  0.27707703  1
  P  P47  1  0.57937787  0.16535031  0.14769880  1
  P  P48  1  0.73291570  0.90832273  0.82404180  1
  P  P49  1  0.93221578  0.21638932  0.51412954  1
  P  P50  1  0.00556730  0.40359425  0.21908028  1
  P  P51  1  0.06778422  0.78361068  0.48587046  1
  P  P52  1  0.26708430  0.09167727  0.17595820  1
  P  P53  1  0.99443270  0.59640575  0.78091972  1
  P  P54  1  0.42101585  0.34124391  0.72292297  1
  P  P55  1  0.42062213  0.83464969  0.85230120  1
  Bi  Bi56  1  0.76365510  0.93736114  0.33771032  1
  Bi  Bi57  1  0.63464804  0.60734950  0.77744888  1
  Bi  Bi58  1  0.36535196  0.39265050  0.22255112  1
  Bi  Bi59  1  0.23634490  0.06263886  0.66228968  1
