# generated using pymatgen
data_Na2Mn2S3
_symmetry_space_group_name_H-M   'P 1'
_cell_length_a   6.94902337
_cell_length_b   10.04786841
_cell_length_c   10.04786841
_cell_angle_alpha   83.46445970
_cell_angle_beta   70.20915816
_cell_angle_gamma   70.20915812
_symmetry_Int_Tables_number   1
_chemical_formula_structural   Na2Mn2S3
_chemical_formula_sum   'Na8 Mn8 S12'
_cell_volume   621.14160135
_cell_formula_units_Z   4
loop_
 _symmetry_equiv_pos_site_id
 _symmetry_equiv_pos_as_xyz
  1  'x, y, z'
loop_
 _atom_site_type_symbol
 _atom_site_label
 _atom_site_symmetry_multiplicity
 _atom_site_fract_x
 _atom_site_fract_y
 _atom_site_fract_z
 _atom_site_occupancy
  Na  Na0  1  0.87495605  0.01203803  0.18520102  1
  Na  Na1  1  0.62504395  0.81479898  0.98796197  1
  Na  Na2  1  0.12504395  0.98796197  0.81479898  1
  Na  Na3  1  0.37495605  0.18520102  0.01203803  1
  Na  Na4  1  0.75000000  0.71831759  0.28168241  1
  Na  Na5  1  0.25000000  0.28168241  0.71831759  1
  Na  Na6  1  0.75000000  0.42867961  0.57132039  1
  Na  Na7  1  0.25000000  0.57132039  0.42867961  1
  S  S8  1  0.04802459  0.77018839  0.99977521  1
  S  S9  1  0.54802459  0.99977521  0.77018839  1
  S  S10  1  0.95197541  0.22981161  0.00022479  1
  S  S11  1  0.44517526  0.42101837  0.85602586  1
  S  S12  1  0.05482474  0.14397414  0.57898163  1
  S  S13  1  0.55482474  0.57898163  0.14397414  1
  S  S14  1  0.45197541  0.00022479  0.22981161  1
  S  S15  1  0.94517526  0.85602586  0.42101837  1
  S  S16  1  0.93347203  0.57054054  0.72088065  1
  S  S17  1  0.56652797  0.27911935  0.42945946  1
  S  S18  1  0.06652797  0.42945946  0.27911935  1
  S  S19  1  0.43347203  0.72088065  0.57054054  1
  Mn  Mn20  1  0.24507065  0.91710492  0.44555994  1
  Mn  Mn21  1  0.75492935  0.08289508  0.55444006  1
  Mn  Mn22  1  0.74507065  0.44555994  0.91710492  1
  Mn  Mn23  1  0.20160156  0.63633509  0.78435792  1
  Mn  Mn24  1  0.29839844  0.21564208  0.36366491  1
  Mn  Mn25  1  0.79839844  0.36366491  0.21564208  1
  Mn  Mn26  1  0.70160156  0.78435792  0.63633509  1
  Mn  Mn27  1  0.25492935  0.55444006  0.08289508  1
