# generated using pymatgen
data_Nb(PO3)4
_symmetry_space_group_name_H-M   'P 1'
_cell_length_a   13.02629500
_cell_length_b   8.44621631
_cell_length_c   9.75165732
_cell_angle_alpha   90.00000000
_cell_angle_beta   90.00000000
_cell_angle_gamma   90.00000000
_symmetry_Int_Tables_number   1
_chemical_formula_structural   Nb(PO3)4
_chemical_formula_sum   'Nb4 P16 O48'
_cell_volume   1072.90566972
_cell_formula_units_Z   4
loop_
 _symmetry_equiv_pos_site_id
 _symmetry_equiv_pos_as_xyz
  1  'x, y, z'
loop_
 _atom_site_type_symbol
 _atom_site_label
 _atom_site_symmetry_multiplicity
 _atom_site_fract_x
 _atom_site_fract_y
 _atom_site_fract_z
 _atom_site_occupancy
  Nb  Nb0  1  0.00000000  0.35569378  0.75000000  1
  Nb  Nb1  1  0.50000000  0.14430622  0.25000000  1
  Nb  Nb2  1  0.00000000  0.64430622  0.25000000  1
  Nb  Nb3  1  0.50000000  0.85569378  0.75000000  1
  P  P4  1  0.84706840  0.46991054  0.48880863  1
  P  P5  1  0.34706840  0.03008946  0.51119137  1
  P  P6  1  0.65293160  0.96991054  0.48880863  1
  P  P7  1  0.64080464  0.32234228  0.49942177  1
  P  P8  1  0.64080464  0.67765772  0.99942177  1
  P  P9  1  0.85919536  0.82234228  0.49942177  1
  P  P10  1  0.14080464  0.17765772  0.50057823  1
  P  P11  1  0.65293160  0.03008946  0.98880863  1
  P  P12  1  0.84706840  0.53008946  0.98880863  1
  P  P13  1  0.85919536  0.17765772  0.99942177  1
  P  P14  1  0.14080464  0.82234228  0.00057823  1
  P  P15  1  0.15293160  0.46991054  0.01119137  1
  P  P16  1  0.35919536  0.67765772  0.50057823  1
  P  P17  1  0.15293160  0.53008946  0.51119137  1
  P  P18  1  0.35919536  0.32234228  0.00057823  1
  P  P19  1  0.34706840  0.96991054  0.01119137  1
  O  O20  1  0.31787905  0.14298225  0.96353588  1
  O  O21  1  0.92520535  0.47139795  0.37423918  1
  O  O22  1  0.25412767  0.60652713  0.56991936  1
  O  O23  1  0.60976573  0.40785872  0.62293500  1
  O  O24  1  0.56969224  0.30500945  0.37530848  1
  O  O25  1  0.93030776  0.19499055  0.87530848  1
  O  O26  1  0.06969224  0.80500945  0.12469152  1
  O  O27  1  0.57479465  0.02860205  0.87423918  1
  O  O28  1  0.18212095  0.35701775  0.46353588  1
  O  O29  1  0.39023427  0.40785872  0.87706500  1
  O  O30  1  0.75412767  0.89347287  0.43008064  1
  O  O31  1  0.39023427  0.59214128  0.37706500  1
  O  O32  1  0.31787905  0.85701775  0.46353588  1
  O  O33  1  0.88068260  0.37799863  0.61644797  1
  O  O34  1  0.89023427  0.09214128  0.12293500  1
  O  O35  1  0.81787905  0.64298225  0.53646412  1
  O  O36  1  0.43030776  0.69499055  0.62469152  1
  O  O37  1  0.25412767  0.39347287  0.06991936  1
  O  O38  1  0.68212095  0.14298225  0.53646412  1
  O  O39  1  0.07479465  0.47139795  0.12576082  1
  O  O40  1  0.61931740  0.87799863  0.61644797  1
  O  O41  1  0.56969224  0.69499055  0.87530848  1
  O  O42  1  0.18212095  0.64298225  0.96353588  1
  O  O43  1  0.68212095  0.85701775  0.03646412  1
  O  O44  1  0.42520535  0.97139795  0.12576082  1
  O  O45  1  0.42520535  0.02860205  0.62576082  1
  O  O46  1  0.92520535  0.52860205  0.87423918  1
  O  O47  1  0.06969224  0.19499055  0.62469152  1
  O  O48  1  0.24587233  0.89347287  0.06991936  1
  O  O49  1  0.10976573  0.90785872  0.87706500  1
  O  O50  1  0.11931740  0.37799863  0.88355203  1
  O  O51  1  0.38068260  0.12200137  0.38355203  1
  O  O52  1  0.89023427  0.90785872  0.62293500  1
  O  O53  1  0.75412767  0.10652713  0.93008064  1
  O  O54  1  0.74587233  0.39347287  0.43008064  1
  O  O55  1  0.81787905  0.35701775  0.03646412  1
  O  O56  1  0.11931740  0.62200137  0.38355203  1
  O  O57  1  0.93030776  0.80500945  0.37530848  1
  O  O58  1  0.61931740  0.12200137  0.11644797  1
  O  O59  1  0.60976573  0.59214128  0.12293500  1
  O  O60  1  0.24587233  0.10652713  0.56991936  1
  O  O61  1  0.43030776  0.30500945  0.12469152  1
  O  O62  1  0.74587233  0.60652713  0.93008064  1
  O  O63  1  0.88068260  0.62200137  0.11644797  1
  O  O64  1  0.07479465  0.52860205  0.62576082  1
  O  O65  1  0.57479465  0.97139795  0.37423918  1
  O  O66  1  0.10976573  0.09214128  0.37706500  1
  O  O67  1  0.38068260  0.87799863  0.88355203  1
