# generated using pymatgen
data_Li7SbO6
_symmetry_space_group_name_H-M   'P 1'
_cell_length_a   5.88613666
_cell_length_b   5.88613666
_cell_length_c   5.88613666
_cell_angle_alpha   57.13307495
_cell_angle_beta   57.13307490
_cell_angle_gamma   57.13307497
_symmetry_Int_Tables_number   1
_chemical_formula_structural   Li7SbO6
_chemical_formula_sum   'Li7 Sb1 O6'
_cell_volume   134.67735060
_cell_formula_units_Z   1
loop_
 _symmetry_equiv_pos_site_id
 _symmetry_equiv_pos_as_xyz
  1  'x, y, z'
loop_
 _atom_site_type_symbol
 _atom_site_label
 _atom_site_symmetry_multiplicity
 _atom_site_fract_x
 _atom_site_fract_y
 _atom_site_fract_z
 _atom_site_occupancy
  Li  Li0  1  0.65540594  0.65540594  0.65540594  1
  Li  Li1  1  0.12079767  0.72427617  0.49876191  1
  Li  Li2  1  0.72427617  0.49876191  0.12079767  1
  Li  Li3  1  0.49876191  0.12079767  0.72427617  1
  Li  Li4  1  0.93610901  0.23608573  0.48711958  1
  Li  Li5  1  0.23608573  0.48711958  0.93610901  1
  Li  Li6  1  0.48711958  0.93610901  0.23608573  1
  O  O7  1  0.79900931  0.07581505  0.37502898  1
  O  O8  1  0.23254576  0.88299362  0.64461831  1
  O  O9  1  0.88299362  0.64461831  0.23254576  1
  O  O10  1  0.37502898  0.79900931  0.07581505  1
  O  O11  1  0.07581505  0.37502898  0.79900931  1
  O  O12  1  0.64461831  0.23254576  0.88299362  1
  Sb  Sb13  1  0.00143296  0.00143296  0.00143296  1
