# generated using pymatgen
data_LiCoP2O7
_symmetry_space_group_name_H-M   'P 1'
_cell_length_a   4.52687933
_cell_length_b   5.24186100
_cell_length_c   5.23209149
_cell_angle_alpha   76.98014177
_cell_angle_beta   81.61553069
_cell_angle_gamma   98.33909811
_symmetry_Int_Tables_number   1
_chemical_formula_structural   LiCoP2O7
_chemical_formula_sum   'Li1 Co1 P2 O7'
_cell_volume   117.61363375
_cell_formula_units_Z   1
loop_
 _symmetry_equiv_pos_site_id
 _symmetry_equiv_pos_as_xyz
  1  'x, y, z'
loop_
 _atom_site_type_symbol
 _atom_site_label
 _atom_site_symmetry_multiplicity
 _atom_site_fract_x
 _atom_site_fract_y
 _atom_site_fract_z
 _atom_site_occupancy
  Li  Li0  1  0.72395878  0.30643355  0.91388577  1
  Co  Co1  1  0.72335075  0.93445210  0.54222351  1
  P  P2  1  0.31460635  0.38808395  0.41642671  1
  P  P3  1  0.13247816  0.80830228  0.99601625  1
  O  O4  1  0.43641323  0.98970447  0.84589511  1
  O  O5  1  0.97348992  0.93647493  0.19646610  1
  O  O6  1  0.92233548  0.71035050  0.81521735  1
  O  O7  1  0.47426049  0.58827192  0.54493131  1
  O  O8  1  0.22340178  0.53449611  0.14225157  1
  O  O9  1  0.01115647  0.23846194  0.59826857  1
  O  O10  1  0.52472659  0.20816824  0.31796675  1
