# generated using pymatgen
data_Zr2(V2Sb3)3
_symmetry_space_group_name_H-M   'P 1'
_cell_length_a   7.24146066
_cell_length_b   9.76661389
_cell_length_c   9.76661389
_cell_angle_alpha   90.00000000
_cell_angle_beta   90.00000000
_cell_angle_gamma   90.00000000
_symmetry_Int_Tables_number   1
_chemical_formula_structural   Zr2(V2Sb3)3
_chemical_formula_sum   'Zr4 V12 Sb18'
_cell_volume   690.73937499
_cell_formula_units_Z   2
loop_
 _symmetry_equiv_pos_site_id
 _symmetry_equiv_pos_as_xyz
  1  'x, y, z'
loop_
 _atom_site_type_symbol
 _atom_site_label
 _atom_site_symmetry_multiplicity
 _atom_site_fract_x
 _atom_site_fract_y
 _atom_site_fract_z
 _atom_site_occupancy
  Zr  Zr0  1  0.08525773  0.75000000  0.75000000  1
  Zr  Zr1  1  0.91474227  0.25000000  0.25000000  1
  Zr  Zr2  1  0.58695903  0.75000000  0.75000000  1
  Zr  Zr3  1  0.41304097  0.25000000  0.25000000  1
  V  V4  1  0.15926559  0.75000000  0.38893114  1
  V  V5  1  0.84073441  0.25000000  0.61106886  1
  V  V6  1  0.84073441  0.88893114  0.25000000  1
  V  V7  1  0.15926559  0.38893114  0.75000000  1
  V  V8  1  0.84073441  0.61106886  0.25000000  1
  V  V9  1  0.15926559  0.75000000  0.11106886  1
  V  V10  1  -0.00000000  0.50000000  0.50000000  1
  V  V11  1  -0.00000000  0.00000000  0.50000000  1
  V  V12  1  -0.00000000  0.50000000  0.00000000  1
  V  V13  1  0.84073441  0.25000000  0.88893114  1
  V  V14  1  0.15926559  0.11106886  0.75000000  1
  V  V15  1  -0.00000000  0.00000000  0.00000000  1
  Sb  Sb16  1  0.65309537  0.42269177  0.07730823  1
  Sb  Sb17  1  0.81729877  0.75000000  0.50194311  1
  Sb  Sb18  1  0.18270123  0.25000000  0.49805689  1
  Sb  Sb19  1  0.34690463  0.92269177  0.92269177  1
  Sb  Sb20  1  0.65309537  0.07730823  0.42269177  1
  Sb  Sb21  1  0.65309537  0.07730823  0.07730823  1
  Sb  Sb22  1  0.18270123  0.25000000  0.00194311  1
  Sb  Sb23  1  0.34690463  0.57730823  0.57730823  1
  Sb  Sb24  1  0.18270123  0.00194311  0.25000000  1
  Sb  Sb25  1  0.34690463  0.57730823  0.92269177  1
  Sb  Sb26  1  0.50000000  0.75000000  0.25000000  1
  Sb  Sb27  1  0.81729877  0.50194311  0.75000000  1
  Sb  Sb28  1  0.18270123  0.49805689  0.25000000  1
  Sb  Sb29  1  0.65309537  0.42269177  0.42269177  1
  Sb  Sb30  1  0.81729877  0.75000000  0.99805689  1
  Sb  Sb31  1  0.34690463  0.92269177  0.57730823  1
  Sb  Sb32  1  0.81729877  0.99805689  0.75000000  1
  Sb  Sb33  1  0.50000000  0.25000000  0.75000000  1
