# generated using pymatgen
data_HgClO3
_symmetry_space_group_name_H-M   'P 1'
_cell_length_a   6.49992344
_cell_length_b   8.74189256
_cell_length_c   13.83673547
_cell_angle_alpha   96.57572048
_cell_angle_beta   90.00000000
_cell_angle_gamma   90.00000000
_symmetry_Int_Tables_number   1
_chemical_formula_structural   HgClO3
_chemical_formula_sum   'Hg8 Cl8 O24'
_cell_volume   781.05361559
_cell_formula_units_Z   8
loop_
 _symmetry_equiv_pos_site_id
 _symmetry_equiv_pos_as_xyz
  1  'x, y, z'
loop_
 _atom_site_type_symbol
 _atom_site_label
 _atom_site_symmetry_multiplicity
 _atom_site_fract_x
 _atom_site_fract_y
 _atom_site_fract_z
 _atom_site_occupancy
  O  O0  1  0.17554536  0.07678788  0.62708170  1
  O  O1  1  0.67554536  0.42321212  0.87291830  1
  O  O2  1  0.82445464  0.92321212  0.37291830  1
  O  O3  1  0.32445464  0.57678788  0.12708170  1
  O  O4  1  0.80825825  0.09428940  0.66206627  1
  O  O5  1  0.30825825  0.40571060  0.83793373  1
  O  O6  1  0.19174175  0.90571060  0.33793373  1
  O  O7  1  0.69174175  0.59428940  0.16206627  1
  O  O8  1  0.01828265  0.90077632  0.73032443  1
  O  O9  1  0.51828265  0.59922368  0.76967557  1
  O  O10  1  0.98171735  0.09922368  0.26967557  1
  O  O11  1  0.48171735  0.40077632  0.23032443  1
  O  O12  1  0.33603175  0.26865853  0.43563168  1
  O  O13  1  0.83603175  0.23134147  0.06436832  1
  O  O14  1  0.66396825  0.73134147  0.56436832  1
  O  O15  1  0.16396825  0.76865853  0.93563168  1
  O  O16  1  0.70940439  0.29168935  0.45441129  1
  O  O17  1  0.20940439  0.20831065  0.04558871  1
  O  O18  1  0.29059561  0.70831065  0.54558871  1
  O  O19  1  0.79059561  0.79168935  0.95441129  1
  O  O20  1  0.51049378  0.64181249  0.40510941  1
  O  O21  1  0.01049378  0.85818751  0.09489059  1
  O  O22  1  0.48950622  0.35818751  0.59489059  1
  O  O23  1  0.98950622  0.14181249  0.90510941  1
  Cl  Cl24  1  0.51766188  0.48768900  0.13726697  1
  Cl  Cl25  1  0.01766188  0.01231100  0.36273303  1
  Cl  Cl26  1  0.48233812  0.51231100  0.86273303  1
  Cl  Cl27  1  0.98233812  0.98768900  0.63726697  1
  Cl  Cl28  1  0.01655433  0.25910841  0.00305676  1
  Cl  Cl29  1  0.51655433  0.24089159  0.49694324  1
  Cl  Cl30  1  0.98344567  0.74089159  0.99694324  1
  Cl  Cl31  1  0.48344567  0.75910841  0.50305676  1
  Hg  Hg32  1  0.30403032  0.98665718  0.81062917  1
  Hg  Hg33  1  0.80403032  0.51334282  0.68937083  1
  Hg  Hg34  1  0.69596968  0.01334282  0.18937083  1
  Hg  Hg35  1  0.19596968  0.48665718  0.31062917  1
  Hg  Hg36  1  0.67553589  0.06555487  0.86122254  1
  Hg  Hg37  1  0.17553589  0.43444513  0.63877746  1
  Hg  Hg38  1  0.32446411  0.93444513  0.13877746  1
  Hg  Hg39  1  0.82446411  0.56555487  0.36122254  1
