# generated using pymatgen
data_LiCo(PO3)4
_symmetry_space_group_name_H-M   'P 1'
_cell_length_a   7.28875839
_cell_length_b   7.28875813
_cell_length_c   9.73968188
_cell_angle_alpha   82.88451264
_cell_angle_beta   68.32510483
_cell_angle_gamma   109.93438096
_symmetry_Int_Tables_number   1
_chemical_formula_structural   LiCo(PO3)4
_chemical_formula_sum   'Li2 Co2 P8 O24'
_cell_volume   433.16229145
_cell_formula_units_Z   2
loop_
 _symmetry_equiv_pos_site_id
 _symmetry_equiv_pos_as_xyz
  1  'x, y, z'
loop_
 _atom_site_type_symbol
 _atom_site_label
 _atom_site_symmetry_multiplicity
 _atom_site_fract_x
 _atom_site_fract_y
 _atom_site_fract_z
 _atom_site_occupancy
  Li  Li0  1  0.20564196  0.95564196  0.75000000  1
  Li  Li1  1  0.79435804  0.04435804  0.25000000  1
  Co  Co2  1  0.00000000  0.50000000  -0.00000000  1
  Co  Co3  1  0.00000000  0.00000000  0.50000000  1
  P  P4  1  0.00061344  0.68406530  0.30306704  1
  P  P5  1  0.73070114  0.26833540  0.52830730  1
  P  P6  1  0.70335630  0.74099156  0.02830730  1
  P  P7  1  0.99938656  0.31593470  0.69693296  1
  P  P8  1  0.48713134  0.30368048  0.19693296  1
  P  P9  1  0.29664370  0.25900844  0.97169270  1
  P  P10  1  0.51286866  0.69631952  0.80306704  1
  P  P11  1  0.26929886  0.73166460  0.47169270  1
  O  O12  1  0.11078809  0.80750326  0.57287678  1
  O  O13  1  0.29627389  0.70207069  0.82998865  1
  O  O14  1  0.04206722  0.65832126  0.14528528  1
  O  O15  1  0.42637330  0.22101126  0.06790010  1
  O  O16  1  0.51475554  0.53423333  0.16546675  1
  O  O17  1  0.30360754  0.18735349  0.35471472  1
  O  O18  1  0.88921191  0.19249674  0.42712322  1
  O  O19  1  0.19970008  0.68022329  0.33453325  1
  O  O20  1  0.03206034  0.12626355  0.67001135  1
  O  O21  1  0.80029992  0.31977671  0.66546675  1
  O  O22  1  0.78891136  0.49427340  0.43209990  1
  O  O23  1  0.49521278  0.14987053  0.59302427  1
  O  O24  1  0.24289580  0.08823705  0.90697573  1
  O  O25  1  0.70372611  0.29792931  0.17001135  1
  O  O26  1  0.96793966  0.87373645  0.32998865  1
  O  O27  1  0.88038005  0.68366487  0.92712322  1
  O  O28  1  0.21108864  0.50572660  0.56790010  1
  O  O29  1  0.48524446  0.46576667  0.83453325  1
  O  O30  1  0.50478722  0.85012947  0.40697573  1
  O  O31  1  0.75710420  0.91176295  0.09302427  1
  O  O32  1  0.95793278  0.34167874  0.85471472  1
  O  O33  1  0.57362670  0.77898874  0.93209990  1
  O  O34  1  0.11961995  0.31633513  0.07287678  1
  O  O35  1  0.69639246  0.81264651  0.64528528  1
