# generated using pymatgen
data_CrReO4
_symmetry_space_group_name_H-M   'P 1'
_cell_length_a   4.75155525
_cell_length_b   5.52421829
_cell_length_c   5.52421829
_cell_angle_alpha   63.12998023
_cell_angle_beta   88.05567378
_cell_angle_gamma   88.05567388
_symmetry_Int_Tables_number   1
_chemical_formula_structural   CrReO4
_chemical_formula_sum   'Cr2 Re2 O8'
_cell_volume   129.24517503
_cell_formula_units_Z   2
loop_
 _symmetry_equiv_pos_site_id
 _symmetry_equiv_pos_as_xyz
  1  'x, y, z'
loop_
 _atom_site_type_symbol
 _atom_site_label
 _atom_site_symmetry_multiplicity
 _atom_site_fract_x
 _atom_site_fract_y
 _atom_site_fract_z
 _atom_site_occupancy
  O  O0  1  0.18314185  0.59123859  0.59123859  1
  O  O1  1  0.81685815  0.40876141  0.40876141  1
  O  O2  1  0.78715019  0.88401523  0.88401523  1
  O  O3  1  0.21284981  0.11598477  0.11598477  1
  O  O4  1  0.70260090  0.38364975  0.90665511  1
  O  O5  1  0.29739910  0.09334489  0.61635025  1
  O  O6  1  0.29739910  0.61635025  0.09334489  1
  O  O7  1  0.70260090  0.90665511  0.38364975  1
  Cr  Cr8  1  0.50725087  0.26337080  0.26337080  1
  Cr  Cr9  1  0.49274913  0.73662920  0.73662920  1
  Re  Re10  1  0.00000000  0.77776050  0.22223950  1
  Re  Re11  1  0.00000000  0.22223950  0.77776050  1
