# generated using pymatgen
data_Zn3Ga4Pd7
_symmetry_space_group_name_H-M   'P 1'
_cell_length_a   6.95678957
_cell_length_b   6.95678957
_cell_length_c   6.95678957
_cell_angle_alpha   113.65112376
_cell_angle_beta   113.65112383
_cell_angle_gamma   113.65112377
_symmetry_Int_Tables_number   1
_chemical_formula_structural   Zn3Ga4Pd7
_chemical_formula_sum   'Zn3 Ga4 Pd7'
_cell_volume   209.74102524
_cell_formula_units_Z   1
loop_
 _symmetry_equiv_pos_site_id
 _symmetry_equiv_pos_as_xyz
  1  'x, y, z'
loop_
 _atom_site_type_symbol
 _atom_site_label
 _atom_site_symmetry_multiplicity
 _atom_site_fract_x
 _atom_site_fract_y
 _atom_site_fract_z
 _atom_site_occupancy
  Zn  Zn0  1  0.36598273  0.10583983  0.54768605  1
  Zn  Zn1  1  0.10583983  0.54768605  0.36598273  1
  Zn  Zn2  1  0.54768605  0.36598273  0.10583983  1
  Ga  Ga3  1  0.89088581  0.46424827  0.63475900  1
  Ga  Ga4  1  0.46424827  0.63475900  0.89088581  1
  Ga  Ga5  1  0.63475900  0.89088581  0.46424827  1
  Ga  Ga6  1  0.02238994  0.02238994  0.02238994  1
  Pd  Pd7  1  0.03232097  0.86852315  0.62346841  1
  Pd  Pd8  1  0.13973680  0.39470780  0.96720168  1
  Pd  Pd9  1  0.96720168  0.13973680  0.39470780  1
  Pd  Pd10  1  0.39470780  0.96720168  0.13973680  1
  Pd  Pd11  1  0.86852315  0.62346841  0.03232097  1
  Pd  Pd12  1  0.50324957  0.50324957  0.50324957  1
  Pd  Pd13  1  0.62346841  0.03232097  0.86852315  1
