# generated using pymatgen
data_Tm2Fe17
_symmetry_space_group_name_H-M   'P 1'
_cell_length_a   8.40459436
_cell_length_b   8.40459436
_cell_length_c   8.25765180
_cell_angle_alpha   90.00000000
_cell_angle_beta   90.00000000
_cell_angle_gamma   120.00000001
_symmetry_Int_Tables_number   1
_chemical_formula_structural   Tm2Fe17
_chemical_formula_sum   'Tm4 Fe34'
_cell_volume   505.15041302
_cell_formula_units_Z   2
loop_
 _symmetry_equiv_pos_site_id
 _symmetry_equiv_pos_as_xyz
  1  'x, y, z'
loop_
 _atom_site_type_symbol
 _atom_site_label
 _atom_site_symmetry_multiplicity
 _atom_site_fract_x
 _atom_site_fract_y
 _atom_site_fract_z
 _atom_site_occupancy
  Fe  Fe0  1  0.33333333  0.66666667  0.10681197  1
  Fe  Fe1  1  0.66666667  0.33333333  0.60681197  1
  Fe  Fe2  1  0.66666667  0.33333333  0.89318803  1
  Fe  Fe3  1  0.33333333  0.66666667  0.39318803  1
  Fe  Fe4  1  0.50000000  0.00000000  0.00000000  1
  Fe  Fe5  1  0.50000000  0.50000000  0.50000000  1
  Fe  Fe6  1  0.00000000  0.50000000  0.50000000  1
  Fe  Fe7  1  0.00000000  0.50000000  0.00000000  1
  Fe  Fe8  1  0.50000000  0.50000000  0.00000000  1
  Fe  Fe9  1  0.50000000  0.00000000  0.50000000  1
  Fe  Fe10  1  0.32921217  0.96414001  0.25000000  1
  Fe  Fe11  1  0.36507216  0.32921217  0.75000000  1
  Fe  Fe12  1  0.96414001  0.63492784  0.75000000  1
  Fe  Fe13  1  0.03585999  0.36507216  0.25000000  1
  Fe  Fe14  1  0.63492784  0.67078783  0.25000000  1
  Fe  Fe15  1  0.36507216  0.03585999  0.75000000  1
  Fe  Fe16  1  0.67078783  0.63492784  0.75000000  1
  Fe  Fe17  1  0.67078783  0.03585999  0.75000000  1
  Fe  Fe18  1  0.96414001  0.32921217  0.75000000  1
  Fe  Fe19  1  0.03585999  0.67078783  0.25000000  1
  Fe  Fe20  1  0.63492784  0.96414001  0.25000000  1
  Fe  Fe21  1  0.32921217  0.36507216  0.25000000  1
  Fe  Fe22  1  0.16566133  0.33132266  0.98559052  1
  Fe  Fe23  1  0.83433867  0.16566133  0.48559052  1
  Fe  Fe24  1  0.33132266  0.16566133  0.48559052  1
  Fe  Fe25  1  0.66867734  0.83433867  0.98559052  1
  Fe  Fe26  1  0.16566133  0.83433867  0.98559052  1
  Fe  Fe27  1  0.83433867  0.66867734  0.01440948  1
  Fe  Fe28  1  0.83433867  0.16566133  0.01440948  1
  Fe  Fe29  1  0.83433867  0.66867734  0.48559052  1
  Fe  Fe30  1  0.33132266  0.16566133  0.01440948  1
  Fe  Fe31  1  0.66867734  0.83433867  0.51440948  1
  Fe  Fe32  1  0.16566133  0.33132266  0.51440948  1
  Fe  Fe33  1  0.16566133  0.83433867  0.51440948  1
  Tm  Tm34  1  0.00000000  0.00000000  0.25000000  1
  Tm  Tm35  1  0.00000000  0.00000000  0.75000000  1
  Tm  Tm36  1  0.33333333  0.66666667  0.75000000  1
  Tm  Tm37  1  0.66666667  0.33333333  0.25000000  1
