# generated using pymatgen
data_Cd5Cu2
_symmetry_space_group_name_H-M   'P 1'
_cell_length_a   8.34008865
_cell_length_b   8.34008865
_cell_length_c   8.83548509
_cell_angle_alpha   90.00000000
_cell_angle_beta   90.00000000
_cell_angle_gamma   120.00000003
_symmetry_Int_Tables_number   1
_chemical_formula_structural   Cd5Cu2
_chemical_formula_sum   'Cd20 Cu8'
_cell_volume   532.23369279
_cell_formula_units_Z   4
loop_
 _symmetry_equiv_pos_site_id
 _symmetry_equiv_pos_as_xyz
  1  'x, y, z'
loop_
 _atom_site_type_symbol
 _atom_site_label
 _atom_site_symmetry_multiplicity
 _atom_site_fract_x
 _atom_site_fract_y
 _atom_site_fract_z
 _atom_site_occupancy
  Cu  Cu0  1  0.88887170  0.77774341  0.75000000  1
  Cu  Cu1  1  0.11112830  0.88887170  0.25000000  1
  Cu  Cu2  1  0.77774341  0.88887170  0.25000000  1
  Cu  Cu3  1  0.22225659  0.11112830  0.75000000  1
  Cu  Cu4  1  0.88887170  0.11112830  0.75000000  1
  Cu  Cu5  1  0.11112830  0.22225659  0.25000000  1
  Cu  Cu6  1  0.66666667  0.33333333  0.25000000  1
  Cu  Cu7  1  0.33333333  0.66666667  0.75000000  1
  Cd  Cd8  1  0.20338414  0.40676828  0.95820184  1
  Cd  Cd9  1  0.79661586  0.20338414  0.45820184  1
  Cd  Cd10  1  0.40676828  0.20338414  0.45820184  1
  Cd  Cd11  1  0.59323172  0.79661586  0.95820184  1
  Cd  Cd12  1  0.20338414  0.79661586  0.95820184  1
  Cd  Cd13  1  0.79661586  0.59323172  0.04179816  1
  Cd  Cd14  1  0.79661586  0.20338414  0.04179816  1
  Cd  Cd15  1  0.79661586  0.59323172  0.45820184  1
  Cd  Cd16  1  0.40676828  0.20338414  0.04179816  1
  Cd  Cd17  1  0.59323172  0.79661586  0.54179816  1
  Cd  Cd18  1  0.20338414  0.40676828  0.54179816  1
  Cd  Cd19  1  0.20338414  0.79661586  0.54179816  1
  Cd  Cd20  1  0.53721684  0.07443368  0.75000000  1
  Cd  Cd21  1  0.46278316  0.53721684  0.25000000  1
  Cd  Cd22  1  0.07443368  0.53721684  0.25000000  1
  Cd  Cd23  1  0.92556632  0.46278316  0.75000000  1
  Cd  Cd24  1  0.53721684  0.46278316  0.75000000  1
  Cd  Cd25  1  0.46278316  0.92556632  0.25000000  1
  Cd  Cd26  1  0.00000000  0.00000000  0.50000000  1
  Cd  Cd27  1  0.00000000  0.00000000  0.00000000  1
