# generated using pymatgen
data_Li2NiP2O7
_symmetry_space_group_name_H-M   'P 1'
_cell_length_a   6.51514160
_cell_length_b   10.26903905
_cell_length_c   9.20673760
_cell_angle_alpha   66.47571617
_cell_angle_beta   107.12714319
_cell_angle_gamma   92.81613692
_symmetry_Int_Tables_number   1
_chemical_formula_structural   Li2NiP2O7
_chemical_formula_sum   'Li8 Ni4 P8 O28'
_cell_volume   538.08378048
_cell_formula_units_Z   4
loop_
 _symmetry_equiv_pos_site_id
 _symmetry_equiv_pos_as_xyz
  1  'x, y, z'
loop_
 _atom_site_type_symbol
 _atom_site_label
 _atom_site_symmetry_multiplicity
 _atom_site_fract_x
 _atom_site_fract_y
 _atom_site_fract_z
 _atom_site_occupancy
  Li  Li0  1  0.04793610  0.48000809  0.23997097  1
  Li  Li1  1  0.64742912  0.38032302  0.07291986  1
  Li  Li2  1  0.19719149  0.86752411  0.12581084  1
  Li  Li3  1  0.57771582  0.03437353  0.49567333  1
  Li  Li4  1  0.15414116  0.95835274  0.48700389  1
  Li  Li5  1  0.88125699  0.08537777  0.89552577  1
  Li  Li6  1  0.34440968  0.61739266  0.93088694  1
  Li  Li7  1  0.92504861  0.48947886  0.83720386  1
  O  O8  1  0.63016493  0.53726851  0.14639148  1
  O  O9  1  0.44511782  0.80458633  0.91220327  1
  O  O10  1  0.70833367  0.83340493  0.66235140  1
  O  O11  1  0.02648929  0.65371018  0.88489409  1
  O  O12  1  0.11058484  0.14613978  0.05924104  1
  O  O13  1  0.56657905  0.19815047  0.07326075  1
  O  O14  1  0.28861830  0.17727639  0.32757372  1
  O  O15  1  0.97131563  0.35528276  0.09649769  1
  O  O16  1  0.03926871  0.30390990  0.45538621  1
  O  O17  1  0.90456702  0.86354005  0.92893953  1
  O  O18  1  0.02270757  0.70386691  0.25979267  1
  O  O19  1  0.92666954  0.09386482  0.27927536  1
  O  O20  1  0.36673772  0.45907970  0.32112505  1
  O  O21  1  0.39221087  0.04331341  0.65929694  1
  O  O22  1  0.54811484  0.69456417  0.27468128  1
  O  O23  1  0.74079676  0.97995852  0.08075286  1
  O  O24  1  0.94636432  0.73360114  0.50670240  1
  O  O25  1  0.22171354  0.54624063  0.54623085  1
  O  O26  1  0.76549737  0.46404722  0.45992920  1
  O  O27  1  0.29060398  0.80913915  0.43844823  1
  O  O28  1  0.27337655  0.01774990  0.91459616  1
  O  O29  1  0.44101867  0.31682444  0.71063822  1
  O  O30  1  0.60146816  0.96340257  0.32200466  1
  O  O31  1  0.62491376  0.55160839  0.67673012  1
  O  O32  1  0.97715331  0.27512359  0.73090927  1
  O  O33  1  0.08292598  0.90991355  0.70751398  1
  O  O34  1  0.37283191  0.46022707  0.85901900  1
  O  O35  1  0.69227151  0.20670684  0.52460205  1
  P  P36  1  0.91806964  0.80479319  0.80145071  1
  P  P37  1  0.31534180  0.94866086  0.80561440  1
  P  P38  1  0.42808823  0.46986544  0.70275774  1
  P  P39  1  0.87775962  0.30118240  0.54737587  1
  P  P40  1  0.08470955  0.20400535  0.18286807  1
  P  P41  1  0.69263748  0.05368106  0.18345954  1
  P  P42  1  0.11098933  0.70585834  0.43424684  1
  P  P43  1  0.56604080  0.53735206  0.29581908  1
  Ni  Ni44  1  0.36837833  0.25790379  0.50762383  1
  Ni  Ni45  1  0.72412765  0.77961760  0.09415161  1
  Ni  Ni46  1  0.62521027  0.75455477  0.48205022  1
  Ni  Ni47  1  0.28395497  0.22243602  0.89440605  1
