# generated using pymatgen
data_Li3Mo3(PO4)4
_symmetry_space_group_name_H-M   'P 1'
_cell_length_a   13.11083653
_cell_length_b   8.46423394
_cell_length_c   9.22646120
_cell_angle_alpha   89.94989028
_cell_angle_beta   85.68607083
_cell_angle_gamma   90.31109522
_symmetry_Int_Tables_number   1
_chemical_formula_structural   Li3Mo3(PO4)4
_chemical_formula_sum   'Li9 Mo9 P12 O48'
_cell_volume   1020.97310740
_cell_formula_units_Z   3
loop_
 _symmetry_equiv_pos_site_id
 _symmetry_equiv_pos_as_xyz
  1  'x, y, z'
loop_
 _atom_site_type_symbol
 _atom_site_label
 _atom_site_symmetry_multiplicity
 _atom_site_fract_x
 _atom_site_fract_y
 _atom_site_fract_z
 _atom_site_occupancy
  Li  Li0  1  0.16454406  0.85988765  0.22285205  1
  Li  Li1  1  0.50230100  0.14068743  0.10920610  1
  Li  Li2  1  0.16305394  0.63749400  0.74730349  1
  Li  Li3  1  0.49004068  0.62655634  0.40583037  1
  Li  Li4  1  0.83280678  0.64285731  0.05363869  1
  Li  Li5  1  0.17813882  0.37280068  0.92162001  1
  Li  Li6  1  0.49790391  0.36665246  0.59145224  1
  Li  Li7  1  0.83295291  0.86869854  0.57790638  1
  Li  Li8  1  0.83785964  0.12498478  0.76337564  1
  O  O9  1  0.54862808  0.91814521  0.10217309  1
  O  O10  1  0.89924040  0.63691006  0.84080005  1
  O  O11  1  0.89927095  0.92385753  0.75188173  1
  O  O12  1  0.93803327  0.30254416  0.68589062  1
  O  O13  1  0.74151598  0.35030792  0.81281636  1
  O  O14  1  0.92229573  0.64574980  0.51466325  1
  O  O15  1  0.58609395  0.64985149  0.84649618  1
  O  O16  1  0.39911885  0.69749713  0.99163745  1
  O  O17  1  0.76740288  0.07164022  0.58636440  1
  O  O18  1  0.23807927  0.86866726  0.00755720  1
  O  O19  1  0.09746069  0.37295362  0.16019842  1
  O  O20  1  0.11267116  0.08185934  0.23230976  1
  O  O21  1  0.05968964  0.70417831  0.31449601  1
  O  O22  1  0.25661686  0.65444330  0.18543957  1
  O  O23  1  0.07837010  0.34902110  0.48558231  1
  O  O24  1  0.41081881  0.34496560  0.14882226  1
  O  O25  1  0.26643956  0.30167155  0.33971927  1
  O  O26  1  0.22282743  0.91046068  0.41757745  1
  O  O27  1  0.61073942  0.30248714  0.02519511  1
  O  O28  1  0.76922735  0.12980325  0.98849796  1
  O  O29  1  0.22907786  0.63168340  0.51070496  1
  O  O30  1  0.10491334  0.14110116  0.66152643  1
  O  O31  1  0.56346357  0.62909571  0.17900158  1
  O  O32  1  0.42784436  0.13104591  0.32703168  1
  O  O33  1  0.10624584  0.42873443  0.74992593  1
  O  O34  1  0.06408375  0.80313187  0.82345139  1
  O  O35  1  0.43136293  0.41972496  0.41491844  1
  O  O36  1  0.39239742  0.80046551  0.48126790  1
  O  O37  1  0.78677948  0.41738795  0.06552017  1
  O  O38  1  0.72267400  0.80176816  0.14479188  1
  O  O39  1  0.25590441  0.85418379  0.68280650  1
  O  O40  1  0.59035620  0.84899189  0.35565724  1
  O  O41  1  0.92180955  0.84864836  0.01773303  1
  O  O42  1  0.07698707  0.15593619  0.97705863  1
  O  O43  1  0.41084095  0.14657759  0.65048423  1
  O  O44  1  0.74848817  0.15062364  0.31914386  1
  O  O45  1  0.27434268  0.19781635  0.85253119  1
  O  O46  1  0.23359511  0.57975537  0.92004320  1
  O  O47  1  0.60285068  0.19705330  0.51165178  1
  O  O48  1  0.56322453  0.57022394  0.58002309  1
  O  O49  1  0.93979193  0.19487170  0.18154930  1
  O  O50  1  0.88961421  0.59308516  0.24981736  1
  O  O51  1  0.56127047  0.85781077  0.67076286  1
  O  O52  1  0.43756907  0.36872783  0.82279122  1
  O  O53  1  0.89750280  0.87157037  0.34436531  1
  O  O54  1  0.77114115  0.35918436  0.49492021  1
  O  O55  1  0.44530594  0.09087706  0.91523556  1
  O  O56  1  0.72888784  0.69792724  0.65031126  1
  P  P57  1  0.94547868  0.80755188  0.85302355  1
  P  P58  1  0.72617292  0.29890760  0.97337444  1
  P  P59  1  0.94298200  0.70399421  0.35663393  1
  P  P60  1  0.61237161  0.68456333  0.67690992  1
  P  P61  1  0.71945975  0.18541970  0.48804503  1
  P  P62  1  0.39062841  0.20153566  0.80998034  1
  P  P63  1  0.60696749  0.79837297  0.19514501  1
  P  P64  1  0.27593053  0.79858953  0.52374410  1
  P  P65  1  0.38918977  0.30315296  0.31178608  1
  P  P66  1  0.05960105  0.20342353  0.13672217  1
  P  P67  1  0.05438462  0.31483233  0.65624681  1
  P  P68  1  0.27679628  0.69633959  0.02211551  1
  Mo  Mo69  1  0.16498753  0.51154534  0.33180860  1
  Mo  Mo70  1  0.50190307  0.49033586  0.00353730  1
  Mo  Mo71  1  0.16341108  0.13425929  0.43854786  1
  Mo  Mo72  1  0.16877579  0.99837522  0.83834379  1
  Mo  Mo73  1  0.49583916  0.99883156  0.49518182  1
  Mo  Mo74  1  0.83179558  0.98977923  0.16243263  1
  Mo  Mo75  1  0.83328062  0.36579505  0.27206684  1
  Mo  Mo76  1  0.50257904  0.86545212  0.89491590  1
  Mo  Mo77  1  0.83499832  0.50330388  0.67310174  1
