# generated using pymatgen
data_Sr(FeO2)2
_symmetry_space_group_name_H-M   'P 1'
_cell_length_a   8.24678283
_cell_length_b   9.34384586
_cell_length_c   11.02659509
_cell_angle_alpha   90.00000000
_cell_angle_beta   90.00000000
_cell_angle_gamma   92.04238858
_symmetry_Int_Tables_number   1
_chemical_formula_structural   Sr(FeO2)2
_chemical_formula_sum   'Sr8 Fe16 O32'
_cell_volume   849.13290420
_cell_formula_units_Z   8
loop_
 _symmetry_equiv_pos_site_id
 _symmetry_equiv_pos_as_xyz
  1  'x, y, z'
loop_
 _atom_site_type_symbol
 _atom_site_label
 _atom_site_symmetry_multiplicity
 _atom_site_fract_x
 _atom_site_fract_y
 _atom_site_fract_z
 _atom_site_occupancy
  O  O0  1  0.81087030  0.55719636  0.51984445  1
  O  O1  1  0.68912909  0.94280403  0.01984428  1
  O  O2  1  0.18912970  0.44280390  0.48015499  1
  O  O3  1  0.31087091  0.05719623  0.98015516  1
  O  O4  1  0.28008987  0.07934338  0.47640823  1
  O  O5  1  0.21991070  0.42065568  0.97640841  1
  O  O6  1  0.71991010  0.92065581  0.52359211  1
  O  O7  1  0.78008926  0.57934351  0.02359194  1
  O  O8  1  0.73122617  0.41205368  0.78366854  1
  O  O9  1  0.76877416  0.08794558  0.28366837  1
  O  O10  1  0.26877380  0.58794551  0.21633180  1
  O  O11  1  0.23122580  0.91205361  0.71633107  1
  O  O12  1  0.35675959  0.95377741  0.24105598  1
  O  O13  1  0.14324126  0.54622279  0.74105615  1
  O  O14  1  0.64324041  0.04622285  0.75894345  1
  O  O15  1  0.85675871  0.45377640  0.25894328  1
  O  O16  1  0.33244382  0.74800123  0.46910833  1
  O  O17  1  0.16755581  0.75199896  0.96910850  1
  O  O18  1  0.66755618  0.25199903  0.53089201  1
  O  O19  1  0.83244419  0.24800130  0.03089184  1
  O  O20  1  0.71362537  0.74719915  0.27586900  1
  O  O21  1  0.78637524  0.75280125  0.77586917  1
  O  O22  1  0.28637463  0.25280111  0.72413134  1
  O  O23  1  0.21362476  0.24719901  0.22413117  1
  O  O24  1  0.02074133  0.96907953  0.13614893  1
  O  O25  1  0.47925831  0.53092067  0.63614910  1
  O  O26  1  0.97925867  0.03092074  0.86385141  1
  O  O27  1  0.52074169  0.46907959  0.36385124  1
  O  O28  1  0.02022367  0.84362284  0.39026829  1
  O  O29  1  0.97977629  0.15637635  0.60973115  1
  O  O30  1  0.47977714  0.65637628  0.89026846  1
  O  O31  1  0.52022283  0.34362291  0.10973098  1
  Fe  Fe32  1  0.24257021  0.90548753  0.38804180  1
  Fe  Fe33  1  0.25743064  0.59451266  0.88804106  1
  Fe  Fe34  1  0.75742979  0.09451273  0.61195855  1
  Fe  Fe35  1  0.74256936  0.40548760  0.11195837  1
  Fe  Fe36  1  0.67264728  0.43122489  0.61309872  1
  Fe  Fe37  1  0.82735305  0.06877436  0.11309855  1
  Fe  Fe38  1  0.32735268  0.56877429  0.38690162  1
  Fe  Fe39  1  0.17264695  0.93122590  0.88690180  1
  Fe  Fe40  1  0.80484642  0.90761165  0.36409136  1
  Fe  Fe41  1  0.69515415  0.59238767  0.86409153  1
  Fe  Fe42  1  0.19515355  0.09238754  0.63590898  1
  Fe  Fe43  1  0.30484581  0.40761151  0.13590881  1
  Fe  Fe44  1  0.22304304  0.06772938  0.13916775  1
  Fe  Fe45  1  0.77695692  0.93226980  0.86083260  1
  Fe  Fe46  1  0.27695632  0.43226967  0.63916701  1
  Fe  Fe47  1  0.72304365  0.56772951  0.36083242  1
  Sr  Sr48  1  0.00528695  0.72644806  0.61020421  1
  Sr  Sr49  1  0.49471268  0.77355213  0.11020495  1
  Sr  Sr50  1  0.99471305  0.27355220  0.38979523  1
  Sr  Sr51  1  0.50528732  0.22644813  0.88979540  1
  Sr  Sr52  1  0.99885259  0.70105580  0.15330700  1
  Sr  Sr53  1  0.50114677  0.79894352  0.65330717  1
  Sr  Sr54  1  0.00114738  0.29894339  0.84669335  1
  Sr  Sr55  1  0.49885323  0.20105674  0.34669318  1
