# generated using pymatgen
data_LiMnPO4
_symmetry_space_group_name_H-M   'P 1'
_cell_length_a   7.58906163
_cell_length_b   7.58896889
_cell_length_c   9.69966192
_cell_angle_alpha   90.00118221
_cell_angle_beta   89.99941275
_cell_angle_gamma   119.99959364
_symmetry_Int_Tables_number   1
_chemical_formula_structural   LiMnPO4
_chemical_formula_sum   'Li6 Mn6 P6 O24'
_cell_volume   483.79331107
_cell_formula_units_Z   6
loop_
 _symmetry_equiv_pos_site_id
 _symmetry_equiv_pos_as_xyz
  1  'x, y, z'
loop_
 _atom_site_type_symbol
 _atom_site_label
 _atom_site_symmetry_multiplicity
 _atom_site_fract_x
 _atom_site_fract_y
 _atom_site_fract_z
 _atom_site_occupancy
  Li  Li0  1  0.20522129  0.95544968  0.25983025  1
  Li  Li1  1  0.04456609  0.24978887  0.25983379  1
  Li  Li2  1  0.24976842  0.04454004  0.75984175  1
  Li  Li3  1  0.75023158  0.79477061  0.25984175  1
  Li  Li4  1  0.79477871  0.75022839  0.75983025  1
  Li  Li5  1  0.95543391  0.20522278  0.75983379  1
  Mn  Mn6  1  0.04223427  0.58093036  0.48567704  1
  Mn  Mn7  1  0.53868030  0.95772365  0.48566839  1
  Mn  Mn8  1  0.41901955  0.46128634  0.48569215  1
  Mn  Mn9  1  0.46131970  0.41904435  0.98566839  1
  Mn  Mn10  1  0.58098045  0.04226579  0.98569215  1
  Mn  Mn11  1  0.95776573  0.53869609  0.98567704  1
  O  O12  1  0.09764135  0.87613111  0.44851139  1
  O  O13  1  0.17901807  0.72884435  0.13767674  1
  O  O14  1  0.12283598  0.49608140  0.82441333  1
  O  O15  1  0.37326210  0.87717995  0.82443651  1
  O  O16  1  0.33333395  0.66668146  0.61126599  1
  O  O17  1  0.33331728  0.66666373  0.35225699  1
  O  O18  1  0.00000730  0.00000547  0.16501505  1
  O  O19  1  0.12383855  0.22151446  0.44852437  1
  O  O20  1  0.27117524  0.45016637  0.13768342  1
  O  O21  1  0.54984735  0.82099684  0.13769758  1
  O  O22  1  0.22153427  0.12386981  0.94852074  1
  O  O23  1  0.50393003  0.62675461  0.82441179  1
  O  O24  1  0.45015265  0.27114949  0.63769758  1
  O  O25  1  0.77846573  0.90233554  0.44852074  1
  O  O26  1  0.62673790  0.50391786  0.32443651  1
  O  O27  1  0.49606997  0.12282358  0.32441179  1
  O  O28  1  0.99999270  0.99999817  0.66501505  1
  O  O29  1  0.66668272  0.33334645  0.85225699  1
  O  O30  1  0.66666605  0.33334750  0.11126599  1
  O  O31  1  0.90235865  0.77848976  0.94851139  1
  O  O32  1  0.82098193  0.54982728  0.63767674  1
  O  O33  1  0.72882476  0.17899213  0.63768342  1
  O  O34  1  0.87716402  0.37324542  0.32441333  1
  O  O35  1  0.87616145  0.09767692  0.94852437  1
  P  P36  1  0.33334409  0.66667680  0.77506864  1
  P  P37  1  0.00001238  0.00001494  0.00545845  1
  P  P38  1  0.33334180  0.66666460  0.18968665  1
  P  P39  1  0.66665820  0.33332379  0.68968665  1
  P  P40  1  0.66665591  0.33333271  0.27506864  1
  P  P41  1  0.99998762  1.00000256  0.50545845  1
