# generated using pymatgen
data_LiMn2(PO4)3
_symmetry_space_group_name_H-M   'P 1'
_cell_length_a   8.28204191
_cell_length_b   11.81101915
_cell_length_c   8.51543761
_cell_angle_alpha   90.00000000
_cell_angle_beta   90.00000000
_cell_angle_gamma   89.58210036
_symmetry_Int_Tables_number   1
_chemical_formula_structural   LiMn2(PO4)3
_chemical_formula_sum   'Li4 Mn8 P12 O48'
_cell_volume   832.95246373
_cell_formula_units_Z   4
loop_
 _symmetry_equiv_pos_site_id
 _symmetry_equiv_pos_as_xyz
  1  'x, y, z'
loop_
 _atom_site_type_symbol
 _atom_site_label
 _atom_site_symmetry_multiplicity
 _atom_site_fract_x
 _atom_site_fract_y
 _atom_site_fract_z
 _atom_site_occupancy
  Li  Li0  1  0.07223200  0.69762432  0.10175531  1
  Li  Li1  1  0.42776846  0.80237604  0.60175566  1
  Li  Li2  1  0.57223179  0.19762430  0.39824504  1
  Li  Li3  1  0.92776825  0.30237602  0.89824539  1
  O  O4  1  0.26900078  0.45000300  0.55850293  1
  O  O5  1  0.93758323  0.39495854  0.32576579  1
  O  O6  1  0.93335481  0.10684953  0.11026178  1
  O  O7  1  0.93526570  0.81871058  0.42443603  1
  O  O8  1  0.90311578  0.41425270  0.63818980  1
  O  O9  1  0.83926262  0.81777732  0.71905124  1
  O  O10  1  0.85831908  0.02242095  0.57158235  1
  O  O11  1  0.87229602  0.75265295  0.99750807  1
  O  O12  1  0.05787329  0.43827603  0.87398781  1
  O  O13  1  0.06241702  0.60504180  0.67423490  1
  O  O14  1  0.06664546  0.89314997  0.88973774  1
  O  O15  1  0.06473456  0.18128891  0.57556349  1
  O  O16  1  0.09688448  0.58574764  0.36181090  1
  O  O17  1  0.12582212  0.83685100  0.20634598  1
  O  O18  1  0.14168118  0.97757854  0.42841717  1
  O  O19  1  0.12770423  0.24734739  0.00249144  1
  O  O20  1  0.16073763  0.18222303  0.28094946  1
  O  O21  1  0.18600112  0.43754591  0.17198673  1
  O  O22  1  0.22821606  0.77662342  0.48264269  1
  O  O23  1  0.23099995  0.04999717  0.05850258  1
  O  O24  1  0.27178441  0.72337609  0.98264304  1
  O  O25  1  0.94212698  0.56172346  0.12601289  1
  O  O26  1  0.31399962  0.06245341  0.67198708  1
  O  O27  1  0.33926189  0.31777714  0.78094863  1
  O  O28  1  0.35831929  0.52242096  0.92841752  1
  O  O29  1  0.37417834  0.66314936  0.70634633  1
  O  O30  1  0.37229650  0.25265278  0.50249179  1
  O  O31  1  0.40311599  0.91425272  0.86181007  1
  O  O32  1  0.43335502  0.60684954  0.38973739  1
  O  O33  1  0.43758345  0.89495855  0.17423455  1
  O  O34  1  0.43526496  0.31871126  0.07556432  1
  O  O35  1  0.44212745  0.06172329  0.37398746  1
  O  O36  1  0.55787281  0.93827620  0.62601206  1
  O  O37  1  0.56473408  0.68128908  0.92443637  1
  O  O38  1  0.56241681  0.10504179  0.82576614  1
  O  O39  1  0.56664524  0.39314995  0.61026213  1
  O  O40  1  0.59688427  0.08574762  0.13818945  1
  O  O41  1  0.62770375  0.74734756  0.49750773  1
  O  O42  1  0.62582191  0.33685099  0.29365319  1
  O  O43  1  0.64168097  0.47757853  0.07158318  1
  O  O44  1  0.66073837  0.68222235  0.21905089  1
  O  O45  1  0.68600064  0.93754608  0.32801244  1
  O  O46  1  0.73099948  0.54999649  0.44149777  1
  O  O47  1  0.72821585  0.27662340  0.01735766  1
  O  O48  1  0.76900030  0.95000317  0.94149694  1
  O  O49  1  0.77178420  0.22337607  0.51735801  1
  O  O50  1  0.81399914  0.56245358  0.82801278  1
  O  O51  1  0.87417813  0.16314934  0.79365354  1
  P  P52  1  0.96346369  0.50925256  0.74934421  1
  P  P53  1  0.88967466  0.14598334  0.61223638  1
  P  P54  1  0.88807715  0.85651822  0.88539372  1
  P  P55  1  0.61032539  0.35401613  0.11223603  1
  P  P56  1  0.61192263  0.64348144  0.38539337  1
  P  P57  1  0.53653609  0.99074795  0.24934386  1
  P  P58  1  0.46346417  0.00925239  0.75065566  1
  P  P59  1  0.38807763  0.35651805  0.61460615  1
  P  P60  1  0.03653657  0.49074778  0.25065649  1
  P  P61  1  0.11032560  0.85401615  0.38776432  1
  P  P62  1  0.38967488  0.64598336  0.88776349  1
  P  P63  1  0.11192190  0.14348127  0.11460698  1
  Mn  Mn64  1  0.24463792  0.60792604  0.53048666  1
  Mn  Mn65  1  0.25536255  0.89207432  0.03048631  1
  Mn  Mn66  1  0.24415097  0.11648740  0.47005459  1
  Mn  Mn67  1  0.25584976  0.38351277  0.97005494  1
  Mn  Mn68  1  0.74415050  0.61648757  0.02994576  1
  Mn  Mn69  1  0.75584928  0.88351294  0.52994493  1
  Mn  Mn70  1  0.74463771  0.10792603  0.96951320  1
  Mn  Mn71  1  0.75536234  0.39207430  0.46951286  1
