# generated using pymatgen
data_LiCrPO4
_symmetry_space_group_name_H-M   'P 1'
_cell_length_a   7.46539954
_cell_length_b   14.09421211
_cell_length_c   5.98396335
_cell_angle_alpha   90.00000000
_cell_angle_beta   90.00000000
_cell_angle_gamma   90.00000000
_symmetry_Int_Tables_number   1
_chemical_formula_structural   LiCrPO4
_chemical_formula_sum   'Li8 Cr8 P8 O32'
_cell_volume   629.62618855
_cell_formula_units_Z   8
loop_
 _symmetry_equiv_pos_site_id
 _symmetry_equiv_pos_as_xyz
  1  'x, y, z'
loop_
 _atom_site_type_symbol
 _atom_site_label
 _atom_site_symmetry_multiplicity
 _atom_site_fract_x
 _atom_site_fract_y
 _atom_site_fract_z
 _atom_site_occupancy
  Li  Li0  1  0.18316357  0.22175149  0.20318492  1
  Li  Li1  1  0.81683586  0.77824898  0.79681498  1
  Li  Li2  1  0.81683586  0.72175137  0.29681503  1
  Li  Li3  1  0.68316396  0.27824910  0.79681498  1
  Li  Li4  1  0.68316396  0.22175149  0.29681503  1
  Li  Li5  1  0.31683682  0.77824898  0.70318487  1
  Li  Li6  1  0.31683682  0.72175137  0.20318492  1
  Li  Li7  1  0.18316357  0.27824910  0.70318487  1
  O  O8  1  0.08071590  0.77539732  0.28831774  1
  O  O9  1  0.79946504  0.09834743  0.44320223  1
  O  O10  1  0.79946504  0.40165245  0.94320217  1
  O  O11  1  0.86366627  0.63358960  0.01767966  1
  O  O12  1  0.86366627  0.86641005  0.51767960  1
  O  O13  1  0.91928353  0.22460315  0.71168216  1
  O  O14  1  0.91928353  0.27539744  0.21168221  1
  O  O15  1  0.96088388  0.04685339  0.79131643  1
  O  O16  1  0.03911690  0.54685327  0.70868342  1
  O  O17  1  0.03911690  0.95314638  0.20868347  1
  O  O18  1  0.08071590  0.72460304  0.78831768  1
  O  O19  1  0.41928449  0.22460315  0.78831768  1
  O  O20  1  0.13633451  0.13358972  0.48232029  1
  O  O21  1  0.13633451  0.36641017  0.98232024  1
  O  O22  1  0.20053439  0.59834732  0.05679772  1
  O  O23  1  0.70053478  0.90165233  0.94320217  1
  O  O24  1  0.29946600  0.09834743  0.05679772  1
  O  O25  1  0.29946600  0.40165245  0.55679767  1
  O  O26  1  0.36366588  0.63358960  0.48232029  1
  O  O27  1  0.36366588  0.86641005  0.98232024  1
  O  O28  1  0.96088388  0.45314649  0.29131648  1
  O  O29  1  0.41928449  0.27539744  0.28831774  1
  O  O30  1  0.46088349  0.04685339  0.70868342  1
  O  O31  1  0.46088349  0.45314649  0.20868347  1
  O  O32  1  0.53911594  0.54685327  0.79131643  1
  O  O33  1  0.53911594  0.95314638  0.29131648  1
  O  O34  1  0.58071629  0.72460304  0.71168216  1
  O  O35  1  0.58071629  0.77539732  0.21168221  1
  O  O36  1  0.63633490  0.13358972  0.01767966  1
  O  O37  1  0.63633490  0.36641017  0.51767960  1
  O  O38  1  0.70053478  0.59834732  0.44320223  1
  O  O39  1  0.20053439  0.90165233  0.55679767  1
  P  P40  1  0.04592685  0.62811021  0.89292899  1
  P  P41  1  0.04592685  0.87189015  0.39292904  1
  P  P42  1  0.45407354  0.12810962  0.89292899  1
  P  P43  1  0.45407354  0.37189027  0.39292904  1
  P  P44  1  0.54592724  0.62811021  0.60707085  1
  P  P45  1  0.54592724  0.87189015  0.10707091  1
  P  P46  1  0.95407393  0.12810962  0.60707085  1
  P  P47  1  0.95407393  0.37189027  0.10707091  1
  Cr  Cr48  1  0.83375149  0.45536383  0.61780110  1
  Cr  Cr49  1  0.83375149  0.04463606  0.11780115  1
  Cr  Cr50  1  0.66624833  0.95536371  0.61780110  1
  Cr  Cr51  1  0.66624833  0.54463594  0.11780115  1
  Cr  Cr52  1  0.33375110  0.45536383  0.88219874  1
  Cr  Cr53  1  0.33375110  0.04463606  0.38219880  1
  Cr  Cr54  1  0.16624929  0.95536371  0.88219874  1
  Cr  Cr55  1  0.16624929  0.54463594  0.38219880  1
