# generated using pymatgen
data_Ca(Fe2O3)2
_symmetry_space_group_name_H-M   'P 1'
_cell_length_a   3.06453804
_cell_length_b   5.37990145
_cell_length_c   15.35916967
_cell_angle_alpha   90.00000000
_cell_angle_beta   90.00000000
_cell_angle_gamma   106.54770601
_symmetry_Int_Tables_number   1
_chemical_formula_structural   Ca(Fe2O3)2
_chemical_formula_sum   'Ca2 Fe8 O12'
_cell_volume   242.73743749
_cell_formula_units_Z   2
loop_
 _symmetry_equiv_pos_site_id
 _symmetry_equiv_pos_as_xyz
  1  'x, y, z'
loop_
 _atom_site_type_symbol
 _atom_site_label
 _atom_site_symmetry_multiplicity
 _atom_site_fract_x
 _atom_site_fract_y
 _atom_site_fract_z
 _atom_site_occupancy
  O  O0  1  0.49999898  0.00000000  0.50000011  1
  O  O1  1  0.49999898  0.00000000  0.00000000  1
  O  O2  1  0.03321172  0.06642344  0.84201855  1
  O  O3  1  0.96678765  0.93357732  0.15798166  1
  O  O4  1  0.96678765  0.93357732  0.34201845  1
  O  O5  1  0.03321172  0.06642344  0.65798177  1
  O  O6  1  0.78516790  0.57033783  0.91555236  1
  O  O7  1  0.21483147  0.42966294  0.08444785  1
  O  O8  1  0.21483147  0.42966294  0.41555225  1
  O  O9  1  0.78516790  0.57033783  0.58444796  1
  O  O10  1  0.32278144  0.64556288  0.74999984  1
  O  O11  1  0.67721693  0.35443589  0.24999973  1
  Ca  Ca12  1  0.65606366  0.31212934  0.74999984  1
  Ca  Ca13  1  0.34393571  0.68787142  0.24999973  1
  Fe  Fe14  1  0.86504826  0.73009855  0.04389337  1
  Fe  Fe15  1  0.40374372  0.80748744  0.63369056  1
  Fe  Fe16  1  0.13495011  0.26990022  0.95610684  1
  Fe  Fe17  1  0.59625565  0.19251333  0.36630965  1
  Fe  Fe18  1  0.86504826  0.73009855  0.45610674  1
  Fe  Fe19  1  0.13495011  0.26990022  0.54389348  1
  Fe  Fe20  1  0.59625565  0.19251333  0.13369046  1
  Fe  Fe21  1  0.40374372  0.80748744  0.86630912  1
