# generated using pymatgen
data_LiVP2O7
_symmetry_space_group_name_H-M   'P 1'
_cell_length_a   6.50908341
_cell_length_b   6.38316113
_cell_length_c   6.86467125
_cell_angle_alpha   113.01345260
_cell_angle_beta   94.69515426
_cell_angle_gamma   82.08378972
_symmetry_Int_Tables_number   1
_chemical_formula_structural   LiVP2O7
_chemical_formula_sum   'Li2 V2 P4 O14'
_cell_volume   259.89303005
_cell_formula_units_Z   2
loop_
 _symmetry_equiv_pos_site_id
 _symmetry_equiv_pos_as_xyz
  1  'x, y, z'
loop_
 _atom_site_type_symbol
 _atom_site_label
 _atom_site_symmetry_multiplicity
 _atom_site_fract_x
 _atom_site_fract_y
 _atom_site_fract_z
 _atom_site_occupancy
  Li  Li0  1  0.00129240  0.70760450  0.16873452  1
  Li  Li1  1  0.99870661  0.29239479  0.83126492  1
  O  O2  1  0.40562228  0.59312136  0.78627549  1
  O  O3  1  0.02732804  0.93661814  0.75401997  1
  O  O4  1  0.21096974  0.35400873  0.46857692  1
  O  O5  1  0.30904076  0.21672527  0.76440956  1
  O  O6  1  0.32800693  0.05592222  0.11316231  1
  O  O7  1  0.04777319  0.38854230  0.14006675  1
  O  O8  1  0.41020531  0.77837803  0.47386861  1
  O  O9  1  0.58979525  0.22162126  0.52613096  1
  O  O10  1  0.59437828  0.40687793  0.21372408  1
  O  O11  1  0.95222582  0.61145699  0.85993269  1
  O  O12  1  0.69095980  0.78327402  0.23559002  1
  O  O13  1  0.78902925  0.64599054  0.53142397  1
  O  O14  1  0.97267233  0.06338287  0.24598022  1
  O  O15  1  0.67199344  0.94407879  0.88683789  1
  P  P16  1  0.13098653  0.21455363  0.23169462  1
  P  P17  1  0.38963147  0.34429204  0.64341059  1
  P  P18  1  0.61036890  0.65570897  0.35658961  1
  P  P19  1  0.86901384  0.78544738  0.76830558  1
  V  V20  1  0.35465500  0.90663622  0.78435846  1
  V  V21  1  0.64534556  0.09336307  0.21564111  1
