# generated using pymatgen
data_V6P7O24
_symmetry_space_group_name_H-M   'P 1'
_cell_length_a   5.32859168
_cell_length_b   26.82659653
_cell_length_c   6.59075007
_cell_angle_alpha   90.00000000
_cell_angle_beta   106.90739602
_cell_angle_gamma   90.00000000
_symmetry_Int_Tables_number   1
_chemical_formula_structural   V6P7O24
_chemical_formula_sum   'V12 P14 O48'
_cell_volume   901.41163358
_cell_formula_units_Z   2
loop_
 _symmetry_equiv_pos_site_id
 _symmetry_equiv_pos_as_xyz
  1  'x, y, z'
loop_
 _atom_site_type_symbol
 _atom_site_label
 _atom_site_symmetry_multiplicity
 _atom_site_fract_x
 _atom_site_fract_y
 _atom_site_fract_z
 _atom_site_occupancy
  O  O0  1  0.05580993  0.66436056  0.94689449  1
  O  O1  1  0.05580993  0.83563953  0.94689449  1
  O  O2  1  0.12898029  0.54960343  0.99976639  1
  O  O3  1  0.12898029  0.95039666  0.99976639  1
  O  O4  1  0.16026141  0.12330908  0.76363701  1
  O  O5  1  0.16026141  0.37669095  0.76363701  1
  O  O6  1  0.17208964  0.25000001  0.79644795  1
  O  O7  1  0.12004279  0.69280864  0.59392975  1
  O  O8  1  0.12004279  0.80719145  0.59392975  1
  O  O9  1  0.13824005  0.52086152  0.36795368  1
  O  O10  1  0.13824005  0.97913856  0.36795368  1
  O  O11  1  0.15833225  0.09545600  0.39546865  1
  O  O12  1  0.15833225  0.40454403  0.39546865  1
  O  O13  1  0.38696978  0.61892425  0.79491412  1
  O  O14  1  0.38696978  0.88107584  0.79491412  1
  O  O15  1  0.48644689  0.70297066  0.94013611  1
  O  O16  1  0.48644689  0.79702943  0.94013611  1
  O  O17  1  0.44436006  0.05449665  0.70889506  1
  O  O18  1  0.94418551  0.33562898  0.05312188  1
  O  O19  1  0.34529859  0.75000004  0.22498152  1
  O  O20  1  0.59390736  0.52698084  0.83553582  1
  O  O21  1  0.59390736  0.97301925  0.83553582  1
  O  O22  1  0.55183850  0.14369611  0.62862541  1
  O  O23  1  0.55183850  0.35630392  0.62862541  1
  O  O24  1  0.44815718  0.64368779  0.37143213  1
  O  O25  1  0.44815718  0.85631230  0.37143213  1
  O  O26  1  0.40617038  0.02699757  0.16446109  1
  O  O27  1  0.40617038  0.47300246  0.16446109  1
  O  O28  1  0.65450142  0.25000001  0.77496921  1
  O  O29  1  0.55567048  0.55449483  0.29105725  1
  O  O30  1  0.55567048  0.94550488  0.29105725  1
  O  O31  1  0.51351946  0.20297352  0.05991948  1
  O  O32  1  0.51351946  0.29702651  0.05991948  1
  O  O33  1  0.61303728  0.11893164  0.20506973  1
  O  O34  1  0.61303728  0.38106839  0.20506973  1
  O  O35  1  0.84166877  0.59543976  0.60452196  1
  O  O36  1  0.84166877  0.90455995  0.60452196  1
  O  O37  1  0.86178517  0.02087485  0.63196812  1
  O  O38  1  0.86178517  0.47912518  0.63196812  1
  O  O39  1  0.87993705  0.19280535  0.40610986  1
  O  O40  1  0.87993705  0.30719468  0.40610986  1
  O  O41  1  0.82773552  0.75000004  0.20368334  1
  O  O42  1  0.83972896  0.62331631  0.23639894  1
  O  O43  1  0.83972896  0.87668378  0.23639894  1
  O  O44  1  0.87109936  0.04962515  0.00016821  1
  O  O45  1  0.87109936  0.45037488  0.00016821  1
  O  O46  1  0.94418551  0.16437105  0.05312188  1
  O  O47  1  0.44436006  0.44550338  0.70889506  1
  P  P48  1  0.24082896  0.66827181  0.80439775  1
  P  P49  1  0.24082896  0.83172828  0.80439775  1
  P  P50  1  0.33160005  0.10847778  0.62013480  1
  P  P51  1  0.33160005  0.39152225  0.62013480  1
  P  P52  1  0.46499868  0.25000001  0.91021234  1
  P  P53  1  0.29062393  0.52343775  0.20352507  1
  P  P54  1  0.29062393  0.97656234  0.20352507  1
  P  P55  1  0.70944904  0.02345081  0.79642230  1
  P  P56  1  0.70944904  0.47654922  0.79642230  1
  P  P57  1  0.53492893  0.75000004  0.08985495  1
  P  P58  1  0.66841687  0.60847539  0.37990198  1
  P  P59  1  0.66841687  0.89152470  0.37990198  1
  P  P60  1  0.75913082  0.16827571  0.19561351  1
  P  P61  1  0.75913082  0.33172432  0.19561351  1
  V  V62  1  0.18021320  0.54695609  0.68968682  1
  V  V63  1  0.18021320  0.95304400  0.68968682  1
  V  V64  1  0.10967647  0.68589739  0.27517221  1
  V  V65  1  0.10967647  0.81410270  0.27517221  1
  V  V66  1  0.20634226  0.09903576  0.08658378  1
  V  V67  1  0.20634226  0.40096427  0.08658378  1
  V  V68  1  0.79369440  0.59901078  0.91343912  1
  V  V69  1  0.79369440  0.90098931  0.91343912  1
  V  V70  1  0.89026770  0.18590291  0.72481859  1
  V  V71  1  0.89026770  0.31409712  0.72481859  1
  V  V72  1  0.81984324  0.04697263  0.31024673  1
  V  V73  1  0.81984324  0.45302740  0.31024673  1
