# generated using pymatgen
data_Li3V3(PO4)4
_symmetry_space_group_name_H-M   'P 1'
_cell_length_a   6.48091680
_cell_length_b   10.19159831
_cell_length_c   10.68370106
_cell_angle_alpha   91.30138250
_cell_angle_beta   90.00000000
_cell_angle_gamma   71.46076971
_symmetry_Int_Tables_number   1
_chemical_formula_structural   Li3V3(PO4)4
_chemical_formula_sum   'Li6 V6 P8 O32'
_cell_volume   668.85627816
_cell_formula_units_Z   2
loop_
 _symmetry_equiv_pos_site_id
 _symmetry_equiv_pos_as_xyz
  1  'x, y, z'
loop_
 _atom_site_type_symbol
 _atom_site_label
 _atom_site_symmetry_multiplicity
 _atom_site_fract_x
 _atom_site_fract_y
 _atom_site_fract_z
 _atom_site_occupancy
  Li  Li0  1  0.15852549  0.86811274  0.95135581  1
  Li  Li1  1  0.97336302  0.86811257  0.45135543  1
  Li  Li2  1  0.02663787  0.13188739  0.54864466  1
  Li  Li3  1  0.84147540  0.13188722  0.04864429  1
  Li  Li4  1  0.52233817  0.00000025  0.75000009  1
  Li  Li5  1  0.47766070  0.00000007  0.24999972  1
  O  O6  1  0.77086998  0.50593342  0.86255305  1
  O  O7  1  0.21560897  0.95706251  0.48554416  1
  O  O8  1  0.53651101  0.84422031  0.63164450  1
  O  O9  1  0.58089020  0.83083413  0.89464265  1
  O  O10  1  0.61926838  0.84422014  0.13164412  1
  O  O11  1  0.58827537  0.83083396  0.39464227  1
  O  O12  1  0.94046504  0.70180361  1.00106123  1
  O  O13  1  0.35773105  0.70180344  0.50106086  1
  O  O14  1  0.31882621  0.69416917  0.78509158  1
  O  O15  1  0.94737913  0.68903260  0.72523941  1
  O  O16  1  0.98700431  0.69416902  0.28509215  1
  O  O17  1  0.36358796  0.68903245  0.22523998  1
  O  O18  1  0.82732806  0.95706266  0.98554359  1
  O  O19  1  0.69326863  0.51169679  0.64578917  1
  O  O20  1  0.72319579  0.50593429  0.36255267  1
  O  O21  1  0.79503427  0.51169664  0.14578974  1
  O  O22  1  0.20496662  0.48830332  0.85421035  1
  O  O23  1  0.27680510  0.49406567  0.63744742  1
  O  O24  1  0.30673072  0.48830317  0.35421092  1
  O  O25  1  0.22912937  0.49406655  0.13744705  1
  O  O26  1  0.17267129  0.04293730  0.01445650  1
  O  O27  1  0.01299503  0.30583094  0.71490794  1
  O  O28  1  0.05262022  0.31096736  0.27476068  1
  O  O29  1  0.68117314  0.30583079  0.21490851  1
  O  O30  1  0.64226829  0.29819652  0.49893923  1
  O  O31  1  0.05953431  0.29819635  -0.00106114  1
  O  O32  1  0.41172553  0.16916598  0.60535687  1
  O  O33  1  0.38073097  0.15577982  0.86835597  1
  O  O34  1  0.41910914  0.16916583  0.10535744  1
  O  O35  1  0.46348833  0.15577965  0.36835559  1
  O  O36  1  0.78439192  0.04293745  0.51445594  1
  O  O37  1  0.63641138  0.31096751  0.77476011  1
  P  P38  1  0.74117247  0.83672854  0.00421488  1
  P  P39  1  0.42209868  0.83672839  0.50421545  1
  P  P40  1  0.18206927  0.60098456  0.74919295  1
  P  P41  1  0.21694684  0.60098439  0.24919257  1
  P  P42  1  0.78305405  0.39901557  0.75080752  1
  P  P43  1  0.81792956  0.39901645  0.25080715  1
  P  P44  1  0.57790221  0.16327157  0.49578464  1
  P  P45  1  0.25882688  0.16327140  0.99578426  1
  V  V46  1  0.63972365  0.68828792  0.75742720  1
  V  V47  1  0.67198812  0.68828777  0.25742777  1
  V  V48  1  0.49999942  0.50000049  0.49999958  1
  V  V49  1  0.99999920  0.50000034  0.00000014  1
  V  V50  1  0.32801122  0.31171219  0.74257232  1
  V  V51  1  0.36027724  0.31171204  0.24257289  1
