# generated using pymatgen
data_VPO4
_symmetry_space_group_name_H-M   'P 1'
_cell_length_a   10.07089956
_cell_length_b   5.90352615
_cell_length_c   4.95717865
_cell_angle_alpha   90.00000000
_cell_angle_beta   90.00000000
_cell_angle_gamma   90.00000000
_symmetry_Int_Tables_number   1
_chemical_formula_structural   VPO4
_chemical_formula_sum   'V4 P4 O16'
_cell_volume   294.72320174
_cell_formula_units_Z   4
loop_
 _symmetry_equiv_pos_site_id
 _symmetry_equiv_pos_as_xyz
  1  'x, y, z'
loop_
 _atom_site_type_symbol
 _atom_site_label
 _atom_site_symmetry_multiplicity
 _atom_site_fract_x
 _atom_site_fract_y
 _atom_site_fract_z
 _atom_site_occupancy
  O  O0  1  0.05084779  0.75000063  0.64143094  1
  O  O1  1  0.12452306  0.24999964  0.71746051  1
  O  O2  1  0.17059467  0.04709145  0.26694913  1
  O  O3  1  0.17059467  0.45290954  0.26694913  1
  O  O4  1  0.32940591  0.54709073  0.76694928  1
  O  O5  1  0.32940591  0.95290882  0.76694928  1
  O  O6  1  0.37547653  0.75000063  0.21746036  1
  O  O7  1  0.44915180  0.24999964  0.14143079  1
  O  O8  1  0.55084738  0.75000063  0.85856952  1
  O  O9  1  0.62452364  0.24999964  0.78253995  1
  O  O10  1  0.67059426  0.04709145  0.23305103  1
  O  O11  1  0.67059426  0.45290954  0.23305103  1
  O  O12  1  0.94915238  0.24999964  0.35856937  1
  O  O13  1  0.82940550  0.95290882  0.73305118  1
  O  O14  1  0.87547612  0.75000063  0.28253980  1
  O  O15  1  0.82940550  0.54709073  0.73305118  1
  P  P16  1  0.09756356  0.24999964  0.41555652  1
  P  P17  1  0.40243702  0.75000063  0.91555668  1
  P  P18  1  0.59756315  0.24999964  0.08444363  1
  P  P19  1  0.90243661  0.75000063  0.58444379  1
  V  V20  1  0.23090711  0.75000063  0.48108444  1
  V  V21  1  0.26909248  0.24999964  0.98108460  1
  V  V22  1  0.73090770  0.75000063  0.01891571  1
  V  V23  1  0.76909307  0.24999964  0.51891587  1
