# generated using pymatgen
data_Ca(TbS2)2
_symmetry_space_group_name_H-M   'P 1'
_cell_length_a   7.27587105
_cell_length_b   7.27587107
_cell_length_c   7.27587113
_cell_angle_alpha   109.52387302
_cell_angle_beta   109.52386731
_cell_angle_gamma   109.36596965
_symmetry_Int_Tables_number   1
_chemical_formula_structural   Ca(TbS2)2
_chemical_formula_sum   'Ca2 Tb4 S8'
_cell_volume   296.50499487
_cell_formula_units_Z   2
loop_
 _symmetry_equiv_pos_site_id
 _symmetry_equiv_pos_as_xyz
  1  'x, y, z'
loop_
 _atom_site_type_symbol
 _atom_site_label
 _atom_site_symmetry_multiplicity
 _atom_site_fract_x
 _atom_site_fract_y
 _atom_site_fract_z
 _atom_site_occupancy
  Ca  Ca0  1  0.62500000  0.37500000  0.25000000  1
  Ca  Ca1  1  0.87500000  0.12500000  0.75000000  1
  S  S2  1  0.00620610  0.86114636  0.50061263  1
  S  S3  1  0.49379390  0.99440653  0.85494026  1
  S  S4  1  0.13885364  0.13946627  0.14505974  1
  S  S5  1  0.49440653  0.99379390  0.35494026  1
  S  S6  1  0.36114636  0.50620610  0.00061263  1
  S  S7  1  0.63946627  0.63885364  0.64505974  1
  S  S8  1  0.86053373  0.50559347  0.99938737  1
  S  S9  1  0.00559347  0.36053373  0.49938737  1
  Tb  Tb10  1  0.12243482  0.75000000  0.87243482  1
  Tb  Tb11  1  0.25000000  0.62243482  0.37243482  1
  Tb  Tb12  1  0.37756518  0.25000000  0.62756518  1
  Tb  Tb13  1  0.75000000  0.87756518  0.12756518  1
