# generated using pymatgen
data_HBr
_symmetry_space_group_name_H-M   'P 1'
_cell_length_a   6.25417238
_cell_length_b   6.03270165
_cell_length_c   5.84756942
_cell_angle_alpha   90.00000000
_cell_angle_beta   90.00000000
_cell_angle_gamma   90.00000000
_symmetry_Int_Tables_number   1
_chemical_formula_structural   HBr
_chemical_formula_sum   'H4 Br4'
_cell_volume   220.62619811
_cell_formula_units_Z   4
loop_
 _symmetry_equiv_pos_site_id
 _symmetry_equiv_pos_as_xyz
  1  'x, y, z'
loop_
 _atom_site_type_symbol
 _atom_site_label
 _atom_site_symmetry_multiplicity
 _atom_site_fract_x
 _atom_site_fract_y
 _atom_site_fract_z
 _atom_site_occupancy
  Br  Br0  1  0.00200982  0.00483287  0.00613350  1
  Br  Br1  1  0.99799018  0.50483287  0.49386650  1
  Br  Br2  1  0.49799018  0.99516713  0.50613350  1
  Br  Br3  1  0.50200982  0.49516713  0.99386650  1
  H  H4  1  0.07770875  0.37687160  0.30363733  1
  H  H5  1  0.42229125  0.62312840  0.80363733  1
  H  H6  1  0.57770875  0.12312840  0.69636267  1
  H  H7  1  0.92229125  0.87687160  0.19636267  1
