# generated using pymatgen
data_SiPN3
_symmetry_space_group_name_H-M   'P 1'
_cell_length_a   9.41993417
_cell_length_b   5.30268496
_cell_length_c   5.30268508
_cell_angle_alpha   120.22365838
_cell_angle_beta   89.90810550
_cell_angle_gamma   89.90810549
_symmetry_Int_Tables_number   1
_chemical_formula_structural   SiPN3
_chemical_formula_sum   'Si4 P4 N12'
_cell_volume   228.86780769
_cell_formula_units_Z   4
loop_
 _symmetry_equiv_pos_site_id
 _symmetry_equiv_pos_as_xyz
  1  'x, y, z'
loop_
 _atom_site_type_symbol
 _atom_site_label
 _atom_site_symmetry_multiplicity
 _atom_site_fract_x
 _atom_site_fract_y
 _atom_site_fract_z
 _atom_site_occupancy
  N  N0  1  0.17750241  0.09529743  0.66456582  1
  N  N1  1  0.17165288  0.65603767  0.08703778  1
  N  N2  1  0.21854358  0.24709823  0.22646792  1
  N  N3  1  0.42129159  0.33984385  0.89715766  1
  N  N4  1  0.42801437  0.92073458  0.34144562  1
  N  N5  1  0.46760048  0.77612768  0.75344162  1
  N  N6  1  0.67165288  0.08703778  0.65603767  1
  N  N7  1  0.67750241  0.66456582  0.09529743  1
  N  N8  1  0.71854358  0.22646792  0.24709823  1
  N  N9  1  0.92801437  0.34144562  0.92073458  1
  N  N10  1  0.92129159  0.89715766  0.33984385  1
  N  N11  1  0.96760048  0.75344162  0.77612768  1
  P  P12  1  0.99723545  0.66353023  0.00617317  1
  P  P13  1  0.24858474  0.32546488  0.98806055  1
  P  P14  1  0.49723545  0.00617318  0.66353023  1
  P  P15  1  0.74858474  0.98806055  0.32546488  1
  Si  Si16  1  0.00243793  0.99955098  0.68172316  1
  Si  Si17  1  0.25083657  0.00405052  0.32619067  1
  Si  Si18  1  0.50243793  0.68172316  0.99955098  1
  Si  Si19  1  0.75083657  0.32619067  0.00405052  1
