# generated using pymatgen
data_La5AgS8
_symmetry_space_group_name_H-M   'P 1'
_cell_length_a   7.55856814
_cell_length_b   7.55856837
_cell_length_c   7.55856829
_cell_angle_alpha   109.72975799
_cell_angle_beta   109.72975680
_cell_angle_gamma   108.95537515
_symmetry_Int_Tables_number   1
_chemical_formula_structural   La5AgS8
_chemical_formula_sum   'La5 Ag1 S8'
_cell_volume   332.40714900
_cell_formula_units_Z   1
loop_
 _symmetry_equiv_pos_site_id
 _symmetry_equiv_pos_as_xyz
  1  'x, y, z'
loop_
 _atom_site_type_symbol
 _atom_site_label
 _atom_site_symmetry_multiplicity
 _atom_site_fract_x
 _atom_site_fract_y
 _atom_site_fract_z
 _atom_site_occupancy
  Ag  Ag0  1  0.87500000  0.12500000  0.75000000  1
  La  La1  1  0.10998626  0.74475915  0.86709481  1
  La  La2  1  0.25524085  0.62233566  0.36522711  1
  La  La3  1  0.37766434  0.24289145  0.63290519  1
  La  La4  1  0.75710855  0.89001374  0.13477289  1
  La  La5  1  0.62500000  0.37500000  0.25000000  1
  S  S6  1  0.48261363  0.99222461  0.85494450  1
  S  S7  1  0.14881402  0.14695825  0.14000448  1
  S  S8  1  0.37233087  0.51738637  0.00961098  1
  S  S9  1  0.63728011  0.62766913  0.64505550  1
  S  S10  1  0.50695377  0.00880954  0.35999552  1
  S  S11  1  0.99119046  0.85118598  0.49814423  1
  S  S12  1  0.85304175  0.49304623  0.00185577  1
  S  S13  1  0.00777539  0.36271989  0.49038902  1
