# generated using pymatgen
data_Cu2Ag2O3
_symmetry_space_group_name_H-M   'P 1'
_cell_length_a   5.99439362
_cell_length_b   5.99439362
_cell_length_c   6.84254187
_cell_angle_alpha   115.97786539
_cell_angle_beta   115.97786545
_cell_angle_gamma   89.99999996
_symmetry_Int_Tables_number   1
_chemical_formula_structural   Cu2Ag2O3
_chemical_formula_sum   'Cu4 Ag4 O6'
_cell_volume   193.01610241
_cell_formula_units_Z   2
loop_
 _symmetry_equiv_pos_site_id
 _symmetry_equiv_pos_as_xyz
  1  'x, y, z'
loop_
 _atom_site_type_symbol
 _atom_site_label
 _atom_site_symmetry_multiplicity
 _atom_site_fract_x
 _atom_site_fract_y
 _atom_site_fract_z
 _atom_site_occupancy
  O  O0  1  0.62500000  0.37500000  0.25000000  1
  O  O1  1  0.37500000  0.62500000  0.75000000  1
  O  O2  1  0.61163281  0.86163281  0.22326563  1
  O  O3  1  0.86163281  0.61163281  0.72326563  1
  O  O4  1  0.13836719  0.38836719  0.27673437  1
  O  O5  1  0.38836719  0.13836719  0.77673437  1
  Cu  Cu6  1  0.50000000  0.50000000  0.50000000  1
  Cu  Cu7  1  0.50000000  0.00000000  0.00000000  1
  Cu  Cu8  1  0.50000000  0.50000000  0.00000000  1
  Cu  Cu9  1  0.00000000  0.50000000  0.50000000  1
  Ag  Ag10  1  0.00000000  0.50000000  0.00000000  1
  Ag  Ag11  1  0.00000000  0.00000000  0.50000000  1
  Ag  Ag12  1  0.50000000  0.00000000  0.50000000  1
  Ag  Ag13  1  0.00000000  0.00000000  0.00000000  1
