# generated using pymatgen
data_Ca4IrO6
_symmetry_space_group_name_H-M   'P 1'
_cell_length_a   6.61041703
_cell_length_b   6.61041703
_cell_length_c   6.61041703
_cell_angle_alpha   90.97744592
_cell_angle_beta   90.97744593
_cell_angle_gamma   90.97744594
_symmetry_Int_Tables_number   1
_chemical_formula_structural   Ca4IrO6
_chemical_formula_sum   'Ca8 Ir2 O12'
_cell_volume   288.73189653
_cell_formula_units_Z   2
loop_
 _symmetry_equiv_pos_site_id
 _symmetry_equiv_pos_as_xyz
  1  'x, y, z'
loop_
 _atom_site_type_symbol
 _atom_site_label
 _atom_site_symmetry_multiplicity
 _atom_site_fract_x
 _atom_site_fract_y
 _atom_site_fract_z
 _atom_site_occupancy
  O  O0  1  0.44502843  0.57129153  0.79656887  1
  O  O1  1  0.57129153  0.79656887  0.44502843  1
  O  O2  1  0.79656887  0.44502843  0.57129153  1
  O  O3  1  0.70343113  0.92870847  0.05497157  1
  O  O4  1  0.92870847  0.05497157  0.70343113  1
  O  O5  1  0.05497157  0.70343113  0.92870847  1
  O  O6  1  0.55497157  0.42870847  0.20343113  1
  O  O7  1  0.42870847  0.20343113  0.55497157  1
  O  O8  1  0.20343113  0.55497157  0.42870847  1
  O  O9  1  0.29656887  0.07129153  0.94502843  1
  O  O10  1  0.94502843  0.29656887  0.07129153  1
  O  O11  1  0.07129153  0.94502843  0.29656887  1
  Ca  Ca12  1  0.88967487  0.61032513  0.25000000  1
  Ca  Ca13  1  0.25000000  0.88967487  0.61032513  1
  Ca  Ca14  1  0.75000000  0.75000000  0.75000000  1
  Ca  Ca15  1  0.25000000  0.25000000  0.25000000  1
  Ca  Ca16  1  0.38967487  0.75000000  0.11032513  1
  Ca  Ca17  1  0.75000000  0.11032513  0.38967487  1
  Ca  Ca18  1  0.11032513  0.38967487  0.75000000  1
  Ca  Ca19  1  0.61032513  0.25000000  0.88967487  1
  Ir  Ir20  1  0.00000000  0.00000000  0.00000000  1
  Ir  Ir21  1  0.50000000  0.50000000  0.50000000  1
