# generated using pymatgen
data_CaSiO3
_symmetry_space_group_name_H-M   'P 1'
_cell_length_a   6.74048139
_cell_length_b   6.78603885
_cell_length_c   9.45676804
_cell_angle_alpha   68.57056005
_cell_angle_beta   86.21411052
_cell_angle_gamma   75.81085080
_symmetry_Int_Tables_number   1
_chemical_formula_structural   CaSiO3
_chemical_formula_sum   'Ca6 Si6 O18'
_cell_volume   390.24259685
_cell_formula_units_Z   6
loop_
 _symmetry_equiv_pos_site_id
 _symmetry_equiv_pos_as_xyz
  1  'x, y, z'
loop_
 _atom_site_type_symbol
 _atom_site_label
 _atom_site_symmetry_multiplicity
 _atom_site_fract_x
 _atom_site_fract_y
 _atom_site_fract_z
 _atom_site_occupancy
  O  O0  1  0.76210995  0.48063795  0.61386310  1
  O  O1  1  0.23789005  0.51936205  0.38613690  1
  O  O2  1  0.04696105  0.12851515  0.59832626  1
  O  O3  1  0.95303895  0.87148485  0.40167374  1
  O  O4  1  0.14405594  0.37010241  0.73732271  1
  O  O5  1  0.85594406  0.62989759  0.26267729  1
  O  O6  1  0.86576178  0.13221830  0.86349973  1
  O  O7  1  0.13423822  0.86778170  0.13650027  1
  O  O8  1  0.38789255  0.93325507  0.90730784  1
  O  O9  1  0.61210745  0.06674493  0.09269216  1
  O  O10  1  0.12894318  0.65953894  0.93877837  1
  O  O11  1  0.87105682  0.34046106  0.06122163  1
  O  O12  1  0.26399382  0.21644295  0.25765682  1
  O  O13  1  0.73600618  0.78355705  0.74234318  1
  O  O14  1  0.58133715  0.21598397  0.40620615  1
  O  O15  1  0.41866285  0.78401603  0.59379385  1
  O  O16  1  0.45020961  0.55387260  0.13621113  1
  O  O17  1  0.54979039  0.44612740  0.86378887  1
  Si  Si18  1  0.96138298  0.27558789  0.70039753  1
  Si  Si19  1  0.03861702  0.72441211  0.29960247  1
  Si  Si20  1  0.72996103  0.24387755  0.98404303  1
  Si  Si21  1  0.27003897  0.75612245  0.01595697  1
  Si  Si22  1  0.61289694  0.62941614  0.70545518  1
  Si  Si23  1  0.38710306  0.37058386  0.29454482  1
  Ca  Ca24  1  0.07777786  0.75310110  0.66291283  1
  Ca  Ca25  1  0.92222214  0.24689890  0.33708717  1
  Ca  Ca26  1  0.41154932  0.11093440  0.65080927  1
  Ca  Ca27  1  0.58845068  0.88906560  0.34919073  1
  Ca  Ca28  1  0.23651002  0.25643955  0.00041093  1
  Ca  Ca29  1  0.76348998  0.74356045  0.99958907  1
