# generated using pymatgen
data_Cd(GaO2)2
_symmetry_space_group_name_H-M   'P 1'
_cell_length_a   6.17552251
_cell_length_b   6.17552315
_cell_length_c   37.22322593
_cell_angle_alpha   60.15104086
_cell_angle_beta   60.15103740
_cell_angle_gamma   59.99999758
_symmetry_Int_Tables_number   1
_chemical_formula_structural   Cd(GaO2)2
_chemical_formula_sum   'Cd12 Ga24 O48'
_cell_volume   1006.08384881
_cell_formula_units_Z   12
loop_
 _symmetry_equiv_pos_site_id
 _symmetry_equiv_pos_as_xyz
  1  'x, y, z'
loop_
 _atom_site_type_symbol
 _atom_site_label
 _atom_site_symmetry_multiplicity
 _atom_site_fract_x
 _atom_site_fract_y
 _atom_site_fract_z
 _atom_site_occupancy
  Cd  Cd0  1  0.24712103  0.24712103  0.04310648  1
  Cd  Cd1  1  0.62864500  0.62864500  0.01901050  1
  Cd  Cd2  1  0.24617231  0.24617231  0.21024684  1
  Cd  Cd3  1  0.62142916  0.62142916  0.18928542  1
  Cd  Cd4  1  0.24619978  0.24619978  0.37690011  1
  Cd  Cd5  1  -0.00010344  -0.00010344  0.50005172  1
  Cd  Cd6  1  0.00422899  0.00422899  0.33121850  1
  Cd  Cd7  1  0.25123504  0.25123504  0.54104948  1
  Cd  Cd8  1  0.25127141  0.25127141  0.70769730  1
  Cd  Cd9  1  0.99972828  0.99972828  0.66680286  1
  Cd  Cd10  1  0.24990305  0.24990305  0.87504847  1
  Cd  Cd11  1  0.99739676  0.99739676  0.83463462  1
  Ga  Ga12  1  0.00397239  0.00397239  0.99801380  1
  Ga  Ga13  1  0.13462183  0.62021729  0.10415760  1
  Ga  Ga14  1  0.62021729  0.13462183  0.10415760  1
  Ga  Ga15  1  0.00717512  0.00717512  0.16307944  1
  Ga  Ga16  1  0.62021729  0.62021729  0.10415760  1
  Ga  Ga17  1  0.12606062  0.61792573  0.27301432  1
  Ga  Ga18  1  0.61792573  0.12606062  0.27301432  1
  Ga  Ga19  1  0.61792573  0.61792573  0.27301432  1
  Ga  Ga20  1  0.12497753  0.62543609  0.43735838  1
  Ga  Ga21  1  0.62543609  0.12497753  0.43735838  1
  Ga  Ga22  1  0.62373015  0.62373015  0.35480192  1
  Ga  Ga23  1  0.62543609  0.62543609  0.43735838  1
  Ga  Ga24  1  0.12568998  0.62530911  0.60394896  1
  Ga  Ga25  1  0.62549164  0.62549164  0.52058718  1
  Ga  Ga26  1  0.62530911  0.12568998  0.60394896  1
  Ga  Ga27  1  0.62530911  0.62530911  0.60394896  1
  Ga  Ga28  1  0.12699524  0.62518329  0.77043936  1
  Ga  Ga29  1  0.62585963  0.62585963  0.68707019  1
  Ga  Ga30  1  0.62518329  0.12699524  0.77043936  1
  Ga  Ga31  1  0.62518329  0.62518329  0.77043936  1
  Ga  Ga32  1  0.13581947  0.62351567  0.93619153  1
  Ga  Ga33  1  0.62351567  0.13581947  0.93619153  1
  Ga  Ga34  1  0.62845637  0.62845637  0.85243882  1
  Ga  Ga35  1  0.62351567  0.62351567  0.93619153  1
  O  O36  1  0.37616266  0.37616266  0.07042262  1
  O  O37  1  0.37616266  0.82513895  0.07042262  1
  O  O38  1  0.38795008  0.38795008  0.13935796  1
  O  O39  1  0.82513895  0.37616266  0.07042262  1
  O  O40  1  0.39800627  0.88341483  0.13919368  1
  O  O41  1  0.36616590  0.36616590  0.24067400  1
  O  O42  1  0.87396983  0.87396983  0.06301509  1
  O  O43  1  0.88341483  0.39800627  0.13919368  1
  O  O44  1  0.36616590  0.82362617  0.24067400  1
  O  O45  1  0.38586740  0.38586740  0.30706630  1
  O  O46  1  0.88341483  0.88341483  0.13919368  1
  O  O47  1  0.82362617  0.36616590  0.24067400  1
  O  O48  1  0.43577037  0.85256355  0.30985042  1
  O  O49  1  0.39199754  0.39199754  0.39961530  1
  O  O50  1  0.88017823  0.88017823  0.22657788  1
  O  O51  1  0.39199754  0.81831113  0.39961530  1
  O  O52  1  0.85256355  0.43577037  0.30985042  1
  O  O53  1  0.39262017  0.39262017  0.47035692  1
  O  O54  1  0.85256355  0.85256355  0.30985042  1
  O  O55  1  0.81831113  0.39199754  0.39961530  1
  O  O56  1  0.42945641  0.85644017  0.47627754  1
  O  O57  1  0.39254611  0.39254611  0.56571115  1
  O  O58  1  0.85842280  0.85842280  0.40412160  1
  O  O59  1  0.39254611  0.82064091  0.56571115  1
  O  O60  1  0.85644017  0.42945641  0.47627754  1
  O  O61  1  0.39317727  0.39317727  0.63674437  1
  O  O62  1  0.85644017  0.85644017  0.47627754  1
  O  O63  1  0.82064091  0.39254611  0.56571115  1
  O  O64  1  0.39299820  0.39299820  0.73218833  1
  O  O65  1  0.42896712  0.85657686  0.64297953  1
  O  O66  1  0.85661459  0.85661459  0.57169271  1
  O  O67  1  0.85657686  0.42896712  0.64297953  1
  O  O68  1  0.39299820  0.82087565  0.73218833  1
  O  O69  1  0.39299188  0.39299188  0.80350406  1
  O  O70  1  0.85657686  0.85657686  0.64297953  1
  O  O71  1  0.82087565  0.39299820  0.73218833  1
  O  O72  1  0.39833598  0.39833598  0.89704082  1
  O  O73  1  0.42744562  0.85851507  0.80925404  1
  O  O74  1  0.85636015  0.85636015  0.73848692  1
  O  O75  1  0.85851507  0.42744562  0.80925404  1
  O  O76  1  0.39304631  0.39304631  0.97014384  1
  O  O77  1  0.39833598  0.82108111  0.89704082  1
  O  O78  1  0.85851507  0.85851507  0.80925404  1
  O  O79  1  0.82108111  0.39833598  0.89704082  1
  O  O80  1  0.38474449  0.89277328  0.97161849  1
  O  O81  1  0.89277328  0.38474449  0.97161849  1
  O  O82  1  0.85050512  0.85050512  0.90808044  1
  O  O83  1  0.89277328  0.89277328  0.97161849  1
