# generated using pymatgen
data_Sr3Fe2Cu2S2O5
_symmetry_space_group_name_H-M   'P 1'
_cell_length_a   3.96661890
_cell_length_b   3.96654523
_cell_length_c   13.58887720
_cell_angle_alpha   98.38450861
_cell_angle_beta   98.38431033
_cell_angle_gamma   90.00688009
_symmetry_Int_Tables_number   1
_chemical_formula_structural   Sr3Fe2Cu2S2O5
_chemical_formula_sum   'Sr3 Fe2 Cu2 S2 O5'
_cell_volume   209.20853388
_cell_formula_units_Z   1
loop_
 _symmetry_equiv_pos_site_id
 _symmetry_equiv_pos_as_xyz
  1  'x, y, z'
loop_
 _atom_site_type_symbol
 _atom_site_label
 _atom_site_symmetry_multiplicity
 _atom_site_fract_x
 _atom_site_fract_y
 _atom_site_fract_z
 _atom_site_occupancy
  O  O0  1  0.00000375  0.00000374  0.00000761  1
  O  O1  1  0.41724973  0.91717899  0.83460090  1
  O  O2  1  0.91717117  0.41724631  0.83459235  1
  O  O3  1  0.08282679  0.58275311  0.16540601  1
  O  O4  1  0.58274791  0.08282040  0.16539759  1
  S  S5  1  0.80239117  0.80239039  0.60476660  1
  S  S6  1  0.19759827  0.19759902  0.39521248  1
  Fe  Fe7  1  0.07252585  0.07252722  0.14497904  1
  Fe  Fe8  1  0.92748104  0.92748105  0.85503922  1
  Cu  Cu9  1  0.25005321  0.74995170  0.50000054  1
  Cu  Cu10  1  0.74995003  0.25004976  0.50000140  1
  Sr  Sr11  1  0.49999983  0.49999939  1.00000013  1
  Sr  Sr12  1  0.64218705  0.64219072  0.28447906  1
  Sr  Sr13  1  0.35781019  0.35780621  0.71551806  1
