# generated using pymatgen
data_Ce10Y22O53
_symmetry_space_group_name_H-M   'P 1'
_cell_length_a   9.37500838
_cell_length_b   9.38608497
_cell_length_c   18.67866865
_cell_angle_alpha   109.48275360
_cell_angle_beta   109.26262748
_cell_angle_gamma   109.57044948
_symmetry_Int_Tables_number   1
_chemical_formula_structural   Ce10Y22O53
_chemical_formula_sum   'Ce10 Y22 O53'
_cell_volume   1266.77920750
_cell_formula_units_Z   1
loop_
 _symmetry_equiv_pos_site_id
 _symmetry_equiv_pos_as_xyz
  1  'x, y, z'
loop_
 _atom_site_type_symbol
 _atom_site_label
 _atom_site_symmetry_multiplicity
 _atom_site_fract_x
 _atom_site_fract_y
 _atom_site_fract_z
 _atom_site_occupancy
  Ce  Ce0  1  0.00581670  0.74334990  0.88606974  1
  Ce  Ce1  1  0.48584660  0.26712596  0.86845954  1
  Ce  Ce2  1  0.74912117  0.75044486  0.51250175  1
  Ce  Ce3  1  0.49493215  0.99633335  0.51163758  1
  Ce  Ce4  1  0.78095346  0.00878611  0.87375480  1
  Ce  Ce5  1  0.75144703  0.75194762  0.00531723  1
  Ce  Ce6  1  0.98010000  0.25218086  0.61155248  1
  Ce  Ce7  1  0.49246691  0.99671012  0.01345706  1
  Ce  Ce8  1  0.78568116  0.02937508  0.37243028  1
  Ce  Ce9  1  0.97283037  0.25139588  0.11362825  1
  O  O10  1  0.01041106  0.96602211  0.86200812  1
  O  O11  1  0.01521739  0.48608587  0.87929819  1
  O  O12  1  0.02785673  0.25799225  0.00232413  1
  O  O13  1  0.24985160  0.97497761  0.75644647  1
  O  O14  1  0.99161014  0.95918356  0.36353903  1
  O  O15  1  0.25609743  0.77000881  0.86922709  1
  O  O16  1  0.25646087  0.01181616  0.51417988  1
  O  O17  1  0.23163745  0.46307289  0.73434895  1
  O  O18  1  0.23617659  0.27567528  0.87238708  1
  O  O19  1  0.24311348  0.71374450  0.60896026  1
  O  O20  1  0.03198059  0.26792651  0.50122725  1
  O  O21  1  0.01993520  0.48540679  0.37779651  1
  O  O22  1  0.51147638  0.52296853  0.87682789  1
  O  O23  1  0.49105646  0.21488700  0.98425086  1
  O  O24  1  0.24895691  0.96925796  0.25657095  1
  O  O25  1  0.51894275  0.78098339  0.76471889  1
  O  O26  1  0.26396671  0.76923776  0.36919333  1
  O  O27  1  0.47406056  0.25601256  0.74099612  1
  O  O28  1  0.24962675  0.01085171  0.01504902  1
  O  O29  1  0.22940484  0.45766113  0.23322161  1
  O  O30  1  0.46021264  0.47393314  0.61339663  1
  O  O31  1  0.24054589  0.27568924  0.37245408  1
  O  O32  1  0.48926459  0.73525076  0.50728041  1
  O  O33  1  0.77178023  0.76878203  0.88590323  1
  O  O34  1  0.25434806  0.70718576  0.11200216  1
  O  O35  1  0.71353385  0.22481346  0.87357885  1
  O  O36  1  0.50213707  0.99878208  0.63297789  1
  O  O37  1  0.50310606  0.99854819  0.13392338  1
  O  O38  1  0.49390416  0.21105705  0.48376944  1
  O  O39  1  0.77662940  0.75003298  0.64047677  1
  O  O40  1  0.53525834  0.55046398  0.37707821  1
  O  O41  1  0.77286169  0.52532324  0.75449266  1
  O  O42  1  0.72343345  0.01108188  0.98908002  1
  O  O43  1  0.53618402  0.77847522  0.26995685  1
  O  O44  1  0.46657118  0.25145711  0.23797493  1
  O  O45  1  0.75871710  0.23622972  0.63276833  1
  O  O46  1  0.78918288  0.03861312  0.75807742  1
  O  O47  1  0.45821255  0.47412756  0.11026348  1
  O  O48  1  0.49150209  0.74010363  0.00627562  1
  O  O49  1  0.72654181  0.49958738  0.49692786  1
  O  O50  1  0.71594245  0.23065436  0.37343076  1
  O  O51  1  0.97820112  0.50336707  0.62608248  1
  O  O52  1  0.97426713  0.74778532  0.49456784  1
  O  O53  1  0.77763676  0.75067277  0.13903169  1
  O  O54  1  0.76642254  0.54158499  0.26103037  1
  O  O55  1  0.73468032  0.99359660  0.48301068  1
  O  O56  1  0.01630562  0.04442716  0.63521379  1
  O  O57  1  0.75408987  0.24842655  0.13615531  1
  O  O58  1  0.79447117  0.04785574  0.25751279  1
  O  O59  1  0.72705743  0.49605334  0.99481927  1
  O  O60  1  0.98132602  0.50832035  0.12913668  1
  O  O61  1  0.99313178  0.74396197  0.00649496  1
  O  O62  1  0.01016616  0.04127266  0.13358954  1
  Y  Y63  1  0.24821458  0.97096791  0.62688461  1
  Y  Y64  1  0.26803991  0.52752931  0.87237617  1
  Y  Y65  1  0.02561314  0.74100670  0.38472367  1
  Y  Y66  1  0.25029106  0.22408147  0.98505408  1
  Y  Y67  1  0.24569770  0.71985069  0.73364824  1
  Y  Y68  1  0.25203974  0.96822600  0.13121951  1
  Y  Y69  1  0.97537511  0.49331221  0.99936871  1
  Y  Y70  1  0.52607458  0.52654299  0.75716808  1
  Y  Y71  1  0.25502827  0.72139431  0.23569184  1
  Y  Y72  1  0.27222148  0.52540295  0.37227839  1
  Y  Y73  1  0.25423447  0.22429734  0.48546322  1
  Y  Y74  1  0.52666691  0.76976351  0.64017729  1
  Y  Y75  1  0.48522423  0.27324262  0.36795674  1
  Y  Y76  1  0.72861855  0.25592123  0.75431993  1
  Y  Y77  1  0.71343229  0.47058237  0.61233889  1
  Y  Y78  1  0.01242191  0.00681324  0.75051986  1
  Y  Y79  1  0.50366836  0.50282614  0.24425710  1
  Y  Y80  1  0.53445197  0.77147990  0.14041536  1
  Y  Y81  1  0.72847280  0.26607940  0.25607563  1
  Y  Y82  1  0.71610881  0.47777194  0.11489536  1
  Y  Y83  1  0.97103970  0.49959663  0.49627922  1
  Y  Y84  1  0.01420357  0.00257262  0.25107339  1
