# generated using pymatgen
data_Nd9Ti10O30
_symmetry_space_group_name_H-M   'P 1'
_cell_length_a   27.53405846
_cell_length_b   7.87284722
_cell_length_c   9.58195465
_cell_angle_alpha   66.23705606
_cell_angle_beta   54.88205550
_cell_angle_gamma   45.57361439
_symmetry_Int_Tables_number   1
_chemical_formula_structural   Nd9Ti10O30
_chemical_formula_sum   'Nd18 Ti20 O60'
_cell_volume   1213.34123702
_cell_formula_units_Z   2
loop_
 _symmetry_equiv_pos_site_id
 _symmetry_equiv_pos_as_xyz
  1  'x, y, z'
loop_
 _atom_site_type_symbol
 _atom_site_label
 _atom_site_symmetry_multiplicity
 _atom_site_fract_x
 _atom_site_fract_y
 _atom_site_fract_z
 _atom_site_occupancy
  Nd  Nd0  1  0.13410558  0.06051811  0.24787756  1
  Nd  Nd1  1  0.05489215  0.45401662  0.75655001  1
  Nd  Nd2  1  0.14287094  0.54678573  0.24890384  1
  Nd  Nd3  1  0.34144938  0.04361624  0.24290084  1
  Nd  Nd4  1  0.06105058  0.95200674  0.74932989  1
  Nd  Nd5  1  0.26026586  0.44700494  0.75166423  1
  Nd  Nd6  1  0.34357051  0.54379383  0.24731487  1
  Nd  Nd7  1  0.53654606  0.04988639  0.25455388  1
  Nd  Nd8  1  0.26110668  0.95886927  0.75287875  1
  Nd  Nd9  1  0.45856359  0.44440588  0.74950512  1
  Nd  Nd10  1  0.54211423  0.54443714  0.25133904  1
  Nd  Nd11  1  0.73978592  0.04513119  0.25341692  1
  Nd  Nd12  1  0.65538712  0.45894661  0.74665088  1
  Nd  Nd13  1  0.74420794  0.54111645  0.25178797  1
  Nd  Nd14  1  0.93845817  0.04755746  0.25014406  1
  Nd  Nd15  1  0.65964143  0.96031563  0.75027508  1
  Nd  Nd16  1  0.85967510  0.44727093  0.74696340  1
  Nd  Nd17  1  0.86124997  0.95231840  0.74893332  1
  Ti  Ti18  1  0.09941993  0.00535286  0.00033332  1
  Ti  Ti19  1  -0.00012004  0.00556224  0.49758041  1
  Ti  Ti20  1  0.09626514  0.50292499  0.00278286  1
  Ti  Ti21  1  0.99780481  0.50252908  0.49727134  1
  Ti  Ti22  1  0.30294344  0.99628574  0.99431341  1
  Ti  Ti23  1  0.20033427  0.99954458  0.49883173  1
  Ti  Ti24  1  0.30262514  0.49367325  0.99802433  1
  Ti  Ti25  1  0.20045939  0.49895443  0.49889194  1
  Ti  Ti26  1  0.49875226  0.99728493  0.99773907  1
  Ti  Ti27  1  0.40095909  0.99509547  0.50691036  1
  Ti  Ti28  1  0.49888386  0.51038455  0.99391248  1
  Ti  Ti29  1  0.40120847  0.49556058  0.50146874  1
  Ti  Ti30  1  0.59730595  0.99825460  0.50269714  1
  Ti  Ti31  1  0.69962230  0.00102843  0.00043310  1
  Ti  Ti32  1  0.70006310  0.50061190  0.99975065  1
  Ti  Ti33  1  0.59676084  0.50963932  0.50518634  1
  Ti  Ti34  1  0.90100515  0.98984847  0.00583930  1
  Ti  Ti35  1  0.80306320  0.99026742  0.49501206  1
  Ti  Ti36  1  0.80156235  0.50342469  0.49531287  1
  Ti  Ti37  1  0.89921630  0.50235180  0.00724132  1
  O  O38  1  0.08265054  0.27853136  0.02960994  1
  O  O39  1  0.06893112  0.48789484  0.25039464  1
  O  O40  1  0.00867339  0.21015355  0.95468761  1
  O  O41  1  0.09081264  0.21395250  0.54563198  1
  O  O42  1  0.00970497  0.70510580  0.54409253  1
  O  O43  1  0.03987814  0.96986866  0.24921275  1
  O  O44  1  0.16399272  0.01685729  0.74701525  1
  O  O45  1  0.27556406  0.28823559  0.04268799  1
  O  O46  1  0.19392860  0.28708995  0.45283401  1
  O  O47  1  0.19196267  0.78628029  0.04583740  1
  O  O48  1  0.11017917  0.78816918  0.45449672  1
  O  O49  1  0.12991990  0.51878852  0.74782279  1
  O  O50  1  0.26965190  0.47960600  0.25068160  1
  O  O51  1  0.29140234  0.20847665  0.54029144  1
  O  O52  1  0.20695463  0.21389658  0.96084722  1
  O  O53  1  0.20850304  0.70640274  0.54491013  1
  O  O54  1  0.12806973  0.70497180  0.95188417  1
  O  O55  1  0.23588822  0.97831726  0.25014613  1
  O  O56  1  0.35694983  0.01576051  0.75072525  1
  O  O57  1  0.47634037  0.28562922  0.04511048  1
  O  O58  1  0.39150127  0.29087704  0.45783235  1
  O  O59  1  0.38901158  0.77838679  0.05436651  1
  O  O60  1  0.30979493  0.78998556  0.45201057  1
  O  O61  1  0.32829379  0.53177016  0.74966192  1
  O  O62  1  0.46877039  0.48288260  0.24848082  1
  O  O63  1  0.49387830  0.22385960  0.52892181  1
  O  O64  1  0.40636653  0.22171122  0.97030059  1
  O  O65  1  0.40728099  0.71010954  0.54277188  1
  O  O66  1  0.32456270  0.71004538  0.95659790  1
  O  O67  1  0.43749100  0.97822192  0.25259253  1
  O  O68  1  0.56290425  0.01338770  0.75028046  1
  O  O69  1  0.67500622  0.28863031  0.04648987  1
  O  O70  1  0.59446765  0.28487914  0.45571602  1
  O  O71  1  0.59119805  0.79313679  0.04688373  1
  O  O72  1  0.51148790  0.77759492  0.44540182  1
  O  O73  1  0.53548925  0.49316671  0.74955058  1
  O  O74  1  0.67183560  0.47510349  0.24899885  1
  O  O75  1  0.69172509  0.20795959  0.54183846  1
  O  O76  1  0.60771250  0.20892745  0.96002096  1
  O  O77  1  0.61666602  0.69468749  0.52683090  1
  O  O78  1  0.52775834  0.69428134  0.97326697  1
  O  O79  1  0.63837830  0.97586161  0.24837468  1
  O  O80  1  0.75975430  0.02976202  0.75183675  1
  O  O81  1  0.78966739  0.29366840  0.46348628  1
  O  O82  1  0.87502767  0.29384732  0.03497104  1
  O  O83  1  0.70796041  0.79615805  0.45690250  1
  O  O84  1  0.79084951  0.79441589  0.04294012  1
  O  O85  1  0.72636117  0.52678723  0.75157106  1
  O  O86  1  0.86343742  0.48176329  0.25108277  1
  O  O87  1  0.89046804  0.21233593  0.54477569  1
  O  O88  1  0.80874137  0.21246214  0.95359813  1
  O  O89  1  0.80039744  0.72190891  0.55845348  1
  O  O90  1  0.72582043  0.70978865  0.95480007  1
  O  O91  1  0.83489551  0.00387037  0.25028496  1
  O  O92  1  0.96299223  0.01424955  0.74966910  1
  O  O93  1  0.99487213  0.27835119  0.47081106  1
  O  O94  1  0.90578546  0.80953929  0.47246239  1
  O  O95  1  0.99480384  0.81020454  0.02745340  1
  O  O96  1  0.92848964  0.52374704  0.75143104  1
  O  O97  1  0.92250022  0.72110769  0.94683856  1
