# generated using pymatgen
data_Ca4Nb2O9
_symmetry_space_group_name_H-M   'P 1'
_cell_length_a   16.84357938
_cell_length_b   8.09693034
_cell_length_c   9.86572442
_cell_angle_alpha   67.15328578
_cell_angle_beta   55.21924240
_cell_angle_gamma   46.28326143
_symmetry_Int_Tables_number   1
_chemical_formula_structural   Ca4Nb2O9
_chemical_formula_sum   'Ca16 Nb8 O36'
_cell_volume   798.69797880
_cell_formula_units_Z   4
loop_
 _symmetry_equiv_pos_site_id
 _symmetry_equiv_pos_as_xyz
  1  'x, y, z'
loop_
 _atom_site_type_symbol
 _atom_site_label
 _atom_site_symmetry_multiplicity
 _atom_site_fract_x
 _atom_site_fract_y
 _atom_site_fract_z
 _atom_site_occupancy
  Ca  Ca0  1  0.16779854  0.99511108  1.00324942  1
  Ca  Ca1  1  0.23895305  0.06010031  0.23767323  1
  Ca  Ca2  1  0.21614435  0.56400097  0.24916479  1
  Ca  Ca3  1  0.49902984  0.00490144  -0.00536159  1
  Ca  Ca4  1  0.09756292  0.43780555  0.77454389  1
  Ca  Ca5  1  0.09754553  0.95812435  0.75082214  1
  Ca  Ca6  1  0.33144751  0.49976883  0.50143327  1
  Ca  Ca7  1  0.56682436  0.03894891  0.25516183  1
  Ca  Ca8  1  0.55553664  0.57487599  0.24354619  1
  Ca  Ca9  1  0.83200247  1.00135410  0.00345348  1
  Ca  Ca10  1  0.44763366  0.44308369  0.74868581  1
  Ca  Ca11  1  0.42623372  0.93868729  0.75857953  1
  Ca  Ca12  1  0.90638432  0.05104468  0.25183831  1
  Ca  Ca13  1  0.90312994  0.54919166  0.23717306  1
  Ca  Ca14  1  0.76505305  0.44364103  0.76890630  1
  Ca  Ca15  1  0.75917438  0.94374996  0.76226953  1
  Nb  Nb16  1  0.00152710  1.00227015  0.51499546  1
  Nb  Nb17  1  0.17545322  0.50382501  0.98737320  1
  Nb  Nb18  1  0.32292572  0.02483787  0.49349704  1
  Nb  Nb19  1  0.49071659  0.49579887  0.01489187  1
  Nb  Nb20  1  0.66239011  0.00365111  0.48442406  1
  Nb  Nb21  1  0.66981006  0.48228730  0.50555571  1
  Nb  Nb22  1  0.82919462  0.49834651  0.00828003  1
  Nb  Nb23  1  0.98714191  0.52519292  0.50456762  1
  O  O24  1  0.00542256  0.20917621  0.56363910  1
  O  O25  1  0.05593682  0.45320117  0.27741483  1
  O  O26  1  0.10604159  0.77962576  0.08096402  1
  O  O27  1  0.29831253  0.31589424  0.07152913  1
  O  O28  1  0.18302614  0.30466641  0.44961670  1
  O  O29  1  0.21007680  0.03744477  0.73013305  1
  O  O30  1  0.12271429  0.95487681  0.28036495  1
  O  O31  1  0.11991697  0.72904676  0.58678130  1
  O  O32  1  0.02668368  0.66503210  0.96473827  1
  O  O33  1  0.35986134  0.16562733  0.55240122  1
  O  O34  1  0.22442505  0.21169987  0.95093580  1
  O  O35  1  0.39561250  0.44638574  0.23255544  1
  O  O36  1  0.26923629  0.55522241  0.76841539  1
  O  O37  1  0.44121979  0.79012257  0.04882262  1
  O  O38  1  0.32010121  0.81706590  0.43968054  1
  O  O39  1  0.63778114  0.34119300  0.03877743  1
  O  O40  1  0.54501416  0.27175910  0.41274735  1
  O  O41  1  0.54402108  0.04519036  0.71806454  1
  O  O42  1  0.46085097  0.95799368  0.26570494  1
  O  O43  1  0.49863733  0.68168018  0.53939817  1
  O  O44  1  0.36934806  0.68627649  0.92608864  1
  O  O45  1  0.68516110  0.20553077  0.54637468  1
  O  O46  1  0.55895782  0.22439582  0.91899719  1
  O  O47  1  0.73032742  0.46165888  0.24601134  1
  O  O48  1  0.61437549  0.54139434  0.72504246  1
  O  O49  1  0.77200838  0.79481978  0.05215651  1
  O  O50  1  0.66529030  0.78632343  0.43466987  1
  O  O51  1  0.97509309  0.33149406  0.04152326  1
  O  O52  1  0.85331466  0.29383146  0.43243753  1
  O  O53  1  0.86015030  0.06026425  0.72920418  1
  O  O54  1  0.80770668  0.93691416  0.27381740  1
  O  O55  1  0.81606086  0.69916859  0.56528748  1
  O  O56  1  0.69616290  0.67852932  0.94432824  1
  O  O57  1  0.89429323  0.20996635  0.93965123  1
  O  O58  1  0.94292095  0.52877699  0.74358543  1
  O  O59  1  0.98432289  0.78715137  0.45341558  1
