# generated using pymatgen
data_Sr8Ga16S31
_symmetry_space_group_name_H-M   'P 1'
_cell_length_a   12.08139149
_cell_length_b   11.98422369
_cell_length_c   12.25468049
_cell_angle_alpha   104.64359281
_cell_angle_beta   104.94459744
_cell_angle_gamma   118.67668436
_symmetry_Int_Tables_number   1
_chemical_formula_structural   Sr8Ga16S31
_chemical_formula_sum   'Sr8 Ga16 S31'
_cell_volume   1347.47320364
_cell_formula_units_Z   1
loop_
 _symmetry_equiv_pos_site_id
 _symmetry_equiv_pos_as_xyz
  1  'x, y, z'
loop_
 _atom_site_type_symbol
 _atom_site_label
 _atom_site_symmetry_multiplicity
 _atom_site_fract_x
 _atom_site_fract_y
 _atom_site_fract_z
 _atom_site_occupancy
  Ga  Ga0  1  0.03084080  0.62192962  0.00456569  1
  Ga  Ga1  1  0.13782047  0.61064151  0.50005107  1
  Ga  Ga2  1  0.38742060  0.86381603  1.00060609  1
  Ga  Ga3  1  0.35916266  0.96697494  0.49838160  1
  Ga  Ga4  1  0.10888755  0.14118640  1.00204399  1
  Ga  Ga5  1  0.13725216  0.11085077  0.49976454  1
  Ga  Ga6  1  0.36058735  0.46800250  0.50048535  1
  Ga  Ga7  1  0.46729622  0.35975628  -0.00007122  1
  Ga  Ga8  1  0.53188607  0.63995022  0.99856347  1
  Ga  Ga9  1  0.63852533  0.53129509  0.49921089  1
  Ga  Ga10  1  0.86422357  0.89100963  0.50103682  1
  Ga  Ga11  1  0.89319190  0.86252844  0.00235397  1
  Ga  Ga12  1  0.63765734  0.03095755  0.49820939  1
  Ga  Ga13  1  0.61478356  0.13823932  0.00195299  1
  Ga  Ga14  1  0.86282931  0.38962251  0.49839801  1
  Ga  Ga15  1  0.97641333  0.38978718  0.00987081  1
  S  S16  1  0.18464749  0.83474239  0.00411469  1
  S  S17  1  0.08199927  0.58166195  0.66180774  1
  S  S18  1  0.15324331  0.80928915  0.49390784  1
  S  S19  1  0.41914054  0.91951935  0.83787197  1
  S  S20  1  0.15705243  0.31362701  0.50169857  1
  S  S21  1  0.08229267  0.08162009  0.66375376  1
  S  S22  1  0.34011034  0.65023431  0.49679430  1
  S  S23  1  0.41399217  0.91196626  0.33324472  1
  S  S24  1  0.30877962  0.15687215  1.00103742  1
  S  S25  1  0.15080162  0.34978497  0.00780900  1
  S  S26  1  0.08222693  0.08272929  0.16491819  1
  S  S27  1  0.41747905  0.41700248  0.83595149  1
  S  S28  1  0.35125229  0.65996204  1.00132273  1
  S  S29  1  0.41669821  0.41673453  0.33603293  1
  S  S30  1  0.66014514  0.84962707  0.50052253  1
  S  S31  1  0.34107248  0.15126981  0.49986091  1
  S  S32  1  0.58306863  0.58309671  0.66366405  1
  S  S33  1  0.64998510  0.34187382  0.00131315  1
  S  S34  1  0.58300099  0.58376483  0.16427935  1
  S  S35  1  0.91973095  0.92002878  0.83855139  1
  S  S36  1  0.85579545  0.65871451  0.00655155  1
  S  S37  1  0.69075890  0.84372917  0.99865230  1
  S  S38  1  0.57901536  0.08009962  0.66155510  1
  S  S39  1  0.65837001  0.34808002  0.49720531  1
  S  S40  1  0.91833757  0.91935398  0.33699969  1
  S  S41  1  0.84268004  0.68729958  0.49951377  1
  S  S42  1  0.90989238  0.41114133  0.81836350  1
  S  S43  1  0.58203713  0.08194725  0.16374143  1
  S  S44  1  0.84134289  0.18598433  0.49679414  1
  S  S45  1  0.91959525  0.42016932  0.33458931  1
  S  S46  1  0.82008170  0.17136584  0.00286686  1
  Sr  Sr47  1  0.12442892  0.87392246  0.75168869  1
  Sr  Sr48  1  0.12240711  0.37471708  0.75372768  1
  Sr  Sr49  1  0.38343789  0.62485539  0.25091591  1
  Sr  Sr50  1  0.62726225  0.87818721  0.75034935  1
  Sr  Sr51  1  0.37370388  0.12274737  0.24976915  1
  Sr  Sr52  1  0.62947696  0.37723270  0.75121485  1
  Sr  Sr53  1  0.86714843  0.62423776  0.24891305  1
  Sr  Sr54  1  0.87543042  0.12656007  0.24770822  1
