# generated using pymatgen
data_SeCl
_symmetry_space_group_name_H-M   'P 1'
_cell_length_a   5.25621171
_cell_length_b   7.52997215
_cell_length_c   15.06778894
_cell_angle_alpha   90.00000000
_cell_angle_beta   90.00000000
_cell_angle_gamma   96.64136286
_symmetry_Int_Tables_number   1
_chemical_formula_structural   SeCl
_chemical_formula_sum   'Se8 Cl8'
_cell_volume   592.36802290
_cell_formula_units_Z   8
loop_
 _symmetry_equiv_pos_site_id
 _symmetry_equiv_pos_as_xyz
  1  'x, y, z'
loop_
 _atom_site_type_symbol
 _atom_site_label
 _atom_site_symmetry_multiplicity
 _atom_site_fract_x
 _atom_site_fract_y
 _atom_site_fract_z
 _atom_site_occupancy
  Se  Se0  1  0.04987189  0.40108265  0.13961919  1
  Se  Se1  1  0.45012811  0.59891735  0.63961919  1
  Se  Se2  1  0.30485898  0.20778527  0.44585465  1
  Se  Se3  1  0.19514102  0.79221473  0.94585465  1
  Se  Se4  1  0.54987189  0.40108265  0.36038081  1
  Se  Se5  1  0.69514102  0.79221473  0.55414535  1
  Se  Se6  1  0.95012811  0.59891735  0.86038081  1
  Se  Se7  1  0.80485898  0.20778527  0.05414535  1
  Cl  Cl8  1  0.36627611  0.65733934  0.35862919  1
  Cl  Cl9  1  0.86627611  0.65733934  0.14137081  1
  Cl  Cl10  1  0.49958447  0.93667211  0.85780429  1
  Cl  Cl11  1  0.99958447  0.93667211  0.64219571  1
  Cl  Cl12  1  0.00041553  0.06332789  0.35780429  1
  Cl  Cl13  1  0.13372389  0.34266066  0.85862919  1
  Cl  Cl14  1  0.63372389  0.34266066  0.64137081  1
  Cl  Cl15  1  0.50041553  0.06332789  0.14219571  1
