# generated using pymatgen
data_LiMn4(PO4)3
_symmetry_space_group_name_H-M   'P 1'
_cell_length_a   6.49709971
_cell_length_b   14.66404047
_cell_length_c   10.00928315
_cell_angle_alpha   90.00000000
_cell_angle_beta   90.00000000
_cell_angle_gamma   90.00000000
_symmetry_Int_Tables_number   1
_chemical_formula_structural   LiMn4(PO4)3
_chemical_formula_sum   'Li4 Mn16 P12 O48'
_cell_volume   953.62177121
_cell_formula_units_Z   4
loop_
 _symmetry_equiv_pos_site_id
 _symmetry_equiv_pos_as_xyz
  1  'x, y, z'
loop_
 _atom_site_type_symbol
 _atom_site_label
 _atom_site_symmetry_multiplicity
 _atom_site_fract_x
 _atom_site_fract_y
 _atom_site_fract_z
 _atom_site_occupancy
  Li  Li0  1  0.06768729  0.25000000  0.73792654  1
  Li  Li1  1  0.43231171  0.75000000  0.23792654  1
  Li  Li2  1  0.56768729  0.25000000  0.76207346  1
  Li  Li3  1  0.93231171  0.75000000  0.26207346  1
  O  O4  1  0.09943445  0.01451056  0.21871970  1
  O  O5  1  0.97015990  0.60070980  0.03943012  1
  O  O6  1  0.95211340  0.25000000  0.55792697  1
  O  O7  1  0.91418537  0.33930287  0.35088360  1
  O  O8  1  0.91418537  0.16069713  0.35088360  1
  O  O9  1  0.90056455  0.98548944  0.78127930  1
  O  O10  1  0.90056455  0.51451056  0.78127930  1
  O  O11  1  0.67078607  0.05149566  0.96874846  1
  O  O12  1  0.82921493  0.55149566  0.46874846  1
  O  O13  1  0.79385948  0.35156536  0.76745495  1
  O  O14  1  0.79385948  0.14843464  0.76745495  1
  O  O15  1  0.75553625  0.75000000  0.61623970  1
  O  O16  1  0.74446375  0.25000000  0.11623970  1
  O  O17  1  0.70613952  0.85156536  0.26745395  1
  O  O18  1  0.70613952  0.64843464  0.26745395  1
  O  O19  1  0.67078607  0.44850434  0.96874846  1
  O  O20  1  0.02983910  0.10070880  0.96056988  1
  O  O21  1  0.02983910  0.39929120  0.96056988  1
  O  O22  1  0.04788660  0.75000000  0.44207303  1
  O  O23  1  0.08581463  0.66069713  0.64911640  1
  O  O24  1  0.08581463  0.83930287  0.64911640  1
  O  O25  1  0.97015990  0.89929120  0.03943012  1
  O  O26  1  0.09943445  0.48548944  0.21871970  1
  O  O27  1  0.17078607  0.05149566  0.53125254  1
  O  O28  1  0.17078607  0.44850434  0.53125254  1
  O  O29  1  0.20613952  0.64843464  0.23254605  1
  O  O30  1  0.20613952  0.85156536  0.23254605  1
  O  O31  1  0.24446375  0.25000000  0.38376030  1
  O  O32  1  0.25553625  0.75000000  0.88376030  1
  O  O33  1  0.29385948  0.14843464  0.73254605  1
  O  O34  1  0.29385948  0.35156536  0.73254605  1
  O  O35  1  0.32921393  0.55149566  0.03125254  1
  O  O36  1  0.32921393  0.94850434  0.03125254  1
  O  O37  1  0.40056455  0.51451056  0.71871970  1
  O  O38  1  0.40056455  0.98548944  0.71871970  1
  O  O39  1  0.41418537  0.16069713  0.14911640  1
  O  O40  1  0.41418537  0.33930287  0.14911640  1
  O  O41  1  0.45211340  0.25000000  0.94207303  1
  O  O42  1  0.47016090  0.60070980  0.46056988  1
  O  O43  1  0.47016090  0.89929120  0.46056988  1
  O  O44  1  0.52983910  0.10070880  0.53943012  1
  O  O45  1  0.52983910  0.39929120  0.53943012  1
  O  O46  1  0.54788560  0.75000000  0.05792697  1
  O  O47  1  0.58581463  0.66069713  0.85088360  1
  O  O48  1  0.58581463  0.83930287  0.85088360  1
  O  O49  1  0.59943445  0.01451056  0.28128030  1
  O  O50  1  0.59943445  0.48548944  0.28128030  1
  O  O51  1  0.82921493  0.94850434  0.46874846  1
  P  P52  1  0.99188030  0.75000000  0.59281648  1
  P  P53  1  0.85044906  0.42802455  0.86666059  1
  P  P54  1  0.85044906  0.07197545  0.86666059  1
  P  P55  1  0.64955094  0.92802455  0.36666059  1
  P  P56  1  0.64955094  0.57197545  0.36666059  1
  P  P57  1  0.50811970  0.25000000  0.09281648  1
  P  P58  1  0.49188030  0.75000000  0.90718352  1
  P  P59  1  0.35044906  0.42802455  0.63333941  1
  P  P60  1  0.35044906  0.07197545  0.63333941  1
  P  P61  1  0.14955094  0.92802455  0.13333941  1
  P  P62  1  0.14955094  0.57197545  0.13333941  1
  P  P63  1  0.00811970  0.25000000  0.40718352  1
  Mn  Mn64  1  0.14644758  0.90215509  0.44110370  1
  Mn  Mn65  1  0.15643056  0.60675422  0.83936087  1
  Mn  Mn66  1  0.15643056  0.89324578  0.83936087  1
  Mn  Mn67  1  0.14644758  0.59784491  0.44110370  1
  Mn  Mn68  1  0.34356944  0.10675422  0.33936087  1
  Mn  Mn69  1  0.34356944  0.39324578  0.33936087  1
  Mn  Mn70  1  0.35355242  0.09784491  0.94110270  1
  Mn  Mn71  1  0.35355242  0.40215509  0.94110270  1
  Mn  Mn72  1  0.64644758  0.59784491  0.05889630  1
  Mn  Mn73  1  0.64644758  0.90215509  0.05889630  1
  Mn  Mn74  1  0.65643056  0.60675422  0.66063813  1
  Mn  Mn75  1  0.65643056  0.89324578  0.66063813  1
  Mn  Mn76  1  0.84356944  0.10675422  0.16063813  1
  Mn  Mn77  1  0.84356944  0.39324578  0.16063813  1
  Mn  Mn78  1  0.85355342  0.09784491  0.55889630  1
  Mn  Mn79  1  0.85355342  0.40215509  0.55889630  1
