# generated using pymatgen
data_Na3(FeSe2)2
_symmetry_space_group_name_H-M   'P 1'
_cell_length_a   6.97582071
_cell_length_b   10.83517514
_cell_length_c   11.26108629
_cell_angle_alpha   90.00000000
_cell_angle_beta   90.00000000
_cell_angle_gamma   90.00000000
_symmetry_Int_Tables_number   1
_chemical_formula_structural   Na3(FeSe2)2
_chemical_formula_sum   'Na12 Fe8 Se16'
_cell_volume   851.16063910
_cell_formula_units_Z   4
loop_
 _symmetry_equiv_pos_site_id
 _symmetry_equiv_pos_as_xyz
  1  'x, y, z'
loop_
 _atom_site_type_symbol
 _atom_site_label
 _atom_site_symmetry_multiplicity
 _atom_site_fract_x
 _atom_site_fract_y
 _atom_site_fract_z
 _atom_site_occupancy
  Na  Na0  1  0.07457210  0.25000000  0.75640082  1
  Na  Na1  1  0.57457210  0.25000000  0.74359918  1
  Na  Na2  1  0.92542790  0.75000000  0.24359918  1
  Na  Na3  1  0.42542790  0.75000000  0.25640082  1
  Na  Na4  1  0.05108146  0.41868492  0.14101776  1
  Na  Na5  1  0.55108146  0.08131508  0.35898224  1
  Na  Na6  1  0.94891854  0.91868492  0.85898224  1
  Na  Na7  1  0.44891854  0.58131508  0.64101776  1
  Na  Na8  1  0.94891854  0.58131508  0.85898224  1
  Na  Na9  1  0.44891854  0.91868492  0.64101776  1
  Na  Na10  1  0.05108146  0.08131508  0.14101776  1
  Na  Na11  1  0.55108146  0.41868492  0.35898224  1
  Fe  Fe12  1  0.04632097  0.37255588  0.47119457  1
  Fe  Fe13  1  0.54632097  0.12744412  0.02880543  1
  Fe  Fe14  1  0.95367903  0.87255588  0.52880543  1
  Fe  Fe15  1  0.45367903  0.62744412  0.97119457  1
  Fe  Fe16  1  0.95367903  0.62744412  0.52880543  1
  Fe  Fe17  1  0.45367903  0.87255588  0.97119457  1
  Fe  Fe18  1  0.04632097  0.12744412  0.47119457  1
  Fe  Fe19  1  0.54632097  0.37255588  0.02880543  1
  Se  Se20  1  0.31321772  0.25000000  0.53910636  1
  Se  Se21  1  0.81321772  0.25000000  0.96089364  1
  Se  Se22  1  0.68678228  0.75000000  0.46089364  1
  Se  Se23  1  0.18678228  0.75000000  0.03910636  1
  Se  Se24  1  0.37891673  0.25000000  0.17113160  1
  Se  Se25  1  0.87891673  0.25000000  0.32886840  1
  Se  Se26  1  0.62108327  0.75000000  0.82886840  1
  Se  Se27  1  0.12108327  0.75000000  0.67113160  1
  Se  Se28  1  0.17194977  0.55481694  0.37693838  1
  Se  Se29  1  0.67194977  0.94518306  0.12306162  1
  Se  Se30  1  0.82805023  0.05481694  0.62306162  1
  Se  Se31  1  0.32805023  0.44518306  0.87693838  1
  Se  Se32  1  0.82805023  0.44518306  0.62306162  1
  Se  Se33  1  0.32805023  0.05481694  0.87693838  1
  Se  Se34  1  0.17194977  0.94518306  0.37693838  1
  Se  Se35  1  0.67194977  0.55481694  0.12306162  1
