# generated using pymatgen
data_Li3Mo(PO3)8
_symmetry_space_group_name_H-M   'P 1'
_cell_length_a   7.31533492
_cell_length_b   7.31533508
_cell_length_c   9.81123929
_cell_angle_alpha   70.67843312
_cell_angle_beta   81.21791743
_cell_angle_gamma   110.57745372
_symmetry_Int_Tables_number   1
_chemical_formula_structural   Li3Mo(PO3)8
_chemical_formula_sum   'Li3 Mo1 P8 O24'
_cell_volume   441.83643632
_cell_formula_units_Z   1
loop_
 _symmetry_equiv_pos_site_id
 _symmetry_equiv_pos_as_xyz
  1  'x, y, z'
loop_
 _atom_site_type_symbol
 _atom_site_label
 _atom_site_symmetry_multiplicity
 _atom_site_fract_x
 _atom_site_fract_y
 _atom_site_fract_z
 _atom_site_occupancy
  Li  Li0  1  0.95257455  0.20257455  0.25000000  1
  Li  Li1  1  0.98712538  0.00969035  0.03741909  1
  Li  Li2  1  0.54710844  0.02454347  0.46258091  1
  Mo  Mo3  1  0.05237916  0.80237916  0.75000000  1
  P  P4  1  0.73139265  0.26197403  0.97685902  1
  P  P5  1  0.28758886  0.48124978  0.70611157  1
  P  P6  1  0.68736235  0.99370143  0.79388843  1
  P  P7  1  0.27133543  0.72070592  0.02463477  1
  P  P8  1  0.31234179  0.01694395  0.19387312  1
  P  P9  1  0.73883406  0.70825167  0.52314098  1
  P  P10  1  0.24534069  0.29597020  0.47536523  1
  P  P11  1  0.71081707  0.50621391  0.30612688  1
  O  O12  1  0.16060318  0.48707952  0.08878259  1
  O  O13  1  0.36802834  0.97006456  0.33616413  1
  O  O14  1  0.50430473  0.22253940  0.04659239  1
  O  O15  1  0.73767046  0.31074297  0.31829815  1
  O  O16  1  0.29695259  0.81813425  0.14468792  1
  O  O17  1  0.24980393  0.68165293  0.69365140  1
  O  O18  1  0.63715257  0.03309058  0.65078678  1
  O  O19  1  0.76913179  0.55089812  0.45340761  1
  O  O20  1  0.12904012  0.05596861  0.18170185  1
  O  O21  1  0.80844709  0.13743822  0.08438393  1
  O  O22  1  0.53196128  0.55651323  0.66721145  1
  O  O23  1  0.87530433  0.94345633  0.80634860  1
  O  O24  1  0.07586211  0.24938578  0.41121741  1
  O  O25  1  0.91015337  0.75176379  0.60041690  1
  O  O26  1  0.72372467  0.19917273  0.83278855  1
  O  O27  1  0.25246164  0.09037744  0.59243225  1
  O  O28  1  0.18280969  0.84489289  0.90756775  1
  O  O29  1  0.18387635  0.28793934  0.84921322  1
  O  O30  1  0.46282217  0.44164051  0.35531208  1
  O  O31  1  0.22862977  0.44245498  0.56437485  1
  O  O32  1  0.85218069  0.51056927  0.89958310  1
  O  O33  1  0.80622868  0.70419147  0.16383587  1
  O  O34  1  0.72182216  0.89283103  0.41561607  1
  O  O35  1  0.50682983  0.79300463  0.93562515  1
