# generated using pymatgen
data_LiCoP2O7
_symmetry_space_group_name_H-M   'P 1'
_cell_length_a   8.24876916
_cell_length_b   5.06004449
_cell_length_c   12.14255880
_cell_angle_alpha   90.00000000
_cell_angle_beta   80.47528572
_cell_angle_gamma   90.00000000
_symmetry_Int_Tables_number   1
_chemical_formula_structural   LiCoP2O7
_chemical_formula_sum   'Li4 Co4 P8 O28'
_cell_volume   499.83308980
_cell_formula_units_Z   4
loop_
 _symmetry_equiv_pos_site_id
 _symmetry_equiv_pos_as_xyz
  1  'x, y, z'
loop_
 _atom_site_type_symbol
 _atom_site_label
 _atom_site_symmetry_multiplicity
 _atom_site_fract_x
 _atom_site_fract_y
 _atom_site_fract_z
 _atom_site_occupancy
  Co  Co0  1  0.23707724  0.22458817  0.02764581  1
  Co  Co1  1  0.26292276  0.72458817  0.47235419  1
  Co  Co2  1  0.73707724  0.27541183  0.52764581  1
  Co  Co3  1  0.76292276  0.77541183  0.97235419  1
  Li  Li4  1  0.11852511  0.27037345  0.29599527  1
  Li  Li5  1  0.38147489  0.77037345  0.20400473  1
  Li  Li6  1  0.61852511  0.22962655  0.79599527  1
  Li  Li7  1  0.88147489  0.72962655  0.70400473  1
  O  O8  1  0.09125282  0.03722831  0.15704958  1
  O  O9  1  0.16477311  0.54808647  0.14879476  1
  O  O10  1  0.08866227  0.66041853  0.38773550  1
  O  O11  1  0.08920257  0.92123446  0.59558695  1
  O  O12  1  0.10947776  0.28497709  0.74171749  1
  O  O13  1  0.22163225  0.36876663  0.54208356  1
  O  O14  1  0.06958470  0.28985626  0.94742816  1
  O  O15  1  0.41133773  0.16041853  0.11226450  1
  O  O16  1  0.33522689  0.04808647  0.35120524  1
  O  O17  1  0.40874718  0.53722831  0.34295042  1
  O  O18  1  0.43041530  0.78985626  0.55257184  1
  O  O19  1  0.27836775  0.86876663  0.95791644  1
  O  O20  1  0.39052224  0.78497709  0.75828251  1
  O  O21  1  0.58920257  0.57876554  0.09558695  1
  O  O22  1  0.41079743  0.42123446  0.90441305  1
  O  O23  1  0.60947776  0.21502291  0.24171749  1
  O  O24  1  0.72163225  0.13123337  0.04208356  1
  O  O25  1  0.56958470  0.21014374  0.44742816  1
  O  O26  1  0.59125282  0.46277169  0.65704958  1
  O  O27  1  0.66477311  0.95191353  0.64879476  1
  O  O28  1  0.58866227  0.83958147  0.88773550  1
  O  O29  1  0.93041530  0.71014374  0.05257184  1
  O  O30  1  0.77836775  0.63123337  0.45791644  1
  O  O31  1  0.89052224  0.71502291  0.25828251  1
  O  O32  1  0.91079743  0.07876554  0.40441305  1
  O  O33  1  0.91133773  0.33958147  0.61226450  1
  O  O34  1  0.83522689  0.45191353  0.85120524  1
  O  O35  1  0.90874718  0.96277169  0.84295042  1
  P  P36  1  0.02785700  0.75389322  0.14759756  1
  P  P37  1  0.08451831  0.22124619  0.61440854  1
  P  P38  1  0.47214300  0.25389322  0.35240244  1
  P  P39  1  0.58451831  0.27875381  0.11440854  1
  P  P40  1  0.41548169  0.72124619  0.88559146  1
  P  P41  1  0.52785700  0.74610678  0.64759756  1
  P  P42  1  0.91548169  0.77875381  0.38559146  1
  P  P43  1  0.97214300  0.24610678  0.85240244  1
