# generated using pymatgen
data_NaMg2H3(SO4)2
_symmetry_space_group_name_H-M   'P 1'
_cell_length_a   6.39511434
_cell_length_b   7.92725464
_cell_length_c   9.01817522
_cell_angle_alpha   97.58167187
_cell_angle_beta   110.69815388
_cell_angle_gamma   113.57000565
_symmetry_Int_Tables_number   1
_chemical_formula_structural   NaMg2H3(SO4)2
_chemical_formula_sum   'Na2 Mg4 H6 S4 O16'
_cell_volume   371.55174742
_cell_formula_units_Z   2
loop_
 _symmetry_equiv_pos_site_id
 _symmetry_equiv_pos_as_xyz
  1  'x, y, z'
loop_
 _atom_site_type_symbol
 _atom_site_label
 _atom_site_symmetry_multiplicity
 _atom_site_fract_x
 _atom_site_fract_y
 _atom_site_fract_z
 _atom_site_occupancy
  Mg  Mg0  1  0.00000000  0.00000000  0.50000000  1
  Mg  Mg1  1  0.50000000  0.00000000  0.50000000  1
  Mg  Mg2  1  0.82041761  0.82698366  0.81272748  1
  Mg  Mg3  1  0.17958239  0.17301634  0.18727252  1
  Na  Na4  1  0.45945076  0.83052849  0.09398570  1
  Na  Na5  1  0.54054924  0.16947151  0.90601430  1
  S  S6  1  0.93394371  0.70444489  0.16264079  1
  S  S7  1  0.06605629  0.29555511  0.83735921  1
  S  S8  1  0.77039608  0.25339266  0.29234240  1
  S  S9  1  0.22960392  0.74660734  0.70765760  1
  O  O10  1  0.81972376  0.75270746  0.27772654  1
  O  O11  1  0.18027624  0.24729254  0.72227346  1
  O  O12  1  0.78957774  0.24760525  0.72152198  1
  O  O13  1  0.21042226  0.75239475  0.27847802  1
  O  O14  1  0.97129527  0.86410911  0.07676122  1
  O  O15  1  0.02870473  0.13589089  0.92323878  1
  O  O16  1  0.72816235  0.08453444  0.37231532  1
  O  O17  1  0.27183765  0.91546556  0.62768468  1
  O  O18  1  0.50203450  0.80271410  0.83242325  1
  O  O19  1  0.49796550  0.19728590  0.16757675  1
  O  O20  1  0.12877880  0.79642753  0.82888367  1
  O  O21  1  0.87122120  0.20357247  0.17111633  1
  O  O22  1  0.71494220  0.85514546  0.57357569  1
  O  O23  1  0.28505780  0.14485454  0.42642431  1
  O  O24  1  0.61527760  0.51611110  0.71460997  1
  O  O25  1  0.38472240  0.48388890  0.28539003  1
  H  H26  1  0.61319917  0.71852737  0.50432096  1
  H  H27  1  0.38680083  0.28147263  0.49567904  1
  H  H28  1  0.70891966  0.44041654  0.72639662  1
  H  H29  1  0.29108034  0.55958346  0.27360338  1
  H  H30  1  0.45951810  0.44057729  0.72755582  1
  H  H31  1  0.54048190  0.55942271  0.27244418  1
