# generated using pymatgen
data_ZrI4
_symmetry_space_group_name_H-M   'P 1'
_cell_length_a   8.72100113
_cell_length_b   8.65008955
_cell_length_c   27.59240652
_cell_angle_alpha   94.72585308
_cell_angle_beta   90.41762063
_cell_angle_gamma   87.45202194
_symmetry_Int_Tables_number   1
_chemical_formula_structural   ZrI4
_chemical_formula_sum   'Zr4 I16'
_cell_volume   2072.35944611
_cell_formula_units_Z   4
loop_
 _symmetry_equiv_pos_site_id
 _symmetry_equiv_pos_as_xyz
  1  'x, y, z'
loop_
 _atom_site_type_symbol
 _atom_site_label
 _atom_site_symmetry_multiplicity
 _atom_site_fract_x
 _atom_site_fract_y
 _atom_site_fract_z
 _atom_site_occupancy
  Zr  Zr0  1  0.15218083  0.87539808  0.94099750  1
  Zr  Zr1  1  0.84781917  0.12460192  0.05900250  1
  Zr  Zr2  1  0.86251448  0.61143657  0.82656594  1
  Zr  Zr3  1  0.13748552  0.38856343  0.17343406  1
  I  I4  1  0.88772958  0.11870964  0.95415186  1
  I  I5  1  0.11227042  0.88129036  0.04584814  1
  I  I6  1  0.88663922  0.65208562  0.93109310  1
  I  I7  1  0.11336078  0.34791438  0.06890690  1
  I  I8  1  0.09262528  0.87108196  0.83760346  1
  I  I9  1  0.90737472  0.12891804  0.16239654  1
  I  I10  1  0.68288442  0.80477797  0.77537655  1
  I  I11  1  0.31711558  0.19522203  0.22462345  1
  I  I12  1  0.35474930  0.10541242  0.93793841  1
  I  I13  1  0.64525070  0.89458758  0.06206159  1
  I  I14  1  0.35308226  0.62517181  0.94355586  1
  I  I15  1  0.64691774  0.37482819  0.05644414  1
  I  I16  1  0.07730902  0.43820580  0.77287880  1
  I  I17  1  0.92269098  0.56179420  0.22712120  1
  I  I18  1  0.65596866  0.38900762  0.83829062  1
  I  I19  1  0.34403134  0.61099238  0.16170938  1
