# generated using pymatgen
data_LiFe(PO3)3
_symmetry_space_group_name_H-M   'P 1'
_cell_length_a   6.54283462
_cell_length_b   7.41035178
_cell_length_c   6.90324730
_cell_angle_alpha   102.06578766
_cell_angle_beta   90.22250081
_cell_angle_gamma   87.24884303
_symmetry_Int_Tables_number   1
_chemical_formula_structural   LiFe(PO3)3
_chemical_formula_sum   'Li2 Fe2 P6 O18'
_cell_volume   326.92402970
_cell_formula_units_Z   2
loop_
 _symmetry_equiv_pos_site_id
 _symmetry_equiv_pos_as_xyz
  1  'x, y, z'
loop_
 _atom_site_type_symbol
 _atom_site_label
 _atom_site_symmetry_multiplicity
 _atom_site_fract_x
 _atom_site_fract_y
 _atom_site_fract_z
 _atom_site_occupancy
  Li  Li0  1  0.14111179  0.16920269  0.42587675  1
  Li  Li1  1  0.85888821  0.83079731  0.57412225  1
  O  O2  1  0.29653784  0.60660293  0.62001388  1
  O  O3  1  0.95154336  0.67959604  0.79962829  1
  O  O4  1  0.04845664  0.32040396  0.20037171  1
  O  O5  1  0.12064225  0.34652468  0.71731909  1
  O  O6  1  0.16248730  0.92453403  0.10658450  1
  O  O7  1  0.17490745  0.93999499  0.61978756  1
  O  O8  1  0.27004612  0.58697971  0.97838503  1
  O  O9  1  0.56322714  0.84357447  0.60950444  1
  O  O10  1  0.33050390  0.71704451  0.32056991  1
  O  O11  1  0.43677286  0.15642553  0.39049556  1
  O  O12  1  0.83751270  0.07546597  0.89341450  1
  O  O13  1  0.54382359  0.81956882  0.05831700  1
  O  O14  1  0.87935775  0.65347532  0.28268091  1
  O  O15  1  0.66949610  0.28295549  0.67943009  1
  O  O16  1  0.70346216  0.39339707  0.37998612  1
  O  O17  1  0.72995388  0.41302029  0.02161497  1
  O  O18  1  0.82509255  0.06000501  0.38021244  1
  O  O19  1  0.45617641  0.18043118  0.94168300  1
  P  P20  1  0.64973970  0.20206580  0.44456976  1
  P  P21  1  0.66494919  0.22068707  0.88439478  1
  P  P22  1  0.14105230  0.55252835  0.77503625  1
  P  P23  1  0.33505081  0.77931293  0.11560522  1
  P  P24  1  0.35026030  0.79793420  0.55543024  1
  P  P25  1  0.85894770  0.44747165  0.22496275  1
  Fe  Fe26  1  0.84506526  0.85607833  0.08882997  1
  Fe  Fe27  1  0.15493474  0.14392167  0.91116903  1
