# generated using pymatgen
data_Na6Mg2C4SO16
_symmetry_space_group_name_H-M   'P 1'
_cell_length_a   10.05982380
_cell_length_b   10.05982351
_cell_length_c   10.05982320
_cell_angle_alpha   59.99999751
_cell_angle_beta   59.99999849
_cell_angle_gamma   60.00000004
_symmetry_Int_Tables_number   1
_chemical_formula_structural   Na6Mg2C4SO16
_chemical_formula_sum   'Na12 Mg4 C8 S2 O32'
_cell_volume   719.87331106
_cell_formula_units_Z   2
loop_
 _symmetry_equiv_pos_site_id
 _symmetry_equiv_pos_as_xyz
  1  'x, y, z'
loop_
 _atom_site_type_symbol
 _atom_site_label
 _atom_site_symmetry_multiplicity
 _atom_site_fract_x
 _atom_site_fract_y
 _atom_site_fract_z
 _atom_site_occupancy
  S  S0  1  0.87500000  0.87500000  0.87500000  1
  S  S1  1  0.12500000  0.12500000  0.12500000  1
  O  O2  1  0.93592330  0.93592330  0.93592330  1
  O  O3  1  0.06407670  0.06407670  0.30776990  1
  O  O4  1  0.30776990  0.06407670  0.06407670  1
  O  O5  1  0.06407670  0.30776990  0.06407670  1
  O  O6  1  0.69223010  0.93592330  0.93592330  1
  O  O7  1  0.93592330  0.69223010  0.93592330  1
  O  O8  1  0.93592330  0.93592330  0.69223010  1
  O  O9  1  0.06407670  0.06407670  0.06407670  1
  Mg  Mg10  1  0.50000000  0.50000000  0.50000000  1
  Mg  Mg11  1  0.50000000  0.50000000  0.00000000  1
  Mg  Mg12  1  0.00000000  0.50000000  0.50000000  1
  Mg  Mg13  1  0.50000000  0.00000000  0.50000000  1
  C  C14  1  0.28122895  0.28122895  0.28122895  1
  C  C15  1  0.71877105  0.71877105  0.34368686  1
  C  C16  1  0.34368686  0.71877105  0.71877105  1
  C  C17  1  0.71877105  0.34368686  0.71877105  1
  C  C18  1  0.65631314  0.28122895  0.28122895  1
  C  C19  1  0.28122895  0.65631314  0.28122895  1
  C  C20  1  0.28122895  0.28122895  0.65631314  1
  C  C21  1  0.71877105  0.71877105  0.71877105  1
  Na  Na22  1  0.65216435  0.09783565  0.09783565  1
  Na  Na23  1  0.90216435  0.90216435  0.34783565  1
  Na  Na24  1  0.34783565  0.34783565  0.90216435  1
  Na  Na25  1  0.90216435  0.34783565  0.34783565  1
  Na  Na26  1  0.90216435  0.34783565  0.90216435  1
  Na  Na27  1  0.34783565  0.90216435  0.34783565  1
  Na  Na28  1  0.09783565  0.65216435  0.09783565  1
  Na  Na29  1  0.09783565  0.09783565  0.65216435  1
  Na  Na30  1  0.65216435  0.65216435  0.09783565  1
  Na  Na31  1  0.65216435  0.09783565  0.65216435  1
  Na  Na32  1  0.34783565  0.90216435  0.90216435  1
  Na  Na33  1  0.09783565  0.65216435  0.65216435  1
  O  O34  1  0.35477748  0.35477748  0.13191456  1
  O  O35  1  0.64522252  0.86808544  0.34146953  1
  O  O36  1  0.34146953  0.64522252  0.64522252  1
  O  O37  1  0.64522252  0.34146953  0.64522252  1
  O  O38  1  0.86808544  0.64522252  0.34146953  1
  O  O39  1  0.86808544  0.34146953  0.64522252  1
  O  O40  1  0.34146953  0.86808544  0.64522252  1
  O  O41  1  0.13191456  0.35477748  0.35477748  1
  O  O42  1  0.35477748  0.13191456  0.35477748  1
  O  O43  1  0.65853047  0.35477748  0.13191456  1
  O  O44  1  0.35477748  0.65853047  0.13191456  1
  O  O45  1  0.65853047  0.35477748  0.35477748  1
  O  O46  1  0.13191456  0.35477748  0.65853047  1
  O  O47  1  0.35477748  0.13191456  0.65853047  1
  O  O48  1  0.35477748  0.65853047  0.35477748  1
  O  O49  1  0.34146953  0.64522252  0.86808544  1
  O  O50  1  0.64522252  0.34146953  0.86808544  1
  O  O51  1  0.64522252  0.64522252  0.34146953  1
  O  O52  1  0.64522252  0.64522252  0.86808544  1
  O  O53  1  0.86808544  0.64522252  0.64522252  1
  O  O54  1  0.64522252  0.86808544  0.64522252  1
  O  O55  1  0.13191456  0.65853047  0.35477748  1
  O  O56  1  0.65853047  0.13191456  0.35477748  1
  O  O57  1  0.35477748  0.35477748  0.65853047  1
