# generated using pymatgen
data_Sr2HoGaCu2O7
_symmetry_space_group_name_H-M   'P 1'
_cell_length_a   5.41002917
_cell_length_b   5.50938411
_cell_length_c   12.21091346
_cell_angle_alpha   103.04013411
_cell_angle_beta   102.80013312
_cell_angle_gamma   89.99907210
_symmetry_Int_Tables_number   1
_chemical_formula_structural   Sr2HoGaCu2O7
_chemical_formula_sum   'Sr4 Ho2 Ga2 Cu4 O14'
_cell_volume   345.28173839
_cell_formula_units_Z   2
loop_
 _symmetry_equiv_pos_site_id
 _symmetry_equiv_pos_as_xyz
  1  'x, y, z'
loop_
 _atom_site_type_symbol
 _atom_site_label
 _atom_site_symmetry_multiplicity
 _atom_site_fract_x
 _atom_site_fract_y
 _atom_site_fract_z
 _atom_site_occupancy
  Ho  Ho0  1  0.50056852  0.49999090  -0.00002295  1
  Ho  Ho1  1  0.00058137  -0.00000581  -0.00002451  1
  Sr  Sr2  1  0.34816768  0.36518494  0.69781313  1
  Sr  Sr3  1  0.65030699  0.63486223  0.30221154  1
  Sr  Sr4  1  0.84816557  0.83268292  0.69782686  1
  Sr  Sr5  1  0.15031335  0.16736565  0.30220537  1
  Cu  Cu6  1  0.92995329  0.42818147  0.85782742  1
  Cu  Cu7  1  0.07194642  0.57181553  0.14220689  1
  Cu  Cu8  1  0.42985751  0.92958492  0.85773342  1
  Cu  Cu9  1  0.57193651  0.07019099  0.14214309  1
  Ga  Ga10  1  0.71278841  0.18090857  0.50002646  1
  Ga  Ga11  1  0.21280129  0.81909942  0.50000303  1
  O  O12  1  0.86002717  0.86486293  0.50002572  1
  O  O13  1  0.35998475  0.13517925  0.49999792  1
  O  O14  1  0.18746095  0.18641093  0.87316181  1
  O  O15  1  0.31429420  0.81369766  0.12683035  1
  O  O16  1  0.68750359  0.18679106  0.87316962  1
  O  O17  1  0.81413417  0.81331523  0.12682390  1
  O  O18  1  0.68913311  0.68796736  0.87851382  1
  O  O19  1  0.81042856  0.31188331  0.12148296  1
  O  O20  1  0.18911880  0.69057818  0.87852094  1
  O  O21  1  0.31067196  0.30933343  0.12147091  1
  O  O22  1  0.35209781  0.77972882  0.64722080  1
  O  O23  1  0.70482507  0.22031902  0.35279744  1
  O  O24  1  0.85208133  0.36758896  0.64725794  1
  O  O25  1  0.20485161  0.63248212  0.35277612  1
