# generated using pymatgen
data_FeCoBO4
_symmetry_space_group_name_H-M   'P 1'
_cell_length_a   3.14697508
_cell_length_b   9.39119601
_cell_length_c   9.51381279
_cell_angle_alpha   90.00000000
_cell_angle_beta   90.00000000
_cell_angle_gamma   90.00000000
_symmetry_Int_Tables_number   1
_chemical_formula_structural   FeCoBO4
_chemical_formula_sum   'Fe4 Co4 B4 O16'
_cell_volume   281.16988950
_cell_formula_units_Z   4
loop_
 _symmetry_equiv_pos_site_id
 _symmetry_equiv_pos_as_xyz
  1  'x, y, z'
loop_
 _atom_site_type_symbol
 _atom_site_label
 _atom_site_symmetry_multiplicity
 _atom_site_fract_x
 _atom_site_fract_y
 _atom_site_fract_z
 _atom_site_occupancy
  Fe  Fe0  1  0.75000000  0.38074147  0.43230811  1
  Fe  Fe1  1  0.25000000  0.61925853  0.56769189  1
  Fe  Fe2  1  0.75000000  0.88074147  0.06769189  1
  Fe  Fe3  1  0.25000000  0.11925853  0.93230811  1
  Co  Co4  1  0.75000000  0.39757002  0.81284797  1
  Co  Co5  1  0.25000000  0.60242998  0.18715203  1
  Co  Co6  1  0.75000000  0.89757002  0.68715203  1
  Co  Co7  1  0.25000000  0.10242998  0.31284797  1
  B  B8  1  0.75000000  0.33400841  0.12842694  1
  B  B9  1  0.25000000  0.66599159  0.87157306  1
  B  B10  1  0.75000000  0.83400841  0.37157306  1
  B  B11  1  0.25000000  0.16599159  0.62842694  1
  O  O12  1  0.75000000  0.47799886  0.12949595  1
  O  O13  1  0.25000000  0.52200114  0.87050405  1
  O  O14  1  0.75000000  0.97799886  0.37050405  1
  O  O15  1  0.25000000  0.02200114  0.62949595  1
  O  O16  1  0.75000000  0.25700012  0.25462822  1
  O  O17  1  0.25000000  0.74299988  0.74537178  1
  O  O18  1  0.75000000  0.75700012  0.24537178  1
  O  O19  1  0.25000000  0.24299988  0.75462822  1
  O  O20  1  0.75000000  0.25918314  0.99945603  1
  O  O21  1  0.25000000  0.74081686  0.00054397  1
  O  O22  1  0.75000000  0.75918314  0.50054397  1
  O  O23  1  0.25000000  0.24081686  0.49945603  1
  O  O24  1  0.75000000  0.49319639  0.61474349  1
  O  O25  1  0.25000000  0.50680361  0.38525651  1
  O  O26  1  0.75000000  0.99319639  0.88525651  1
  O  O27  1  0.25000000  0.00680361  0.11474349  1
