# generated using pymatgen
data_CaP2H20C4(N2O3)4
_symmetry_space_group_name_H-M   'P 1'
_cell_length_a   5.67911663
_cell_length_b   7.44867227
_cell_length_c   21.95284701
_cell_angle_alpha   90.00000000
_cell_angle_beta   90.00000000
_cell_angle_gamma   90.67188640
_symmetry_Int_Tables_number   1
_chemical_formula_structural   CaP2H20C4(N2O3)4
_chemical_formula_sum   'Ca2 P4 H40 C8 N16 O24'
_cell_volume   928.58281760
_cell_formula_units_Z   2
loop_
 _symmetry_equiv_pos_site_id
 _symmetry_equiv_pos_as_xyz
  1  'x, y, z'
loop_
 _atom_site_type_symbol
 _atom_site_label
 _atom_site_symmetry_multiplicity
 _atom_site_fract_x
 _atom_site_fract_y
 _atom_site_fract_z
 _atom_site_occupancy
  Ca  Ca0  1  0.00000000  0.00000000  0.00000000  1
  Ca  Ca1  1  0.50000000  0.50000000  0.50000000  1
  P  P2  1  0.50427743  0.11159681  0.09042340  1
  P  P3  1  0.99572257  0.38840319  0.59042340  1
  P  P4  1  0.49572257  0.88840319  0.90957660  1
  P  P5  1  0.00427743  0.61159681  0.40957660  1
  O  O6  1  0.31661561  0.15541912  0.04373145  1
  O  O7  1  0.18338439  0.34458088  0.54373145  1
  O  O8  1  0.68338439  0.84458088  0.95626855  1
  O  O9  1  0.81661561  0.65541912  0.45626855  1
  O  O10  1  0.76034540  0.14664830  0.07248417  1
  O  O11  1  0.73965460  0.35335170  0.57248417  1
  O  O12  1  0.23965460  0.85335170  0.92751583  1
  O  O13  1  0.26034540  0.64664830  0.42751583  1
  O  O14  1  0.44915063  0.22199799  0.15062632  1
  O  O15  1  0.05084937  0.27800201  0.65062632  1
  O  O16  1  0.55084937  0.77800201  0.84937368  1
  O  O17  1  0.94915063  0.72199799  0.34937368  1
  O  O18  1  0.48365768  0.90255250  0.10869805  1
  O  O19  1  0.01634232  0.59744750  0.60869805  1
  O  O20  1  0.51634232  0.09744750  0.89130195  1
  O  O21  1  0.98365768  0.40255250  0.39130195  1
  O  O22  1  0.07345619  0.76927556  0.07248667  1
  O  O23  1  0.42654381  0.73072444  0.57248667  1
  O  O24  1  0.92654381  0.23072444  0.92751333  1
  O  O25  1  0.57345619  0.26927556  0.42751333  1
  O  O26  1  0.78885221  0.25362092  0.23009297  1
  O  O27  1  0.71114779  0.24637908  0.73009297  1
  O  O28  1  0.21114779  0.74637908  0.76990703  1
  O  O29  1  0.28885221  0.75362092  0.26990703  1
  C  C30  1  0.98161078  0.61268722  0.07982725  1
  C  C31  1  0.51838922  0.88731278  0.57982725  1
  C  C32  1  0.01838922  0.38731278  0.92017275  1
  C  C33  1  0.48161078  0.11268722  0.42017275  1
  C  C34  1  0.94038364  0.13266984  0.24028612  1
  C  C35  1  0.55961636  0.36733016  0.74028612  1
  C  C36  1  0.05961636  0.86733016  0.75971388  1
  C  C37  1  0.44038364  0.63266984  0.25971388  1
  N  N38  1  0.78969219  0.56117727  0.04824924  1
  N  N39  1  0.71030781  0.93882273  0.54824924  1
  N  N40  1  0.21030781  0.43882273  0.95175076  1
  N  N41  1  0.28969219  0.06117727  0.45175076  1
  N  N42  1  0.06873536  0.49729357  0.12144591  1
  N  N43  1  0.43126464  1.00270643  0.62144591  1
  N  N44  1  0.93126464  0.50270643  0.87855409  1
  N  N45  1  0.56873536  -0.00270643  0.37855409  1
  N  N46  1  0.97560631  0.99506527  0.20135674  1
  N  N47  1  0.52439369  0.50493473  0.70135674  1
  N  N48  1  0.02439369  0.00493473  0.79864326  1
  N  N49  1  0.47560631  0.49506527  0.29864326  1
  N  N50  1  0.06737337  0.13303637  0.29264207  1
  N  N51  1  0.43262663  0.36696363  0.79264207  1
  N  N52  1  0.93262663  0.86696363  0.70735793  1
  N  N53  1  0.56737337  0.63303637  0.20735793  1
  H  H54  1  0.58561288  0.22636370  0.18102143  1
  H  H55  1  0.91438712  0.27363630  0.68102143  1
  H  H56  1  0.41438712  0.77363630  0.81897857  1
  H  H57  1  0.08561288  0.72636370  0.31897857  1
  H  H58  1  0.32888355  0.84445353  0.09646481  1
  H  H59  1  0.17111645  0.65554647  0.59646481  1
  H  H60  1  0.67111645  0.15554647  0.90353519  1
  H  H61  1  0.82888355  0.34445353  0.40353519  1
  H  H62  1  0.72545275  0.64590915  0.01566671  1
  H  H63  1  0.77454725  0.85409085  0.51566671  1
  H  H64  1  0.27454725  0.35409085  0.98433329  1
  H  H65  1  0.22545275  0.14590915  0.48433329  1
  H  H66  1  0.73810519  0.42960883  0.04957959  1
  H  H67  1  0.76189481  0.07039117  0.54957959  1
  H  H68  1  0.26189481  0.57039117  0.95042041  1
  H  H69  1  0.23810519  0.92960883  0.45042041  1
  H  H70  1  0.01573071  0.36640892  0.11977340  1
  H  H71  1  0.48426929  0.13359108  0.61977340  1
  H  H72  1  0.98426929  0.63359108  0.88022660  1
  H  H73  1  0.51573071  0.86640892  0.38022660  1
  H  H74  1  0.23295247  0.51955318  0.13841787  1
  H  H75  1  0.26704753  0.98044682  0.63841787  1
  H  H76  1  0.76704753  0.48044682  0.86158213  1
  H  H77  1  0.73295247  0.01955318  0.36158213  1
  H  H78  1  0.91313517  0.00533449  0.15811440  1
  H  H79  1  0.58686483  0.49466551  0.65811440  1
  H  H80  1  0.08686483  0.99466551  0.84188560  1
  H  H81  1  0.41313517  0.50533449  0.34188560  1
  H  H82  1  0.10279236  0.90322975  0.21092932  1
  H  H83  1  0.39720764  0.59677025  0.71092932  1
  H  H84  1  0.89720764  0.09677025  0.78907068  1
  H  H85  1  0.60279236  0.40322975  0.28907068  1
  H  H86  1  0.20760679  0.05018220  0.29679080  1
  H  H87  1  0.29239321  0.44981780  0.79679080  1
  H  H88  1  0.79239321  0.94981780  0.70320920  1
  H  H89  1  0.70760679  0.55018220  0.20320920  1
  H  H90  1  0.06151987  0.24395790  0.31984576  1
  H  H91  1  0.43848013  0.25604210  0.81984576  1
  H  H92  1  0.93848013  0.75604210  0.68015424  1
  H  H93  1  0.56151987  0.74395790  0.18015424  1
