# generated using pymatgen
data_Hg7(P2Br3)2
_symmetry_space_group_name_H-M   'P 1'
_cell_length_a   6.19073587
_cell_length_b   7.73959494
_cell_length_c   20.28818353
_cell_angle_alpha   90.00000000
_cell_angle_beta   90.00000000
_cell_angle_gamma   103.85361897
_symmetry_Int_Tables_number   1
_chemical_formula_structural   Hg7(P2Br3)2
_chemical_formula_sum   'Hg14 P8 Br12'
_cell_volume   943.80642057
_cell_formula_units_Z   2
loop_
 _symmetry_equiv_pos_site_id
 _symmetry_equiv_pos_as_xyz
  1  'x, y, z'
loop_
 _atom_site_type_symbol
 _atom_site_label
 _atom_site_symmetry_multiplicity
 _atom_site_fract_x
 _atom_site_fract_y
 _atom_site_fract_z
 _atom_site_occupancy
  Hg  Hg0  1  0.00000000  0.00000000  0.00000000  1
  Hg  Hg1  1  0.00000000  0.50000000  0.50000000  1
  Hg  Hg2  1  0.50754525  0.92142579  0.86271676  1
  Hg  Hg3  1  0.49245475  0.57857421  0.36271676  1
  Hg  Hg4  1  0.49245475  0.07857421  0.13728324  1
  Hg  Hg5  1  0.50754525  0.42142579  0.63728324  1
  Hg  Hg6  1  0.09039037  0.18816023  0.76786665  1
  Hg  Hg7  1  0.90960963  0.31183977  0.26786665  1
  Hg  Hg8  1  0.90960963  0.81183977  0.23213335  1
  Hg  Hg9  1  0.09039037  0.68816023  0.73213335  1
  Hg  Hg10  1  0.78288887  0.50876037  0.91163246  1
  Hg  Hg11  1  0.21711113  0.99123963  0.41163246  1
  Hg  Hg12  1  0.21711113  0.49123963  0.08836754  1
  Hg  Hg13  1  0.78288887  0.00876037  0.58836754  1
  Br  Br14  1  0.60069626  0.22189340  0.97978658  1
  Br  Br15  1  0.39930374  0.27810660  0.47978658  1
  Br  Br16  1  0.39930374  0.77810660  0.02021342  1
  Br  Br17  1  0.60069626  0.72189340  0.52021342  1
  Br  Br18  1  0.63784482  0.29429744  0.78847453  1
  Br  Br19  1  0.36215518  0.20570256  0.28847453  1
  Br  Br20  1  0.36215518  0.70570256  0.21152547  1
  Br  Br21  1  0.63784482  0.79429744  0.71152547  1
  Br  Br22  1  0.18586095  0.41801911  0.88770724  1
  Br  Br23  1  0.81413905  0.08198089  0.38770724  1
  Br  Br24  1  0.81413905  0.58198089  0.11229276  1
  Br  Br25  1  0.18586095  0.91801911  0.61229276  1
  P  P26  1  0.85757591  0.83591824  0.89741023  1
  P  P27  1  0.14242409  0.66408176  0.39741023  1
  P  P28  1  0.14242409  0.16408176  0.10258977  1
  P  P29  1  0.85757591  0.33591824  0.60258977  1
  P  P30  1  0.12281971  0.90981433  0.82241521  1
  P  P31  1  0.87718029  0.59018567  0.32241521  1
  P  P32  1  0.87718029  0.09018567  0.17758479  1
  P  P33  1  0.12281971  0.40981433  0.67758479  1
