# generated using pymatgen
data_Sb2(PO4)3
_symmetry_space_group_name_H-M   'P 1'
_cell_length_a   8.54470274
_cell_length_b   8.87130899
_cell_length_c   12.10635082
_cell_angle_alpha   90.00000000
_cell_angle_beta   91.15490424
_cell_angle_gamma   90.00000000
_symmetry_Int_Tables_number   1
_chemical_formula_structural   Sb2(PO4)3
_chemical_formula_sum   'Sb8 P12 O48'
_cell_volume   917.50763524
_cell_formula_units_Z   4
loop_
 _symmetry_equiv_pos_site_id
 _symmetry_equiv_pos_as_xyz
  1  'x, y, z'
loop_
 _atom_site_type_symbol
 _atom_site_label
 _atom_site_symmetry_multiplicity
 _atom_site_fract_x
 _atom_site_fract_y
 _atom_site_fract_z
 _atom_site_occupancy
  Sb  Sb0  1  0.74866344  0.03326527  0.38583929  1
  Sb  Sb1  1  0.25136403  0.03052481  0.11648347  1
  Sb  Sb2  1  0.24866344  0.46673473  0.88583929  1
  Sb  Sb3  1  0.74863597  0.96947519  0.88351653  1
  Sb  Sb4  1  0.24863597  0.53052481  0.38351653  1
  Sb  Sb5  1  0.25133656  0.96673473  0.61416071  1
  Sb  Sb6  1  0.75133656  0.53326527  0.11416071  1
  Sb  Sb7  1  0.75136403  0.46947519  0.61648347  1
  P  P8  1  0.89659301  0.11652625  0.64688655  1
  P  P9  1  0.11994812  0.61802240  0.64679766  1
  P  P10  1  0.88005188  0.38197760  0.35320234  1
  P  P11  1  0.96229894  0.25700496  0.00438851  1
  P  P12  1  0.10340699  0.88347375  0.35311345  1
  P  P13  1  0.53770106  0.75700496  0.49561149  1
  P  P14  1  0.61994812  0.88197760  0.14679766  1
  P  P15  1  0.03770106  0.74299504  0.99561149  1
  P  P16  1  0.46229894  0.24299504  0.50438851  1
  P  P17  1  0.60340699  0.61652625  0.85311345  1
  P  P18  1  0.38005188  0.11802240  0.85320234  1
  P  P19  1  0.39659301  0.38347375  0.14688655  1
  O  O20  1  0.81995548  0.22344757  0.31393511  1
  O  O21  1  0.13062604  0.90498398  0.47969647  1
  O  O22  1  0.06705621  0.06571792  0.67732479  1
  O  O23  1  0.18885213  0.66479020  0.95161546  1
  O  O24  1  0.94040355  0.80715803  0.89832025  1
  O  O25  1  0.08941186  0.86114067  0.08165518  1
  O  O26  1  0.27959109  0.48004617  0.21090038  1
  O  O27  1  0.93294379  0.93428208  0.32267521  1
  O  O28  1  0.37147362  0.01199132  0.75077598  1
  O  O29  1  0.05326598  0.37462784  0.39092999  1
  O  O30  1  0.39204909  0.21398193  0.17351465  1
  O  O31  1  0.22817785  0.55696428  0.55723528  1
  O  O32  1  0.36937396  0.40498398  0.02030353  1
  O  O33  1  0.05959645  0.19284197  0.10167975  1
  O  O34  1  0.72040891  0.51995383  0.78909962  1
  O  O35  1  0.68885213  0.83520980  0.45161546  1
  O  O36  1  0.87147362  0.48800868  0.25077598  1
  O  O37  1  0.55959645  0.30715803  0.60167975  1
  O  O38  1  0.31114787  0.16479020  0.54838454  1
  O  O39  1  0.43294379  0.56571792  0.82267521  1
  O  O40  1  0.81114787  0.33520980  0.04838454  1
  O  O41  1  0.60795091  0.78601807  0.82648535  1
  O  O42  1  0.10795091  0.71398193  0.32648535  1
  O  O43  1  0.41058814  0.36114067  0.41834482  1
  O  O44  1  0.31995548  0.27655243  0.81393511  1
  O  O45  1  0.12852638  0.51199132  0.74922402  1
  O  O46  1  0.22040891  0.98004617  0.28909962  1
  O  O47  1  0.91058814  0.13885933  0.91834482  1
  O  O48  1  0.18004452  0.77655243  0.68606489  1
  O  O49  1  0.77182215  0.44303572  0.44276472  1
  O  O50  1  0.89204909  0.28601807  0.67351465  1
  O  O51  1  0.94673402  0.62537216  0.60907001  1
  O  O52  1  0.58941186  0.63885933  0.58165518  1
  O  O53  1  0.62852638  0.98800868  0.24922402  1
  O  O54  1  0.77959109  0.01995383  0.71090038  1
  O  O55  1  0.72817785  0.94303572  0.05723528  1
  O  O56  1  0.68004452  0.72344757  0.18606489  1
  O  O57  1  0.86937396  0.09501602  0.52030353  1
  O  O58  1  0.05295427  0.37877203  0.93885252  1
  O  O59  1  0.44040355  0.69284197  0.39832025  1
  O  O60  1  0.56705621  0.43428208  0.17732479  1
  O  O61  1  0.63062604  0.59501602  0.97969647  1
  O  O62  1  0.44673402  0.87462784  0.10907001  1
  O  O63  1  0.94704573  0.62122797  0.06114748  1
  O  O64  1  0.55326598  0.12537216  0.89092999  1
  O  O65  1  0.27182215  0.05696428  0.94276472  1
  O  O66  1  0.55295427  0.12122797  0.43885252  1
  O  O67  1  0.44704573  0.87877203  0.56114748  1
