# generated using pymatgen
data_Zn2P2O7
_symmetry_space_group_name_H-M   'P 1'
_cell_length_a   8.38908581
_cell_length_b   9.23807303
_cell_length_c   10.80499618
_cell_angle_alpha   98.75067798
_cell_angle_beta   112.84279795
_cell_angle_gamma   90.00000167
_symmetry_Int_Tables_number   1
_chemical_formula_structural   Zn2P2O7
_chemical_formula_sum   'Zn12 P12 O42'
_cell_volume   761.11583574
_cell_formula_units_Z   6
loop_
 _symmetry_equiv_pos_site_id
 _symmetry_equiv_pos_as_xyz
  1  'x, y, z'
loop_
 _atom_site_type_symbol
 _atom_site_label
 _atom_site_symmetry_multiplicity
 _atom_site_fract_x
 _atom_site_fract_y
 _atom_site_fract_z
 _atom_site_occupancy
  Zn  Zn0  1  0.70188777  0.04060632  0.02843264  1
  Zn  Zn1  1  0.67345512  0.45939368  0.97156736  1
  Zn  Zn2  1  0.29811223  0.95939368  0.97156736  1
  Zn  Zn3  1  0.32654488  0.54060632  0.02843264  1
  P  P4  1  0.04592273  0.86132334  0.13087984  1
  P  P5  1  0.91504290  0.63867666  0.86912016  1
  P  P6  1  0.95407727  0.13867666  0.86912016  1
  P  P7  1  0.08495710  0.36132334  0.13087984  1
  O  O8  1  0.91371701  0.75000000  0.00000000  1
  O  O9  1  0.08628299  0.25000000  1.00000000  1
  O  O10  1  0.86963815  0.73168173  0.75354823  1
  O  O11  1  0.11608992  0.76831827  0.24645177  1
  O  O12  1  0.13036185  0.26831827  0.24645177  1
  O  O13  1  0.88391008  0.23168173  0.75354823  1
  O  O14  1  0.76268065  0.52552137  0.83622966  1
  O  O15  1  0.92645099  0.97447863  0.16377034  1
  O  O16  1  0.23731935  0.47447863  0.16377034  1
  O  O17  1  0.07354901  0.02552137  0.83622966  1
  O  O18  1  0.18886613  0.92710417  0.10046515  1
  O  O19  1  0.08840099  0.57289583  0.89953485  1
  O  O20  1  0.81113387  0.07289583  0.89953485  1
  O  O21  1  0.91159901  0.42710417  0.10046515  1
  Zn  Zn22  1  0.98197510  0.16182958  0.32628111  1
  Zn  Zn23  1  0.65569399  0.33817042  0.67371889  1
  Zn  Zn24  1  0.01802490  0.83817042  0.67371889  1
  Zn  Zn25  1  0.34430601  0.66182958  0.32628111  1
  Zn  Zn26  1  0.37250764  0.21036149  0.36717303  1
  Zn  Zn27  1  0.00533461  0.28963851  0.63282697  1
  Zn  Zn28  1  0.62749236  0.78963851  0.63282697  1
  Zn  Zn29  1  0.99466539  0.71036149  0.36717303  1
  P  P30  1  0.59550557  0.81912491  0.20570295  1
  P  P31  1  0.38980261  0.68087509  0.79429705  1
  P  P32  1  0.40449443  0.18087509  0.79429705  1
  P  P33  1  0.61019739  0.31912491  0.20570295  1
  P  P34  1  0.72015620  0.03699696  0.47660808  1
  P  P35  1  0.24354812  0.46300304  0.52339192  1
  P  P36  1  0.27984380  0.96300304  0.52339192  1
  P  P37  1  0.75645188  0.53699696  0.47660808  1
  O  O38  1  0.60727414  0.94702934  0.32935085  1
  O  O39  1  0.27792329  0.55297066  0.67064915  1
  O  O40  1  0.39272586  0.05297066  0.67064915  1
  O  O41  1  0.72207671  0.44702934  0.32935085  1
  O  O42  1  0.54598344  0.90023898  0.08198320  1
  O  O43  1  0.46400024  0.59976102  0.91801680  1
  O  O44  1  0.45401656  0.09976102  0.91801680  1
  O  O45  1  0.53599976  0.40023898  0.08198320  1
  O  O46  1  0.77914057  0.92801914  0.57799287  1
  O  O47  1  0.20114770  0.57198086  0.42200713  1
  O  O48  1  0.22085943  0.07198086  0.42200713  1
  O  O49  1  0.79885230  0.42801914  0.57799287  1
  O  O50  1  0.44329665  0.71363019  0.18970979  1
  O  O51  1  0.25358686  0.78636981  0.81029021  1
  O  O52  1  0.55670335  0.28636981  0.81029021  1
  O  O53  1  0.74641314  0.21363019  0.18970979  1
  O  O54  1  0.59433405  0.14376792  0.50629558  1
  O  O55  1  0.08803847  0.35623208  0.49370442  1
  O  O56  1  0.40566595  0.85623208  0.49370442  1
  O  O57  1  0.91196153  0.64376792  0.50629558  1
  O  O58  1  0.76286396  0.74466451  0.23630776  1
  O  O59  1  0.52655620  0.75533549  0.76369224  1
  O  O60  1  0.23713604  0.25533549  0.76369224  1
  O  O61  1  0.47344380  0.24466451  0.23630776  1
  O  O62  1  0.87722191  0.11694184  0.46951218  1
  O  O63  1  0.40770973  0.38305816  0.53048782  1
  O  O64  1  0.12277809  0.88305816  0.53048782  1
  O  O65  1  0.59229027  0.61694184  0.46951218  1
