# generated using pymatgen
data_Sr2Cu2Te(BrO3)2
_symmetry_space_group_name_H-M   'P 1'
_cell_length_a   5.25768003
_cell_length_b   9.49412179
_cell_length_c   9.55689266
_cell_angle_alpha   95.35120715
_cell_angle_beta   90.00000000
_cell_angle_gamma   90.00000000
_symmetry_Int_Tables_number   1
_chemical_formula_structural   Sr2Cu2Te(BrO3)2
_chemical_formula_sum   'Sr4 Cu4 Te2 Br4 O12'
_cell_volume   474.97281850
_cell_formula_units_Z   2
loop_
 _symmetry_equiv_pos_site_id
 _symmetry_equiv_pos_as_xyz
  1  'x, y, z'
loop_
 _atom_site_type_symbol
 _atom_site_label
 _atom_site_symmetry_multiplicity
 _atom_site_fract_x
 _atom_site_fract_y
 _atom_site_fract_z
 _atom_site_occupancy
  Sr  Sr0  1  0.89772148  0.18205194  0.27738215  1
  Sr  Sr1  1  0.39772148  0.31794806  0.72261785  1
  Sr  Sr2  1  0.60227852  0.68205194  0.27738215  1
  Sr  Sr3  1  0.10227852  0.81794806  0.72261785  1
  Cu  Cu4  1  0.48272627  0.36470125  0.08091246  1
  Cu  Cu5  1  0.01727373  0.86470125  0.08091246  1
  Cu  Cu6  1  0.51727373  0.63529875  0.91908754  1
  Cu  Cu7  1  0.98272627  0.13529875  0.91908754  1
  Te  Te8  1  0.00000000  0.50000000  -0.00000000  1
  Te  Te9  1  0.50000000  0.00000000  -0.00000000  1
  Br  Br10  1  0.38833133  0.33644686  0.38868160  1
  Br  Br11  1  0.11166867  0.83644686  0.38868160  1
  Br  Br12  1  0.88833133  0.16355314  0.61131840  1
  Br  Br13  1  0.61166867  0.66355314  0.61131840  1
  O  O14  1  0.70200305  0.45428080  0.88349934  1
  O  O15  1  0.81269258  0.44165827  0.16385107  1
  O  O16  1  0.79799695  0.95428080  0.88349934  1
  O  O17  1  0.16852632  0.31189643  0.96702268  1
  O  O18  1  0.18730742  0.55834173  0.83614893  1
  O  O19  1  0.20200305  0.04571920  0.11650066  1
  O  O20  1  0.29799695  0.54571920  0.11650066  1
  O  O21  1  0.33147368  0.81189643  0.96702268  1
  O  O22  1  0.31269258  0.05834173  0.83614893  1
  O  O23  1  0.83147368  0.68810357  0.03297732  1
  O  O24  1  0.68730742  0.94165827  0.16385107  1
  O  O25  1  0.66852632  0.18810357  0.03297732  1
