# generated using pymatgen
data_Cu2Te2Br2O5
_symmetry_space_group_name_H-M   'P 1'
_cell_length_a   6.42249990
_cell_length_b   7.98172082
_cell_length_c   7.98172082
_cell_angle_alpha   90.00000000
_cell_angle_beta   90.00000000
_cell_angle_gamma   90.00000000
_symmetry_Int_Tables_number   1
_chemical_formula_structural   Cu2Te2Br2O5
_chemical_formula_sum   'Cu4 Te4 Br4 O10'
_cell_volume   409.16377103
_cell_formula_units_Z   2
loop_
 _symmetry_equiv_pos_site_id
 _symmetry_equiv_pos_as_xyz
  1  'x, y, z'
loop_
 _atom_site_type_symbol
 _atom_site_label
 _atom_site_symmetry_multiplicity
 _atom_site_fract_x
 _atom_site_fract_y
 _atom_site_fract_z
 _atom_site_occupancy
  Te  Te0  1  0.36562159  0.63620839  0.81941643  1
  Te  Te1  1  0.63437841  0.81941643  0.36379161  1
  Te  Te2  1  0.63437841  0.18058357  0.63620839  1
  Te  Te3  1  0.36562159  0.36379161  0.18058357  1
  Cu  Cu4  1  0.15306536  0.72423438  0.46549874  1
  Cu  Cu5  1  0.84693464  0.46549874  0.27576562  1
  Cu  Cu6  1  0.84693464  0.53450126  0.72423438  1
  Cu  Cu7  1  0.15306536  0.27576562  0.53450126  1
  Br  Br8  1  0.18682461  0.91532270  0.23468528  1
  Br  Br9  1  0.81317539  0.23468528  0.08467730  1
  Br  Br10  1  0.81317539  0.76531472  0.91532270  1
  Br  Br11  1  0.18682461  0.08467730  0.76531472  1
  O  O12  1  0.14172409  0.57014586  0.66898440  1
  O  O13  1  0.85827591  0.66898440  0.42985414  1
  O  O14  1  0.85827591  0.33101560  0.57014586  1
  O  O15  1  0.14172409  0.42985414  0.33101560  1
  O  O16  1  0.55902340  0.46442533  0.75833557  1
  O  O17  1  0.44097660  0.75833557  0.53557467  1
  O  O18  1  0.44097660  0.24166443  0.46442533  1
  O  O19  1  0.55902340  0.53557467  0.24166443  1
  O  O20  1  0.24126296  0.50000000  0.00000000  1
  O  O21  1  0.75873704  0.00000000  0.50000000  1
