# generated using pymatgen
data_GaP(H2O3)2
_symmetry_space_group_name_H-M   'P 1'
_cell_length_a   8.68908583
_cell_length_b   9.83454729
_cell_length_c   10.13449043
_cell_angle_alpha   90.00000000
_cell_angle_beta   90.00000000
_cell_angle_gamma   90.00000000
_symmetry_Int_Tables_number   1
_chemical_formula_structural   GaP(H2O3)2
_chemical_formula_sum   'Ga8 P8 H32 O48'
_cell_volume   866.02489606
_cell_formula_units_Z   8
loop_
 _symmetry_equiv_pos_site_id
 _symmetry_equiv_pos_as_xyz
  1  'x, y, z'
loop_
 _atom_site_type_symbol
 _atom_site_label
 _atom_site_symmetry_multiplicity
 _atom_site_fract_x
 _atom_site_fract_y
 _atom_site_fract_z
 _atom_site_occupancy
  Ga  Ga0  1  0.15197543  0.17134802  0.13237645  1
  Ga  Ga1  1  0.65197543  0.32865198  0.86762355  1
  Ga  Ga2  1  0.84802457  0.67134802  0.36762355  1
  Ga  Ga3  1  0.34802457  0.82865198  0.63237645  1
  Ga  Ga4  1  0.84802457  0.82865198  0.86762355  1
  Ga  Ga5  1  0.34802457  0.67134802  0.13237645  1
  Ga  Ga6  1  0.15197543  0.32865198  0.63237645  1
  Ga  Ga7  1  0.65197543  0.17134802  0.36762355  1
  P  P8  1  0.47006256  0.35585557  0.14876676  1
  P  P9  1  0.97006256  0.14414443  0.85123324  1
  P  P10  1  0.52993744  0.85585557  0.35123324  1
  P  P11  1  0.02993744  0.64414443  0.64876676  1
  P  P12  1  0.52993744  0.64414443  0.85123324  1
  P  P13  1  0.02993744  0.85585557  0.14876676  1
  P  P14  1  0.47006256  0.14414443  0.64876676  1
  P  P15  1  0.97006256  0.35585557  0.35123324  1
  O  O16  1  0.29893295  0.32759084  0.11123316  1
  O  O17  1  0.79893295  0.17240916  0.88876684  1
  O  O18  1  0.70106705  0.82759084  0.38876684  1
  O  O19  1  0.20106705  0.67240916  0.61123316  1
  O  O20  1  0.70106705  0.67240916  0.88876684  1
  O  O21  1  0.20106705  0.82759084  0.11123316  1
  O  O22  1  0.29893295  0.17240916  0.61123316  1
  O  O23  1  0.79893295  0.32759084  0.38876684  1
  O  O24  1  0.58253631  0.28773703  0.04807713  1
  O  O25  1  0.08253631  0.21226297  0.95192287  1
  O  O26  1  0.41746369  0.78773703  0.45192287  1
  O  O27  1  0.91746369  0.71226297  0.54807713  1
  O  O28  1  0.41746369  0.71226297  0.95192287  1
  O  O29  1  0.91746369  0.78773703  0.04807713  1
  O  O30  1  0.58253631  0.21226297  0.54807713  1
  O  O31  1  0.08253631  0.28773703  0.45192287  1
  O  O32  1  0.50380230  0.29632832  0.28671117  1
  O  O33  1  0.00380230  0.20367168  0.71328883  1
  O  O34  1  0.49619770  0.79632832  0.21328883  1
  O  O35  1  0.99619770  0.70367168  0.78671117  1
  O  O36  1  0.49619770  0.70367168  0.71328883  1
  O  O37  1  0.99619770  0.79632832  0.28671117  1
  O  O38  1  0.50380230  0.20367168  0.78671117  1
  O  O39  1  0.00380230  0.29632832  0.21328883  1
  O  O40  1  0.49370152  0.51258037  0.14488774  1
  O  O41  1  0.99370152  0.98741963  0.85511226  1
  O  O42  1  0.50629848  0.01258037  0.35511226  1
  O  O43  1  0.00629848  0.48741963  0.64488774  1
  O  O44  1  0.50629848  0.48741963  0.85511226  1
  O  O45  1  0.00629848  0.01258037  0.14488774  1
  O  O46  1  0.49370152  0.98741963  0.64488774  1
  O  O47  1  0.99370152  0.51258037  0.35511226  1
  O  O48  1  0.32875966  0.05634627  0.05967818  1
  O  O49  1  0.82875966  0.44365373  0.94032182  1
  O  O50  1  0.67124034  0.55634627  0.44032182  1
  O  O51  1  0.17124034  0.94365373  0.55967818  1
  O  O52  1  0.67124034  0.94365373  0.94032182  1
  O  O53  1  0.17124034  0.55634627  0.05967818  1
  O  O54  1  0.32875966  0.44365373  0.55967818  1
  O  O55  1  0.82875966  0.05634627  0.44032182  1
  O  O56  1  0.22641038  0.10760487  0.30891845  1
  O  O57  1  0.72641038  0.39239513  0.69108155  1
  O  O58  1  0.77358962  0.60760487  0.19108155  1
  O  O59  1  0.27358962  0.89239513  0.80891845  1
  O  O60  1  0.77358962  0.89239513  0.69108155  1
  O  O61  1  0.27358962  0.60760487  0.30891845  1
  O  O62  1  0.22641038  0.39239513  0.80891845  1
  O  O63  1  0.72641038  0.10760487  0.19108155  1
  H  H64  1  0.29345278  0.95857522  0.07014517  1
  H  H65  1  0.79345278  0.54142478  0.92985483  1
  H  H66  1  0.70654722  0.45857522  0.42985483  1
  H  H67  1  0.20654722  0.04142478  0.57014517  1
  H  H68  1  0.70654722  0.04142478  0.92985483  1
  H  H69  1  0.20654722  0.45857522  0.07014517  1
  H  H70  1  0.29345278  0.54142478  0.57014517  1
  H  H71  1  0.79345278  0.95857522  0.42985483  1
  H  H72  1  0.35452345  0.07282618  0.96702550  1
  H  H73  1  0.85452345  0.42717382  0.03297450  1
  H  H74  1  0.64547655  0.57282618  0.53297450  1
  H  H75  1  0.14547655  0.92717382  0.46702550  1
  H  H76  1  0.64547655  0.92717382  0.03297450  1
  H  H77  1  0.14547655  0.57282618  0.96702550  1
  H  H78  1  0.35452345  0.42717382  0.46702550  1
  H  H79  1  0.85452345  0.07282618  0.53297450  1
  H  H80  1  0.33720430  0.08171425  0.32255121  1
  H  H81  1  0.83720430  0.41828575  0.67744879  1
  H  H82  1  0.66279570  0.58171425  0.17744879  1
  H  H83  1  0.16279570  0.91828575  0.82255121  1
  H  H84  1  0.66279570  0.91828575  0.67744879  1
  H  H85  1  0.16279570  0.58171425  0.32255121  1
  H  H86  1  0.33720430  0.41828575  0.82255121  1
  H  H87  1  0.83720430  0.08171425  0.17744879  1
  H  H88  1  0.19021436  0.17484379  0.37690895  1
  H  H89  1  0.69021436  0.32515621  0.62309105  1
  H  H90  1  0.80978564  0.67484379  0.12309105  1
  H  H91  1  0.30978564  0.82515621  0.87690895  1
  H  H92  1  0.80978564  0.82515621  0.62309105  1
  H  H93  1  0.30978564  0.67484379  0.37690895  1
  H  H94  1  0.19021436  0.32515621  0.87690895  1
  H  H95  1  0.69021436  0.17484379  0.12309105  1
