# generated using pymatgen
data_Sm3NbSe3O4
_symmetry_space_group_name_H-M   'P 1'
_cell_length_a   6.94977750
_cell_length_b   7.81040528
_cell_length_c   14.99014921
_cell_angle_alpha   90.00000000
_cell_angle_beta   90.00000000
_cell_angle_gamma   90.00000000
_symmetry_Int_Tables_number   1
_chemical_formula_structural   Sm3NbSe3O4
_chemical_formula_sum   'Sm12 Nb4 Se12 O16'
_cell_volume   813.67397663
_cell_formula_units_Z   4
loop_
 _symmetry_equiv_pos_site_id
 _symmetry_equiv_pos_as_xyz
  1  'x, y, z'
loop_
 _atom_site_type_symbol
 _atom_site_label
 _atom_site_symmetry_multiplicity
 _atom_site_fract_x
 _atom_site_fract_y
 _atom_site_fract_z
 _atom_site_occupancy
  Sm  Sm0  1  0.71347459  0.50665212  0.84660348  1
  Sm  Sm1  1  0.28330504  0.25000000  0.91765857  1
  Sm  Sm2  1  0.28652541  0.49334788  0.15339652  1
  Sm  Sm3  1  0.78652541  0.49334788  0.34660348  1
  Sm  Sm4  1  0.21347459  0.99334788  0.65339652  1
  Sm  Sm5  1  0.78652541  0.00665212  0.34660348  1
  Sm  Sm6  1  0.21347459  0.50665212  0.65339652  1
  Sm  Sm7  1  0.71347459  0.99334788  0.84660348  1
  Sm  Sm8  1  0.28652541  0.00665212  0.15339652  1
  Sm  Sm9  1  0.78330504  0.25000000  0.58234143  1
  Sm  Sm10  1  0.71669496  0.75000000  0.08234143  1
  Sm  Sm11  1  0.21669496  0.75000000  0.41765857  1
  Nb  Nb12  1  0.67502560  0.25000000  0.06775110  1
  Nb  Nb13  1  0.32497440  0.75000000  0.93224890  1
  Nb  Nb14  1  0.82497440  0.75000000  0.56775110  1
  Nb  Nb15  1  0.17502560  0.25000000  0.43224890  1
  Se  Se16  1  0.99700459  0.25000000  0.77163953  1
  Se  Se17  1  0.05074921  0.75000000  0.79750234  1
  Se  Se18  1  0.00299541  0.75000000  0.22836047  1
  Se  Se19  1  0.44925079  0.25000000  0.29750234  1
  Se  Se20  1  0.49700459  0.25000000  0.72836047  1
  Se  Se21  1  0.55074921  0.75000000  0.70249766  1
  Se  Se22  1  0.50000000  0.00000000  0.50000000  1
  Se  Se23  1  0.94925079  0.25000000  0.20249766  1
  Se  Se24  1  0.50299541  0.75000000  0.27163953  1
  Se  Se25  1  0.00000000  0.50000000  0.00000000  1
  Se  Se26  1  0.00000000  0.00000000  0.00000000  1
  Se  Se27  1  0.50000000  0.50000000  0.50000000  1
  O  O28  1  0.35765263  0.75000000  0.06205779  1
  O  O29  1  0.38637260  0.52659398  0.88611678  1
  O  O30  1  0.85765263  0.75000000  0.43794221  1
  O  O31  1  0.38637260  0.97340602  0.88611678  1
  O  O32  1  0.86778088  0.25000000  0.43183647  1
  O  O33  1  0.61362740  0.47340602  0.11388322  1
  O  O34  1  0.63221912  0.75000000  0.93183647  1
  O  O35  1  0.88637260  0.97340602  0.61388322  1
  O  O36  1  0.11362740  0.02659398  0.38611678  1
  O  O37  1  0.36778088  0.25000000  0.06816353  1
  O  O38  1  0.13221912  0.75000000  0.56816353  1
  O  O39  1  0.61362740  0.02659398  0.11388322  1
  O  O40  1  0.11362740  0.47340602  0.38611678  1
  O  O41  1  0.64234737  0.25000000  0.93794221  1
  O  O42  1  0.14234737  0.25000000  0.56205779  1
  O  O43  1  0.88637260  0.52659398  0.61388322  1
