# generated using pymatgen
data_UPt
_symmetry_space_group_name_H-M   'P 1'
_cell_length_a   5.77324074
_cell_length_b   5.81619569
_cell_length_c   10.66920921
_cell_angle_alpha   90.00000000
_cell_angle_beta   90.00000000
_cell_angle_gamma   101.58452257
_symmetry_Int_Tables_number   1
_chemical_formula_structural   UPt
_chemical_formula_sum   'U8 Pt8'
_cell_volume   350.95608566
_cell_formula_units_Z   8
loop_
 _symmetry_equiv_pos_site_id
 _symmetry_equiv_pos_as_xyz
  1  'x, y, z'
loop_
 _atom_site_type_symbol
 _atom_site_label
 _atom_site_symmetry_multiplicity
 _atom_site_fract_x
 _atom_site_fract_y
 _atom_site_fract_z
 _atom_site_occupancy
  U  U0  1  0.86139909  0.90863366  0.00295587  1
  U  U1  1  0.13860091  0.09136634  0.50295587  1
  U  U2  1  0.38939558  0.34681328  0.01585412  1
  U  U3  1  0.61060442  0.65318672  0.51585412  1
  U  U4  1  0.13891748  0.59760070  0.28915008  1
  U  U5  1  0.86108252  0.40239930  0.78915008  1
  U  U6  1  0.60139443  0.15783219  0.27951329  1
  U  U7  1  0.39860557  0.84216781  0.77951329  1
  Pt  Pt8  1  0.91374637  0.91122795  0.73953977  1
  Pt  Pt9  1  0.08625363  0.08877205  0.23953977  1
  Pt  Pt10  1  0.35183053  0.33616831  0.74722330  1
  Pt  Pt11  1  0.64816947  0.66383169  0.24722330  1
  Pt  Pt12  1  0.09783349  0.58090182  0.55353319  1
  Pt  Pt13  1  0.90216651  0.41909818  0.05353319  1
  Pt  Pt14  1  0.64810081  0.15607718  0.54823037  1
  Pt  Pt15  1  0.35189919  0.84392282  0.04823037  1
