# generated using pymatgen
data_La2Ag2O5
_symmetry_space_group_name_H-M   'P 1'
_cell_length_a   5.74661825
_cell_length_b   6.12852701
_cell_length_c   9.16362386
_cell_angle_alpha   109.53570936
_cell_angle_beta   108.27366209
_cell_angle_gamma   90.00000000
_symmetry_Int_Tables_number   1
_chemical_formula_structural   La2Ag2O5
_chemical_formula_sum   'La4 Ag4 O10'
_cell_volume   286.82144485
_cell_formula_units_Z   2
loop_
 _symmetry_equiv_pos_site_id
 _symmetry_equiv_pos_as_xyz
  1  'x, y, z'
loop_
 _atom_site_type_symbol
 _atom_site_label
 _atom_site_symmetry_multiplicity
 _atom_site_fract_x
 _atom_site_fract_y
 _atom_site_fract_z
 _atom_site_occupancy
  La  La0  1  0.60619137  0.13134014  0.23412377  1
  La  La1  1  0.37206760  0.86865986  0.76587623  1
  La  La2  1  0.10619137  0.60278363  0.23412377  1
  La  La3  1  0.87206760  0.39721637  0.76587623  1
  Ag  Ag4  1  0.01481361  0.00000000  0.00000000  1
  Ag  Ag5  1  0.51481361  0.50000000  0.00000000  1
  Ag  Ag6  1  0.23122980  0.20736093  0.50000000  1
  Ag  Ag7  1  0.73122980  0.79263907  0.50000000  1
  O  O8  1  0.22213531  0.22605838  0.93211296  1
  O  O9  1  0.29002235  0.77394162  0.06788704  1
  O  O10  1  0.72213531  0.20605458  0.93211296  1
  O  O11  1  0.79002235  0.79394542  0.06788704  1
  O  O12  1  0.19572471  0.23719124  0.25572360  1
  O  O13  1  0.94000112  0.76280876  0.74427640  1
  O  O14  1  0.69572471  0.51853236  0.25572360  1
  O  O15  1  0.44000112  0.48146764  0.74427640  1
  O  O16  1  0.79181412  0.17476305  0.50000000  1
  O  O17  1  0.29181412  0.82523695  0.50000000  1
