# generated using pymatgen
data_Ag3AsS3
_symmetry_space_group_name_H-M   'P 1'
_cell_length_a   7.37690811
_cell_length_b   7.37690845
_cell_length_c   7.37690812
_cell_angle_alpha   105.74208146
_cell_angle_beta   105.74208182
_cell_angle_gamma   105.74208006
_symmetry_Int_Tables_number   1
_chemical_formula_structural   Ag3AsS3
_chemical_formula_sum   'Ag6 As2 S6'
_cell_volume   345.15546576
_cell_formula_units_Z   2
loop_
 _symmetry_equiv_pos_site_id
 _symmetry_equiv_pos_as_xyz
  1  'x, y, z'
loop_
 _atom_site_type_symbol
 _atom_site_label
 _atom_site_symmetry_multiplicity
 _atom_site_fract_x
 _atom_site_fract_y
 _atom_site_fract_z
 _atom_site_occupancy
  Ag  Ag0  1  0.54477388  0.61761307  0.04002797  1
  Ag  Ag1  1  0.54002797  0.11761307  0.04477388  1
  Ag  Ag2  1  0.04002797  0.54477388  0.61761307  1
  Ag  Ag3  1  0.04477388  0.54002797  0.11761307  1
  Ag  Ag4  1  0.61761307  0.04002797  0.54477388  1
  Ag  Ag5  1  0.11761307  0.04477388  0.54002797  1
  As  As6  1  0.58463165  0.58463165  0.58463165  1
  As  As7  1  0.08463165  0.08463165  0.08463165  1
  S  S8  1  0.67697851  0.33050310  0.42367181  1
  S  S9  1  0.42367181  0.67697851  0.33050310  1
  S  S10  1  0.83050310  0.17697851  0.92367181  1
  S  S11  1  0.33050310  0.42367181  0.67697851  1
  S  S12  1  0.17697851  0.92367181  0.83050310  1
  S  S13  1  0.92367181  0.83050310  0.17697851  1
