# generated using pymatgen
data_SbI(OF4)2
_symmetry_space_group_name_H-M   'P 1'
_cell_length_a   5.90337468
_cell_length_b   10.24871220
_cell_length_c   12.95598377
_cell_angle_alpha   90.00000000
_cell_angle_beta   102.54716367
_cell_angle_gamma   90.00000000
_symmetry_Int_Tables_number   1
_chemical_formula_structural   SbI(OF4)2
_chemical_formula_sum   'Sb4 I4 O8 F32'
_cell_volume   765.14218237
_cell_formula_units_Z   4
loop_
 _symmetry_equiv_pos_site_id
 _symmetry_equiv_pos_as_xyz
  1  'x, y, z'
loop_
 _atom_site_type_symbol
 _atom_site_label
 _atom_site_symmetry_multiplicity
 _atom_site_fract_x
 _atom_site_fract_y
 _atom_site_fract_z
 _atom_site_occupancy
  Sb  Sb0  1  0.50226196  0.25152244  0.49063112  1
  Sb  Sb1  1  0.49773804  0.75152244  0.00936888  1
  Sb  Sb2  1  0.50226196  0.24847756  0.99063112  1
  Sb  Sb3  1  0.49773804  0.74847756  0.50936888  1
  I  I4  1  0.77336548  0.00890196  0.68136205  1
  I  I5  1  0.22663452  0.99109804  0.31863795  1
  I  I6  1  0.22663452  0.50890196  0.81863795  1
  I  I7  1  0.77336548  0.49109804  0.18136205  1
  O  O8  1  0.29946843  0.41508434  0.94230938  1
  O  O9  1  0.29946843  0.08491566  0.44230938  1
  O  O10  1  0.40539283  0.84640189  0.36456723  1
  O  O11  1  0.40539283  0.65359811  0.86456723  1
  O  O12  1  0.70053157  0.91508434  0.55769062  1
  O  O13  1  0.70053157  0.58491566  0.05769062  1
  O  O14  1  0.59460717  0.34640189  0.13543277  1
  O  O15  1  0.59460717  0.15359811  0.63543277  1
  F  F16  1  0.61009339  0.82801504  0.14373025  1
  F  F17  1  0.87116356  0.09410332  0.80989365  1
  F  F18  1  0.24749711  0.66769978  0.05338185  1
  F  F19  1  0.68891368  0.39407022  0.54943169  1
  F  F20  1  0.53976809  0.93784504  0.73980636  1
  F  F21  1  0.03719038  0.12548991  0.25247796  1
  F  F22  1  0.68891368  0.10592978  0.04943169  1
  F  F23  1  0.24749711  0.83230022  0.55338185  1
  F  F24  1  0.03719038  0.37451009  0.75247796  1
  F  F25  1  0.03771021  0.42479712  0.14428928  1
  F  F26  1  0.87116356  0.40589668  0.30989365  1
  F  F27  1  0.53976809  0.56215496  0.23980636  1
  F  F28  1  0.75236343  0.69367533  0.45319631  1
  F  F29  1  0.46023191  0.43784504  0.76019364  1
  F  F30  1  0.31108632  0.60592978  0.45056831  1
  F  F31  1  0.24763657  0.30632467  0.54680369  1
  F  F32  1  0.38990661  0.17198496  0.85626975  1
  F  F33  1  0.46023191  0.06215496  0.26019364  1
  F  F34  1  0.75250289  0.33230022  0.94661815  1
  F  F35  1  0.75250289  0.16769978  0.44661815  1
  F  F36  1  0.75236343  0.80632467  0.95319631  1
  F  F37  1  0.24763657  0.19367533  0.04680369  1
  F  F38  1  0.03771021  0.07520288  0.64428928  1
  F  F39  1  0.96228979  0.92479712  0.35571072  1
  F  F40  1  0.12883644  0.90589668  0.19010635  1
  F  F41  1  0.61009339  0.67198496  0.64373025  1
  F  F42  1  0.96228979  0.57520288  0.85571072  1
  F  F43  1  0.12883644  0.59410332  0.69010635  1
  F  F44  1  0.96280962  0.62548991  0.24752204  1
  F  F45  1  0.96280962  0.87451009  0.74752204  1
  F  F46  1  0.38990661  0.32801504  0.35626975  1
  F  F47  1  0.31108632  0.89407022  0.95056831  1
