# generated using pymatgen
data_AsS
_symmetry_space_group_name_H-M   'P 1'
_cell_length_a   8.95815566
_cell_length_b   10.14236808
_cell_length_c   10.48269877
_cell_angle_alpha   90.00000000
_cell_angle_beta   97.78345988
_cell_angle_gamma   90.00000000
_symmetry_Int_Tables_number   1
_chemical_formula_structural   AsS
_chemical_formula_sum   'As16 S16'
_cell_volume   943.65092058
_cell_formula_units_Z   16
loop_
 _symmetry_equiv_pos_site_id
 _symmetry_equiv_pos_as_xyz
  1  'x, y, z'
loop_
 _atom_site_type_symbol
 _atom_site_label
 _atom_site_symmetry_multiplicity
 _atom_site_fract_x
 _atom_site_fract_y
 _atom_site_fract_z
 _atom_site_occupancy
  As  As0  1  0.54755927  0.86926179  0.31488963  1
  As  As1  1  0.33927435  0.36632031  0.36634089  1
  As  As2  1  0.83927435  0.13367969  0.36634089  1
  As  As3  1  0.83314043  0.65110683  0.84827629  1
  As  As4  1  0.31908598  0.54415644  0.08784707  1
  As  As5  1  0.81908598  0.95584356  0.08784707  1
  As  As6  1  0.16072565  0.86632031  0.63365911  1
  As  As7  1  0.45244073  0.13073821  0.68511037  1
  As  As8  1  0.66685957  0.15110683  0.15172371  1
  As  As9  1  0.66072565  0.63367969  0.63365911  1
  As  As10  1  0.04755927  0.63073821  0.31488963  1
  As  As11  1  0.18091402  0.04415644  0.91215293  1
  As  As12  1  0.16685957  0.34889317  0.15172371  1
  As  As13  1  0.95244073  0.36926179  0.68511037  1
  As  As14  1  0.33314043  0.84889317  0.84827629  1
  As  As15  1  0.68091402  0.45584356  0.91215293  1
  S  S16  1  0.50108205  0.47574183  0.25087820  1
  S  S17  1  0.96018281  0.44802480  0.19812615  1
  S  S18  1  0.78496619  0.47592048  0.53693836  1
  S  S19  1  0.71503381  0.97592048  0.46306164  1
  S  S20  1  0.53981719  0.94802480  0.80187385  1
  S  S21  1  0.46018281  0.05197520  0.19812615  1
  S  S22  1  0.80653357  0.28802702  0.83010318  1
  S  S23  1  0.49891795  0.52425817  0.74912180  1
  S  S24  1  0.00108205  0.02425817  0.25087820  1
  S  S25  1  0.30653357  0.21197298  0.83010318  1
  S  S26  1  0.21503381  0.52407952  0.46306164  1
  S  S27  1  0.28496619  0.02407952  0.53693836  1
  S  S28  1  0.99891795  0.97574183  0.74912180  1
  S  S29  1  0.03981719  0.55197520  0.80187385  1
  S  S30  1  0.19346643  0.71197298  0.16989682  1
  S  S31  1  0.69346643  0.78802702  0.16989682  1
