# generated using pymatgen
data_Ba6Eu(ClF6)2
_symmetry_space_group_name_H-M   'P 1'
_cell_length_a   10.68737326
_cell_length_b   10.68737293
_cell_length_c   4.21618655
_cell_angle_alpha   90.00000000
_cell_angle_beta   90.00000000
_cell_angle_gamma   120.00000102
_symmetry_Int_Tables_number   1
_chemical_formula_structural   Ba6Eu(ClF6)2
_chemical_formula_sum   'Ba6 Eu1 Cl2 F12'
_cell_volume   417.05409277
_cell_formula_units_Z   1
loop_
 _symmetry_equiv_pos_site_id
 _symmetry_equiv_pos_as_xyz
  1  'x, y, z'
loop_
 _atom_site_type_symbol
 _atom_site_label
 _atom_site_symmetry_multiplicity
 _atom_site_fract_x
 _atom_site_fract_y
 _atom_site_fract_z
 _atom_site_occupancy
  Eu  Eu0  1  0.00000000  0.00000000  0.00000000  1
  Ba  Ba1  1  0.10875650  0.40669502  0.00000000  1
  Ba  Ba2  1  0.29793852  0.89124350  0.00000000  1
  Ba  Ba3  1  0.59330498  0.70206148  0.00000000  1
  Ba  Ba4  1  0.71497261  0.11149731  0.50000000  1
  Ba  Ba5  1  0.88850269  0.60347529  0.50000000  1
  Ba  Ba6  1  0.39652471  0.28502739  0.50000000  1
  Cl  Cl7  1  0.33333300  0.66666700  0.50000000  1
  Cl  Cl8  1  0.66666700  0.33333300  0.00000000  1
  F  F9  1  0.88440016  0.14515469  0.00000000  1
  F  F10  1  0.09536599  0.88696306  0.50000000  1
  F  F11  1  0.79159707  0.90463401  0.50000000  1
  F  F12  1  0.06272865  0.63184799  0.00000000  1
  F  F13  1  0.36815201  0.43088065  0.00000000  1
  F  F14  1  0.61420827  0.56301324  0.50000000  1
  F  F15  1  0.56911935  0.93727135  0.00000000  1
  F  F16  1  0.43698676  0.05119502  0.50000000  1
  F  F17  1  0.26075453  0.11559984  0.00000000  1
  F  F18  1  0.94880498  0.38579173  0.50000000  1
  F  F19  1  0.11303694  0.20840293  0.50000000  1
  F  F20  1  0.85484531  0.73924547  0.00000000  1
