# generated using pymatgen
data_YSeO3F
_symmetry_space_group_name_H-M   'P 1'
_cell_length_a   6.67568313
_cell_length_b   7.00393494
_cell_length_c   7.30064927
_cell_angle_alpha   90.00000000
_cell_angle_beta   98.71364524
_cell_angle_gamma   90.00000000
_symmetry_Int_Tables_number   1
_chemical_formula_structural   YSeO3F
_chemical_formula_sum   'Y4 Se4 O12 F4'
_cell_volume   337.40961247
_cell_formula_units_Z   4
loop_
 _symmetry_equiv_pos_site_id
 _symmetry_equiv_pos_as_xyz
  1  'x, y, z'
loop_
 _atom_site_type_symbol
 _atom_site_label
 _atom_site_symmetry_multiplicity
 _atom_site_fract_x
 _atom_site_fract_y
 _atom_site_fract_z
 _atom_site_occupancy
  Y  Y0  1  0.85916026  0.63980502  0.67627331  1
  Y  Y1  1  0.14083974  0.13980502  0.82372669  1
  Y  Y2  1  0.14083974  0.36019498  0.32372669  1
  Y  Y3  1  0.85916026  0.86019498  0.17627331  1
  Se  Se4  1  0.35044343  0.88101085  0.28872314  1
  Se  Se5  1  0.64955657  0.11898915  0.71127686  1
  Se  Se6  1  0.35044343  0.61898915  0.78872314  1
  Se  Se7  1  0.64955657  0.38101085  0.21127686  1
  O  O8  1  0.82586372  0.96904253  0.85136069  1
  O  O9  1  0.48712757  0.31364731  0.35950289  1
  O  O10  1  0.17413628  0.03095747  0.14863931  1
  O  O11  1  0.82483571  0.30487751  0.72000209  1
  O  O12  1  0.17516429  0.80487751  0.77999791  1
  O  O13  1  0.51287243  0.81364731  0.14049711  1
  O  O14  1  0.82586372  0.53095747  0.35136069  1
  O  O15  1  0.17516429  0.69512249  0.27999791  1
  O  O16  1  0.17413628  0.46904253  0.64863931  1
  O  O17  1  0.51287243  0.68635269  0.64049711  1
  O  O18  1  0.82483571  0.19512249  0.22000209  1
  O  O19  1  0.48712757  0.18635269  0.85950289  1
  F  F20  1  0.16750164  0.11848032  0.52465266  1
  F  F21  1  0.16750164  0.38151968  0.02465266  1
  F  F22  1  0.83249836  0.61848032  0.97534734  1
  F  F23  1  0.83249836  0.88151968  0.47534734  1
