# generated using pymatgen
data_Y2Si2O7
_symmetry_space_group_name_H-M   'P 1'
_cell_length_a   6.66861619
_cell_length_b   6.70995608
_cell_length_c   12.18106316
_cell_angle_alpha   94.49163884
_cell_angle_beta   91.21597936
_cell_angle_gamma   91.88275734
_symmetry_Int_Tables_number   1
_chemical_formula_structural   Y2Si2O7
_chemical_formula_sum   'Y8 Si8 O28'
_cell_volume   542.93312480
_cell_formula_units_Z   4
loop_
 _symmetry_equiv_pos_site_id
 _symmetry_equiv_pos_as_xyz
  1  'x, y, z'
loop_
 _atom_site_type_symbol
 _atom_site_label
 _atom_site_symmetry_multiplicity
 _atom_site_fract_x
 _atom_site_fract_y
 _atom_site_fract_z
 _atom_site_occupancy
  Y  Y0  1  0.11610216  0.09217067  0.35694503  1
  Y  Y1  1  0.32928759  0.82766796  0.10812825  1
  Y  Y2  1  0.63019567  0.78303022  0.36649835  1
  Y  Y3  1  0.88389784  0.90782933  0.64305497  1
  Y  Y4  1  0.67071241  0.17233204  0.89187175  1
  Y  Y5  1  0.36980433  0.21696978  0.63350165  1
  Y  Y6  1  0.94840185  0.67023672  0.88486566  1
  Y  Y7  1  0.05159815  0.32976328  0.11513434  1
  Si  Si8  1  0.48638692  0.66454722  0.82417298  1
  Si  Si9  1  0.84552837  0.85295581  0.11542407  1
  Si  Si10  1  0.51361308  0.33545278  0.17582702  1
  Si  Si11  1  0.15447163  0.14704419  0.88457593  1
  Si  Si12  1  0.14422839  0.62788731  0.37962877  1
  Si  Si13  1  0.85577161  0.37211269  0.62037123  1
  Si  Si14  1  0.62184505  0.27486684  0.40578923  1
  Si  Si15  1  0.37815495  0.72513316  0.59421077  1
  O  O16  1  0.28610269  0.57659696  0.48841600  1
  O  O17  1  0.23466522  0.08519711  0.00393477  1
  O  O18  1  0.40092113  0.56805251  0.69349618  1
  O  O19  1  0.03824185  0.22768786  0.57771604  1
  O  O20  1  0.38434885  0.13792348  0.21062277  1
  O  O21  1  0.65380505  0.78969194  0.18630239  1
  O  O22  1  0.00164298  0.98262254  0.81569517  1
  O  O23  1  0.00127979  0.66931608  0.08130388  1
  O  O24  1  0.70146616  0.29687074  0.09505875  1
  O  O25  1  0.34619495  0.21030806  0.81369761  1
  O  O26  1  0.07583441  0.41823015  0.31122627  1
  O  O27  1  0.22771582  0.90374112  0.62346675  1
  O  O28  1  0.64359648  0.51004317  0.87268085  1
  O  O29  1  0.58709107  0.82625103  0.55310437  1
  O  O30  1  0.76533478  0.91480289  0.99606523  1
  O  O31  1  0.99835702  0.01737746  0.18430483  1
  O  O32  1  0.92416559  0.58176985  0.68877373  1
  O  O33  1  0.96175815  0.77231214  0.42228396  1
  O  O34  1  0.77228418  0.09625888  0.37653325  1
  O  O35  1  0.59907887  0.43194749  0.30650382  1
  O  O36  1  0.41290893  0.17374897  0.44689563  1
  O  O37  1  0.61565115  0.86207652  0.78937723  1
  O  O38  1  0.71248152  0.21617666  0.68703955  1
  O  O39  1  0.71389731  0.42340304  0.51158400  1
  O  O40  1  0.28751848  0.78382334  0.31296045  1
  O  O41  1  0.35640352  0.48995683  0.12731915  1
  O  O42  1  0.29853384  0.70312926  0.90494125  1
  O  O43  1  0.99872021  0.33068392  0.91869612  1
