# generated using pymatgen
data_KSmPdO3
_symmetry_space_group_name_H-M   'P 1'
_cell_length_a   3.94889813
_cell_length_b   6.91027592
_cell_length_c   7.53500714
_cell_angle_alpha   104.07527758
_cell_angle_beta   90.00000000
_cell_angle_gamma   106.60228089
_symmetry_Int_Tables_number   1
_chemical_formula_structural   KSmPdO3
_chemical_formula_sum   'K2 Sm2 Pd2 O6'
_cell_volume   190.59263707
_cell_formula_units_Z   2
loop_
 _symmetry_equiv_pos_site_id
 _symmetry_equiv_pos_as_xyz
  1  'x, y, z'
loop_
 _atom_site_type_symbol
 _atom_site_label
 _atom_site_symmetry_multiplicity
 _atom_site_fract_x
 _atom_site_fract_y
 _atom_site_fract_z
 _atom_site_occupancy
  K  K0  1  0.35603152  0.71206305  0.43531643  1
  K  K1  1  0.64396848  0.28793695  0.56468357  1
  Sm  Sm2  1  0.35033827  0.70067654  0.92295287  1
  Sm  Sm3  1  0.64966173  0.29932346  0.07704713  1
  Pd  Pd4  1  0.00701590  0.01403179  0.77348514  1
  Pd  Pd5  1  0.99298410  0.98596821  0.22651486  1
  O  O6  1  0.82952289  0.65904577  0.13056211  1
  O  O7  1  0.84695805  0.69391609  0.72558390  1
  O  O8  1  0.17047711  0.34095423  0.86943789  1
  O  O9  1  0.49357271  0.98714542  0.18522596  1
  O  O10  1  0.50642729  0.01285458  0.81477404  1
  O  O11  1  0.15304195  0.30608391  0.27441610  1
