# generated using pymatgen
data_SiO2
_symmetry_space_group_name_H-M   'P 1'
_cell_length_a   4.76924033
_cell_length_b   5.92189309
_cell_length_c   5.92189283
_cell_angle_alpha   95.21747550
_cell_angle_beta   90.00000000
_cell_angle_gamma   90.00000000
_symmetry_Int_Tables_number   1
_chemical_formula_structural   SiO2
_chemical_formula_sum   'Si4 O8'
_cell_volume   166.55864060
_cell_formula_units_Z   4
loop_
 _symmetry_equiv_pos_site_id
 _symmetry_equiv_pos_as_xyz
  1  'x, y, z'
loop_
 _atom_site_type_symbol
 _atom_site_label
 _atom_site_symmetry_multiplicity
 _atom_site_fract_x
 _atom_site_fract_y
 _atom_site_fract_z
 _atom_site_occupancy
  Si  Si0  1  0.36366463  0.03101125  0.34787318  1
  Si  Si1  1  0.86366463  0.96898875  0.65212682  1
  Si  Si2  1  0.13633537  0.65212682  0.96898875  1
  Si  Si3  1  0.63633537  0.34787318  0.03101125  1
  O  O4  1  0.39674359  0.48204525  0.89821833  1
  O  O5  1  0.60325641  0.89821833  0.48204525  1
  O  O6  1  0.00000000  0.73999473  0.73999473  1
  O  O7  1  0.89674359  0.51795475  0.10178167  1
  O  O8  1  0.10325641  0.10178167  0.51795475  1
  O  O9  1  0.25000000  0.86791178  0.13208822  1
  O  O10  1  0.50000000  0.26000527  0.26000527  1
  O  O11  1  0.75000000  0.13208822  0.86791178  1
