# generated using pymatgen
data_BiP3Pb4O13
_symmetry_space_group_name_H-M   'P 1'
_cell_length_a   9.66403954
_cell_length_b   10.22793461
_cell_length_c   13.39309407
_cell_angle_alpha   90.00000000
_cell_angle_beta   90.00000000
_cell_angle_gamma   90.00000000
_symmetry_Int_Tables_number   1
_chemical_formula_structural   BiP3Pb4O13
_chemical_formula_sum   'Bi4 P12 Pb16 O52'
_cell_volume   1323.81580010
_cell_formula_units_Z   4
loop_
 _symmetry_equiv_pos_site_id
 _symmetry_equiv_pos_as_xyz
  1  'x, y, z'
loop_
 _atom_site_type_symbol
 _atom_site_label
 _atom_site_symmetry_multiplicity
 _atom_site_fract_x
 _atom_site_fract_y
 _atom_site_fract_z
 _atom_site_occupancy
  Bi  Bi0  1  0.70954352  0.25000000  0.77477343  1
  Bi  Bi1  1  0.29045648  0.75000000  0.22522657  1
  Bi  Bi2  1  0.20954352  0.75000000  0.72522657  1
  Bi  Bi3  1  0.79045648  0.25000000  0.27477343  1
  P  P4  1  0.43038621  0.46170123  0.67383445  1
  P  P5  1  0.93038621  0.53829877  0.82616555  1
  P  P6  1  0.06961379  0.46170123  0.17383445  1
  P  P7  1  0.59080839  0.25000000  -0.01339977  1
  P  P8  1  0.09080839  0.75000000  0.51339977  1
  P  P9  1  0.93038621  0.96170123  0.82616555  1
  P  P10  1  0.90919161  0.25000000  0.48660023  1
  P  P11  1  0.43038621  0.03829877  0.67383445  1
  P  P12  1  0.40919161  0.75000000  1.01339977  1
  P  P13  1  0.56961379  0.53829877  0.32616555  1
  P  P14  1  0.06961379  0.03829877  0.17383445  1
  P  P15  1  0.56961379  0.96170123  0.32616555  1
  Pb  Pb16  1  0.13843841  0.25000000  0.72820757  1
  Pb  Pb17  1  0.19994986  0.06092575  0.43441510  1
  Pb  Pb18  1  0.30005014  0.43907425  0.93441510  1
  Pb  Pb19  1  0.52750072  0.25000000  0.48796845  1
  Pb  Pb20  1  0.97249928  0.25000000  0.98796845  1
  Pb  Pb21  1  0.80005014  0.93907425  0.56558490  1
  Pb  Pb22  1  0.80005014  0.56092575  0.56558490  1
  Pb  Pb23  1  0.36156159  0.25000000  0.22820757  1
  Pb  Pb24  1  0.69994986  0.56092575  0.06558490  1
  Pb  Pb25  1  0.47249928  0.75000000  0.51203155  1
  Pb  Pb26  1  0.86156159  0.75000000  0.27179243  1
  Pb  Pb27  1  0.63843841  0.75000000  0.77179243  1
  Pb  Pb28  1  0.69994986  0.93907425  0.06558490  1
  Pb  Pb29  1  0.02750072  0.75000000  0.01203155  1
  Pb  Pb30  1  0.30005014  0.06092575  0.93441510  1
  Pb  Pb31  1  0.19994986  0.43907425  0.43441510  1
  O  O32  1  0.88476875  0.58109406  0.93305115  1
  O  O33  1  0.83769895  0.89427696  0.74739291  1
  O  O34  1  0.12778440  0.62989522  0.58240361  1
  O  O35  1  0.56932580  0.75000000  0.99374004  1
  O  O36  1  0.08571511  0.57728688  0.81307164  1
  O  O37  1  0.41428489  0.57728688  0.31307164  1
  O  O38  1  0.41699013  0.61391187  0.68547007  1
  O  O39  1  0.91699013  0.38608813  0.81452993  1
  O  O40  1  0.37221560  0.62989522  0.08240361  1
  O  O41  1  0.87221560  0.12989522  0.41759639  1
  O  O42  1  0.83072462  0.25000000  0.58611509  1
  O  O43  1  0.88476875  0.91890594  0.93305115  1
  O  O44  1  0.33072462  0.75000000  0.91388491  1
  O  O45  1  0.06932580  0.25000000  0.50625996  1
  O  O46  1  0.11523125  0.08109406  0.06694885  1
  O  O47  1  0.16230105  0.39427696  0.25260709  1
  O  O48  1  0.91428489  0.07728688  0.18692836  1
  O  O49  1  0.58571511  0.07728688  0.68692836  1
  O  O50  1  0.32785484  0.25000000  0.39685772  1
  O  O51  1  0.91428489  0.42271312  0.18692836  1
  O  O52  1  0.11523125  0.41890594  0.06694885  1
  O  O53  1  0.17214516  0.25000000  0.89685772  1
  O  O54  1  0.33769895  0.39427696  0.75260709  1
  O  O55  1  0.16230105  0.10572304  0.25260709  1
  O  O56  1  0.37221560  0.87010478  0.08240361  1
  O  O57  1  0.82785484  0.75000000  0.10314228  1
  O  O58  1  0.58300987  0.38608813  0.31452993  1
  O  O59  1  0.08571511  0.92271312  0.81307164  1
  O  O60  1  0.61523125  0.91890594  0.43305115  1
  O  O61  1  0.43067420  0.25000000  0.00625996  1
  O  O62  1  0.38476875  0.41890594  0.56694885  1
  O  O63  1  0.62778440  0.12989522  0.91759639  1
  O  O64  1  0.38476875  0.08109406  0.56694885  1
  O  O65  1  0.93067420  0.75000000  0.49374004  1
  O  O66  1  0.66230105  0.60572304  0.24739291  1
  O  O67  1  0.58300987  0.11391187  0.31452993  1
  O  O68  1  0.66927538  0.25000000  0.08611509  1
  O  O69  1  0.91699013  0.11391187  0.81452993  1
  O  O70  1  0.62778440  0.37010478  0.91759639  1
  O  O71  1  0.08300987  0.61391187  0.18547007  1
  O  O72  1  0.08300987  0.88608813  0.18547007  1
  O  O73  1  0.33769895  0.10572304  0.75260709  1
  O  O74  1  0.61523125  0.58109406  0.43305115  1
  O  O75  1  0.66230105  0.89427696  0.24739291  1
  O  O76  1  0.87221560  0.37010478  0.41759639  1
  O  O77  1  0.67214516  0.75000000  0.60314228  1
  O  O78  1  0.58571511  0.42271312  0.68692836  1
  O  O79  1  0.83769895  0.60572304  0.74739291  1
  O  O80  1  0.16927538  0.75000000  0.41388491  1
  O  O81  1  0.41699013  0.88608813  0.68547007  1
  O  O82  1  0.41428489  0.92271312  0.31307164  1
  O  O83  1  0.12778440  0.87010478  0.58240361  1
