# generated using pymatgen
data_CaH2CO4
_symmetry_space_group_name_H-M   'P 1'
_cell_length_a   10.64538614
_cell_length_b   10.64538585
_cell_length_c   7.64425984
_cell_angle_alpha   90.00000000
_cell_angle_beta   90.00000000
_cell_angle_gamma   120.00000092
_symmetry_Int_Tables_number   1
_chemical_formula_structural   CaH2CO4
_chemical_formula_sum   'Ca9 H18 C9 O36'
_cell_volume   750.22044448
_cell_formula_units_Z   9
loop_
 _symmetry_equiv_pos_site_id
 _symmetry_equiv_pos_as_xyz
  1  'x, y, z'
loop_
 _atom_site_type_symbol
 _atom_site_label
 _atom_site_symmetry_multiplicity
 _atom_site_fract_x
 _atom_site_fract_y
 _atom_site_fract_z
 _atom_site_occupancy
  Ca  Ca0  1  0.18473975  0.09351182  0.33167638  1
  Ca  Ca1  1  0.51854274  0.75068886  0.35363863  1
  Ca  Ca2  1  0.85221447  0.42686674  0.34004052  1
  Ca  Ca3  1  0.23214611  0.48145726  0.02030563  1
  Ca  Ca4  1  0.24931114  0.76785389  0.68697163  1
  Ca  Ca5  1  0.57313326  0.42534773  0.67337352  1
  Ca  Ca6  1  0.90648818  0.09122793  0.66500938  1
  Ca  Ca7  1  0.57465227  0.14778553  0.00670752  1
  Ca  Ca8  1  0.90877207  0.81526025  0.99834338  1
  H  H9  1  0.33698621  0.21502465  0.92290262  1
  H  H10  1  0.21621720  0.33071663  0.57988814  1
  H  H11  1  0.21286829  0.87977998  0.09046842  1
  H  H12  1  0.33109823  0.11597702  0.76565781  1
  H  H13  1  0.46148433  0.99631006  0.42963259  1
  H  H14  1  0.87803843  0.66301379  0.58956962  1
  H  H15  1  0.12022002  0.33308831  0.42380242  1
  H  H16  1  0.78497535  0.12196157  0.25623562  1
  H  H17  1  0.00368994  0.46517427  0.76296559  1
  H  H18  1  0.78487879  0.66890177  0.43232481  1
  H  H19  1  0.66691169  0.78713171  0.75713542  1
  H  H20  1  0.56059330  0.00191152  0.58645810  1
  H  H21  1  0.11449943  0.78378280  0.24655414  1
  H  H22  1  0.66928337  0.88550057  0.91322114  1
  H  H23  1  0.88402298  0.21512121  0.09899081  1
  H  H24  1  0.99808848  0.55868178  0.91979110  1
  H  H25  1  0.44131822  0.43940670  0.25312410  1
  H  H26  1  0.53482573  0.53851567  0.09629859  1
  C  C27  1  0.76684393  0.25707951  0.71180412  1
  C  C28  1  0.74292049  0.50976442  0.04513712  1
  C  C29  1  0.42827817  0.58461738  0.72575516  1
  C  C30  1  0.08321155  0.90528689  0.63303647  1
  C  C31  1  0.15633921  0.57172183  0.39242116  1
  C  C32  1  0.41538262  0.84366079  0.05908816  1
  C  C33  1  0.49023558  0.23315607  0.37847012  1
  C  C34  1  0.09471311  0.17792466  0.96636947  1
  C  C35  1  0.82207534  0.91678845  0.29970247  1
  O  O36  1  0.05513947  0.05823392  0.88529270  1
  O  O37  1  0.47625470  0.93339351  0.51366208  1
  O  O38  1  0.06660649  0.54286118  0.84699508  1
  O  O39  1  0.54358367  0.64132066  0.62507837  1
  O  O40  1  0.02533758  0.24856759  0.93721043  1
  O  O41  1  1.00309445  0.94486053  0.55195970  1
  O  O42  1  0.20765251  0.23543389  0.06926506  1
  O  O43  1  0.88113102  0.31407327  0.61145824  1
  O  O44  1  0.02778137  0.79234749  0.73593206  1
  O  O45  1  0.13255500  0.86659505  0.17039841  1
  O  O46  1  0.68592673  0.56705774  0.94479124  1
  O  O47  1  0.61194207  0.27703014  0.45661341  1
  O  O48  1  0.73404005  0.86744500  0.83706541  1
  O  O49  1  0.76456611  0.97221863  0.40259806  1
  O  O50  1  0.13340495  0.26595995  0.50373241  1
  O  O51  1  0.94176608  -0.00309445  0.21862570  1
  O  O52  1  0.66508807  0.38805793  0.12328041  1
  O  O53  1  0.08579788  0.64062041  0.42023297  1
  O  O54  1  0.55482253  0.91420212  0.08689997  1
  O  O55  1  0.22323001  0.97466242  0.60387743  1
  O  O56  1  0.72296986  0.33491193  0.78994741  1
  O  O57  1  0.09773698  0.45641633  0.29174437  1
  O  O58  1  0.35867934  0.90226302  0.95841137  1
  O  O59  1  0.39978909  0.19675574  0.84260023  1
  O  O60  1  0.43294226  0.11886898  0.27812424  1
  O  O61  1  0.41747819  0.30037429  0.40920015  1
  O  O62  1  0.45713882  0.52374530  0.18032808  1
  O  O63  1  0.79696665  0.60021091  0.50926723  1
  O  O64  1  0.38773956  0.66476105  0.80486399  1
  O  O65  1  0.80324426  0.20303335  0.17593323  1
  O  O66  1  0.88289610  0.58252181  0.07586715  1
  O  O67  1  0.27702149  0.61226044  0.47152999  1
  O  O68  1  0.33523895  0.72297851  0.13819699  1
  O  O69  1  0.75143241  0.77676999  0.27054343  1
  O  O70  1  0.69962571  0.11710390  0.74253415  1
  O  O71  1  0.35937959  0.44517747  0.75356697  1
