# generated using pymatgen
data_SiP3RuO11
_symmetry_space_group_name_H-M   'P 1'
_cell_length_a   14.15646506
_cell_length_b   14.15646508
_cell_length_c   14.15646464
_cell_angle_alpha   34.51751794
_cell_angle_beta   34.51751780
_cell_angle_gamma   34.51751644
_symmetry_Int_Tables_number   1
_chemical_formula_structural   SiP3RuO11
_chemical_formula_sum   'Si4 P12 Ru4 O44'
_cell_volume   812.72648118
_cell_formula_units_Z   4
loop_
 _symmetry_equiv_pos_site_id
 _symmetry_equiv_pos_as_xyz
  1  'x, y, z'
loop_
 _atom_site_type_symbol
 _atom_site_label
 _atom_site_symmetry_multiplicity
 _atom_site_fract_x
 _atom_site_fract_y
 _atom_site_fract_z
 _atom_site_occupancy
  Si  Si0  1  0.53976387  0.53976387  0.53976387  1
  Si  Si1  1  0.03976387  0.03976387  0.03976387  1
  Si  Si2  1  0.96023613  0.96023613  0.96023613  1
  Si  Si3  1  0.46023613  0.46023613  0.46023613  1
  P  P4  1  0.28772300  0.99042462  0.58144545  1
  P  P5  1  0.21227700  0.91855455  0.50957538  1
  P  P6  1  0.00957538  0.41855455  0.71227700  1
  P  P7  1  0.71227700  0.00957538  0.41855455  1
  P  P8  1  0.41855455  0.71227700  0.00957538  1
  P  P9  1  0.78772300  0.08144545  0.49042462  1
  P  P10  1  0.49042462  0.78772300  0.08144545  1
  P  P11  1  0.99042462  0.58144545  0.28772300  1
  P  P12  1  0.50957538  0.21227700  0.91855455  1
  P  P13  1  0.58144545  0.28772300  0.99042462  1
  P  P14  1  0.08144545  0.49042462  0.78772300  1
  P  P15  1  0.91855455  0.50957538  0.21227700  1
  Ru  Ru16  1  0.84110665  0.84110665  0.84110665  1
  Ru  Ru17  1  0.65889335  0.65889335  0.65889335  1
  Ru  Ru18  1  0.34110665  0.34110665  0.34110665  1
  Ru  Ru19  1  0.15889335  0.15889335  0.15889335  1
  O  O20  1  0.98868605  0.04417061  0.34823451  1
  O  O21  1  0.32598855  0.28102049  0.96026991  1
  O  O22  1  0.67401145  0.71897951  0.03973009  1
  O  O23  1  0.96225519  0.53774481  0.75000000  1
  O  O24  1  0.85071315  0.09754839  0.21062858  1
  O  O25  1  0.34823451  0.98868605  0.04417061  1
  O  O26  1  0.28102049  0.96026991  0.32598855  1
  O  O27  1  0.78102049  0.82598855  0.46026991  1
  O  O28  1  0.35071315  0.71062858  0.59754839  1
  O  O29  1  0.65176549  0.01131395  0.95582939  1
  O  O30  1  0.46225519  0.25000000  0.03774481  1
  O  O31  1  0.03973009  0.67401145  0.71897951  1
  O  O32  1  0.15176549  0.45582939  0.51131395  1
  O  O33  1  0.96026991  0.32598855  0.28102049  1
  O  O34  1  0.48868605  0.84823451  0.54417061  1
  O  O35  1  0.78937142  0.14928685  0.90245161  1
  O  O36  1  0.40245161  0.64928685  0.28937142  1
  O  O37  1  0.53774481  0.75000000  0.96225519  1
  O  O38  1  0.75000000  0.96225519  0.53774481  1
  O  O39  1  0.82598855  0.46026991  0.78102049  1
  O  O40  1  0.03774481  0.46225519  0.25000000  1
  O  O41  1  0.84823451  0.54417061  0.48868605  1
  O  O42  1  0.45582939  0.51131395  0.15176549  1
  O  O43  1  0.21062858  0.85071315  0.09754839  1
  O  O44  1  0.71897951  0.03973009  0.67401145  1
  O  O45  1  0.95582939  0.65176549  0.01131395  1
  O  O46  1  0.00000000  0.00000000  0.00000000  1
  O  O47  1  0.28937142  0.40245161  0.64928685  1
  O  O48  1  0.53973009  0.21897951  0.17401145  1
  O  O49  1  0.64928685  0.28937142  0.40245161  1
  O  O50  1  0.01131395  0.95582939  0.65176549  1
  O  O51  1  0.17401145  0.53973009  0.21897951  1
  O  O52  1  0.09754839  0.21062858  0.85071315  1
  O  O53  1  0.71062858  0.59754839  0.35071315  1
  O  O54  1  0.90245161  0.78937142  0.14928685  1
  O  O55  1  0.51131395  0.15176549  0.45582939  1
  O  O56  1  0.25000000  0.03774481  0.46225519  1
  O  O57  1  0.21897951  0.17401145  0.53973009  1
  O  O58  1  0.46026991  0.78102049  0.82598855  1
  O  O59  1  0.59754839  0.35071315  0.71062858  1
  O  O60  1  0.04417061  0.34823451  0.98868605  1
  O  O61  1  0.14928685  0.90245161  0.78937142  1
  O  O62  1  0.54417061  0.48868605  0.84823451  1
  O  O63  1  0.50000000  0.50000000  0.50000000  1
