# generated using pymatgen
data_Ba5B3CNO9
_symmetry_space_group_name_H-M   'P 1'
_cell_length_a   8.09524242
_cell_length_b   9.18132304
_cell_length_c   9.18132322
_cell_angle_alpha   109.60230728
_cell_angle_beta   90.00000000
_cell_angle_gamma   90.00000000
_symmetry_Int_Tables_number   1
_chemical_formula_structural   Ba5B3CNO9
_chemical_formula_sum   'Ba10 B6 C2 N2 O18'
_cell_volume   642.85283728
_cell_formula_units_Z   2
loop_
 _symmetry_equiv_pos_site_id
 _symmetry_equiv_pos_as_xyz
  1  'x, y, z'
loop_
 _atom_site_type_symbol
 _atom_site_label
 _atom_site_symmetry_multiplicity
 _atom_site_fract_x
 _atom_site_fract_y
 _atom_site_fract_z
 _atom_site_occupancy
  Ba  Ba0  1  0.50000000  0.74104419  0.74104419  1
  Ba  Ba1  1  0.00000000  0.25895581  0.25895581  1
  Ba  Ba2  1  0.25000000  0.86156994  0.13843006  1
  Ba  Ba3  1  0.43507401  0.49339575  0.23469244  1
  Ba  Ba4  1  0.25000000  0.14509172  0.85490828  1
  Ba  Ba5  1  0.75000000  0.13843006  0.86156994  1
  Ba  Ba6  1  0.75000000  0.85490828  0.14509172  1
  Ba  Ba7  1  0.06492599  0.76530756  0.50660425  1
  Ba  Ba8  1  0.93507401  0.50660425  0.76530756  1
  Ba  Ba9  1  0.56492599  0.23469244  0.49339575  1
  B  B10  1  0.03162145  0.51497541  0.09534737  1
  B  B11  1  0.50000000  0.12736264  0.12736264  1
  B  B12  1  0.00000000  0.87263736  0.87263736  1
  B  B13  1  0.96837855  0.09534737  0.51497541  1
  B  B14  1  0.46837855  0.90465263  0.48502459  1
  B  B15  1  0.53162145  0.48502459  0.90465263  1
  C  C16  1  0.75000000  0.61576780  0.38423220  1
  C  C17  1  0.25000000  0.38423220  0.61576780  1
  N  N18  1  0.75000000  0.53695355  0.46304645  1
  N  N19  1  0.25000000  0.46304645  0.53695355  1
  O  O20  1  0.98926389  0.36787181  0.99205344  1
  O  O21  1  0.01073611  0.99205344  0.36787181  1
  O  O22  1  0.99213521  0.64798344  0.06207717  1
  O  O23  1  0.61784881  0.47283710  0.76993997  1
  O  O24  1  0.50000000  0.99467253  0.99467253  1
  O  O25  1  0.50786479  0.93792283  0.35201656  1
  O  O26  1  0.11784881  0.52716290  0.23006003  1
  O  O27  1  0.38215119  0.76993997  0.47283710  1
  O  O28  1  0.84922017  0.80936138  0.80771816  1
  O  O29  1  0.34922017  0.19063862  0.19228184  1
  O  O30  1  0.00000000  0.00532747  0.00532747  1
  O  O31  1  0.00786479  0.06207717  0.64798344  1
  O  O32  1  0.48926389  0.63212819  0.00794656  1
  O  O33  1  0.51073611  0.00794656  0.63212819  1
  O  O34  1  0.15077983  0.80771816  0.80936138  1
  O  O35  1  0.49213521  0.35201656  0.93792283  1
  O  O36  1  0.65077983  0.19228184  0.19063862  1
  O  O37  1  0.88215119  0.23006003  0.52716290  1
