# generated using pymatgen
data_Cr8O21
_symmetry_space_group_name_H-M   'P 1'
_cell_length_a   5.45830143
_cell_length_b   6.74839454
_cell_length_c   12.88939796
_cell_angle_alpha   74.96547187
_cell_angle_beta   87.48164844
_cell_angle_gamma   77.08244788
_symmetry_Int_Tables_number   1
_chemical_formula_structural   Cr8O21
_chemical_formula_sum   'Cr8 O21'
_cell_volume   446.87241052
_cell_formula_units_Z   1
loop_
 _symmetry_equiv_pos_site_id
 _symmetry_equiv_pos_as_xyz
  1  'x, y, z'
loop_
 _atom_site_type_symbol
 _atom_site_label
 _atom_site_symmetry_multiplicity
 _atom_site_fract_x
 _atom_site_fract_y
 _atom_site_fract_z
 _atom_site_occupancy
  Cr  Cr0  1  0.26529890  0.73349070  0.47210087  1
  Cr  Cr1  1  0.14115054  0.85981879  0.92618633  1
  Cr  Cr2  1  0.34661022  0.11110768  0.25110417  1
  Cr  Cr3  1  0.69976504  0.66929450  0.09642875  1
  Cr  Cr4  1  0.30023496  0.33070550  0.90357125  1
  Cr  Cr5  1  0.85884946  0.14018121  0.07381367  1
  Cr  Cr6  1  0.65338978  0.88889232  0.74889583  1
  Cr  Cr7  1  0.73470110  0.26650930  0.52789913  1
  O  O8  1  0.09133816  0.15778106  0.94471084  1
  O  O9  1  0.36596594  0.35117129  0.78023331  1
  O  O10  1  0.62531962  0.06087958  0.61802998  1
  O  O11  1  0.16844724  0.56531330  0.92346492  1
  O  O12  1  0.97709084  0.30231421  0.57840799  1
  O  O13  1  0.63112562  0.09307015  0.19667261  1
  O  O14  1  0.15331423  0.04959688  0.17415026  1
  O  O15  1  0.81094995  0.19872821  0.41904926  1
  O  O16  1  0.84668577  0.95040312  0.82584974  1
  O  O17  1  0.23916782  0.34599047  0.25887380  1
  O  O18  1  0.37468038  0.93912042  0.38197002  1
  O  O19  1  0.50000000  0.50000000  0.50000000  1
  O  O20  1  0.56301791  0.22724364  0.97665249  1
  O  O21  1  0.36887438  0.90692985  0.80332739  1
  O  O22  1  0.18905005  0.80127179  0.58095074  1
  O  O23  1  0.76083218  0.65400953  0.74112620  1
  O  O24  1  0.83155276  0.43468670  0.07653508  1
  O  O25  1  0.02290916  0.69768579  0.42159201  1
  O  O26  1  0.63403406  0.64882871  0.21976669  1
  O  O27  1  0.43698209  0.77275636  0.02334751  1
  O  O28  1  0.90866184  0.84221894  0.05528916  1
