# generated using pymatgen
data_Ba4PrMn3O12
_symmetry_space_group_name_H-M   'P 1'
_cell_length_a   10.55242033
_cell_length_b   10.55242082
_cell_length_c   10.55242081
_cell_angle_alpha   32.55570504
_cell_angle_beta   32.55570109
_cell_angle_gamma   32.55570363
_symmetry_Int_Tables_number   1
_chemical_formula_structural   Ba4PrMn3O12
_chemical_formula_sum   'Ba4 Pr1 Mn3 O12'
_cell_volume   302.58737936
_cell_formula_units_Z   1
loop_
 _symmetry_equiv_pos_site_id
 _symmetry_equiv_pos_as_xyz
  1  'x, y, z'
loop_
 _atom_site_type_symbol
 _atom_site_label
 _atom_site_symmetry_multiplicity
 _atom_site_fract_x
 _atom_site_fract_y
 _atom_site_fract_z
 _atom_site_occupancy
  Ba  Ba0  1  0.27771161  0.27771161  0.27771161  1
  Ba  Ba1  1  0.13058232  0.13058232  0.13058232  1
  Ba  Ba2  1  0.72228839  0.72228839  0.72228839  1
  Ba  Ba3  1  0.86941768  0.86941768  0.86941768  1
  Pr  Pr4  1  0.00000000  0.00000000  0.00000000  1
  Mn  Mn5  1  0.58596056  0.58596056  0.58596056  1
  Mn  Mn6  1  0.41403944  0.41403944  0.41403944  1
  Mn  Mn7  1  0.50000000  0.50000000  0.50000000  1
  O  O8  1  0.39411156  0.39411156  0.83379480  1
  O  O9  1  0.16620520  0.60588844  0.60588844  1
  O  O10  1  0.22672047  0.69032397  0.22672047  1
  O  O11  1  0.69032397  0.22672047  0.22672047  1
  O  O12  1  0.83379480  0.39411156  0.39411156  1
  O  O13  1  0.77327953  0.77327953  0.30967603  1
  O  O14  1  0.60588844  0.16620520  0.60588844  1
  O  O15  1  0.22672047  0.22672047  0.69032397  1
  O  O16  1  0.30967603  0.77327953  0.77327953  1
  O  O17  1  0.39411156  0.83379480  0.39411156  1
  O  O18  1  0.60588844  0.60588844  0.16620520  1
  O  O19  1  0.77327953  0.30967603  0.77327953  1
