# generated using pymatgen
data_Na2Fe4O7
_symmetry_space_group_name_H-M   'P 1'
_cell_length_a   5.24479589
_cell_length_b   5.24472200
_cell_length_c   6.72209345
_cell_angle_alpha   89.99459444
_cell_angle_beta   90.00271455
_cell_angle_gamma   119.99955856
_symmetry_Int_Tables_number   1
_chemical_formula_structural   Na2Fe4O7
_chemical_formula_sum   'Na2 Fe4 O7'
_cell_volume   160.13570350
_cell_formula_units_Z   1
loop_
 _symmetry_equiv_pos_site_id
 _symmetry_equiv_pos_as_xyz
  1  'x, y, z'
loop_
 _atom_site_type_symbol
 _atom_site_label
 _atom_site_symmetry_multiplicity
 _atom_site_fract_x
 _atom_site_fract_y
 _atom_site_fract_z
 _atom_site_occupancy
  Na  Na0  1  0.33333664  0.66664046  0.99997851  1
  Na  Na1  1  0.66666368  0.33330504  0.99997868  1
  Fe  Fe2  1  0.00000013  0.99998631  0.27278049  1
  Fe  Fe3  1  0.00000066  0.99999198  0.72723270  1
  Fe  Fe4  1  0.33333304  0.66665048  0.49999749  1
  Fe  Fe5  1  0.66666431  0.33331653  0.49999634  1
  O  O6  1  0.00000053  0.64004308  0.32569435  1
  O  O7  1  0.00000029  0.35993479  0.67431614  1
  O  O8  1  0.00000014  0.99998511  0.00000858  1
  O  O9  1  0.35994622  0.35989812  0.32567194  1
  O  O10  1  0.64005299  0.64007424  0.67433584  1
  O  O11  1  0.35994682  0.00002189  0.67433582  1
  O  O12  1  0.64005454  0.99995295  0.32567212  1
