# generated using pymatgen
data_SiO2
_symmetry_space_group_name_H-M   'P 1'
_cell_length_a   8.14986548
_cell_length_b   9.06774014
_cell_length_c   9.06774014
_cell_angle_alpha   90.00000000
_cell_angle_beta   90.00000000
_cell_angle_gamma   90.00000000
_symmetry_Int_Tables_number   1
_chemical_formula_structural   SiO2
_chemical_formula_sum   'Si16 O32'
_cell_volume   670.11381590
_cell_formula_units_Z   16
loop_
 _symmetry_equiv_pos_site_id
 _symmetry_equiv_pos_as_xyz
  1  'x, y, z'
loop_
 _atom_site_type_symbol
 _atom_site_label
 _atom_site_symmetry_multiplicity
 _atom_site_fract_x
 _atom_site_fract_y
 _atom_site_fract_z
 _atom_site_occupancy
  Si  Si0  1  0.68719108  0.03242727  0.80539500  1
  Si  Si1  1  0.18719108  0.30539500  0.53242727  1
  Si  Si2  1  0.31280892  0.46757273  0.80539500  1
  Si  Si3  1  0.81280892  0.30539500  0.96757273  1
  Si  Si4  1  0.68719108  0.53242727  0.19460500  1
  Si  Si5  1  0.81280892  0.19460500  0.53242727  1
  Si  Si6  1  0.18719108  0.80539500  0.46757273  1
  Si  Si7  1  0.31280892  0.53242727  0.30539500  1
  Si  Si8  1  0.68719108  0.46757273  0.69460500  1
  Si  Si9  1  0.81280892  0.69460500  0.46757273  1
  Si  Si10  1  0.68719108  0.96757273  0.30539500  1
  Si  Si11  1  0.81280892  0.80539500  0.03242727  1
  Si  Si12  1  0.18719108  0.19460500  0.96757273  1
  Si  Si13  1  0.31280892  0.03242727  0.69460500  1
  Si  Si14  1  0.31280892  0.96757273  0.19460500  1
  Si  Si15  1  0.18719108  0.69460500  0.03242727  1
  O  O16  1  0.75000000  0.62021179  0.62021179  1
  O  O17  1  0.19406943  0.57322154  0.16602421  1
  O  O18  1  0.69406943  0.33397579  0.57322154  1
  O  O19  1  0.75000000  0.37978821  0.12021179  1
  O  O20  1  0.00000000  0.25000000  0.51121305  1
  O  O21  1  0.69406943  0.16602421  0.92677846  1
  O  O22  1  0.00000000  0.25000000  0.98878695  1
  O  O23  1  0.80593057  0.92677846  0.16602421  1
  O  O24  1  0.25000000  0.87978821  0.62021179  1
  O  O25  1  0.19406943  0.92677846  0.33397579  1
  O  O26  1  0.19406943  0.07322154  0.83397579  1
  O  O27  1  0.19406943  0.42677846  0.66602421  1
  O  O28  1  0.25000000  0.12021179  0.12021179  1
  O  O29  1  0.80593057  0.42677846  0.83397579  1
  O  O30  1  0.30593057  0.33397579  0.92677846  1
  O  O31  1  0.80593057  0.07322154  0.66602421  1
  O  O32  1  0.50000000  0.48878695  0.75000000  1
  O  O33  1  0.75000000  0.87978821  0.87978821  1
  O  O34  1  0.30593057  0.16602421  0.57322154  1
  O  O35  1  0.80593057  0.57322154  0.33397579  1
  O  O36  1  0.69406943  0.66602421  0.07322154  1
  O  O37  1  0.50000000  0.98878695  0.25000000  1
  O  O38  1  0.69406943  0.83397579  0.42677846  1
  O  O39  1  0.50000000  0.51121305  0.25000000  1
  O  O40  1  0.50000000  0.01121305  0.75000000  1
  O  O41  1  0.30593057  0.66602421  0.42677846  1
  O  O42  1  0.00000000  0.75000000  0.48878695  1
  O  O43  1  0.30593057  0.83397579  0.07322154  1
  O  O44  1  0.00000000  0.75000000  0.01121305  1
  O  O45  1  0.25000000  0.37978821  0.37978821  1
  O  O46  1  0.25000000  0.62021179  0.87978821  1
  O  O47  1  0.75000000  0.12021179  0.37978821  1
