# generated using pymatgen
data_CsCu(BiS2)2
_symmetry_space_group_name_H-M   'P 1'
_cell_length_a   4.08622894
_cell_length_b   7.47729213
_cell_length_c   14.79169464
_cell_angle_alpha   90.00000000
_cell_angle_beta   90.00000000
_cell_angle_gamma   105.85730976
_symmetry_Int_Tables_number   1
_chemical_formula_structural   CsCu(BiS2)2
_chemical_formula_sum   'Cs2 Cu2 Bi4 S8'
_cell_volume   434.74569779
_cell_formula_units_Z   2
loop_
 _symmetry_equiv_pos_site_id
 _symmetry_equiv_pos_as_xyz
  1  'x, y, z'
loop_
 _atom_site_type_symbol
 _atom_site_label
 _atom_site_symmetry_multiplicity
 _atom_site_fract_x
 _atom_site_fract_y
 _atom_site_fract_z
 _atom_site_occupancy
  Cs  Cs0  1  0.89276949  0.78553898  0.49945128  1
  Cs  Cs1  1  0.10723051  0.21446102  0.99945128  1
  Cu  Cu2  1  0.84536166  0.69072331  0.01177810  1
  Cu  Cu3  1  0.15463834  0.30927669  0.51177810  1
  Bi  Bi4  1  0.62315635  0.24631269  0.31243064  1
  Bi  Bi5  1  0.37684365  0.75368731  0.81243064  1
  Bi  Bi6  1  0.35510194  0.71020387  0.20357387  1
  Bi  Bi7  1  0.64489806  0.28979613  0.70357387  1
  S  S8  1  0.00618427  0.01236854  0.76393186  1
  S  S9  1  0.25383829  0.50767658  0.63882725  1
  S  S10  1  0.74616171  0.49232342  0.13882725  1
  S  S11  1  0.99381573  0.98763146  0.26393186  1
  S  S12  1  0.25528535  0.51057070  0.35587810  1
  S  S13  1  0.58786525  0.17573050  0.48952891  1
  S  S14  1  0.41213475  0.82426950  0.98952891  1
  S  S15  1  0.74471465  0.48942930  0.85587810  1
