# generated using pymatgen
data_Tb(BO2)3
_symmetry_space_group_name_H-M   'P 1'
_cell_length_a   6.16315934
_cell_length_b   7.81389313
_cell_length_c   8.34097347
_cell_angle_alpha   90.00000000
_cell_angle_beta   90.00000000
_cell_angle_gamma   90.03907753
_symmetry_Int_Tables_number   1
_chemical_formula_structural   Tb(BO2)3
_chemical_formula_sum   'Tb4 B12 O24'
_cell_volume   401.68674573
_cell_formula_units_Z   4
loop_
 _symmetry_equiv_pos_site_id
 _symmetry_equiv_pos_as_xyz
  1  'x, y, z'
loop_
 _atom_site_type_symbol
 _atom_site_label
 _atom_site_symmetry_multiplicity
 _atom_site_fract_x
 _atom_site_fract_y
 _atom_site_fract_z
 _atom_site_occupancy
  Tb  Tb0  1  0.49144457  0.24995559  0.49908514  1
  Tb  Tb1  1  0.50855543  0.75004441  0.50091486  1
  Tb  Tb2  1  0.00855543  0.75004441  0.99908514  1
  Tb  Tb3  1  0.99144457  0.24995559  0.00091486  1
  B  B4  1  0.88338885  0.49362713  0.68357796  1
  B  B5  1  0.01128745  0.75001371  0.50053692  1
  B  B6  1  0.51128745  0.75001371  0.99946308  1
  B  B7  1  0.61632290  0.99459492  0.81634102  1
  B  B8  1  0.61661115  0.50637287  0.18357796  1
  B  B9  1  0.88367710  0.00540508  0.31634102  1
  B  B10  1  0.38338885  0.49362713  0.81642204  1
  B  B11  1  0.38367710  0.00540508  0.18365898  1
  B  B12  1  0.98871255  0.24998629  0.49946308  1
  B  B13  1  0.48871255  0.24998629  0.00053692  1
  B  B14  1  0.11632290  0.99459492  0.68365898  1
  B  B15  1  0.11661115  0.50637287  0.31642204  1
  O  O16  1  0.94154227  0.99249582  0.16170459  1
  O  O17  1  0.85839619  0.86582690  0.41943335  1
  O  O18  1  0.35815857  0.63424893  0.91832499  1
  O  O19  1  0.15968198  0.83260339  0.61613437  1
  O  O20  1  0.64184143  0.36575107  0.08167501  1
  O  O21  1  0.65968198  0.83260339  0.88386563  1
  O  O22  1  0.16001386  0.66761007  0.38542890  1
  O  O23  1  0.84031802  0.16739661  0.38386563  1
  O  O24  1  0.34031802  0.16739661  0.11613437  1
  O  O25  1  0.33998614  0.33238993  0.88542890  1
  O  O26  1  0.14160381  0.13417310  0.58056665  1
  O  O27  1  0.35839619  0.86582690  0.08056665  1
  O  O28  1  0.94106568  0.50559907  0.83832472  1
  O  O29  1  0.05845773  0.00750418  0.83829541  1
  O  O30  1  0.44106568  0.50559907  0.66167528  1
  O  O31  1  0.55893432  0.49440093  0.33832472  1
  O  O32  1  0.83998614  0.33238993  0.61457110  1
  O  O33  1  0.44154227  0.99249582  0.33829541  1
  O  O34  1  0.05893432  0.49440093  0.16167528  1
  O  O35  1  0.66001386  0.66761007  0.11457110  1
  O  O36  1  0.14184143  0.36575107  0.41832499  1
  O  O37  1  0.85815857  0.63424893  0.58167501  1
  O  O38  1  0.64160381  0.13417310  0.91943335  1
  O  O39  1  0.55845773  0.00750418  0.66170459  1
