# generated using pymatgen
data_V6Fe4(CuO8)3
_symmetry_space_group_name_H-M   'P 1'
_cell_length_a   6.66607683
_cell_length_b   8.15557266
_cell_length_c   9.95437759
_cell_angle_alpha   106.78061256
_cell_angle_beta   103.04391588
_cell_angle_gamma   102.47734973
_symmetry_Int_Tables_number   1
_chemical_formula_structural   V6Fe4(CuO8)3
_chemical_formula_sum   'V6 Fe4 Cu3 O24'
_cell_volume   481.27374404
_cell_formula_units_Z   1
loop_
 _symmetry_equiv_pos_site_id
 _symmetry_equiv_pos_as_xyz
  1  'x, y, z'
loop_
 _atom_site_type_symbol
 _atom_site_label
 _atom_site_symmetry_multiplicity
 _atom_site_fract_x
 _atom_site_fract_y
 _atom_site_fract_z
 _atom_site_occupancy
  V  V0  1  0.58563379  0.26559615  0.12285195  1
  V  V1  1  0.11334372  0.10769811  0.33852493  1
  V  V2  1  0.21636156  0.65532520  0.26587910  1
  V  V3  1  0.41436621  0.73440385  0.87714805  1
  V  V4  1  0.78363844  0.34467480  0.73412090  1
  V  V5  1  0.88665628  0.89230189  0.66147507  1
  Fe  Fe6  1  0.37832995  0.94885082  0.60712040  1
  Fe  Fe7  1  0.62167005  0.05114918  0.39287960  1
  Fe  Fe8  1  0.96052739  0.79969332  0.99025606  1
  Fe  Fe9  1  0.03947261  0.20030668  0.00974394  1
  Cu  Cu10  1  0.00000000  0.50000000  0.50000000  1
  Cu  Cu11  1  0.71736916  0.70985934  0.20057899  1
  Cu  Cu12  1  0.28263084  0.29014066  0.79942101  1
  O  O13  1  0.33274993  0.03931822  0.42797405  1
  O  O14  1  0.43765253  0.85308331  0.75854868  1
  O  O15  1  0.30728403  0.51078864  0.76661199  1
  O  O16  1  0.99649442  0.28372956  0.83430767  1
  O  O17  1  0.82508792  0.56377105  0.82302792  1
  O  O18  1  0.00350558  0.71627044  0.16569233  1
  O  O19  1  0.33535787  0.22511282  0.98808985  1
  O  O20  1  0.56234747  0.14691669  0.24145132  1
  O  O21  1  0.69271597  0.48921136  0.23338801  1
  O  O22  1  0.24143743  0.79521212  0.97296840  1
  O  O23  1  0.13457831  0.32512538  0.42365150  1
  O  O24  1  0.79857359  0.30963204  0.55138395  1
  O  O25  1  0.07960970  0.06072557  0.14766363  1
  O  O26  1  0.66464213  0.77488718  0.01191015  1
  O  O27  1  0.17491208  0.43622895  0.17697208  1
  O  O28  1  0.86542169  0.67487462  0.57634850  1
  O  O29  1  0.92039030  0.93927443  0.85233637  1
  O  O30  1  0.47386302  0.77106579  0.26485986  1
  O  O31  1  0.66725007  0.96068178  0.57202595  1
  O  O32  1  0.75856257  0.20478788  0.02703160  1
  O  O33  1  0.87600635  0.98319240  0.35080747  1
  O  O34  1  0.52613698  0.22893421  0.73514014  1
  O  O35  1  0.20142641  0.69036796  0.44861605  1
  O  O36  1  0.12399365  0.01680760  0.64919253  1
