# generated using pymatgen
data_Nb6Tl2VCl18
_symmetry_space_group_name_H-M   'P 1'
_cell_length_a   10.06554929
_cell_length_b   10.06554915
_cell_length_c   10.06554966
_cell_angle_alpha   54.98439567
_cell_angle_beta   54.98439625
_cell_angle_gamma   54.98439660
_symmetry_Int_Tables_number   1
_chemical_formula_structural   Nb6Tl2VCl18
_chemical_formula_sum   'Nb6 Tl2 V1 Cl18'
_cell_volume   636.94656544
_cell_formula_units_Z   1
loop_
 _symmetry_equiv_pos_site_id
 _symmetry_equiv_pos_as_xyz
  1  'x, y, z'
loop_
 _atom_site_type_symbol
 _atom_site_label
 _atom_site_symmetry_multiplicity
 _atom_site_fract_x
 _atom_site_fract_y
 _atom_site_fract_z
 _atom_site_occupancy
  Nb  Nb0  1  0.65446316  0.40836233  0.29613988  1
  Nb  Nb1  1  0.59163767  0.70386012  0.34553684  1
  Nb  Nb2  1  0.70386012  0.34553684  0.59163767  1
  Nb  Nb3  1  0.34553684  0.59163767  0.70386012  1
  Nb  Nb4  1  0.29613988  0.65446316  0.40836233  1
  Nb  Nb5  1  0.40836233  0.29613988  0.65446316  1
  Tl  Tl6  1  0.27795621  0.27795621  0.27795621  1
  Tl  Tl7  1  0.72204379  0.72204379  0.72204379  1
  V  V8  1  0.00000000  0.00000000  0.00000000  1
  Cl  Cl9  1  0.07808966  0.78387406  0.63521751  1
  Cl  Cl10  1  0.42660959  0.84632260  0.55939330  1
  Cl  Cl11  1  0.63521751  0.07808966  0.78387406  1
  Cl  Cl12  1  0.55939330  0.42660959  0.84632260  1
  Cl  Cl13  1  0.29445873  0.03088194  0.84720092  1
  Cl  Cl14  1  0.21612594  0.36478249  0.92191034  1
  Cl  Cl15  1  0.92191034  0.21612594  0.36478249  1
  Cl  Cl16  1  0.03088194  0.84720092  0.29445873  1
  Cl  Cl17  1  0.44060670  0.57339041  0.15367740  1
  Cl  Cl18  1  0.96911806  0.15279908  0.70554127  1
  Cl  Cl19  1  0.84632260  0.55939330  0.42660959  1
  Cl  Cl20  1  0.78387406  0.63521751  0.07808966  1
  Cl  Cl21  1  0.15367740  0.44060670  0.57339041  1
  Cl  Cl22  1  0.70554127  0.96911806  0.15279908  1
  Cl  Cl23  1  0.57339041  0.15367740  0.44060670  1
  Cl  Cl24  1  0.36478249  0.92191034  0.21612594  1
  Cl  Cl25  1  0.15279908  0.70554127  0.96911806  1
  Cl  Cl26  1  0.84720092  0.29445873  0.03088194  1
