# generated using pymatgen
data_Br
_symmetry_space_group_name_H-M   'P 1'
_cell_length_a   13.53304438
_cell_length_b   13.53304481
_cell_length_c   17.49476968
_cell_angle_alpha   102.10853361
_cell_angle_beta   102.10853571
_cell_angle_gamma   117.23601692
_symmetry_Int_Tables_number   1
_chemical_formula_structural   Br
_chemical_formula_sum   Br32
_cell_volume   2607.46140981
_cell_formula_units_Z   32
loop_
 _symmetry_equiv_pos_site_id
 _symmetry_equiv_pos_as_xyz
  1  'x, y, z'
loop_
 _atom_site_type_symbol
 _atom_site_label
 _atom_site_symmetry_multiplicity
 _atom_site_fract_x
 _atom_site_fract_y
 _atom_site_fract_z
 _atom_site_occupancy
  Br  Br0  1  0.18140583  0.02219618  0.88412829  1
  Br  Br1  1  0.13806789  0.79727654  0.61587171  1
  Br  Br2  1  0.97780382  0.81859417  0.61587171  1
  Br  Br3  1  0.20272346  0.86193211  0.88412829  1
  Br  Br4  1  0.81859417  0.97780382  0.11587171  1
  Br  Br5  1  0.86193211  0.20272346  0.38412829  1
  Br  Br6  1  0.02219618  0.18140583  0.38412829  1
  Br  Br7  1  0.79727654  0.13806789  0.11587171  1
  Br  Br8  1  0.31376395  0.31431087  0.02638642  1
  Br  Br9  1  0.28792444  0.78737752  0.47361358  1
  Br  Br10  1  0.68568913  0.68623605  0.47361358  1
  Br  Br11  1  0.21262248  0.71207556  0.02638642  1
  Br  Br12  1  0.68623605  0.68568913  0.97361358  1
  Br  Br13  1  0.71207556  0.21262248  0.52638642  1
  Br  Br14  1  0.31431087  0.31376395  0.52638642  1
  Br  Br15  1  0.78737752  0.28792444  0.97361358  1
  Br  Br16  1  0.27141826  0.36183416  0.14477678  1
  Br  Br17  1  0.21705738  0.62664148  0.35522322  1
  Br  Br18  1  0.63816584  0.72858174  0.35522322  1
  Br  Br19  1  0.37335852  0.78294262  0.14477678  1
  Br  Br20  1  0.72858174  0.63816584  0.85522322  1
  Br  Br21  1  0.78294262  0.37335852  0.64477678  1
  Br  Br22  1  0.36183416  0.27141826  0.64477678  1
  Br  Br23  1  0.62664148  0.21705738  0.85522322  1
  Br  Br24  1  0.39697826  0.22762280  0.27789031  1
  Br  Br25  1  0.94973150  0.61908795  0.22210969  1
  Br  Br26  1  0.77237720  0.60302174  0.22210969  1
  Br  Br27  1  0.38091205  0.05026850  0.27789031  1
  Br  Br28  1  0.60302174  0.77237720  0.72210969  1
  Br  Br29  1  0.05026850  0.38091205  0.77789031  1
  Br  Br30  1  0.22762280  0.39697826  0.77789031  1
  Br  Br31  1  0.61908795  0.94973150  0.72210969  1
