# generated using pymatgen
data_Ca5W(N2O)2
_symmetry_space_group_name_H-M   'P 1'
_cell_length_a   6.14827675
_cell_length_b   6.79737882
_cell_length_c   8.52663454
_cell_angle_alpha   90.00000000
_cell_angle_beta   90.81913309
_cell_angle_gamma   90.00000000
_symmetry_Int_Tables_number   1
_chemical_formula_structural   Ca5W(N2O)2
_chemical_formula_sum   'Ca10 W2 N8 O4'
_cell_volume   356.31011087
_cell_formula_units_Z   2
loop_
 _symmetry_equiv_pos_site_id
 _symmetry_equiv_pos_as_xyz
  1  'x, y, z'
loop_
 _atom_site_type_symbol
 _atom_site_label
 _atom_site_symmetry_multiplicity
 _atom_site_fract_x
 _atom_site_fract_y
 _atom_site_fract_z
 _atom_site_occupancy
  Ca  Ca0  1  0.72909410  0.51051794  0.33313148  1
  Ca  Ca1  1  0.50231252  0.25000000  0.01665947  1
  Ca  Ca2  1  0.27090590  0.48948206  0.66686852  1
  Ca  Ca3  1  0.49768748  0.75000000  0.98334053  1
  Ca  Ca4  1  0.00000000  0.50000000  0.00000000  1
  Ca  Ca5  1  0.19412341  0.25000000  0.33014941  1
  Ca  Ca6  1  0.00000000  0.00000000  0.00000000  1
  Ca  Ca7  1  0.72909410  0.98948206  0.33313148  1
  Ca  Ca8  1  0.27090590  0.01051794  0.66686852  1
  Ca  Ca9  1  0.80587659  0.75000000  0.66985059  1
  W  W10  1  0.72139340  0.25000000  0.67726953  1
  W  W11  1  0.27860660  0.75000000  0.32273047  1
  N  N12  1  0.66679321  0.02438041  0.80946389  1
  N  N13  1  0.97778856  0.25000000  0.55577546  1
  N  N14  1  0.33320679  0.52438041  0.19053611  1
  N  N15  1  0.02221144  0.75000000  0.44422454  1
  N  N16  1  0.66679321  0.47561959  0.80946389  1
  N  N17  1  0.33320679  0.97561959  0.19053611  1
  N  N18  1  0.50210367  0.75000000  0.47670829  1
  N  N19  1  0.49789633  0.25000000  0.52329171  1
  O  O20  1  0.84684425  0.25000000  0.17161352  1
  O  O21  1  0.80538380  0.75000000  0.12622474  1
  O  O22  1  0.19461620  0.25000000  0.87377526  1
  O  O23  1  0.15315575  0.75000000  0.82838648  1
