# generated using pymatgen
data_Cr(PO3)3
_symmetry_space_group_name_H-M   'P 1'
_cell_length_a   6.53741010
_cell_length_b   7.41150184
_cell_length_c   8.41914840
_cell_angle_alpha   73.79979116
_cell_angle_beta   67.15456276
_cell_angle_gamma   63.83029361
_symmetry_Int_Tables_number   1
_chemical_formula_structural   Cr(PO3)3
_chemical_formula_sum   'Cr2 P6 O18'
_cell_volume   334.51372154
_cell_formula_units_Z   2
loop_
 _symmetry_equiv_pos_site_id
 _symmetry_equiv_pos_as_xyz
  1  'x, y, z'
loop_
 _atom_site_type_symbol
 _atom_site_label
 _atom_site_symmetry_multiplicity
 _atom_site_fract_x
 _atom_site_fract_y
 _atom_site_fract_z
 _atom_site_occupancy
  Cr  Cr0  1  0.00000000  0.50000000  0.00000000  1
  Cr  Cr1  1  0.50000000  0.00000000  0.50000000  1
  P  P2  1  0.20787388  0.45032647  0.32285384  1
  P  P3  1  0.98105419  0.04967353  0.17714616  1
  P  P4  1  0.01894581  0.95032647  0.82285384  1
  P  P5  1  0.54841227  0.25000000  0.75000000  1
  P  P6  1  0.45158773  0.75000000  0.25000000  1
  P  P7  1  0.79212612  0.54967353  0.67714616  1
  O  O8  1  0.88986452  0.45333421  0.82773021  1
  O  O9  1  0.67107516  0.69867928  0.09535608  1
  O  O10  1  0.25272435  0.93433626  0.17602301  1
  O  O11  1  0.53488948  0.19867928  0.59535608  1
  O  O12  1  0.63691639  0.43433626  0.67602301  1
  O  O13  1  0.11013548  0.54666579  0.17226979  1
  O  O14  1  0.82907106  0.95333421  0.32773021  1
  O  O15  1  0.91268631  0.27357342  0.16724066  1
  O  O16  1  0.36308361  0.56566374  0.32397699  1
  O  O17  1  0.74727565  0.06566374  0.82397699  1
  O  O18  1  0.46511052  0.80132072  0.40464392  1
  O  O19  1  0.08731369  0.72642658  0.83275934  1
  O  O20  1  0.17092894  0.04666579  0.67226979  1
  O  O21  1  0.32892484  0.30132072  0.90464392  1
  O  O22  1  0.64649960  0.77357342  0.66724066  1
  O  O23  1  0.00000000  0.00000000  0.00000000  1
  O  O24  1  0.00000000  0.50000000  0.50000000  1
  O  O25  1  0.35350040  0.22642658  0.33275934  1
