# generated using pymatgen
data_RbSi2H18C6N
_symmetry_space_group_name_H-M   'P 1'
_cell_length_a   9.12419713
_cell_length_b   10.70640082
_cell_length_c   13.13187553
_cell_angle_alpha   100.15333316
_cell_angle_beta   90.00000000
_cell_angle_gamma   90.00000000
_symmetry_Int_Tables_number   1
_chemical_formula_structural   RbSi2H18C6N
_chemical_formula_sum   'Rb4 Si8 H72 C24 N4'
_cell_volume   1262.72807104
_cell_formula_units_Z   4
loop_
 _symmetry_equiv_pos_site_id
 _symmetry_equiv_pos_as_xyz
  1  'x, y, z'
loop_
 _atom_site_type_symbol
 _atom_site_label
 _atom_site_symmetry_multiplicity
 _atom_site_fract_x
 _atom_site_fract_y
 _atom_site_fract_z
 _atom_site_occupancy
  Rb  Rb0  1  0.05559589  0.56992709  0.87026872  1
  Rb  Rb1  1  0.55559589  0.43007291  0.62973128  1
  Rb  Rb2  1  0.44440411  0.56992709  0.37026872  1
  Rb  Rb3  1  0.94440411  0.43007291  0.12973128  1
  Si  Si4  1  0.74555436  0.70850371  0.05173605  1
  Si  Si5  1  0.94505938  0.21361322  0.86777549  1
  Si  Si6  1  0.44505938  0.78638678  0.63222451  1
  Si  Si7  1  0.55494062  0.21361322  0.36777549  1
  Si  Si8  1  0.25444564  0.29149629  0.94826395  1
  Si  Si9  1  0.24555436  0.29149629  0.44826395  1
  Si  Si10  1  0.05494062  0.78638678  0.13222451  1
  Si  Si11  1  0.75444564  0.70850371  0.55173605  1
  H  H12  1  0.72402214  0.21378887  0.21616716  1
  H  H13  1  0.31740499  0.62809191  0.72328344  1
  H  H14  1  0.81740499  0.37190809  0.77671656  1
  H  H15  1  0.74154914  0.89018463  0.95433797  1
  H  H16  1  0.22109930  0.71197306  0.52250324  1
  H  H17  1  0.27597786  0.78621113  0.78383284  1
  H  H18  1  0.09948427  0.04119370  0.76261721  1
  H  H19  1  0.69354526  0.15695057  0.52075259  1
  H  H20  1  0.93536345  0.86486330  0.50351486  1
  H  H21  1  0.70083360  0.94515492  0.08653402  1
  H  H22  1  0.79916640  0.94515492  0.58653402  1
  H  H23  1  0.40051573  0.04119370  0.26261721  1
  H  H24  1  0.41487300  0.00849856  0.73007998  1
  H  H25  1  0.70703304  0.48856908  0.94330637  1
  H  H26  1  0.68259501  0.37190809  0.27671656  1
  H  H27  1  0.20703304  0.51143092  0.55669363  1
  H  H28  1  0.24154914  0.10981537  0.54566203  1
  H  H29  1  0.27890070  0.71197306  0.02250324  1
  H  H30  1  0.78673086  0.60752388  0.36403292  1
  H  H31  1  0.44722110  0.71835371  0.80826472  1
  H  H32  1  0.19354526  0.84304943  0.97924741  1
  H  H33  1  0.90051573  0.95880630  0.23738279  1
  H  H34  1  0.56463655  0.86486330  0.00351486  1
  H  H35  1  0.51346538  0.70263410  0.15702834  1
  H  H36  1  0.19630625  0.86716864  0.59140523  1
  H  H37  1  0.58512700  0.99150144  0.26992002  1
  H  H38  1  0.44638989  0.41227490  0.06410392  1
  H  H39  1  0.25845086  0.10981537  0.04566203  1
  H  H40  1  0.80369375  0.13283136  0.40859477  1
  H  H41  1  0.80645474  0.15695057  0.02075259  1
  H  H42  1  0.13604166  0.42021432  0.32319386  1
  H  H43  1  0.16912314  0.26029072  0.26079860  1
  H  H44  1  0.30369375  0.86716864  0.09140523  1
  H  H45  1  0.66912314  0.73970928  0.23920140  1
  H  H46  1  0.72109930  0.28802694  0.97749676  1
  H  H47  1  0.01346538  0.29736590  0.34297166  1
  H  H48  1  0.55361011  0.58772510  0.93589608  1
  H  H49  1  0.22402214  0.78621113  0.28383284  1
  H  H50  1  0.28673086  0.39247612  0.13596708  1
  H  H51  1  0.79296696  0.48856908  0.44330637  1
  H  H52  1  0.96618806  0.00637715  0.12254892  1
  H  H53  1  0.94638989  0.58772510  0.43589608  1
  H  H54  1  0.08512700  0.00849856  0.23007998  1
  H  H55  1  0.29296696  0.51143092  0.05669363  1
  H  H56  1  0.05277890  0.71835371  0.30826472  1
  H  H57  1  0.48653462  0.29736590  0.84297166  1
  H  H58  1  0.91487300  0.99150144  0.76992002  1
  H  H59  1  0.63604166  0.57978568  0.17680614  1
  H  H60  1  0.77890070  0.28802694  0.47749676  1
  H  H61  1  0.43536345  0.13513670  0.99648514  1
  H  H62  1  0.30645474  0.84304943  0.47924741  1
  H  H63  1  0.18259501  0.62809191  0.22328344  1
  H  H64  1  0.06463655  0.13513670  0.49648514  1
  H  H65  1  0.77597786  0.21378887  0.71616716  1
  H  H66  1  0.94722110  0.28164629  0.69173528  1
  H  H67  1  0.71326914  0.60752388  0.86403292  1
  H  H68  1  0.33087686  0.26029072  0.76079860  1
  H  H69  1  0.86395834  0.57978568  0.67680614  1
  H  H70  1  0.03381194  0.99362285  0.87745108  1
  H  H71  1  0.29916640  0.05484508  0.91346598  1
  H  H72  1  0.83087686  0.73970928  0.73920140  1
  H  H73  1  0.36395834  0.42021432  0.82319386  1
  H  H74  1  0.59948427  0.95880630  0.73738279  1
  H  H75  1  0.98653462  0.70263410  0.65702834  1
  H  H76  1  0.53381194  0.00637715  0.62254892  1
  H  H77  1  0.21326914  0.39247612  0.63596708  1
  H  H78  1  0.46618806  0.99362285  0.37745108  1
  H  H79  1  0.20083360  0.05484508  0.41346598  1
  H  H80  1  0.05361011  0.41227490  0.56410392  1
  H  H81  1  0.69630625  0.13283136  0.90859477  1
  H  H82  1  0.55277890  0.28164629  0.19173528  1
  H  H83  1  0.75845086  0.89018463  0.45433797  1
  C  C84  1  0.50427564  0.95553903  0.68551985  1
  C  C85  1  0.77801799  0.19709999  0.95166525  1
  C  C86  1  0.87029430  0.68008641  0.66745166  1
  C  C87  1  0.37029430  0.31991359  0.83254834  1
  C  C88  1  0.68256480  0.86669826  0.02161568  1
  C  C89  1  0.86463956  0.27651497  0.75191292  1
  C  C90  1  0.17415998  0.41364259  0.56137050  1
  C  C91  1  0.12970570  0.31991359  0.33254834  1
  C  C92  1  0.49572436  0.04446097  0.31448015  1
  C  C93  1  0.82584002  0.58635741  0.43862950  1
  C  C94  1  0.81743520  0.86669826  0.52161568  1
  C  C95  1  0.62970570  0.68008641  0.16745166  1
  C  C96  1  0.31743520  0.13330174  0.97838432  1
  C  C97  1  0.63536044  0.27651497  0.25191292  1
  C  C98  1  0.72198201  0.19709999  0.45166525  1
  C  C99  1  0.67415998  0.58635741  0.93862950  1
  C  C100  1  0.32584002  0.41364259  0.06137050  1
  C  C101  1  0.00427564  0.04446097  0.81448015  1
  C  C102  1  0.18256480  0.13330174  0.47838432  1
  C  C103  1  0.36463956  0.72348503  0.74808708  1
  C  C104  1  0.22198201  0.80290001  0.04833475  1
  C  C105  1  0.27801799  0.80290001  0.54833475  1
  C  C106  1  0.99572436  0.95553903  0.18551985  1
  C  C107  1  0.13536044  0.72348503  0.24808708  1
  N  N108  1  0.92725216  0.68753153  0.06791749  1
  N  N109  1  0.07274784  0.31246847  0.93208251  1
  N  N110  1  0.57274784  0.68753153  0.56791749  1
  N  N111  1  0.42725216  0.31246847  0.43208251  1
