# generated using pymatgen
data_LiMoAsO6
_symmetry_space_group_name_H-M   'P 1'
_cell_length_a   5.23351296
_cell_length_b   8.70693945
_cell_length_c   10.49866493
_cell_angle_alpha   90.00000000
_cell_angle_beta   95.18567610
_cell_angle_gamma   90.00000000
_symmetry_Int_Tables_number   1
_chemical_formula_structural   LiMoAsO6
_chemical_formula_sum   'Li4 Mo4 As4 O24'
_cell_volume   476.44382227
_cell_formula_units_Z   4
loop_
 _symmetry_equiv_pos_site_id
 _symmetry_equiv_pos_as_xyz
  1  'x, y, z'
loop_
 _atom_site_type_symbol
 _atom_site_label
 _atom_site_symmetry_multiplicity
 _atom_site_fract_x
 _atom_site_fract_y
 _atom_site_fract_z
 _atom_site_occupancy
  Li  Li0  1  0.68896263  0.09381845  0.10294123  1
  Li  Li1  1  0.03441986  0.26445627  0.39015742  1
  Li  Li2  1  0.31103737  0.59381845  0.89705877  1
  Li  Li3  1  0.96558014  0.76445627  0.60984258  1
  Mo  Mo4  1  0.88215219  0.41914688  0.66425855  1
  Mo  Mo5  1  0.32300723  0.43258236  0.15664085  1
  Mo  Mo6  1  0.67699277  0.93258236  0.84335915  1
  Mo  Mo7  1  0.11784781  0.91914688  0.33574145  1
  As  As8  1  0.84200318  0.69803961  0.10622614  1
  As  As9  1  0.62175022  0.07435321  0.53593420  1
  As  As10  1  0.15799682  0.19803961  0.89377386  1
  As  As11  1  0.37824978  0.57435321  0.46406580  1
  O  O12  1  0.06762313  0.57140672  0.73350181  1
  O  O13  1  0.95718194  0.88754521  0.77348455  1
  O  O14  1  0.39212435  0.06548455  0.93108391  1
  O  O15  1  0.60787565  0.56548455  0.06891609  1
  O  O16  1  0.87127803  0.13409408  0.93845828  1
  O  O17  1  0.67751762  0.57705601  0.55059117  1
  O  O18  1  0.82137266  0.93232709  0.49450454  1
  O  O19  1  0.32248238  0.07705601  0.44940883  1
  O  O20  1  0.75603781  0.25389493  0.51685200  1
  O  O21  1  0.12872197  0.63409408  0.06154172  1
  O  O22  1  0.93237687  0.07140672  0.26649819  1
  O  O23  1  0.45902965  0.55395641  0.30859349  1
  O  O24  1  0.17862734  0.43232709  0.50549546  1
  O  O25  1  0.77280854  0.87253785  0.03127097  1
  O  O26  1  0.22719146  0.37253785  0.96872903  1
  O  O27  1  0.49870662  0.26343871  0.17924455  1
  O  O28  1  0.64881702  0.39418450  0.76686894  1
  O  O29  1  0.50129338  0.76343871  0.82075545  1
  O  O30  1  0.89111802  0.74827715  0.26759712  1
  O  O31  1  0.04281806  0.38754521  0.22651545  1
  O  O32  1  0.54097035  0.05395641  0.69140651  1
  O  O33  1  0.10888198  0.24827715  0.73240288  1
  O  O34  1  0.24396219  0.75389493  0.48314800  1
  O  O35  1  0.35118298  0.89418450  0.23313106  1
