# generated using pymatgen
data_Sm26Ga6Co11
_symmetry_space_group_name_H-M   'P 1'
_cell_length_a   11.65664103
_cell_length_b   11.65664103
_cell_length_c   15.24040098
_cell_angle_alpha   90.00000000
_cell_angle_beta   90.00000000
_cell_angle_gamma   90.00000000
_symmetry_Int_Tables_number   1
_chemical_formula_structural   Sm26Ga6Co11
_chemical_formula_sum   'Sm52 Ga12 Co22'
_cell_volume   2070.82423283
_cell_formula_units_Z   2
loop_
 _symmetry_equiv_pos_site_id
 _symmetry_equiv_pos_as_xyz
  1  'x, y, z'
loop_
 _atom_site_type_symbol
 _atom_site_label
 _atom_site_symmetry_multiplicity
 _atom_site_fract_x
 _atom_site_fract_y
 _atom_site_fract_z
 _atom_site_occupancy
  Sm  Sm0  1  0.92042021  0.79498686  0.31126160  1
  Sm  Sm1  1  0.20501314  0.92042021  0.31126160  1
  Sm  Sm2  1  0.65759655  0.15759655  0.00000000  1
  Sm  Sm3  1  0.92762760  0.20108641  0.88489575  1
  Sm  Sm4  1  0.34240345  0.84240345  0.00000000  1
  Sm  Sm5  1  0.57237240  0.70108641  0.88489575  1
  Sm  Sm6  1  0.57957979  0.29498686  0.68873840  1
  Sm  Sm7  1  0.42762760  0.29891359  0.88489575  1
  Sm  Sm8  1  0.29603471  0.58371805  0.50000000  1
  Sm  Sm9  1  0.41628195  0.29603471  0.50000000  1
  Sm  Sm10  1  0.20501314  0.92042021  0.68873840  1
  Sm  Sm11  1  0.58371805  0.70396529  0.50000000  1
  Sm  Sm12  1  0.50000000  0.00000000  0.15705483  1
  Sm  Sm13  1  0.42042021  0.70501314  0.31126160  1
  Sm  Sm14  1  0.50000000  0.00000000  0.84294517  1
  Sm  Sm15  1  0.00000000  0.50000000  0.38394357  1
  Sm  Sm16  1  0.08371805  0.79603471  0.50000000  1
  Sm  Sm17  1  0.79498686  0.07957979  0.31126160  1
  Sm  Sm18  1  0.29498686  0.42042021  0.68873840  1
  Sm  Sm19  1  0.84240345  0.65759655  0.00000000  1
  Sm  Sm20  1  0.07957979  0.20501314  0.68873840  1
  Sm  Sm21  1  0.00000000  0.50000000  0.15705483  1
  Sm  Sm22  1  0.70108641  0.42762760  0.11510425  1
  Sm  Sm23  1  0.00000000  0.50000000  0.61605643  1
  Sm  Sm24  1  0.07237240  0.79891359  0.11510425  1
  Sm  Sm25  1  0.91628195  0.20396529  0.50000000  1
  Sm  Sm26  1  0.70501314  0.57957979  0.31126160  1
  Sm  Sm27  1  0.42762760  0.29891359  0.11510425  1
  Sm  Sm28  1  0.20108641  0.07237240  0.11510425  1
  Sm  Sm29  1  0.70501314  0.57957979  0.68873840  1
  Sm  Sm30  1  0.92762760  0.20108641  0.11510425  1
  Sm  Sm31  1  0.79603471  0.91628195  0.50000000  1
  Sm  Sm32  1  0.57957979  0.29498686  0.31126160  1
  Sm  Sm33  1  0.20108641  0.07237240  0.88489575  1
  Sm  Sm34  1  0.70396529  0.41628195  0.50000000  1
  Sm  Sm35  1  0.07237240  0.79891359  0.88489575  1
  Sm  Sm36  1  0.00000000  0.50000000  0.84294517  1
  Sm  Sm37  1  0.79891359  0.92762760  0.88489575  1
  Sm  Sm38  1  0.57237240  0.70108641  0.11510425  1
  Sm  Sm39  1  0.50000000  0.00000000  0.38394357  1
  Sm  Sm40  1  0.29891359  0.57237240  0.11510425  1
  Sm  Sm41  1  0.07957979  0.20501314  0.31126160  1
  Sm  Sm42  1  0.29498686  0.42042021  0.31126160  1
  Sm  Sm43  1  0.79498686  0.07957979  0.68873840  1
  Sm  Sm44  1  0.92042021  0.79498686  0.68873840  1
  Sm  Sm45  1  0.70108641  0.42762760  0.88489575  1
  Sm  Sm46  1  0.15759655  0.34240345  0.00000000  1
  Sm  Sm47  1  0.20396529  0.08371805  0.50000000  1
  Sm  Sm48  1  0.50000000  0.00000000  0.61605643  1
  Sm  Sm49  1  0.42042021  0.70501314  0.68873840  1
  Sm  Sm50  1  0.29891359  0.57237240  0.88489575  1
  Sm  Sm51  1  0.79891359  0.92762760  0.11510425  1
  Ga  Ga52  1  0.83756278  0.33756278  0.29070716  1
  Ga  Ga53  1  0.15164637  0.34835363  0.50000000  1
  Ga  Ga54  1  0.33756278  0.16243722  0.29070716  1
  Ga  Ga55  1  0.16243722  0.66243722  0.29070716  1
  Ga  Ga56  1  0.16243722  0.66243722  0.70929284  1
  Ga  Ga57  1  0.33756278  0.16243722  0.70929284  1
  Ga  Ga58  1  0.34835363  0.84835363  0.50000000  1
  Ga  Ga59  1  0.65164637  0.15164637  0.50000000  1
  Ga  Ga60  1  0.66243722  0.83756278  0.70929284  1
  Ga  Ga61  1  0.66243722  0.83756278  0.29070716  1
  Ga  Ga62  1  0.84835363  0.65164637  0.50000000  1
  Ga  Ga63  1  0.83756278  0.33756278  0.70929284  1
  Co  Co64  1  0.09436826  0.59436826  0.00000000  1
  Co  Co65  1  0.80645403  0.69354597  0.17940750  1
  Co  Co66  1  0.59436826  0.90563174  0.00000000  1
  Co  Co67  1  0.50000000  0.50000000  0.58944311  1
  Co  Co68  1  0.50000000  0.50000000  0.22582022  1
  Co  Co69  1  0.00000000  0.00000000  0.58944311  1
  Co  Co70  1  0.00000000  0.00000000  0.41055689  1
  Co  Co71  1  0.00000000  0.00000000  0.22582022  1
  Co  Co72  1  0.50000000  0.50000000  0.41055689  1
  Co  Co73  1  0.50000000  0.50000000  0.77417978  1
  Co  Co74  1  0.69354597  0.19354597  0.82059250  1
  Co  Co75  1  0.69354597  0.19354597  0.17940750  1
  Co  Co76  1  0.40563174  0.09436826  0.00000000  1
  Co  Co77  1  0.00000000  0.00000000  0.00000000  1
  Co  Co78  1  0.19354597  0.30645403  0.82059250  1
  Co  Co79  1  0.00000000  0.00000000  0.77417978  1
  Co  Co80  1  0.90563174  0.40563174  0.00000000  1
  Co  Co81  1  0.19354597  0.30645403  0.17940750  1
  Co  Co82  1  0.50000000  0.50000000  0.00000000  1
  Co  Co83  1  0.30645403  0.80645403  0.82059250  1
  Co  Co84  1  0.80645403  0.69354597  0.82059250  1
  Co  Co85  1  0.30645403  0.80645403  0.17940750  1
