# generated using pymatgen
data_Li6Br3N
_symmetry_space_group_name_H-M   'P 1'
_cell_length_a   6.27188059
_cell_length_b   6.38385360
_cell_length_c   9.05408896
_cell_angle_alpha   90.00000000
_cell_angle_beta   90.34539779
_cell_angle_gamma   90.00000000
_symmetry_Int_Tables_number   1
_chemical_formula_structural   Li6Br3N
_chemical_formula_sum   'Li12 Br6 N2'
_cell_volume   362.50797574
_cell_formula_units_Z   2
loop_
 _symmetry_equiv_pos_site_id
 _symmetry_equiv_pos_as_xyz
  1  'x, y, z'
loop_
 _atom_site_type_symbol
 _atom_site_label
 _atom_site_symmetry_multiplicity
 _atom_site_fract_x
 _atom_site_fract_y
 _atom_site_fract_z
 _atom_site_occupancy
  Li  Li0  1  0.40207573  0.43763271  0.69986221  1
  Li  Li1  1  0.74898015  0.82931332  0.96476838  1
  Li  Li2  1  0.25101985  0.17068668  0.03523162  1
  Li  Li3  1  0.24898015  0.67068668  0.46476838  1
  Li  Li4  1  0.75101985  0.32931332  0.53523162  1
  Li  Li5  1  0.16729630  0.76400185  0.07437861  1
  Li  Li6  1  0.09792427  0.93763271  0.80013779  1
  Li  Li7  1  0.66729630  0.73599815  0.57437861  1
  Li  Li8  1  0.59792427  0.56236729  0.30013779  1
  Li  Li9  1  0.90207573  0.06236729  0.19986221  1
  Li  Li10  1  0.83270370  0.23599815  0.92562139  1
  Li  Li11  1  0.33270370  0.26400185  0.42562139  1
  Br  Br12  1  0.00775235  0.48179001  0.25714454  1
  Br  Br13  1  0.99224765  0.51820999  0.74285546  1
  Br  Br14  1  0.50775235  0.01820999  0.75714454  1
  Br  Br15  1  0.49224765  0.98179001  0.24285546  1
  Br  Br16  1  0.50000000  0.50000000  0.00000000  1
  Br  Br17  1  0.00000000  0.00000000  0.50000000  1
  N  N18  1  0.50000000  0.50000000  0.50000000  1
  N  N19  1  0.00000000  0.00000000  0.00000000  1
