# generated using pymatgen
data_Ba5Eu8Zn4O21
_symmetry_space_group_name_H-M   'P 1'
_cell_length_a   5.83809326
_cell_length_b   10.43343042
_cell_length_c   10.43855644
_cell_angle_alpha   85.53278671
_cell_angle_beta   73.75456952
_cell_angle_gamma   73.75453489
_symmetry_Int_Tables_number   1
_chemical_formula_structural   Ba5Eu8Zn4O21
_chemical_formula_sum   'Ba5 Eu8 Zn4 O21'
_cell_volume   586.06561932
_cell_formula_units_Z   1
loop_
 _symmetry_equiv_pos_site_id
 _symmetry_equiv_pos_as_xyz
  1  'x, y, z'
loop_
 _atom_site_type_symbol
 _atom_site_label
 _atom_site_symmetry_multiplicity
 _atom_site_fract_x
 _atom_site_fract_y
 _atom_site_fract_z
 _atom_site_occupancy
  Eu  Eu0  1  0.64169168  0.76854077  0.94807674  1
  Eu  Eu1  1  0.83420102  0.41612165  0.91534342  1
  Eu  Eu2  1  0.58965401  0.05190218  0.76858776  1
  Eu  Eu3  1  0.35830832  0.23145923  0.05192326  1
  Eu  Eu4  1  0.41034599  0.94809782  0.23141224  1
  Eu  Eu5  1  0.25035369  0.91530378  0.58388281  1
  Eu  Eu6  1  0.16579898  0.58387835  0.08465658  1
  Eu  Eu7  1  0.74964631  0.08469622  0.41611719  1
  Ba  Ba8  1  0.13826132  0.32989816  0.39364813  1
  Ba  Ba9  1  0.46804866  0.39371362  0.67017391  1
  Ba  Ba10  1  0.00000000  0.00000000  0.00000000  1
  Ba  Ba11  1  0.53195134  0.60628638  0.32982609  1
  Ba  Ba12  1  0.86173868  0.67010184  0.60635187  1
  Zn  Zn13  1  0.04212192  0.21060927  0.70516491  1
  Zn  Zn14  1  0.74733576  0.29481966  0.21058514  1
  Zn  Zn15  1  0.25266424  0.70518034  0.78941486  1
  Zn  Zn16  1  0.95787808  0.78939073  0.29483509  1
  O  O17  1  0.01741415  0.59294040  0.88531986  1
  O  O18  1  0.79913720  0.77602491  0.13523951  1
  O  O19  1  0.93427171  0.86485743  0.77599254  1
  O  O20  1  0.42487185  0.86471590  0.77602294  1
  O  O21  1  0.06572829  0.13514257  0.22400746  1
  O  O22  1  0.38985511  0.11458884  0.59301451  1
  O  O23  1  0.20086280  0.22397509  0.86476049  1
  O  O24  1  0.37481364  0.65648044  0.59402577  1
  O  O25  1  0.03125701  0.59399724  0.34354208  1
  O  O26  1  0.90274722  0.11466633  0.59299791  1
  O  O27  1  0.96874299  0.40600276  0.65645792  1
  O  O28  1  0.57512815  0.13528410  0.22397706  1
  O  O29  1  0.50429558  0.59299055  0.88543198  1
  O  O30  1  0.71028353  0.22402639  0.86484719  1
  O  O31  1  0.98258585  0.40705960  0.11468014  1
  O  O32  1  0.61014489  0.88541116  0.40698549  1
  O  O33  1  0.62518636  0.34351956  0.40597423  1
  O  O34  1  0.28971647  0.77597361  0.13515281  1
  O  O35  1  0.49570442  0.40700945  0.11456802  1
  O  O36  1  0.50000000  0.00000000  0.00000000  1
  O  O37  1  0.09725278  0.88533367  0.40700209  1
