# generated using pymatgen
data_WSe6ICl6
_symmetry_space_group_name_H-M   'P 1'
_cell_length_a   6.90495794
_cell_length_b   7.81549815
_cell_length_c   8.42619184
_cell_angle_alpha   92.66872339
_cell_angle_beta   97.22040771
_cell_angle_gamma   96.92511827
_symmetry_Int_Tables_number   1
_chemical_formula_structural   WSe6ICl6
_chemical_formula_sum   'W1 Se6 I1 Cl6'
_cell_volume   446.94796542
_cell_formula_units_Z   1
loop_
 _symmetry_equiv_pos_site_id
 _symmetry_equiv_pos_as_xyz
  1  'x, y, z'
loop_
 _atom_site_type_symbol
 _atom_site_label
 _atom_site_symmetry_multiplicity
 _atom_site_fract_x
 _atom_site_fract_y
 _atom_site_fract_z
 _atom_site_occupancy
  W  W0  1  0.50000000  0.50000000  0.50000000  1
  Se  Se1  1  0.94515251  0.98108993  0.73717029  1
  Se  Se2  1  0.98029612  0.75548646  0.11718911  1
  Se  Se3  1  0.85021142  0.20794853  0.11835240  1
  Se  Se4  1  0.01970388  0.24451354  0.88281089  1
  Se  Se5  1  0.14978858  0.79205147  0.88164760  1
  Se  Se6  1  0.05484749  0.01891007  0.26282971  1
  I  I7  1  0.50000000  0.00000000  0.00000000  1
  Cl  Cl8  1  0.37870433  0.76574509  0.51712850  1
  Cl  Cl9  1  0.42365573  0.48665673  0.22083316  1
  Cl  Cl10  1  0.62129567  0.23425491  0.48287150  1
  Cl  Cl11  1  0.81444683  0.64398731  0.47832477  1
  Cl  Cl12  1  0.18555317  0.35601269  0.52167523  1
  Cl  Cl13  1  0.57634427  0.51334327  0.77916684  1
