# generated using pymatgen
data_SiO2
_symmetry_space_group_name_H-M   'P 1'
_cell_length_a   10.06922521
_cell_length_b   10.06922521
_cell_length_c   34.48404515
_cell_angle_alpha   90.00000000
_cell_angle_beta   90.00000000
_cell_angle_gamma   90.00000000
_symmetry_Int_Tables_number   1
_chemical_formula_structural   SiO2
_chemical_formula_sum   'Si60 O120'
_cell_volume   3496.31307236
_cell_formula_units_Z   60
loop_
 _symmetry_equiv_pos_site_id
 _symmetry_equiv_pos_as_xyz
  1  'x, y, z'
loop_
 _atom_site_type_symbol
 _atom_site_label
 _atom_site_symmetry_multiplicity
 _atom_site_fract_x
 _atom_site_fract_y
 _atom_site_fract_z
 _atom_site_occupancy
  Si  Si0  1  0.09931726  0.70156476  0.90322725  1
  Si  Si1  1  0.79843524  0.09931726  0.40322725  1
  Si  Si2  1  0.70156476  0.40068274  0.40322725  1
  Si  Si3  1  0.59931726  0.29843524  0.59677275  1
  Si  Si4  1  0.90068274  0.20156476  0.59677275  1
  Si  Si5  1  0.40068274  0.79843524  0.90322725  1
  Si  Si6  1  0.20156476  0.59931726  0.09677275  1
  Si  Si7  1  0.29843524  0.90068274  0.09677275  1
  Si  Si8  1  0.90068274  0.29843524  0.09677275  1
  Si  Si9  1  0.20156476  0.90068274  0.59677275  1
  Si  Si10  1  0.29843524  0.59931726  0.59677275  1
  Si  Si11  1  0.40068274  0.70156476  0.40322725  1
  Si  Si12  1  0.09931726  0.79843524  0.40322725  1
  Si  Si13  1  0.59931726  0.20156476  0.09677275  1
  Si  Si14  1  0.79843524  0.40068274  0.90322725  1
  Si  Si15  1  0.70156476  0.09931726  0.90322725  1
  Si  Si16  1  0.04586730  0.04586730  0.45724110  1
  Si  Si17  1  0.45413270  0.04586730  0.95724110  1
  Si  Si18  1  0.04586730  0.45413270  0.95724110  1
  Si  Si19  1  0.54586730  0.95413270  0.04275890  1
  Si  Si20  1  0.95413270  0.54586730  0.04275890  1
  Si  Si21  1  0.45413270  0.45413270  0.45724110  1
  Si  Si22  1  0.54586730  0.54586730  0.54275890  1
  Si  Si23  1  0.95413270  0.95413270  0.54275890  1
  Si  Si24  1  0.09511474  0.09511474  0.27218276  1
  Si  Si25  1  0.40488526  0.09511474  0.77218276  1
  Si  Si26  1  0.09511474  0.40488526  0.77218276  1
  Si  Si27  1  0.59511474  0.90488526  0.22781724  1
  Si  Si28  1  0.90488526  0.59511474  0.22781724  1
  Si  Si29  1  0.40488526  0.40488526  0.27218276  1
  Si  Si30  1  0.59511474  0.59511474  0.72781724  1
  Si  Si31  1  0.90488526  0.90488526  0.72781724  1
  Si  Si32  1  0.10862619  0.10862619  0.74588598  1
  Si  Si33  1  0.39137381  0.10862619  0.24588598  1
  Si  Si34  1  0.10862619  0.39137381  0.24588598  1
  Si  Si35  1  0.60862619  0.89137381  0.75411402  1
  Si  Si36  1  0.89137381  0.60862619  0.75411402  1
  Si  Si37  1  0.39137381  0.39137381  0.74588598  1
  Si  Si38  1  0.60862619  0.60862619  0.25411402  1
  Si  Si39  1  0.89137381  0.89137381  0.25411402  1
  Si  Si40  1  0.95513377  0.95513377  0.33649827  1
  Si  Si41  1  0.54486623  0.95513377  0.83649827  1
  Si  Si42  1  0.95513377  0.54486623  0.83649827  1
  Si  Si43  1  0.45513377  0.04486623  0.16350173  1
  Si  Si44  1  0.04486623  0.45513377  0.16350173  1
  Si  Si45  1  0.54486623  0.54486623  0.33649827  1
  Si  Si46  1  0.45513377  0.45513377  0.66350173  1
  Si  Si47  1  0.04486623  0.04486623  0.66350173  1
  Si  Si48  1  0.14408049  0.14408049  0.06518300  1
  Si  Si49  1  0.35591951  0.14408049  0.56518300  1
  Si  Si50  1  0.14408049  0.35591951  0.56518300  1
  Si  Si51  1  0.64408049  0.85591951  0.43481700  1
  Si  Si52  1  0.85591951  0.64408049  0.43481700  1
  Si  Si53  1  0.35591951  0.35591951  0.06518300  1
  Si  Si54  1  0.64408049  0.64408049  0.93481700  1
  Si  Si55  1  0.85591951  0.85591951  0.93481700  1
  Si  Si56  1  0.25000000  0.25000000  0.48978956  1
  Si  Si57  1  0.25000000  0.25000000  0.98978956  1
  Si  Si58  1  0.75000000  0.75000000  0.01021044  1
  Si  Si59  1  0.75000000  0.75000000  0.51021044  1
  O  O60  1  0.00601656  0.81974457  0.92106683  1
  O  O61  1  0.68025543  0.00601656  0.42106683  1
  O  O62  1  0.81974457  0.49398344  0.42106683  1
  O  O63  1  0.50601656  0.18025543  0.57893317  1
  O  O64  1  0.99398344  0.31974457  0.57893317  1
  O  O65  1  0.49398344  0.68025543  0.92106683  1
  O  O66  1  0.31974457  0.50601656  0.07893317  1
  O  O67  1  0.18025543  0.99398344  0.07893317  1
  O  O68  1  0.99398344  0.18025543  0.07893317  1
  O  O69  1  0.31974457  0.99398344  0.57893317  1
  O  O70  1  0.18025543  0.50601656  0.57893317  1
  O  O71  1  0.49398344  0.81974457  0.42106683  1
  O  O72  1  0.00601656  0.68025543  0.42106683  1
  O  O73  1  0.50601656  0.31974457  0.07893317  1
  O  O74  1  0.68025543  0.49398344  0.92106683  1
  O  O75  1  0.81974457  0.00601656  0.92106683  1
  O  O76  1  0.03493030  0.65250208  0.86243669  1
  O  O77  1  0.84749792  0.03493030  0.36243669  1
  O  O78  1  0.65250208  0.46506970  0.36243669  1
  O  O79  1  0.53493030  0.34749792  0.63756331  1
  O  O80  1  0.96506970  0.15250208  0.63756331  1
  O  O81  1  0.46506970  0.84749792  0.86243669  1
  O  O82  1  0.15250208  0.53493030  0.13756331  1
  O  O83  1  0.34749792  0.96506970  0.13756331  1
  O  O84  1  0.96506970  0.34749792  0.13756331  1
  O  O85  1  0.15250208  0.96506970  0.63756331  1
  O  O86  1  0.34749792  0.53493030  0.63756331  1
  O  O87  1  0.46506970  0.65250208  0.36243669  1
  O  O88  1  0.03493030  0.84749792  0.36243669  1
  O  O89  1  0.53493030  0.15250208  0.13756331  1
  O  O90  1  0.84749792  0.46506970  0.86243669  1
  O  O91  1  0.65250208  0.03493030  0.86243669  1
  O  O92  1  0.10623969  0.57957379  0.93386573  1
  O  O93  1  0.92042621  0.10623969  0.43386573  1
  O  O94  1  0.57957379  0.39376031  0.43386573  1
  O  O95  1  0.60623969  0.42042621  0.56613427  1
  O  O96  1  0.89376031  0.07957379  0.56613427  1
  O  O97  1  0.39376031  0.92042621  0.93386573  1
  O  O98  1  0.07957379  0.60623969  0.06613427  1
  O  O99  1  0.42042621  0.89376031  0.06613427  1
  O  O100  1  0.89376031  0.42042621  0.06613427  1
  O  O101  1  0.07957379  0.89376031  0.56613427  1
  O  O102  1  0.42042621  0.60623969  0.56613427  1
  O  O103  1  0.39376031  0.57957379  0.43386573  1
  O  O104  1  0.10623969  0.92042621  0.43386573  1
  O  O105  1  0.60623969  0.07957379  0.06613427  1
  O  O106  1  0.92042621  0.39376031  0.93386573  1
  O  O107  1  0.57957379  0.10623969  0.93386573  1
  O  O108  1  0.25000000  0.75000000  0.89531925  1
  O  O109  1  0.75000000  0.25000000  0.39531925  1
  O  O110  1  0.75000000  0.25000000  0.60468075  1
  O  O111  1  0.25000000  0.75000000  0.10468075  1
  O  O112  1  0.75000000  0.25000000  0.10468075  1
  O  O113  1  0.25000000  0.75000000  0.60468075  1
  O  O114  1  0.25000000  0.75000000  0.39531925  1
  O  O115  1  0.75000000  0.25000000  0.89531925  1
  O  O116  1  0.15908628  0.15908628  0.46184258  1
  O  O117  1  0.34091372  0.15908628  0.96184258  1
  O  O118  1  0.15908628  0.34091372  0.96184258  1
  O  O119  1  0.65908628  0.84091372  0.03815742  1
  O  O120  1  0.84091372  0.65908628  0.03815742  1
  O  O121  1  0.34091372  0.34091372  0.46184258  1
  O  O122  1  0.65908628  0.65908628  0.53815742  1
  O  O123  1  0.84091372  0.84091372  0.53815742  1
  O  O124  1  0.00000000  0.00000000  0.50000000  1
  O  O125  1  0.50000000  0.00000000  0.00000000  1
  O  O126  1  0.00000000  0.50000000  0.00000000  1
  O  O127  1  0.50000000  0.50000000  0.50000000  1
  O  O128  1  0.00304257  0.00304257  0.24390957  1
  O  O129  1  0.49695743  0.00304257  0.74390957  1
  O  O130  1  0.00304257  0.49695743  0.74390957  1
  O  O131  1  0.50304257  0.99695743  0.25609043  1
  O  O132  1  0.99695743  0.50304257  0.25609043  1
  O  O133  1  0.49695743  0.49695743  0.24390957  1
  O  O134  1  0.50304257  0.50304257  0.75609043  1
  O  O135  1  0.99695743  0.99695743  0.75609043  1
  O  O136  1  0.06323385  0.25035525  0.26416038  1
  O  O137  1  0.24964475  0.06323385  0.76416038  1
  O  O138  1  0.25035525  0.43676615  0.76416038  1
  O  O139  1  0.56323385  0.74964475  0.23583962  1
  O  O140  1  0.93676615  0.75035525  0.23583962  1
  O  O141  1  0.43676615  0.24964475  0.26416038  1
  O  O142  1  0.75035525  0.56323385  0.73583962  1
  O  O143  1  0.74964475  0.93676615  0.73583962  1
  O  O144  1  0.93676615  0.74964475  0.73583962  1
  O  O145  1  0.75035525  0.93676615  0.23583962  1
  O  O146  1  0.74964475  0.56323385  0.23583962  1
  O  O147  1  0.43676615  0.25035525  0.76416038  1
  O  O148  1  0.06323385  0.24964475  0.76416038  1
  O  O149  1  0.56323385  0.75035525  0.73583962  1
  O  O150  1  0.24964475  0.43676615  0.26416038  1
  O  O151  1  0.25035525  0.06323385  0.26416038  1
  O  O152  1  0.06030215  0.06030215  0.31732349  1
  O  O153  1  0.43969785  0.06030215  0.81732349  1
  O  O154  1  0.06030215  0.43969785  0.81732349  1
  O  O155  1  0.56030215  0.93969785  0.18267651  1
  O  O156  1  0.93969785  0.56030215  0.18267651  1
  O  O157  1  0.43969785  0.43969785  0.31732349  1
  O  O158  1  0.56030215  0.56030215  0.68267651  1
  O  O159  1  0.93969785  0.93969785  0.68267651  1
  O  O160  1  0.12164478  0.12164478  0.69870754  1
  O  O161  1  0.37835522  0.12164478  0.19870754  1
  O  O162  1  0.12164478  0.37835522  0.19870754  1
  O  O163  1  0.62164478  0.87835522  0.80129246  1
  O  O164  1  0.87835522  0.62164478  0.80129246  1
  O  O165  1  0.37835522  0.37835522  0.69870754  1
  O  O166  1  0.62164478  0.62164478  0.30129246  1
  O  O167  1  0.87835522  0.87835522  0.30129246  1
  O  O168  1  0.15672689  0.15672689  0.01788748  1
  O  O169  1  0.34327311  0.15672689  0.51788748  1
  O  O170  1  0.15672689  0.34327311  0.51788748  1
  O  O171  1  0.65672689  0.84327311  0.48211252  1
  O  O172  1  0.84327311  0.65672689  0.48211252  1
  O  O173  1  0.34327311  0.34327311  0.01788748  1
  O  O174  1  0.65672689  0.65672689  0.98211252  1
  O  O175  1  0.84327311  0.84327311  0.98211252  1
  O  O176  1  0.25000000  0.25000000  0.08439463  1
  O  O177  1  0.25000000  0.25000000  0.58439463  1
  O  O178  1  0.75000000  0.75000000  0.41560537  1
  O  O179  1  0.75000000  0.75000000  0.91560537  1
