# generated using pymatgen
data_LiCo(PO3)3
_symmetry_space_group_name_H-M   'P 1'
_cell_length_a   5.16294405
_cell_length_b   12.07634305
_cell_length_c   13.20811489
_cell_angle_alpha   90.00000000
_cell_angle_beta   90.00000000
_cell_angle_gamma   90.00000000
_symmetry_Int_Tables_number   1
_chemical_formula_structural   LiCo(PO3)3
_chemical_formula_sum   'Li4 Co4 P12 O36'
_cell_volume   823.51914134
_cell_formula_units_Z   4
loop_
 _symmetry_equiv_pos_site_id
 _symmetry_equiv_pos_as_xyz
  1  'x, y, z'
loop_
 _atom_site_type_symbol
 _atom_site_label
 _atom_site_symmetry_multiplicity
 _atom_site_fract_x
 _atom_site_fract_y
 _atom_site_fract_z
 _atom_site_occupancy
  Li  Li0  1  0.99224616  0.00288836  0.75000000  1
  Li  Li1  1  0.99224616  0.49711164  0.25000000  1
  Li  Li2  1  0.00775384  0.99711164  0.25000000  1
  Li  Li3  1  0.00775384  0.50288836  0.75000000  1
  Co  Co4  1  0.00000000  0.00000000  0.50000000  1
  Co  Co5  1  0.00000000  0.00000000  0.00000000  1
  Co  Co6  1  0.00000000  0.50000000  0.00000000  1
  Co  Co7  1  0.00000000  0.50000000  0.50000000  1
  P  P8  1  0.50521035  0.08885921  0.86136211  1
  P  P9  1  0.50521035  0.41114079  0.13863789  1
  P  P10  1  0.49478965  0.91114079  0.36136211  1
  P  P11  1  0.49478965  0.91114079  0.13863789  1
  P  P12  1  0.49478965  0.58885921  0.63863789  1
  P  P13  1  0.24508277  0.75000000  0.50000000  1
  P  P14  1  0.75491723  0.25000000  0.00000000  1
  P  P15  1  0.75491723  0.25000000  0.50000000  1
  P  P16  1  0.49478965  0.58885921  0.86136211  1
  P  P17  1  0.50521035  0.41114079  0.36136211  1
  P  P18  1  0.24508277  0.75000000  0.00000000  1
  P  P19  1  0.50521035  0.08885921  0.63863789  1
  O  O20  1  0.28735732  0.50459757  0.88475688  1
  O  O21  1  0.71264268  0.00459757  0.61524312  1
  O  O22  1  0.90046951  0.15620257  0.45236378  1
  O  O23  1  0.90046951  0.15620257  0.04763622  1
  O  O24  1  0.09953049  0.65620257  0.04763622  1
  O  O25  1  0.28735732  0.99540243  0.38475688  1
  O  O26  1  0.56410899  0.36315371  0.25000000  1
  O  O27  1  0.77487198  0.94553243  0.13295217  1
  O  O28  1  0.54328787  0.20186563  0.57876445  1
  O  O29  1  0.77487198  0.55446757  0.86704783  1
  O  O30  1  0.90046951  0.34379743  0.54763622  1
  O  O31  1  0.56410899  0.13684629  0.75000000  1
  O  O32  1  0.45671213  0.70186563  0.57876445  1
  O  O33  1  0.09953049  0.84379743  0.54763622  1
  O  O34  1  0.22512802  0.44553243  0.36704783  1
  O  O35  1  0.09953049  0.65620257  0.45236378  1
  O  O36  1  0.77487198  0.94553243  0.36704783  1
  O  O37  1  0.22512802  0.05446757  0.63295217  1
  O  O38  1  0.45671213  0.79813437  0.07876445  1
  O  O39  1  0.22512802  0.05446757  0.86704783  1
  O  O40  1  0.09953049  0.84379743  0.95236378  1
  O  O41  1  0.45671213  0.70186563  0.92123555  1
  O  O42  1  0.71264268  0.49540243  0.38475688  1
  O  O43  1  0.43589101  0.63684629  0.75000000  1
  O  O44  1  0.28735732  0.50459757  0.61524312  1
  O  O45  1  0.90046951  0.34379743  0.95236378  1
  O  O46  1  0.77487198  0.55446757  0.63295217  1
  O  O47  1  0.54328787  0.20186563  0.92123555  1
  O  O48  1  0.71264268  0.49540243  0.11524312  1
  O  O49  1  0.22512802  0.44553243  0.13295217  1
  O  O50  1  0.45671213  0.79813437  0.42123555  1
  O  O51  1  0.54328787  0.29813437  0.42123555  1
  O  O52  1  0.54328787  0.29813437  0.07876445  1
  O  O53  1  0.71264268  0.00459757  0.88475688  1
  O  O54  1  0.43589101  0.86315371  0.25000000  1
  O  O55  1  0.28735732  0.99540243  0.11524312  1
