# generated using pymatgen
data_Y2Si2O7
_symmetry_space_group_name_H-M   'P 1'
_cell_length_a   6.65763102
_cell_length_b   6.70696241
_cell_length_c   36.36485873
_cell_angle_alpha   94.47325196
_cell_angle_beta   91.30609224
_cell_angle_gamma   91.76651586
_symmetry_Int_Tables_number   1
_chemical_formula_structural   Y2Si2O7
_chemical_formula_sum   'Y24 Si24 O84'
_cell_volume   1617.54812808
_cell_formula_units_Z   12
loop_
 _symmetry_equiv_pos_site_id
 _symmetry_equiv_pos_as_xyz
  1  'x, y, z'
loop_
 _atom_site_type_symbol
 _atom_site_label
 _atom_site_symmetry_multiplicity
 _atom_site_fract_x
 _atom_site_fract_y
 _atom_site_fract_z
 _atom_site_occupancy
  Y  Y0  1  0.62216380  0.29989064  0.95516303  1
  Y  Y1  1  0.90701536  0.17886769  0.79255238  1
  Y  Y2  1  0.34953968  0.32950096  0.20129650  1
  Y  Y3  1  0.31435899  0.84236449  0.36955634  1
  Y  Y4  1  0.88248695  0.39789491  0.04859392  1
  Y  Y5  1  0.68564101  0.15763551  0.63044366  1
  Y  Y6  1  0.95332551  0.15622595  0.12867092  1
  Y  Y7  1  0.38158467  0.79057731  0.69650959  1
  Y  Y8  1  0.11751305  0.60210509  0.95140608  1
  Y  Y9  1  0.62362583  0.80925272  0.45429722  1
  Y  Y10  1  0.11725333  0.10969706  0.45199452  1
  Y  Y11  1  0.09298464  0.82113231  0.20744762  1
  Y  Y12  1  0.65046032  0.67049904  0.79870350  1
  Y  Y13  1  0.88274667  0.89030294  0.54800548  1
  Y  Y14  1  0.04885928  0.33147816  0.70630536  1
  Y  Y15  1  0.04667449  0.84377405  0.87132908  1
  Y  Y16  1  0.95014813  0.66433814  0.63058271  1
  Y  Y17  1  0.37783620  0.70010936  0.04483697  1
  Y  Y18  1  0.68002801  0.66514280  0.13301107  1
  Y  Y19  1  0.31997199  0.33485720  0.86698893  1
  Y  Y20  1  0.61841533  0.20942269  0.30349041  1
  Y  Y21  1  0.04985187  0.33566186  0.36941729  1
  Y  Y22  1  0.95114072  0.66852184  0.29369464  1
  Y  Y23  1  0.37637417  0.19074728  0.54570278  1
  Si  Si24  1  0.15748105  0.65598811  0.79079263  1
  Si  Si25  1  0.45787302  0.67639448  0.27663960  1
  Si  Si26  1  0.15178500  0.15349345  0.29007075  1
  Si  Si27  1  0.13392469  0.63811913  0.45942377  1
  Si  Si28  1  0.84821500  0.84650655  0.70992925  1
  Si  Si29  1  0.49138651  0.15291070  0.10752166  1
  Si  Si30  1  0.40104523  0.04293515  0.77822614  1
  Si  Si31  1  0.37592609  0.21670203  0.03144858  1
  Si  Si32  1  0.62561924  0.28951155  0.46928614  1
  Si  Si33  1  0.16080226  0.13691531  0.63054918  1
  Si  Si34  1  0.13721245  0.13586332  0.95974028  1
  Si  Si35  1  0.62407391  0.78329797  0.96855142  1
  Si  Si36  1  0.49593206  0.64654553  0.60607726  1
  Si  Si37  1  0.50406794  0.35345447  0.39392274  1
  Si  Si38  1  0.86278755  0.86413668  0.04025972  1
  Si  Si39  1  0.84195127  0.36069124  0.87141298  1
  Si  Si40  1  0.37438076  0.71048845  0.53071386  1
  Si  Si41  1  0.54212698  0.32360552  0.72336040  1
  Si  Si42  1  0.83919774  0.86308469  0.36945082  1
  Si  Si43  1  0.59895477  0.95706485  0.22177386  1
  Si  Si44  1  0.84251895  0.34401189  0.20920737  1
  Si  Si45  1  0.86607531  0.36188087  0.54057623  1
  Si  Si46  1  0.15804873  0.63930876  0.12858702  1
  Si  Si47  1  0.50861349  0.84708930  0.89247834  1
  O  O48  1  0.32499854  0.25400229  0.26612190  1
  O  O49  1  0.41858107  0.67156317  0.98185362  1
  O  O50  1  0.29631922  0.71252013  0.30915584  1
  O  O51  1  0.22277543  0.06557549  0.67077395  1
  O  O52  1  0.40917195  0.54873283  0.56286123  1
  O  O53  1  0.58141893  0.32843683  0.01814638  1
  O  O54  1  0.04660458  0.21637127  0.52534578  1
  O  O55  1  0.38492208  0.99227720  0.20177011  1
  O  O56  1  0.61507792  0.00772280  0.79822989  1
  O  O57  1  0.93560066  0.56866346  0.56428740  1
  O  O58  1  0.77432689  0.60713039  0.95649442  1
  O  O59  1  0.01457052  0.33065563  0.64041034  1
  O  O60  1  0.02047019  0.19869667  0.19221424  1
  O  O61  1  0.30584024  0.59829483  0.82493083  1
  O  O62  1  0.94175498  0.53475557  0.23390005  1
  O  O63  1  0.72656443  0.42677669  0.50485093  1
  O  O64  1  0.30642875  0.80394148  0.76657770  1
  O  O65  1  0.36472744  0.46333324  0.70884704  1
  O  O66  1  0.28093055  0.07705296  0.99545363  1
  O  O67  1  0.99145110  0.47829580  0.10815302  1
  O  O68  1  0.70311284  0.80250744  0.86791421  1
  O  O69  1  0.58926828  0.94456389  0.93651200  1
  O  O70  1  0.35511592  0.00376232  0.87563428  1
  O  O71  1  0.27181698  0.11540635  0.32984787  1
  O  O72  1  0.98542948  0.66934437  0.35958966  1
  O  O73  1  0.57863223  0.82317683  0.51710358  1
  O  O74  1  0.62906935  0.84355335  0.59544808  1
  O  O75  1  0.25324103  0.17073716  0.80437859  1
  O  O76  1  0.97952981  0.80130333  0.80778576  1
  O  O77  1  0.77438720  0.11377371  0.45619300  1
  O  O78  1  0.29688716  0.19749256  0.13208579  1
  O  O79  1  0.95497567  0.27934047  0.97465922  1
  O  O80  1  0.72818302  0.88459365  0.67015213  1
  O  O81  1  0.37093065  0.15644665  0.40455192  1
  O  O82  1  0.74675897  0.82926284  0.19562141  1
  O  O83  1  0.71945108  0.70723378  0.06232342  1
  O  O84  1  0.64488408  0.99623768  0.12436572  1
  O  O85  1  0.35316716  0.61907198  0.23645545  1
  O  O86  1  0.67500146  0.74599771  0.73387810  1
  O  O87  1  0.02598474  0.68890306  0.69494838  1
  O  O88  1  0.64544569  0.31037018  0.89486485  1
  O  O89  1  0.01239334  0.83028996  0.13904495  1
  O  O90  1  0.70368078  0.28747987  0.69084416  1
  O  O91  1  0.64384155  0.81282832  0.39346200  1
  O  O92  1  0.63024215  0.34815629  0.09774063  1
  O  O93  1  0.06439934  0.43133654  0.43571260  1
  O  O94  1  0.42136777  0.17682317  0.48289642  1
  O  O95  1  0.28054892  0.29276622  0.93767658  1
  O  O96  1  0.36975785  0.65184371  0.90225937  1
  O  O97  1  0.35455431  0.68962982  0.10513515  1
  O  O98  1  0.22567311  0.39286961  0.04350558  1
  O  O99  1  0.69357125  0.19605852  0.23342230  1
  O  O100  1  0.22561280  0.88622629  0.54380700  1
  O  O101  1  0.97401526  0.31109694  0.30505162  1
  O  O102  1  0.27343557  0.57322331  0.49514907  1
  O  O103  1  0.77209003  0.42587665  0.83122026  1
  O  O104  1  0.95339542  0.78362873  0.47465422  1
  O  O105  1  0.69415976  0.40170517  0.17506917  1
  O  O106  1  0.06839546  0.92737096  0.93652690  1
  O  O107  1  0.64683284  0.38092802  0.76354455  1
  O  O108  1  0.22790997  0.57412335  0.16877974  1
  O  O109  1  0.69135308  0.30964134  0.36687244  1
  O  O110  1  0.65178150  0.49344284  0.62288591  1
  O  O111  1  0.58157109  0.89396431  0.26558997  1
  O  O112  1  0.41842891  0.10603569  0.73441003  1
  O  O113  1  0.04846426  0.95367409  0.26673403  1
  O  O114  1  0.99613037  0.97967785  0.60776934  1
  O  O115  1  0.63527256  0.53666676  0.29115296  1
  O  O116  1  0.95153574  0.04632591  0.73326597  1
  O  O117  1  0.93160454  0.07262904  0.06347310  1
  O  O118  1  0.98760666  0.16971004  0.86095505  1
  O  O119  1  0.04502433  0.72065953  0.02534078  1
  O  O120  1  0.00854890  0.52170420  0.89184698  1
  O  O121  1  0.34821850  0.50655716  0.37711409  1
  O  O122  1  0.71980706  0.20263877  0.56164831  1
  O  O123  1  0.41073172  0.05543611  0.06348800  1
  O  O124  1  0.30864692  0.69035866  0.63312756  1
  O  O125  1  0.59082805  0.45126717  0.43713877  1
  O  O126  1  0.35615845  0.18717168  0.60653800  1
  O  O127  1  0.00386963  0.02032215  0.39223066  1
  O  O128  1  0.71906945  0.92294704  0.00454637  1
  O  O129  1  0.05824502  0.46524443  0.76609995  1
  O  O130  1  0.28019294  0.79736123  0.43835169  1
  O  O131  1  0.77722457  0.93442451  0.32922605  1
