# generated using pymatgen
data_SiO2
_symmetry_space_group_name_H-M   'P 1'
_cell_length_a   18.43845466
_cell_length_b   13.82628410
_cell_length_c   9.76362389
_cell_angle_alpha   90.00000000
_cell_angle_beta   90.00000000
_cell_angle_gamma   90.00000000
_symmetry_Int_Tables_number   1
_chemical_formula_structural   SiO2
_chemical_formula_sum   'Si48 O96'
_cell_volume   2489.09250747
_cell_formula_units_Z   48
loop_
 _symmetry_equiv_pos_site_id
 _symmetry_equiv_pos_as_xyz
  1  'x, y, z'
loop_
 _atom_site_type_symbol
 _atom_site_label
 _atom_site_symmetry_multiplicity
 _atom_site_fract_x
 _atom_site_fract_y
 _atom_site_fract_z
 _atom_site_occupancy
  Si  Si0  1  0.08537154  0.57323580  0.37205076  1
  Si  Si1  1  0.08537154  0.42676420  0.62794924  1
  Si  Si2  1  0.41462846  0.57323580  0.12794924  1
  Si  Si3  1  0.41462846  0.42676420  0.87205076  1
  Si  Si4  1  0.91462846  0.42676420  0.62794924  1
  Si  Si5  1  0.91462846  0.57323580  0.37205076  1
  Si  Si6  1  0.58537154  0.42676420  0.87205076  1
  Si  Si7  1  0.58537154  0.57323580  0.12794924  1
  Si  Si8  1  0.58537154  0.07323580  0.37205076  1
  Si  Si9  1  0.58537154  0.92676420  0.62794924  1
  Si  Si10  1  0.91462846  0.07323580  0.12794924  1
  Si  Si11  1  0.91462846  0.92676420  0.87205076  1
  Si  Si12  1  0.41462846  0.92676420  0.62794924  1
  Si  Si13  1  0.41462846  0.07323580  0.37205076  1
  Si  Si14  1  0.08537154  0.92676420  0.87205076  1
  Si  Si15  1  0.08537154  0.07323580  0.12794924  1
  Si  Si16  1  0.17908409  0.53186886  0.84005960  1
  Si  Si17  1  0.17908409  0.46813114  0.15994040  1
  Si  Si18  1  0.32091591  0.53186886  0.65994040  1
  Si  Si19  1  0.32091591  0.46813114  0.34005960  1
  Si  Si20  1  0.82091591  0.46813114  0.15994040  1
  Si  Si21  1  0.82091591  0.53186886  0.84005960  1
  Si  Si22  1  0.67908409  0.46813114  0.34005960  1
  Si  Si23  1  0.67908409  0.53186886  0.65994040  1
  Si  Si24  1  0.67908409  0.03186886  0.84005960  1
  Si  Si25  1  0.67908409  0.96813114  0.15994040  1
  Si  Si26  1  0.82091591  0.03186886  0.65994040  1
  Si  Si27  1  0.82091591  0.96813114  0.34005960  1
  Si  Si28  1  0.32091591  0.96813114  0.15994040  1
  Si  Si29  1  0.32091591  0.03186886  0.84005960  1
  Si  Si30  1  0.17908409  0.96813114  0.34005960  1
  Si  Si31  1  0.17908409  0.03186886  0.65994040  1
  Si  Si32  1  0.30210760  0.74465337  0.13142484  1
  Si  Si33  1  0.30210760  0.25534663  0.86857516  1
  Si  Si34  1  0.19789240  0.74465337  0.36857516  1
  Si  Si35  1  0.19789240  0.25534663  0.63142484  1
  Si  Si36  1  0.69789240  0.25534663  0.86857516  1
  Si  Si37  1  0.69789240  0.74465337  0.13142484  1
  Si  Si38  1  0.80210760  0.25534663  0.63142484  1
  Si  Si39  1  0.80210760  0.74465337  0.36857516  1
  Si  Si40  1  0.80210760  0.24465337  0.13142484  1
  Si  Si41  1  0.80210760  0.75534663  0.86857516  1
  Si  Si42  1  0.69789240  0.24465337  0.36857516  1
  Si  Si43  1  0.69789240  0.75534663  0.63142484  1
  Si  Si44  1  0.19789240  0.75534663  0.86857516  1
  Si  Si45  1  0.19789240  0.24465337  0.13142484  1
  Si  Si46  1  0.30210760  0.75534663  0.63142484  1
  Si  Si47  1  0.30210760  0.24465337  0.36857516  1
  O  O48  1  0.10953500  0.52297843  0.22723797  1
  O  O49  1  0.10953500  0.47702157  0.77276203  1
  O  O50  1  0.39046500  0.52297843  0.27276203  1
  O  O51  1  0.39046500  0.47702157  0.72723797  1
  O  O52  1  0.89046500  0.47702157  0.77276203  1
  O  O53  1  0.89046500  0.52297843  0.22723797  1
  O  O54  1  0.60953500  0.47702157  0.72723797  1
  O  O55  1  0.60953500  0.52297843  0.27276203  1
  O  O56  1  0.60953500  0.02297843  0.22723797  1
  O  O57  1  0.60953500  0.97702157  0.77276203  1
  O  O58  1  0.89046500  0.02297843  0.27276203  1
  O  O59  1  0.89046500  0.97702157  0.72723797  1
  O  O60  1  0.39046500  0.97702157  0.77276203  1
  O  O61  1  0.39046500  0.02297843  0.22723797  1
  O  O62  1  0.10953500  0.97702157  0.72723797  1
  O  O63  1  0.10953500  0.02297843  0.27276203  1
  O  O64  1  0.10082999  0.50000000  0.50000000  1
  O  O65  1  0.39917001  0.50000000  0.00000000  1
  O  O66  1  0.89917001  0.50000000  0.50000000  1
  O  O67  1  0.60082999  0.50000000  0.00000000  1
  O  O68  1  0.60082999  0.00000000  0.50000000  1
  O  O69  1  0.89917001  0.00000000  0.00000000  1
  O  O70  1  0.39917001  0.00000000  0.50000000  1
  O  O71  1  0.10082999  0.00000000  0.00000000  1
  O  O72  1  0.00000000  0.59996830  0.36271851  1
  O  O73  1  0.00000000  0.40003170  0.63728149  1
  O  O74  1  0.50000000  0.59996830  0.13728149  1
  O  O75  1  0.50000000  0.40003170  0.86271851  1
  O  O76  1  0.50000000  0.09996830  0.36271851  1
  O  O77  1  0.50000000  0.90003170  0.63728149  1
  O  O78  1  0.00000000  0.09996830  0.13728149  1
  O  O79  1  0.00000000  0.90003170  0.86271851  1
  O  O80  1  0.12922423  0.67392579  0.39527457  1
  O  O81  1  0.12922423  0.32607421  0.60472543  1
  O  O82  1  0.37077577  0.67392579  0.10472543  1
  O  O83  1  0.37077577  0.32607421  0.89527457  1
  O  O84  1  0.87077577  0.32607421  0.60472543  1
  O  O85  1  0.87077577  0.67392579  0.39527457  1
  O  O86  1  0.62922423  0.32607421  0.89527457  1
  O  O87  1  0.62922423  0.67392579  0.10472543  1
  O  O88  1  0.62922423  0.17392579  0.39527457  1
  O  O89  1  0.62922423  0.82607421  0.60472543  1
  O  O90  1  0.87077577  0.17392579  0.10472543  1
  O  O91  1  0.87077577  0.82607421  0.89527457  1
  O  O92  1  0.37077577  0.82607421  0.60472543  1
  O  O93  1  0.37077577  0.17392579  0.39527457  1
  O  O94  1  0.12922423  0.82607421  0.89527457  1
  O  O95  1  0.12922423  0.17392579  0.10472543  1
  O  O96  1  0.16772819  0.64825453  0.82811115  1
  O  O97  1  0.16772819  0.35174547  0.17188885  1
  O  O98  1  0.33227181  0.64825453  0.67188885  1
  O  O99  1  0.33227181  0.35174547  0.32811115  1
  O  O100  1  0.83227181  0.35174547  0.17188885  1
  O  O101  1  0.83227181  0.64825453  0.82811115  1
  O  O102  1  0.66772819  0.35174547  0.32811115  1
  O  O103  1  0.66772819  0.64825453  0.67188885  1
  O  O104  1  0.66772819  0.14825453  0.82811115  1
  O  O105  1  0.66772819  0.85174547  0.17188885  1
  O  O106  1  0.83227181  0.14825453  0.67188885  1
  O  O107  1  0.83227181  0.85174547  0.32811115  1
  O  O108  1  0.33227181  0.85174547  0.17188885  1
  O  O109  1  0.33227181  0.14825453  0.82811115  1
  O  O110  1  0.16772819  0.85174547  0.32811115  1
  O  O111  1  0.16772819  0.14825453  0.67188885  1
  O  O112  1  0.25000000  0.50243482  0.75000000  1
  O  O113  1  0.25000000  0.49756518  0.25000000  1
  O  O114  1  0.75000000  0.49756518  0.25000000  1
  O  O115  1  0.75000000  0.50243482  0.75000000  1
  O  O116  1  0.75000000  0.00243482  0.75000000  1
  O  O117  1  0.75000000  0.99756518  0.25000000  1
  O  O118  1  0.25000000  0.99756518  0.25000000  1
  O  O119  1  0.25000000  0.00243482  0.75000000  1
  O  O120  1  0.18871184  0.50000000  0.00000000  1
  O  O121  1  0.31128816  0.50000000  0.50000000  1
  O  O122  1  0.81128816  0.50000000  0.00000000  1
  O  O123  1  0.68871184  0.50000000  0.50000000  1
  O  O124  1  0.68871184  0.00000000  0.00000000  1
  O  O125  1  0.81128816  0.00000000  0.50000000  1
  O  O126  1  0.31128816  0.00000000  0.00000000  1
  O  O127  1  0.18871184  0.00000000  0.50000000  1
  O  O128  1  0.25000000  0.75000000  0.00000000  1
  O  O129  1  0.25000000  0.25000000  0.00000000  1
  O  O130  1  0.25000000  0.75000000  0.50000000  1
  O  O131  1  0.25000000  0.25000000  0.50000000  1
  O  O132  1  0.75000000  0.25000000  0.00000000  1
  O  O133  1  0.75000000  0.75000000  0.00000000  1
  O  O134  1  0.75000000  0.25000000  0.50000000  1
  O  O135  1  0.75000000  0.75000000  0.50000000  1
  O  O136  1  0.25000000  0.70107814  0.25000000  1
  O  O137  1  0.25000000  0.29892186  0.75000000  1
  O  O138  1  0.75000000  0.29892186  0.75000000  1
  O  O139  1  0.75000000  0.70107814  0.25000000  1
  O  O140  1  0.75000000  0.20107814  0.25000000  1
  O  O141  1  0.75000000  0.79892186  0.75000000  1
  O  O142  1  0.25000000  0.79892186  0.75000000  1
  O  O143  1  0.25000000  0.20107814  0.25000000  1
