# generated using pymatgen
data_K2NaV5H10O19
_symmetry_space_group_name_H-M   'P 1'
_cell_length_a   8.74668459
_cell_length_b   10.51926021
_cell_length_c   11.15187931
_cell_angle_alpha   69.23685831
_cell_angle_beta   87.26420633
_cell_angle_gamma   65.64257239
_symmetry_Int_Tables_number   1
_chemical_formula_structural   K2NaV5H10O19
_chemical_formula_sum   'K4 Na2 V10 H20 O38'
_cell_volume   868.17124499
_cell_formula_units_Z   2
loop_
 _symmetry_equiv_pos_site_id
 _symmetry_equiv_pos_as_xyz
  1  'x, y, z'
loop_
 _atom_site_type_symbol
 _atom_site_label
 _atom_site_symmetry_multiplicity
 _atom_site_fract_x
 _atom_site_fract_y
 _atom_site_fract_z
 _atom_site_occupancy
  K  K0  1  0.68595215  0.21107095  0.98969741  1
  K  K1  1  0.76568164  0.82033498  0.41884798  1
  K  K2  1  0.23431836  0.17966502  0.58115202  1
  K  K3  1  0.31404785  0.78892905  0.01030259  1
  Na  Na4  1  0.57309567  0.33221918  0.62798963  1
  Na  Na5  1  0.42690433  0.66778082  0.37201037  1
  V  V6  1  0.33114767  0.21031889  0.22418268  1
  V  V7  1  0.18653898  0.49944789  0.98090864  1
  V  V8  1  0.87659125  0.78670021  -0.00011061  1
  V  V9  1  0.97244112  0.20709578  0.26763371  1
  V  V10  1  0.02755888  0.79290422  0.73236629  1
  V  V11  1  0.12340875  0.21329979  0.00011061  1
  V  V12  1  0.02785040  0.49439792  0.24635586  1
  V  V13  1  0.97214960  0.50560208  0.75364414  1
  V  V14  1  0.66885233  0.78968111  0.77581732  1
  V  V15  1  0.81346102  0.50055211  0.01909136  1
  H  H16  1  0.37126229  0.23838007  0.83726414  1
  H  H17  1  0.78089445  0.48573740  0.54562560  1
  H  H18  1  0.57636871  0.45958183  0.21605693  1
  H  H19  1  0.92047191  0.22247533  0.76385474  1
  H  H20  1  0.51475364  0.07856220  0.84631900  1
  H  H21  1  0.39838688  0.46749202  0.25144688  1
  H  H22  1  0.09853005  0.92655752  0.21182285  1
  H  H23  1  0.07952809  0.77752467  0.23614526  1
  H  H24  1  0.34341580  0.92100969  0.43548911  1
  H  H25  1  0.90146995  0.07344248  0.78817715  1
  H  H26  1  0.45020790  0.81013990  0.56746358  1
  H  H27  1  0.22235545  0.56235132  0.56982852  1
  H  H28  1  0.48524636  0.92143780  0.15368100  1
  H  H29  1  0.21910555  0.51426260  0.45437440  1
  H  H30  1  0.77764455  0.43764868  0.43017148  1
  H  H31  1  0.65658420  0.07899031  0.56451089  1
  H  H32  1  0.62873771  0.76161993  0.16273586  1
  H  H33  1  0.60161312  0.53250798  0.74855312  1
  H  H34  1  0.42363129  0.54041817  0.78394307  1
  H  H35  1  0.54979210  0.18986010  0.43253642  1
  O  O36  1  0.37445807  0.36971436  0.07451763  1
  O  O37  1  0.52584162  0.10855750  0.29700092  1
  O  O38  1  0.53129460  0.47735736  0.76139372  1
  O  O39  1  0.46870540  0.52264264  0.23860628  1
  O  O40  1  0.70244738  0.48899992  0.48365239  1
  O  O41  1  0.81831330  0.61917446  0.11912890  1
  O  O42  1  0.52733458  0.81259446  0.19933994  1
  O  O43  1  0.18168670  0.38082554  0.88087110  1
  O  O44  1  0.20430821  0.11837666  0.32495924  1
  O  O45  1  0.10505211  0.90040190  0.63257225  1
  O  O46  1  0.15931373  0.11097169  0.91001634  1
  O  O47  1  0.10213979  0.62004735  0.08512464  1
  O  O48  1  0.83884237  0.18374474  0.75637155  1
  O  O49  1  0.84068627  0.88902831  0.08998366  1
  O  O50  1  0.16115763  0.81625526  0.24362845  1
  O  O51  1  0.76847706  0.36856573  0.14549521  1
  O  O52  1  0.89494789  0.09959810  0.36742775  1
  O  O53  1  0.05621334  0.64076520  0.66488275  1
  O  O54  1  0.79569179  0.88162334  0.67504076  1
  O  O55  1  0.94378666  0.35923480  0.33511725  1
  O  O56  1  0.99901918  0.59824894  0.33513928  1
  O  O57  1  0.00098082  0.40175106  0.66486072  1
  O  O58  1  0.47415838  0.89144250  0.70299908  1
  O  O59  1  0.93153879  0.62123848  0.89604122  1
  O  O60  1  0.67117000  0.86902858  0.90236783  1
  O  O61  1  0.02124951  0.12957579  0.13367326  1
  O  O62  1  0.32883000  0.13097142  0.09763217  1
  O  O63  1  0.23152294  0.63143427  0.85450479  1
  O  O64  1  0.55762076  0.17562652  0.52385863  1
  O  O65  1  0.62554193  0.63028564  0.92548237  1
  O  O66  1  0.25136214  0.36237936  0.29633528  1
  O  O67  1  0.29755262  0.51100008  0.51634761  1
  O  O68  1  0.89786021  0.37995265  0.91487536  1
  O  O69  1  0.47266542  0.18740554  0.80066006  1
  O  O70  1  0.97875049  0.87042421  0.86632674  1
  O  O71  1  0.74863786  0.63762064  0.70366472  1
  O  O72  1  0.06846121  0.37876152  0.10395878  1
  O  O73  1  0.44237924  0.82437348  0.47614137  1
