# generated using pymatgen
data_SiO2
_symmetry_space_group_name_H-M   'P 1'
_cell_length_a   7.21342400
_cell_length_b   7.21342400
_cell_length_c   42.29034175
_cell_angle_alpha   90.00000000
_cell_angle_beta   90.00000000
_cell_angle_gamma   90.00000000
_symmetry_Int_Tables_number   1
_chemical_formula_structural   SiO2
_chemical_formula_sum   'Si36 O72'
_cell_volume   2200.51389709
_cell_formula_units_Z   36
loop_
 _symmetry_equiv_pos_site_id
 _symmetry_equiv_pos_as_xyz
  1  'x, y, z'
loop_
 _atom_site_type_symbol
 _atom_site_label
 _atom_site_symmetry_multiplicity
 _atom_site_fract_x
 _atom_site_fract_y
 _atom_site_fract_z
 _atom_site_occupancy
  Si  Si0  1  0.29305584  0.00000000  0.18912350  1
  Si  Si1  1  0.50000000  0.29305584  0.93912350  1
  Si  Si2  1  0.50000000  0.70694416  0.93912350  1
  Si  Si3  1  0.79305584  0.00000000  0.56087650  1
  Si  Si4  1  0.20694416  0.00000000  0.56087650  1
  Si  Si5  1  0.70694416  0.00000000  0.18912350  1
  Si  Si6  1  0.00000000  0.29305584  0.81087650  1
  Si  Si7  1  0.00000000  0.70694416  0.81087650  1
  Si  Si8  1  0.79305584  0.50000000  0.68912350  1
  Si  Si9  1  0.00000000  0.79305584  0.43912350  1
  Si  Si10  1  0.00000000  0.20694416  0.43912350  1
  Si  Si11  1  0.29305584  0.50000000  0.06087650  1
  Si  Si12  1  0.70694416  0.50000000  0.06087650  1
  Si  Si13  1  0.20694416  0.50000000  0.68912350  1
  Si  Si14  1  0.50000000  0.79305584  0.31087650  1
  Si  Si15  1  0.50000000  0.20694416  0.31087650  1
  Si  Si16  1  0.00000000  0.21902498  0.08702928  1
  Si  Si17  1  0.28097502  0.00000000  0.83702928  1
  Si  Si18  1  0.71902498  0.00000000  0.83702928  1
  Si  Si19  1  0.50000000  0.78097502  0.66297072  1
  Si  Si20  1  0.50000000  0.21902498  0.66297072  1
  Si  Si21  1  0.00000000  0.78097502  0.08702928  1
  Si  Si22  1  0.21902498  0.00000000  0.91297072  1
  Si  Si23  1  0.78097502  0.00000000  0.91297072  1
  Si  Si24  1  0.50000000  0.71902498  0.58702928  1
  Si  Si25  1  0.78097502  0.50000000  0.33702928  1
  Si  Si26  1  0.21902498  0.50000000  0.33702928  1
  Si  Si27  1  0.00000000  0.28097502  0.16297072  1
  Si  Si28  1  0.00000000  0.71902498  0.16297072  1
  Si  Si29  1  0.50000000  0.28097502  0.58702928  1
  Si  Si30  1  0.71902498  0.50000000  0.41297072  1
  Si  Si31  1  0.28097502  0.50000000  0.41297072  1
  Si  Si32  1  0.50000000  0.00000000  0.25000000  1
  Si  Si33  1  0.50000000  0.50000000  0.00000000  1
  Si  Si34  1  0.00000000  0.00000000  0.50000000  1
  Si  Si35  1  0.00000000  0.50000000  0.75000000  1
  O  O36  1  0.31525113  0.00000000  0.22768204  1
  O  O37  1  0.50000000  0.31525113  0.97768204  1
  O  O38  1  0.50000000  0.68474887  0.97768204  1
  O  O39  1  0.81525113  0.00000000  0.52231796  1
  O  O40  1  0.18474887  0.00000000  0.52231796  1
  O  O41  1  0.68474887  0.00000000  0.22768204  1
  O  O42  1  0.00000000  0.31525113  0.77231796  1
  O  O43  1  0.00000000  0.68474887  0.77231796  1
  O  O44  1  0.81525113  0.50000000  0.72768204  1
  O  O45  1  0.00000000  0.81525113  0.47768204  1
  O  O46  1  0.00000000  0.18474887  0.47768204  1
  O  O47  1  0.31525113  0.50000000  0.02231796  1
  O  O48  1  0.68474887  0.50000000  0.02231796  1
  O  O49  1  0.18474887  0.50000000  0.72768204  1
  O  O50  1  0.50000000  0.81525113  0.27231796  1
  O  O51  1  0.50000000  0.18474887  0.27231796  1
  O  O52  1  0.18388420  0.81430444  0.17819999  1
  O  O53  1  0.68569556  0.18388420  0.92819999  1
  O  O54  1  0.31430444  0.81611580  0.92819999  1
  O  O55  1  0.68388420  0.18569556  0.57180001  1
  O  O56  1  0.31611580  0.81430444  0.57180001  1
  O  O57  1  0.81611580  0.18569556  0.17819999  1
  O  O58  1  0.81430444  0.18388420  0.82180001  1
  O  O59  1  0.18569556  0.81611580  0.82180001  1
  O  O60  1  0.31611580  0.18569556  0.57180001  1
  O  O61  1  0.81430444  0.81611580  0.82180001  1
  O  O62  1  0.18569556  0.18388420  0.82180001  1
  O  O63  1  0.81611580  0.81430444  0.17819999  1
  O  O64  1  0.18388420  0.18569556  0.17819999  1
  O  O65  1  0.68388420  0.81430444  0.57180001  1
  O  O66  1  0.68569556  0.81611580  0.92819999  1
  O  O67  1  0.31430444  0.18388420  0.92819999  1
  O  O68  1  0.68388420  0.31430444  0.67819999  1
  O  O69  1  0.18569556  0.68388420  0.42819999  1
  O  O70  1  0.81430444  0.31611580  0.42819999  1
  O  O71  1  0.18388420  0.68569556  0.07180001  1
  O  O72  1  0.81611580  0.31430444  0.07180001  1
  O  O73  1  0.31611580  0.68569556  0.67819999  1
  O  O74  1  0.31430444  0.68388420  0.32180001  1
  O  O75  1  0.68569556  0.31611580  0.32180001  1
  O  O76  1  0.81611580  0.68569556  0.07180001  1
  O  O77  1  0.31430444  0.31611580  0.32180001  1
  O  O78  1  0.68569556  0.68388420  0.32180001  1
  O  O79  1  0.31611580  0.31430444  0.67819999  1
  O  O80  1  0.68388420  0.68569556  0.67819999  1
  O  O81  1  0.18388420  0.31430444  0.07180001  1
  O  O82  1  0.18569556  0.31611580  0.42819999  1
  O  O83  1  0.81430444  0.68388420  0.42819999  1
  O  O84  1  0.50000000  0.00000000  0.17339013  1
  O  O85  1  0.50000000  0.50000000  0.92339013  1
  O  O86  1  0.00000000  0.00000000  0.57660987  1
  O  O87  1  0.00000000  0.50000000  0.82660987  1
  O  O88  1  0.00000000  0.50000000  0.67339013  1
  O  O89  1  0.00000000  0.00000000  0.42339013  1
  O  O90  1  0.50000000  0.50000000  0.07660987  1
  O  O91  1  0.50000000  0.00000000  0.32660987  1
  O  O92  1  0.00000000  0.00000000  0.07869703  1
  O  O93  1  0.50000000  0.00000000  0.82869703  1
  O  O94  1  0.50000000  0.00000000  0.67130297  1
  O  O95  1  0.00000000  0.00000000  0.92130297  1
  O  O96  1  0.50000000  0.50000000  0.57869703  1
  O  O97  1  0.00000000  0.50000000  0.32869703  1
  O  O98  1  0.00000000  0.50000000  0.17130297  1
  O  O99  1  0.50000000  0.50000000  0.42130297  1
  O  O100  1  0.00000000  0.25000000  0.12500000  1
  O  O101  1  0.25000000  0.00000000  0.87500000  1
  O  O102  1  0.75000000  0.00000000  0.87500000  1
  O  O103  1  0.50000000  0.75000000  0.62500000  1
  O  O104  1  0.50000000  0.25000000  0.62500000  1
  O  O105  1  0.00000000  0.75000000  0.12500000  1
  O  O106  1  0.75000000  0.50000000  0.37500000  1
  O  O107  1  0.25000000  0.50000000  0.37500000  1
