# generated using pymatgen
data_La(In2Ni)3
_symmetry_space_group_name_H-M   'P 1'
_cell_length_a   4.42332221
_cell_length_b   7.64971063
_cell_length_c   11.96897593
_cell_angle_alpha   90.18130531
_cell_angle_beta   89.78442285
_cell_angle_gamma   90.05080652
_symmetry_Int_Tables_number   1
_chemical_formula_structural   La(In2Ni)3
_chemical_formula_sum   'La2 In12 Ni6'
_cell_volume   404.99080403
_cell_formula_units_Z   2
loop_
 _symmetry_equiv_pos_site_id
 _symmetry_equiv_pos_as_xyz
  1  'x, y, z'
loop_
 _atom_site_type_symbol
 _atom_site_label
 _atom_site_symmetry_multiplicity
 _atom_site_fract_x
 _atom_site_fract_y
 _atom_site_fract_z
 _atom_site_occupancy
  La  La0  1  0.75018603  0.74981821  0.67744993  1
  La  La1  1  0.24936593  0.24977784  0.32289659  1
  In  In2  1  0.25006777  0.95678485  0.83771758  1
  In  In3  1  0.25001410  0.05143305  0.58415085  1
  In  In4  1  0.24970704  0.75012769  0.25181206  1
  In  In5  1  0.75019144  0.45712574  0.16229247  1
  In  In6  1  0.24964708  0.24989332  0.01183926  1
  In  In7  1  0.25019487  0.54317903  0.83763478  1
  In  In8  1  0.74987873  0.74981602  0.98800871  1
  In  In9  1  0.75035789  0.04308348  0.16237572  1
  In  In10  1  0.74979371  0.55154662  0.41589245  1
  In  In11  1  0.25014790  0.44864206  0.58404826  1
  In  In12  1  0.74993912  0.94843098  0.41575920  1
  In  In13  1  0.74987934  0.25002829  0.74809628  1
  Ni  Ni14  1  0.75019528  0.25015380  0.53317370  1
  Ni  Ni15  1  0.24995208  0.74999359  0.46687319  1
  Ni  Ni16  1  0.25007437  0.57766193  0.06449226  1
  Ni  Ni17  1  0.25014247  0.92230681  0.06459714  1
  Ni  Ni18  1  0.75002664  0.42235669  0.93540107  1
  Ni  Ni19  1  0.75023821  0.07784001  0.93548851  1
