# generated using pymatgen
data_H7NO6
_symmetry_space_group_name_H-M   'P 1'
_cell_length_a   9.77473802
_cell_length_b   14.79504246
_cell_length_c   3.77406449
_cell_angle_alpha   87.36491278
_cell_angle_beta   90.00000000
_cell_angle_gamma   90.00000000
_symmetry_Int_Tables_number   1
_chemical_formula_structural   H7NO6
_chemical_formula_sum   'H28 N4 O24'
_cell_volume   545.21926726
_cell_formula_units_Z   4
loop_
 _symmetry_equiv_pos_site_id
 _symmetry_equiv_pos_as_xyz
  1  'x, y, z'
loop_
 _atom_site_type_symbol
 _atom_site_label
 _atom_site_symmetry_multiplicity
 _atom_site_fract_x
 _atom_site_fract_y
 _atom_site_fract_z
 _atom_site_occupancy
  H  H0  1  0.80089010  0.71193081  0.23782684  1
  H  H1  1  0.68918718  0.27500208  0.70497274  1
  H  H2  1  0.30089010  0.78806919  0.76217316  1
  H  H3  1  0.18918718  0.22499792  0.29502726  1
  H  H4  1  0.89660373  0.63894161  0.89389351  1
  H  H5  1  0.70387425  0.67794839  0.93363950  1
  H  H6  1  0.60660116  0.34940825  0.36668132  1
  H  H7  1  0.79082318  0.31721485  0.40049573  1
  H  H8  1  0.39660373  0.86105839  0.10610649  1
  H  H9  1  0.20387425  0.82205161  0.06636050  1
  H  H10  1  0.10660116  0.15059175  0.63331868  1
  H  H11  1  0.29082318  0.18278515  0.59950427  1
  H  H12  1  0.75042164  0.87922680  0.76489463  1
  H  H13  1  0.75579720  0.08884700  0.25537694  1
  H  H14  1  0.69916912  0.97887802  0.74342767  1
  H  H15  1  0.85868987  0.00625757  0.31875917  1
  H  H16  1  0.25042164  0.62077320  0.23510537  1
  H  H17  1  0.25579720  0.41115300  0.74462306  1
  H  H18  1  0.19916912  0.52112198  0.25657233  1
  H  H19  1  0.35868987  0.49374243  0.68124083  1
  H  H20  1  0.51580597  0.82460189  0.41279736  1
  H  H21  1  0.56963267  0.89789791  0.09568287  1
  H  H22  1  0.97582402  0.18428070  0.93816186  1
  H  H23  1  0.93002286  0.10729006  0.65672572  1
  H  H24  1  0.06963267  0.60210209  0.90431713  1
  H  H25  1  0.01580597  0.67539811  0.58720264  1
  H  H26  1  0.43002286  0.39270994  0.34327428  1
  H  H27  1  0.47582402  0.31571930  0.06183814  1
  N  N28  1  0.97216339  0.83421820  0.36515295  1
  N  N29  1  0.52214329  0.15576792  0.87765318  1
  N  N30  1  0.47216339  0.66578180  0.63484705  1
  N  N31  1  0.02214329  0.34423208  0.12234682  1
  O  O32  1  0.85722956  0.80769846  0.49744766  1
  O  O33  1  0.64345500  0.17867641  0.97142742  1
  O  O34  1  0.35722956  0.69230154  0.50255234  1
  O  O35  1  0.14345500  0.32132359  0.02857258  1
  O  O36  1  0.06394004  0.77311569  0.32053952  1
  O  O37  1  0.43484623  0.22083344  0.81696707  1
  O  O38  1  0.56394004  0.72688431  0.67946048  1
  O  O39  1  0.93484623  0.27916656  0.18303293  1
  O  O40  1  0.99563127  0.91489942  0.27894487  1
  O  O41  1  0.48929094  0.07633139  0.84428409  1
  O  O42  1  0.49563127  0.58510058  0.72105513  1
  O  O43  1  0.98929094  0.42366861  0.15571591  1
  O  O44  1  0.78299301  0.66040568  0.08688127  1
  O  O45  1  0.70818326  0.32960190  0.54749964  1
  O  O46  1  0.28299301  0.83959432  0.91311873  1
  O  O47  1  0.20818326  0.17039810  0.45250036  1
  O  O48  1  0.69595533  0.92296221  0.89531536  1
  O  O49  1  0.81186811  0.05602428  0.43601300  1
  O  O50  1  0.19595533  0.57703779  0.10468464  1
  O  O51  1  0.31186811  0.44397572  0.56398700  1
  O  O52  1  0.48759067  0.87800263  0.25854864  1
  O  O53  1  0.00732995  0.13112689  0.80554806  1
  O  O54  1  0.98759067  0.62199737  0.74145136  1
  O  O55  1  0.50732995  0.36887311  0.19445194  1
