# generated using pymatgen
data_Sr(H8O5)2
_symmetry_space_group_name_H-M   'P 1'
_cell_length_a   6.26216551
_cell_length_b   6.47381714
_cell_length_c   11.32660366
_cell_angle_alpha   90.63723512
_cell_angle_beta   89.95289842
_cell_angle_gamma   90.71620466
_symmetry_Int_Tables_number   1
_chemical_formula_structural   Sr(H8O5)2
_chemical_formula_sum   'Sr2 H32 O20'
_cell_volume   459.11742978
_cell_formula_units_Z   2
loop_
 _symmetry_equiv_pos_site_id
 _symmetry_equiv_pos_as_xyz
  1  'x, y, z'
loop_
 _atom_site_type_symbol
 _atom_site_label
 _atom_site_symmetry_multiplicity
 _atom_site_fract_x
 _atom_site_fract_y
 _atom_site_fract_z
 _atom_site_occupancy
  Sr  Sr0  1  0.99719637  0.01108301  0.25225413  1
  Sr  Sr1  1  0.00609718  0.99805275  0.75710986  1
  H  H2  1  0.27256266  0.38371507  0.35449281  1
  H  H3  1  0.14179982  0.31038098  0.46904444  1
  H  H4  1  0.72078651  0.62069546  0.34363684  1
  H  H5  1  0.90137246  0.67153851  0.43967536  1
  H  H6  1  0.59779047  0.28470676  0.34927205  1
  H  H7  1  0.68232719  0.15115849  0.45773645  1
  H  H8  1  0.44596959  0.96100693  0.37522021  1
  H  H9  1  0.38787266  0.71958343  0.35841435  1
  H  H10  1  0.72155041  0.38362754  0.84957701  1
  H  H11  1  0.96123592  0.45600930  0.87146852  1
  H  H12  1  0.26689570  0.61267075  0.85908729  1
  H  H13  1  0.13266564  0.68979009  0.97209826  1
  H  H14  1  0.44226780  0.03992897  0.88223765  1
  H  H15  1  0.37352376  0.27450905  0.86384045  1
  H  H16  1  0.60576902  0.73481381  0.85404272  1
  H  H17  1  0.67857102  0.86334562  0.96929980  1
  H  H18  1  0.73460864  0.62765211  0.62987700  1
  H  H19  1  0.98014478  0.57279769  0.62172831  1
  H  H20  1  0.29848948  0.42223036  0.66955060  1
  H  H21  1  0.95636598  0.30782681  0.62266858  1
  H  H22  1  0.38607072  0.73452372  0.64528324  1
  H  H23  1  0.32155190  0.86484314  0.53174245  1
  H  H24  1  0.55820696  0.03454633  0.62575279  1
  H  H25  1  0.59815693  0.27194531  0.64738380  1
  H  H26  1  0.03125562  0.56021440  0.13099829  1
  H  H27  1  0.27560079  0.62012206  0.14501690  1
  H  H28  1  0.72005726  0.39677828  0.14592460  1
  H  H29  1  0.85565528  0.31431716  0.03539221  1
  H  H30  1  0.54384374  0.96631124  0.12765948  1
  H  H31  1  0.60756535  0.72791651  0.14216073  1
  H  H32  1  0.30543652  0.14518739  0.04507590  1
  H  H33  1  0.39045404  0.28237953  0.15360108  1
  O  O34  1  0.49980255  0.50557802  0.31301551  1
  O  O35  1  0.48253195  0.49397647  0.81578607  1
  O  O36  1  0.45494885  0.48576002  0.68549248  1
  O  O37  1  0.49747096  0.50670212  0.18108722  1
  O  O38  1  0.14700088  0.29836912  0.38087765  1
  O  O39  1  0.85524221  0.70552326  0.35976245  1
  O  O40  1  0.65548374  0.14337022  0.37202435  1
  O  O41  1  0.32797515  0.85722909  0.38693452  1
  O  O42  1  0.86542934  0.33066945  0.87308150  1
  O  O43  1  0.12654033  0.67709115  0.88271901  1
  O  O44  1  0.31728230  0.13438123  0.88873730  1
  O  O45  1  0.66414936  0.87223571  0.88005323  1
  O  O46  1  0.87657637  0.69048569  0.62037964  1
  O  O47  1  0.10973433  0.33028829  0.61888700  1
  O  O48  1  0.33998537  0.87435279  0.62144550  1
  O  O49  1  0.67551533  0.14283980  0.62568195  1
  O  O50  1  0.13277731  0.67846349  0.11879390  1
  O  O51  1  0.86252276  0.33294202  0.12224340  1
  O  O52  1  0.66476898  0.86814780  0.11550625  1
  O  O53  1  0.33137375  0.13896268  0.13154191  1
