# generated using pymatgen
data_Te4WCl6
_symmetry_space_group_name_H-M   'P 1'
_cell_length_a   12.26834802
_cell_length_b   12.23434271
_cell_length_c   12.34443786
_cell_angle_alpha   60.29458782
_cell_angle_beta   76.76059025
_cell_angle_gamma   62.47324091
_symmetry_Int_Tables_number   1
_chemical_formula_structural   Te4WCl6
_chemical_formula_sum   'Te16 W4 Cl24'
_cell_volume   1427.16275516
_cell_formula_units_Z   4
loop_
 _symmetry_equiv_pos_site_id
 _symmetry_equiv_pos_as_xyz
  1  'x, y, z'
loop_
 _atom_site_type_symbol
 _atom_site_label
 _atom_site_symmetry_multiplicity
 _atom_site_fract_x
 _atom_site_fract_y
 _atom_site_fract_z
 _atom_site_occupancy
  Te  Te0  1  0.64310885  0.37988019  0.17091309  1
  Te  Te1  1  0.92271329  0.22598009  0.41596170  1
  Te  Te2  1  0.50212816  0.36097626  0.70076411  1
  Te  Te3  1  0.57728671  0.35805822  0.41596170  1
  Te  Te4  1  0.22515654  0.89492918  0.76943193  1
  Te  Te5  1  0.35689115  0.62011981  0.82908691  1
  Te  Te6  1  0.14310885  0.55079328  0.82908691  1
  Te  Te7  1  0.00212816  0.06174036  0.29923589  1
  Te  Te8  1  0.85689115  0.44920672  0.17091309  1
  Te  Te9  1  0.77484346  0.10507082  0.23056807  1
  Te  Te10  1  0.07728671  0.77401991  0.58403830  1
  Te  Te11  1  0.72515654  0.66436110  0.23056807  1
  Te  Te12  1  0.42271329  0.64194178  0.58403830  1
  Te  Te13  1  0.27484346  0.33563890  0.76943193  1
  Te  Te14  1  0.49787184  0.63902374  0.29923589  1
  Te  Te15  1  0.99787184  0.93825964  0.70076411  1
  W  W16  1  0.39029035  0.10391108  0.23103239  1
  W  W17  1  0.60970965  0.89608892  0.76896761  1
  W  W18  1  0.89029035  0.33494347  0.76896761  1
  W  W19  1  0.10970965  0.66505653  0.23103239  1
  Cl  Cl20  1  0.00003198  0.28593181  0.93138930  1
  Cl  Cl21  1  0.79467428  0.70590796  0.85601920  1
  Cl  Cl22  1  0.42232633  0.09213734  0.68488678  1
  Cl  Cl23  1  0.91078189  0.54022062  0.64848783  1
  Cl  Cl24  1  0.57767367  0.90786266  0.31511322  1
  Cl  Cl25  1  0.29467428  0.56192716  0.14398080  1
  Cl  Cl26  1  0.99996802  0.71406819  0.06861070  1
  Cl  Cl27  1  0.28025573  0.98956855  0.39820515  1
  Cl  Cl28  1  0.12813708  0.87463097  0.11961193  1
  Cl  Cl29  1  0.62813708  0.99424291  0.88038807  1
  Cl  Cl30  1  0.78025573  0.38777370  0.60179485  1
  Cl  Cl31  1  0.21974427  0.61222630  0.39820515  1
  Cl  Cl32  1  0.58921811  0.81129155  0.64848783  1
  Cl  Cl33  1  0.41078189  0.18870845  0.35151217  1
  Cl  Cl34  1  0.07767367  0.22297587  0.68488678  1
  Cl  Cl35  1  0.87186292  0.12536903  0.88038807  1
  Cl  Cl36  1  0.37186292  0.00575709  0.11961193  1
  Cl  Cl37  1  0.49996802  0.78267888  0.93138930  1
  Cl  Cl38  1  0.92232633  0.77702413  0.31511322  1
  Cl  Cl39  1  0.08921811  0.45977938  0.35151217  1
  Cl  Cl40  1  0.70532572  0.43807284  0.85601920  1
  Cl  Cl41  1  0.50003198  0.21732112  0.06861070  1
  Cl  Cl42  1  0.71974427  0.01043145  0.60179485  1
  Cl  Cl43  1  0.20532572  0.29409204  0.14398080  1
