# generated using pymatgen
data_Ag2S
_symmetry_space_group_name_H-M   'P 1'
_cell_length_a   4.36113619
_cell_length_b   7.40179517
_cell_length_c   7.78914312
_cell_angle_alpha   90.00000000
_cell_angle_beta   101.26754106
_cell_angle_gamma   90.00000000
_symmetry_Int_Tables_number   1
_chemical_formula_structural   Ag2S
_chemical_formula_sum   'Ag8 S4'
_cell_volume   246.58909490
_cell_formula_units_Z   4
loop_
 _symmetry_equiv_pos_site_id
 _symmetry_equiv_pos_as_xyz
  1  'x, y, z'
loop_
 _atom_site_type_symbol
 _atom_site_label
 _atom_site_symmetry_multiplicity
 _atom_site_fract_x
 _atom_site_fract_y
 _atom_site_fract_z
 _atom_site_occupancy
  Ag  Ag0  1  0.72895641  0.50881293  0.20641339  1
  Ag  Ag1  1  0.27104359  0.49118707  0.79358661  1
  Ag  Ag2  1  0.70176195  0.69302883  0.55709120  1
  Ag  Ag3  1  0.77104359  0.00881293  0.29358661  1
  Ag  Ag4  1  0.22895641  0.99118707  0.70641339  1
  Ag  Ag5  1  0.29823805  0.30697117  0.44290880  1
  Ag  Ag6  1  0.20176195  0.80697117  0.05709120  1
  Ag  Ag7  1  0.79823805  0.19302883  0.94290880  1
  S  S8  1  0.59915288  0.76334375  0.85946150  1
  S  S9  1  0.90084712  0.26334375  0.64053850  1
  S  S10  1  0.40084712  0.23665625  0.14053850  1
  S  S11  1  0.09915288  0.73665625  0.35946150  1
