# generated using pymatgen
data_Cs3Te22
_symmetry_space_group_name_H-M   'P 1'
_cell_length_a   9.68943048
_cell_length_b   9.66967124
_cell_length_c   12.49526399
_cell_angle_alpha   112.94491650
_cell_angle_beta   113.05798128
_cell_angle_gamma   89.86260828
_symmetry_Int_Tables_number   1
_chemical_formula_structural   Cs3Te22
_chemical_formula_sum   'Cs3 Te22'
_cell_volume   976.23919008
_cell_formula_units_Z   1
loop_
 _symmetry_equiv_pos_site_id
 _symmetry_equiv_pos_as_xyz
  1  'x, y, z'
loop_
 _atom_site_type_symbol
 _atom_site_label
 _atom_site_symmetry_multiplicity
 _atom_site_fract_x
 _atom_site_fract_y
 _atom_site_fract_z
 _atom_site_occupancy
  Cs  Cs0  1  0.82541874  0.82828371  0.64982562  1
  Cs  Cs1  1  0.17782285  0.17574189  0.34865383  1
  Cs  Cs2  1  0.50065196  0.49894216  0.99796182  1
  Te  Te3  1  0.80592911  0.89643487  0.00015313  1
  Te  Te4  1  0.76147936  0.33006624  0.23208977  1
  Te  Te5  1  0.33155084  0.47275774  0.23350317  1
  Te  Te6  1  0.59770294  0.39313933  0.38412838  1
  Te  Te7  1  0.52799565  0.09615888  0.76925366  1
  Te  Te8  1  0.40537583  0.60647535  0.61550090  1
  Te  Te9  1  0.47416962  0.90230349  0.23243311  1
  Te  Te10  1  0.09695019  0.24206257  0.76764070  1
  Te  Te11  1  0.09915183  0.80613796  0.99822121  1
  Te  Te12  1  0.90438422  0.76124710  0.23455990  1
  Te  Te13  1  0.67067662  0.52604482  0.76621809  1
  Te  Te14  1  0.24211354  0.67255707  0.76756469  1
  Te  Te15  1  0.39199643  0.79086919  0.38301618  1
  Te  Te16  1  0.60736108  0.20726472  0.61657302  1
  Te  Te17  1  0.99247016  0.59456323  0.38558316  1
  Te  Te18  1  0.89760636  0.19485211  0.99917173  1
  Te  Te19  1  0.79144048  0.99392047  0.38411496  1
  Te  Te20  1  0.49872625  0.99861786  0.99825549  1
  Te  Te21  1  0.00941988  0.40616203  0.61492677  1
  Te  Te22  1  0.19338174  0.10041199  -0.00003190  1
  Te  Te23  1  0.99727189  0.49432789  0.99674655  1
  Te  Te24  1  0.21038045  0.00964933  0.61688508  1
