# generated using pymatgen
data_PbCl2
_symmetry_space_group_name_H-M   'P 1'
_cell_length_a   4.24401957
_cell_length_b   10.06897675
_cell_length_c   15.62558069
_cell_angle_alpha   90.17917885
_cell_angle_beta   90.00000000
_cell_angle_gamma   90.00000000
_symmetry_Int_Tables_number   1
_chemical_formula_structural   PbCl2
_chemical_formula_sum   'Pb8 Cl16'
_cell_volume   667.72364943
_cell_formula_units_Z   8
loop_
 _symmetry_equiv_pos_site_id
 _symmetry_equiv_pos_as_xyz
  1  'x, y, z'
loop_
 _atom_site_type_symbol
 _atom_site_label
 _atom_site_symmetry_multiplicity
 _atom_site_fract_x
 _atom_site_fract_y
 _atom_site_fract_z
 _atom_site_occupancy
  Pb  Pb0  1  0.78172930  0.34515934  0.15558546  1
  Pb  Pb1  1  0.25367510  0.84606935  0.59474094  1
  Pb  Pb2  1  0.21827070  0.65484066  0.84441454  1
  Pb  Pb3  1  0.28172930  0.65484066  0.34441454  1
  Pb  Pb4  1  0.75367510  0.15393065  0.90525906  1
  Pb  Pb5  1  0.24632390  0.84606935  0.09474094  1
  Pb  Pb6  1  0.71827070  0.34515934  0.65558546  1
  Pb  Pb7  1  0.74632490  0.15393065  0.40525906  1
  Cl  Cl8  1  0.75681065  0.69396902  0.00240023  1
  Cl  Cl9  1  0.74723717  0.80779695  0.75190279  1
  Cl  Cl10  1  0.74318935  0.69396902  0.50240023  1
  Cl  Cl11  1  0.75276283  0.80779695  0.25190279  1
  Cl  Cl12  1  0.24723717  0.19220305  0.74809721  1
  Cl  Cl13  1  0.25024486  0.94729220  0.91677848  1
  Cl  Cl14  1  0.75024486  0.05270780  0.58322152  1
  Cl  Cl15  1  0.76375464  0.44763797  0.33346191  1
  Cl  Cl16  1  0.23624536  0.55236203  0.66653809  1
  Cl  Cl17  1  0.24975514  0.94729220  0.41677848  1
  Cl  Cl18  1  0.73624536  0.44763797  0.83346191  1
  Cl  Cl19  1  0.74975514  0.05270780  0.08322152  1
  Cl  Cl20  1  0.25681065  0.30603098  0.49759977  1
  Cl  Cl21  1  0.24318935  0.30603098  0.99759977  1
  Cl  Cl22  1  0.25276283  0.19220305  0.24809721  1
  Cl  Cl23  1  0.26375464  0.55236203  0.16653809  1
