# generated using pymatgen
data_Ba4In6O13
_symmetry_space_group_name_H-M   'P 1'
_cell_length_a   5.88181612
_cell_length_b   12.04428937
_cell_length_c   12.62560363
_cell_angle_alpha   118.47411481
_cell_angle_beta   103.46003893
_cell_angle_gamma   90.02164615
_symmetry_Int_Tables_number   1
_chemical_formula_structural   Ba4In6O13
_chemical_formula_sum   'Ba8 In12 O26'
_cell_volume   758.12033374
_cell_formula_units_Z   2
loop_
 _symmetry_equiv_pos_site_id
 _symmetry_equiv_pos_as_xyz
  1  'x, y, z'
loop_
 _atom_site_type_symbol
 _atom_site_label
 _atom_site_symmetry_multiplicity
 _atom_site_fract_x
 _atom_site_fract_y
 _atom_site_fract_z
 _atom_site_occupancy
  Ba  Ba0  1  0.16151242  0.02834507  0.31288647  1
  Ba  Ba1  1  0.34869830  0.71551398  0.68742859  1
  Ba  Ba2  1  0.34012469  0.21352625  0.67458622  1
  Ba  Ba3  1  0.66200035  0.28520178  0.31295552  1
  Ba  Ba4  1  0.84900861  0.97219484  0.68714122  1
  Ba  Ba5  1  0.84018137  0.46184079  0.67476692  1
  Ba  Ba6  1  0.66583748  0.78782562  0.32619824  1
  Ba  Ba7  1  0.16643613  0.53900268  0.32609543  1
  In  In8  1  0.96145288  0.34524154  0.90678104  1
  In  In9  1  0.51885414  0.08868433  0.92485492  1
  In  In10  1  0.46064428  0.56163633  0.90692997  1
  In  In11  1  0.25193264  0.37435628  0.49956364  1
  In  In12  1  0.75259745  0.62636433  0.50081252  1
  In  In13  1  0.05508693  0.65538690  0.09368858  1
  In  In14  1  0.59259484  0.90996110  0.07488561  1
  In  In15  1  0.55542170  0.43860772  0.09360251  1
  In  In16  1  0.09435552  0.16509081  0.07471984  1
  In  In17  1  0.01772797  0.83632415  0.92525199  1
  In  In18  1  0.75193784  0.12565786  0.49943139  1
  In  In19  1  0.25257983  0.87512147  0.50108933  1
  O  O20  1  0.99937866  0.49720883  0.49414028  1
  O  O21  1  0.36508393  0.99258949  0.73450647  1
  O  O22  1  0.92438428  0.46721658  0.09178786  1
  O  O23  1  0.42912765  0.25254985  0.06872262  1
  O  O24  1  0.35734857  0.74701566  0.93019620  1
  O  O25  1  0.33214935  0.37771273  0.90915462  1
  O  O26  1  0.63014285  0.00599941  0.26530692  1
  O  O27  1  0.28269138  0.00024060  0.00042980  1
  O  O28  1  0.78241922  0.99984991  0.00017975  1
  O  O29  1  0.83145160  0.53177202  0.90945822  1
  O  O30  1  0.50582972  0.50374174  0.50691422  1
  O  O31  1  0.99940585  0.24190554  0.48697844  1
  O  O32  1  0.51239392  0.75839856  0.51208813  1
  O  O33  1  0.33730078  0.47756677  0.71287009  1
  O  O34  1  0.49959288  0.99787017  0.49493285  1
  O  O35  1  0.01235702  0.75420776  0.51232321  1
  O  O36  1  0.00577521  0.00353381  0.50603383  1
  O  O37  1  0.13256938  0.25908367  0.26518452  1
  O  O38  1  0.83972284  0.23580860  0.71264829  1
  O  O39  1  0.85922998  0.18232289  0.92939950  1
  O  O40  1  0.12452083  0.76557499  0.28739019  1
  O  O41  1  0.62480319  0.52193508  0.28748769  1
  O  O42  1  0.49982585  0.24620452  0.48782703  1
  O  O43  1  0.42418793  0.62422753  0.09201714  1
  O  O44  1  0.92790901  0.81675435  0.06935416  1
  O  O45  1  0.86588775  0.74240512  0.73473205  1
