# generated using pymatgen
data_Al(HO)3
_symmetry_space_group_name_H-M   'P 1'
_cell_length_a   8.86071271
_cell_length_b   5.02426116
_cell_length_c   9.70958547
_cell_angle_alpha   90.05136200
_cell_angle_beta   90.98485163
_cell_angle_gamma   90.06486863
_symmetry_Int_Tables_number   1
_chemical_formula_structural   Al(HO)3
_chemical_formula_sum   'Al8 H24 O24'
_cell_volume   432.19220460
_cell_formula_units_Z   8
loop_
 _symmetry_equiv_pos_site_id
 _symmetry_equiv_pos_as_xyz
  1  'x, y, z'
loop_
 _atom_site_type_symbol
 _atom_site_label
 _atom_site_symmetry_multiplicity
 _atom_site_fract_x
 _atom_site_fract_y
 _atom_site_fract_z
 _atom_site_occupancy
  Al  Al0  1  0.32851460  0.01970305  0.50228864  1
  Al  Al1  1  0.83854497  0.46654524  0.00052985  1
  Al  Al2  1  0.66077576  0.96003592  0.49890056  1
  Al  Al3  1  0.17117552  0.52574556  0.99991443  1
  Al  Al4  1  0.15719851  0.51221091  0.50332713  1
  Al  Al5  1  0.66645475  0.97314551  0.00289753  1
  Al  Al6  1  0.83052667  0.46365288  0.49887448  1
  Al  Al7  1  0.34089158  0.02215099  0.00049650  1
  H  H8  1  0.40741209  0.62529286  0.62583158  1
  H  H9  1  0.91714019  0.86555801  0.12218467  1
  H  H10  1  0.59679509  0.38587334  0.37023333  1
  H  H11  1  0.10756572  0.09979635  0.87008156  1
  H  H12  1  0.80898889  0.15896814  0.70275955  1
  H  H13  1  0.31921945  0.32896288  0.20402149  1
  H  H14  1  0.07855066  0.94557753  0.39559892  1
  H  H15  1  0.58770011  0.53827116  0.89690743  1
  H  H16  1  0.97239793  0.82333006  0.60714860  1
  H  H17  1  0.48284889  0.66089088  0.10806043  1
  H  H18  1  0.00026820  0.38845764  0.29697998  1
  H  H19  1  0.50535767  0.09324954  0.79734378  1
  H  H20  1  0.53747922  0.30842360  0.61834295  1
  H  H21  1  0.04892840  0.18039588  0.11845224  1
  H  H22  1  0.48426917  0.87062471  0.29739692  1
  H  H23  1  0.99274055  0.61055110  0.79512029  1
  H  H24  1  0.20485560  0.21827588  0.70612330  1
  H  H25  1  0.70420128  0.27419220  0.20583626  1
  H  H26  1  0.79499743  0.77239042  0.29258237  1
  H  H27  1  0.29595170  0.71632539  0.79482309  1
  H  H28  1  0.68526248  0.65809736  0.70688985  1
  H  H29  1  0.19089786  0.83073588  0.20811787  1
  H  H30  1  0.39470628  0.48348958  0.39357500  1
  H  H31  1  0.90035947  0.00056273  0.88766728  1
  O  O32  1  0.30806607  0.70634754  0.61471986  1
  O  O33  1  0.81860989  0.78073098  0.11240440  1
  O  O34  1  0.68452607  0.27322664  0.38433529  1
  O  O35  1  0.19538258  0.21180215  0.88592431  1
  O  O36  1  0.81628052  0.14497055  0.60142539  1
  O  O37  1  0.32842208  0.34245124  0.10283419  1
  O  O38  1  0.17148771  0.83875626  0.39708677  1
  O  O39  1  0.68017910  0.64670777  0.89573226  1
  O  O40  1  0.98910942  0.62970780  0.61180180  1
  O  O41  1  0.49924786  0.85483356  0.11288472  1
  O  O42  1  0.00078428  0.35380996  0.39706913  1
  O  O43  1  0.50966931  0.13021483  0.89724597  1
  O  O44  1  0.50556469  0.12165617  0.60957787  1
  O  O45  1  0.01579247  0.36620108  0.10921927  1
  O  O46  1  0.48153375  0.84130861  0.39863901  1
  O  O47  1  0.99236478  0.64153681  0.89649954  1
  O  O48  1  0.18648654  0.20197533  0.60574017  1
  O  O49  1  0.69658025  0.28444733  0.10425150  1
  O  O50  1  0.79858797  0.77434153  0.39456022  1
  O  O51  1  0.30911333  0.71024982  0.89617914  1
  O  O52  1  0.66821114  0.63879201  0.60597642  1
  O  O53  1  0.17829253  0.84863669  0.10680601  1
  O  O54  1  0.31588984  0.34448963  0.39199406  1
  O  O55  1  0.82276810  0.14096851  0.89039184  1
