# generated using pymatgen
data_Sr2YCu3(PbO4)2
_symmetry_space_group_name_H-M   'P 1'
_cell_length_a   15.96440175
_cell_length_b   5.48290407
_cell_length_c   5.43727752
_cell_angle_alpha   90.00000000
_cell_angle_beta   90.00000000
_cell_angle_gamma   90.00000000
_symmetry_Int_Tables_number   1
_chemical_formula_structural   Sr2YCu3(PbO4)2
_chemical_formula_sum   'Sr4 Y2 Cu6 Pb4 O16'
_cell_volume   475.93187915
_cell_formula_units_Z   2
loop_
 _symmetry_equiv_pos_site_id
 _symmetry_equiv_pos_as_xyz
  1  'x, y, z'
loop_
 _atom_site_type_symbol
 _atom_site_label
 _atom_site_symmetry_multiplicity
 _atom_site_fract_x
 _atom_site_fract_y
 _atom_site_fract_z
 _atom_site_occupancy
  Sr  Sr0  1  0.77889798  0.74893079  0.75027105  1
  Sr  Sr1  1  0.77889798  0.25106921  0.24972895  1
  Sr  Sr2  1  0.22110202  0.24893079  0.24972895  1
  Sr  Sr3  1  0.22110202  0.75106921  0.75027105  1
  Y  Y4  1  0.00000000  0.25000000  0.25013708  1
  Y  Y5  1  0.00000000  0.75000000  0.74986292  1
  Cu  Cu6  1  0.50000000  0.75000000  0.76499059  1
  Cu  Cu7  1  0.50000000  0.25000000  0.23500941  1
  Cu  Cu8  1  0.89496257  0.75041667  0.25014278  1
  Cu  Cu9  1  0.89496257  0.24958333  0.74985722  1
  Cu  Cu10  1  0.10503743  0.25041667  0.74985722  1
  Cu  Cu11  1  0.10503743  0.74958333  0.25014278  1
  Pb  Pb12  1  0.61151288  0.25886485  0.75705079  1
  Pb  Pb13  1  0.61151288  0.74113515  0.24294921  1
  Pb  Pb14  1  0.38848712  0.75886485  0.24294921  1
  Pb  Pb15  1  0.38848712  0.24113515  0.75705079  1
  O  O16  1  0.74847491  0.75783150  0.25332903  1
  O  O17  1  0.74847491  0.24216850  0.74667097  1
  O  O18  1  0.25152509  0.25783150  0.74667097  1
  O  O19  1  0.25152509  0.74216850  0.25332903  1
  O  O20  1  0.61553357  0.69361510  0.77647003  1
  O  O21  1  0.61553357  0.30638490  0.22352997  1
  O  O22  1  0.38446643  0.19361510  0.22352997  1
  O  O23  1  0.38446643  0.80638490  0.77647003  1
  O  O24  1  0.90870705  0.00000000  0.50000000  1
  O  O25  1  0.09129295  0.50000000  0.50000000  1
  O  O26  1  0.90735505  0.50000000  0.00000000  1
  O  O27  1  0.09264495  0.00000000  0.00000000  1
  O  O28  1  0.90756880  0.50000000  0.50000000  1
  O  O29  1  0.09243120  0.00000000  0.50000000  1
  O  O30  1  0.90822694  0.00000000  0.00000000  1
  O  O31  1  0.09177306  0.50000000  0.00000000  1
