# generated using pymatgen
data_TiNi
_symmetry_space_group_name_H-M   'P 1'
_cell_length_a   2.73984895
_cell_length_b   4.69040228
_cell_length_c   12.79301884
_cell_angle_alpha   89.99409876
_cell_angle_beta   90.09492306
_cell_angle_gamma   94.96047777
_symmetry_Int_Tables_number   1
_chemical_formula_structural   TiNi
_chemical_formula_sum   'Ti6 Ni6'
_cell_volume   163.78702210
_cell_formula_units_Z   6
loop_
 _symmetry_equiv_pos_site_id
 _symmetry_equiv_pos_as_xyz
  1  'x, y, z'
loop_
 _atom_site_type_symbol
 _atom_site_label
 _atom_site_symmetry_multiplicity
 _atom_site_fract_x
 _atom_site_fract_y
 _atom_site_fract_z
 _atom_site_occupancy
  Ti  Ti0  1  0.07761265  0.54733912  0.83248159  1
  Ti  Ti1  1  0.92188475  0.95279709  0.66765050  1
  Ti  Ti2  1  0.97876827  0.97429847  0.00125022  1
  Ti  Ti3  1  0.90600615  0.94496361  0.33515648  1
  Ti  Ti4  1  0.09388824  0.55461693  0.16463072  1
  Ti  Ti5  1  0.02199405  0.52586455  0.49877400  1
  Ni  Ni6  1  0.49252764  0.42290636  0.66523905  1
  Ni  Ni7  1  0.48817466  0.41613141  0.33236843  1
  Ni  Ni8  1  0.55351865  0.43940848  0.99766538  1
  Ni  Ni9  1  0.50730808  0.07713851  0.83495348  1
  Ni  Ni10  1  0.51170037  0.08372819  0.16743856  1
  Ni  Ni11  1  0.44661649  0.06076729  0.50235158  1
