# generated using pymatgen
data_SiO2
_symmetry_space_group_name_H-M   'P 1'
_cell_length_a   7.22138099
_cell_length_b   7.22138099
_cell_length_c   21.10019192
_cell_angle_alpha   90.00000000
_cell_angle_beta   90.00000000
_cell_angle_gamma   90.00000000
_symmetry_Int_Tables_number   1
_chemical_formula_structural   SiO2
_chemical_formula_sum   'Si18 O36'
_cell_volume   1100.34005411
_cell_formula_units_Z   18
loop_
 _symmetry_equiv_pos_site_id
 _symmetry_equiv_pos_as_xyz
  1  'x, y, z'
loop_
 _atom_site_type_symbol
 _atom_site_label
 _atom_site_symmetry_multiplicity
 _atom_site_fract_x
 _atom_site_fract_y
 _atom_site_fract_z
 _atom_site_occupancy
  Si  Si0  1  0.28223577  0.50000000  0.07633421  1
  Si  Si1  1  0.50000000  0.28223577  0.57633421  1
  Si  Si2  1  0.50000000  0.71776423  0.57633421  1
  Si  Si3  1  0.28223577  0.50000000  0.92366579  1
  Si  Si4  1  0.71776423  0.50000000  0.92366579  1
  Si  Si5  1  0.71776423  0.50000000  0.07633421  1
  Si  Si6  1  0.50000000  0.28223577  0.42366579  1
  Si  Si7  1  0.50000000  0.71776423  0.42366579  1
  Si  Si8  1  0.00000000  0.79318868  0.12795728  1
  Si  Si9  1  0.20681132  0.00000000  0.62795728  1
  Si  Si10  1  0.79318868  0.00000000  0.62795728  1
  Si  Si11  1  0.00000000  0.20681132  0.87204272  1
  Si  Si12  1  0.00000000  0.79318868  0.87204272  1
  Si  Si13  1  0.00000000  0.20681132  0.12795728  1
  Si  Si14  1  0.79318868  0.00000000  0.37204272  1
  Si  Si15  1  0.20681132  0.00000000  0.37204272  1
  Si  Si16  1  0.00000000  0.00000000  0.75000000  1
  Si  Si17  1  0.00000000  0.00000000  0.25000000  1
  O  O18  1  0.25538135  0.50000000  0.00000000  1
  O  O19  1  0.50000000  0.25538135  0.50000000  1
  O  O20  1  0.50000000  0.74461865  0.50000000  1
  O  O21  1  0.74461865  0.50000000  0.00000000  1
  O  O22  1  0.18532734  0.68379254  0.10606964  1
  O  O23  1  0.31620746  0.18532734  0.60606964  1
  O  O24  1  0.68379254  0.81467266  0.60606964  1
  O  O25  1  0.18532734  0.31620746  0.89393036  1
  O  O26  1  0.81467266  0.68379254  0.89393036  1
  O  O27  1  0.81467266  0.31620746  0.10606964  1
  O  O28  1  0.68379254  0.18532734  0.39393036  1
  O  O29  1  0.31620746  0.81467266  0.39393036  1
  O  O30  1  0.81467266  0.31620746  0.89393036  1
  O  O31  1  0.68379254  0.81467266  0.39393036  1
  O  O32  1  0.31620746  0.18532734  0.39393036  1
  O  O33  1  0.81467266  0.68379254  0.10606964  1
  O  O34  1  0.18532734  0.31620746  0.10606964  1
  O  O35  1  0.18532734  0.68379254  0.89393036  1
  O  O36  1  0.31620746  0.81467266  0.60606964  1
  O  O37  1  0.68379254  0.18532734  0.60606964  1
  O  O38  1  0.50000000  0.50000000  0.09465022  1
  O  O39  1  0.50000000  0.50000000  0.59465022  1
  O  O40  1  0.50000000  0.50000000  0.90534978  1
  O  O41  1  0.50000000  0.50000000  0.40534978  1
  O  O42  1  0.00000000  0.00000000  0.09655068  1
  O  O43  1  0.00000000  0.00000000  0.59655068  1
  O  O44  1  0.00000000  0.00000000  0.90344932  1
  O  O45  1  0.00000000  0.00000000  0.40344932  1
  O  O46  1  0.00000000  0.81544844  0.20524689  1
  O  O47  1  0.18455156  0.00000000  0.70524689  1
  O  O48  1  0.81544844  0.00000000  0.70524689  1
  O  O49  1  0.00000000  0.18455156  0.79475311  1
  O  O50  1  0.00000000  0.81544844  0.79475311  1
  O  O51  1  0.00000000  0.18455156  0.20524689  1
  O  O52  1  0.81544844  0.00000000  0.29475311  1
  O  O53  1  0.18455156  0.00000000  0.29475311  1
