# generated using pymatgen
data_Eu2H4Pd
_symmetry_space_group_name_H-M   'P 1'
_cell_length_a   7.47629852
_cell_length_b   5.40193301
_cell_length_c   9.52579743
_cell_angle_alpha   90.00477481
_cell_angle_beta   90.17484473
_cell_angle_gamma   89.99010438
_symmetry_Int_Tables_number   1
_chemical_formula_structural   Eu2H4Pd
_chemical_formula_sum   'Eu8 H16 Pd4'
_cell_volume   384.71147493
_cell_formula_units_Z   4
loop_
 _symmetry_equiv_pos_site_id
 _symmetry_equiv_pos_as_xyz
  1  'x, y, z'
loop_
 _atom_site_type_symbol
 _atom_site_label
 _atom_site_symmetry_multiplicity
 _atom_site_fract_x
 _atom_site_fract_y
 _atom_site_fract_z
 _atom_site_occupancy
  Eu  Eu0  1  0.65074702  0.24962477  0.09190953  1
  Eu  Eu1  1  0.14966747  0.24982126  0.40698416  1
  Eu  Eu2  1  0.34911272  0.74998430  0.90843442  1
  Eu  Eu3  1  0.84916647  0.75030415  0.59316158  1
  Eu  Eu4  1  0.98852666  0.25007807  0.83067382  1
  Eu  Eu5  1  0.48909124  0.25015776  0.66856745  1
  Eu  Eu6  1  0.01144772  0.75000707  0.16877504  1
  Eu  Eu7  1  0.51211970  0.74980045  0.33193363  1
  H  H8  1  0.82706520  0.52194799  0.33940411  1
  H  H9  1  0.32736879  0.97782528  0.16003311  1
  H  H10  1  0.17281831  0.02090825  0.66037779  1
  H  H11  1  0.67348302  0.47741538  0.83991748  1
  H  H12  1  0.17318135  0.47816642  0.66050956  1
  H  H13  1  0.67272852  0.02217177  0.84026784  1
  H  H14  1  0.82734524  0.97907035  0.33948711  1
  H  H15  1  0.32656160  0.52253585  0.16037012  1
  H  H16  1  0.50136995  0.25036947  0.39793446  1
  H  H17  1  0.00175986  0.25003706  0.10228109  1
  H  H18  1  0.49843724  0.74973492  0.60250871  1
  H  H19  1  0.99793235  0.74993777  0.89701134  1
  H  H20  1  0.82233570  0.24991083  0.59513242  1
  H  H21  1  0.32265270  0.24987528  0.90498121  1
  H  H22  1  0.17820727  0.75017190  0.40455695  1
  H  H23  1  0.67734554  0.75017403  0.09508317  1
  Pd  Pd24  1  0.73938210  0.25066824  0.41565136  1
  Pd  Pd25  1  0.23957649  0.25017924  0.08423857  1
  Pd  Pd26  1  0.26040449  0.74936541  0.58399744  1
  Pd  Pd27  1  0.76016528  0.74975671  0.91581654  1
