# generated using pymatgen
data_P3CN4Cl7
_symmetry_space_group_name_H-M   'P 1'
_cell_length_a   10.60821514
_cell_length_b   10.77282730
_cell_length_c   13.00942355
_cell_angle_alpha   90.00000000
_cell_angle_beta   90.00000000
_cell_angle_gamma   111.25773742
_symmetry_Int_Tables_number   1
_chemical_formula_structural   P3CN4Cl7
_chemical_formula_sum   'P12 C4 N16 Cl28'
_cell_volume   1385.56478660
_cell_formula_units_Z   4
loop_
 _symmetry_equiv_pos_site_id
 _symmetry_equiv_pos_as_xyz
  1  'x, y, z'
loop_
 _atom_site_type_symbol
 _atom_site_label
 _atom_site_symmetry_multiplicity
 _atom_site_fract_x
 _atom_site_fract_y
 _atom_site_fract_z
 _atom_site_occupancy
  P  P0  1  0.27403822  0.26126857  0.64904513  1
  P  P1  1  0.42706266  0.75944759  0.60456336  1
  P  P2  1  0.45267952  0.52533822  0.70678360  1
  P  P3  1  0.04732048  0.47466178  0.20678360  1
  P  P4  1  0.22596178  0.73873143  0.14904513  1
  P  P5  1  0.72596178  0.73873143  0.35095487  1
  P  P6  1  0.54732048  0.47466178  0.29321640  1
  P  P7  1  0.92706266  0.75944759  0.89543664  1
  P  P8  1  0.77403822  0.26126857  0.85095487  1
  P  P9  1  0.07293734  0.24055241  0.10456336  1
  P  P10  1  0.95267952  0.52533822  0.79321640  1
  P  P11  1  0.57293734  0.24055241  0.39543664  1
  C  C12  1  0.33306734  0.15117702  0.47900073  1
  C  C13  1  0.66693266  0.84882298  0.52099927  1
  C  C14  1  0.83306734  0.15117702  0.02099927  1
  C  C15  1  0.16693266  0.84882298  0.97900073  1
  N  N16  1  0.89102293  0.60933541  0.86260918  1
  N  N17  1  0.91642198  0.14260937  0.09290592  1
  N  N18  1  0.85928828  0.37464238  0.77480690  1
  N  N19  1  0.64071172  0.62535762  0.27480690  1
  N  N20  1  0.10897707  0.39066459  0.13739082  1
  N  N21  1  0.13916405  0.76351348  0.05579286  1
  N  N22  1  0.35928828  0.37464238  0.72519310  1
  N  N23  1  0.08357802  0.85739063  0.90709408  1
  N  N24  1  0.63916405  0.76351348  0.44420714  1
  N  N25  1  0.36083595  0.23648652  0.55579286  1
  N  N26  1  0.60897707  0.39066459  0.36260918  1
  N  N27  1  0.39102293  0.60933541  0.63739082  1
  N  N28  1  0.58357802  0.85739063  0.59290592  1
  N  N29  1  0.86083595  0.23648652  0.94420714  1
  N  N30  1  0.41642198  0.14260937  0.40709408  1
  N  N31  1  0.14071172  0.62535762  0.22519310  1
  Cl  Cl32  1  0.38828516  0.70045030  0.09539708  1
  Cl  Cl33  1  0.63426225  0.53583151  0.65042817  1
  Cl  Cl34  1  0.81050700  0.90311622  0.26494736  1
  Cl  Cl35  1  0.18949300  0.09688378  0.73505264  1
  Cl  Cl36  1  0.32005609  0.75960874  0.47692206  1
  Cl  Cl37  1  0.67994391  0.24039126  0.52307794  1
  Cl  Cl38  1  0.13426225  0.53583151  0.84957183  1
  Cl  Cl39  1  0.61171484  0.29954970  0.90460292  1
  Cl  Cl40  1  0.11171484  0.29954970  0.59539708  1
  Cl  Cl41  1  0.33226168  0.96919778  0.96617106  1
  Cl  Cl42  1  0.66773832  0.03080222  0.03382894  1
  Cl  Cl43  1  0.31050700  0.90311622  0.23505264  1
  Cl  Cl44  1  0.14748184  0.14604540  0.20766391  1
  Cl  Cl45  1  0.85251816  0.85395460  0.79233609  1
  Cl  Cl46  1  0.88828516  0.70045030  0.40460292  1
  Cl  Cl47  1  0.35251816  0.85395460  0.70766391  1
  Cl  Cl48  1  0.83226168  0.96919778  0.53382894  1
  Cl  Cl49  1  0.50086365  0.60637727  0.84855530  1
  Cl  Cl50  1  0.64748184  0.14604540  0.29233609  1
  Cl  Cl51  1  0.16773832  0.03080222  0.46617106  1
  Cl  Cl52  1  0.17994391  0.24039126  0.97692206  1
  Cl  Cl53  1  0.86573775  0.46416849  0.15042817  1
  Cl  Cl54  1  0.36573775  0.46416849  0.34957183  1
  Cl  Cl55  1  0.68949300  0.09688378  0.76494736  1
  Cl  Cl56  1  0.49913635  0.39362273  0.15144470  1
  Cl  Cl57  1  0.82005609  0.75960874  0.02307794  1
  Cl  Cl58  1  0.99913635  0.39362273  0.34855530  1
  Cl  Cl59  1  0.00086365  0.60637727  0.65144470  1
