# generated using pymatgen
data_Al(HO)3
_symmetry_space_group_name_H-M   'P 1'
_cell_length_a   9.00204520
_cell_length_b   4.94031038
_cell_length_c   9.70458056
_cell_angle_alpha   90.00000000
_cell_angle_beta   90.73262432
_cell_angle_gamma   90.00000000
_symmetry_Int_Tables_number   1
_chemical_formula_structural   Al(HO)3
_chemical_formula_sum   'Al8 H24 O24'
_cell_volume   431.55553317
_cell_formula_units_Z   8
loop_
 _symmetry_equiv_pos_site_id
 _symmetry_equiv_pos_as_xyz
  1  'x, y, z'
loop_
 _atom_site_type_symbol
 _atom_site_label
 _atom_site_symmetry_multiplicity
 _atom_site_fract_x
 _atom_site_fract_y
 _atom_site_fract_z
 _atom_site_occupancy
  Al  Al0  1  0.33557720  0.02787751  0.50099483  1
  Al  Al1  1  0.83557720  0.47212249  0.00099483  1
  Al  Al2  1  0.66439955  0.96690171  0.50142503  1
  Al  Al3  1  0.16439955  0.53309829  0.00142503  1
  Al  Al4  1  0.16079354  0.52487430  0.50111489  1
  Al  Al5  1  0.66079354  0.97512570  0.00111489  1
  Al  Al6  1  0.83964139  0.46889838  0.50054041  1
  Al  Al7  1  0.33964139  0.03110162  0.00054041  1
  H  H8  1  0.39831567  0.60143650  0.62448098  1
  H  H9  1  0.89831567  0.89856350  0.12448098  1
  H  H10  1  0.60423599  0.39918740  0.37591188  1
  H  H11  1  0.10423599  0.10081260  0.87591188  1
  H  H12  1  0.81303738  0.16035395  0.70356771  1
  H  H13  1  0.31303738  0.33964605  0.20356771  1
  H  H14  1  0.18732147  0.83740257  0.29728414  1
  H  H15  1  0.68732147  0.66259743  0.79728414  1
  H  H16  1  0.97681713  0.83792640  0.60592825  1
  H  H17  1  0.47681713  0.66207360  0.10592825  1
  H  H18  1  0.02415673  0.15471087  0.39549859  1
  H  H19  1  0.52415673  0.34528913  0.89549859  1
  H  H20  1  0.50486379  0.12485951  0.70616964  1
  H  H21  1  0.00486379  0.37514049  0.20616964  1
  H  H22  1  0.49598349  0.87192797  0.29747610  1
  H  H23  1  0.99598349  0.62807203  0.79747610  1
  H  H24  1  0.19948958  0.22566136  0.70614202  1
  H  H25  1  0.69948958  0.27433864  0.20614202  1
  H  H26  1  0.80147407  0.77197317  0.29566393  1
  H  H27  1  0.30147407  0.72802683  0.79566393  1
  H  H28  1  0.60512427  0.50396919  0.61268758  1
  H  H29  1  0.10512427  0.99603081  0.11268758  1
  H  H30  1  0.39575859  0.48937502  0.38967669  1
  H  H31  1  0.89575859  0.01062498  0.88967669  1
  O  O32  1  0.30987848  0.71360465  0.61437516  1
  O  O33  1  0.80987848  0.78639535  0.11437516  1
  O  O34  1  0.68998488  0.28062873  0.38758933  1
  O  O35  1  0.18998488  0.21937127  0.88758933  1
  O  O36  1  0.82250142  0.14367698  0.60201255  1
  O  O37  1  0.32250142  0.35632302  0.10201255  1
  O  O38  1  0.17827499  0.85092286  0.39921566  1
  O  O39  1  0.67827499  0.64907714  0.89921566  1
  O  O40  1  0.99543550  0.64129392  0.60882960  1
  O  O41  1  0.49543550  0.85870608  0.10882960  1
  O  O42  1  0.00539213  0.35157894  0.39225404  1
  O  O43  1  0.50539213  0.14842106  0.89225404  1
  O  O44  1  0.50920967  0.14871589  0.60412016  1
  O  O45  1  0.00920967  0.35128411  0.10412016  1
  O  O46  1  0.49120778  0.84384052  0.39897950  1
  O  O47  1  0.99120778  0.65615948  0.89897950  1
  O  O48  1  0.19306377  0.21109817  0.60469518  1
  O  O49  1  0.69306377  0.28890183  0.10469518  1
  O  O50  1  0.80719968  0.78334091  0.39733822  1
  O  O51  1  0.30719968  0.71665909  0.89733822  1
  O  O52  1  0.68283713  0.64474007  0.61375416  1
  O  O53  1  0.18283713  0.85525993  0.11375416  1
  O  O54  1  0.31785176  0.34902615  0.38867878  1
  O  O55  1  0.81785176  0.15097385  0.88867878  1
