# generated using pymatgen
data_Tm10In20Co9
_symmetry_space_group_name_H-M   'P 1'
_cell_length_a   9.10127048
_cell_length_b   13.08826355
_cell_length_c   13.08826355
_cell_angle_alpha   90.00000000
_cell_angle_beta   90.00000000
_cell_angle_gamma   90.00000000
_symmetry_Int_Tables_number   1
_chemical_formula_structural   Tm10In20Co9
_chemical_formula_sum   'Tm20 In40 Co18'
_cell_volume   1559.07168565
_cell_formula_units_Z   2
loop_
 _symmetry_equiv_pos_site_id
 _symmetry_equiv_pos_as_xyz
  1  'x, y, z'
loop_
 _atom_site_type_symbol
 _atom_site_label
 _atom_site_symmetry_multiplicity
 _atom_site_fract_x
 _atom_site_fract_y
 _atom_site_fract_z
 _atom_site_occupancy
  Tm  Tm0  1  0.72977746  0.95392796  0.95392796  1
  Tm  Tm1  1  0.27022254  0.04607204  0.45392796  1
  Tm  Tm2  1  0.23131004  0.47485093  0.75000000  1
  Tm  Tm3  1  0.36283163  0.25000000  0.25000000  1
  Tm  Tm4  1  0.83923246  0.25000000  0.25000000  1
  Tm  Tm5  1  0.72977746  0.54607204  0.95392796  1
  Tm  Tm6  1  0.63716837  0.75000000  0.75000000  1
  Tm  Tm7  1  0.16076754  0.75000000  0.75000000  1
  Tm  Tm8  1  0.23131004  0.75000000  0.02514907  1
  Tm  Tm9  1  0.76868996  0.25000000  0.52514907  1
  Tm  Tm10  1  0.76868996  0.25000000  0.97485093  1
  Tm  Tm11  1  0.72977746  0.54607204  0.54607204  1
  Tm  Tm12  1  0.27022254  0.04607204  0.04607204  1
  Tm  Tm13  1  0.72977746  0.95392796  0.54607204  1
  Tm  Tm14  1  0.76868996  0.97485093  0.25000000  1
  Tm  Tm15  1  0.23131004  0.02514907  0.75000000  1
  Tm  Tm16  1  0.76868996  0.52514907  0.25000000  1
  Tm  Tm17  1  0.27022254  0.45392796  0.04607204  1
  Tm  Tm18  1  0.27022254  0.45392796  0.45392796  1
  Tm  Tm19  1  0.23131004  0.75000000  0.47485093  1
  In  In20  1  0.50000000  0.37888088  0.87888088  1
  In  In21  1  0.58984694  0.11918175  0.38081825  1
  In  In22  1  0.23591493  0.25000000  0.86421769  1
  In  In23  1  0.00000000  0.59785782  0.09785782  1
  In  In24  1  0.00000000  0.90214218  0.09785782  1
  In  In25  1  0.50000000  0.12111912  0.62111912  1
  In  In26  1  0.00000000  0.09785782  0.59785782  1
  In  In27  1  0.50000000  0.87888088  0.12111912  1
  In  In28  1  0.76408507  0.75000000  0.13578231  1
  In  In29  1  0.90428778  0.91829964  0.75000000  1
  In  In30  1  0.09571222  0.08170036  0.25000000  1
  In  In31  1  0.41015306  0.88081825  0.88081825  1
  In  In32  1  0.09571222  0.41829964  0.25000000  1
  In  In33  1  0.58984694  0.38081825  0.38081825  1
  In  In34  1  0.00000000  0.40214218  0.90214218  1
  In  In35  1  0.41015306  0.61918175  0.61918175  1
  In  In36  1  0.23591493  0.63578231  0.25000000  1
  In  In37  1  0.58984694  0.11918175  0.11918175  1
  In  In38  1  0.90428778  0.75000000  0.58170036  1
  In  In39  1  0.09571222  0.25000000  0.41829964  1
  In  In40  1  0.50000000  0.62111912  0.37888088  1
  In  In41  1  0.00000000  0.40214218  0.59785782  1
  In  In42  1  0.00000000  0.59785782  0.40214218  1
  In  In43  1  0.58984694  0.38081825  0.11918175  1
  In  In44  1  0.23591493  0.86421769  0.25000000  1
  In  In45  1  0.41015306  0.61918175  0.88081825  1
  In  In46  1  0.76408507  0.13578231  0.75000000  1
  In  In47  1  0.09571222  0.25000000  0.08170036  1
  In  In48  1  0.50000000  0.62111912  0.12111912  1
  In  In49  1  0.90428778  0.75000000  0.91829964  1
  In  In50  1  0.50000000  0.87888088  0.37888088  1
  In  In51  1  0.41015306  0.88081825  0.61918175  1
  In  In52  1  0.76408507  0.75000000  0.36421769  1
  In  In53  1  0.50000000  0.12111912  0.87888088  1
  In  In54  1  0.00000000  0.90214218  0.40214218  1
  In  In55  1  0.76408507  0.36421769  0.75000000  1
  In  In56  1  0.00000000  0.09785782  0.90214218  1
  In  In57  1  0.23591493  0.25000000  0.63578231  1
  In  In58  1  0.50000000  0.37888088  0.62111912  1
  In  In59  1  0.90428778  0.58170036  0.75000000  1
  Co  Co60  1  0.89646448  0.09210559  0.40789441  1
  Co  Co61  1  0.40616648  0.25000000  0.02525741  1
  Co  Co62  1  0.59383352  0.52525741  0.75000000  1
  Co  Co63  1  0.40616648  0.47474259  0.25000000  1
  Co  Co64  1  0.59383352  0.75000000  0.97474259  1
  Co  Co65  1  0.10353552  0.90789441  0.59210559  1
  Co  Co66  1  0.10353552  0.59210559  0.59210559  1
  Co  Co67  1  0.40616648  0.02525741  0.25000000  1
  Co  Co68  1  0.89646448  0.40789441  0.09210559  1
  Co  Co69  1  0.10353552  0.59210559  0.90789441  1
  Co  Co70  1  0.00000000  0.25000000  0.75000000  1
  Co  Co71  1  0.40616648  0.25000000  0.47474259  1
  Co  Co72  1  0.10353552  0.90789441  0.90789441  1
  Co  Co73  1  0.89646448  0.09210559  0.09210559  1
  Co  Co74  1  0.59383352  0.75000000  0.52525741  1
  Co  Co75  1  0.00000000  0.75000000  0.25000000  1
  Co  Co76  1  0.89646448  0.40789441  0.40789441  1
  Co  Co77  1  0.59383352  0.97474259  0.75000000  1
