# generated using pymatgen
data_Ce3(Ge3Pd10)2
_symmetry_space_group_name_H-M   'P 1'
_cell_length_a   8.87993284
_cell_length_b   8.88002483
_cell_length_c   8.88020078
_cell_angle_alpha   59.99934279
_cell_angle_beta   59.99847378
_cell_angle_gamma   59.99943543
_symmetry_Int_Tables_number   1
_chemical_formula_structural   Ce3(Ge3Pd10)2
_chemical_formula_sum   'Ce3 Ge6 Pd20'
_cell_volume   495.13386268
_cell_formula_units_Z   1
loop_
 _symmetry_equiv_pos_site_id
 _symmetry_equiv_pos_as_xyz
  1  'x, y, z'
loop_
 _atom_site_type_symbol
 _atom_site_label
 _atom_site_symmetry_multiplicity
 _atom_site_fract_x
 _atom_site_fract_y
 _atom_site_fract_z
 _atom_site_occupancy
  Ce  Ce0  1  -0.00000076  0.99999788  0.00000339  1
  Ce  Ce1  1  0.25001172  0.25000138  0.24998832  1
  Ce  Ce2  1  0.75000877  0.75000948  0.74997931  1
  Ge  Ge3  1  0.73133740  0.26865703  0.26865430  1
  Ge  Ge4  1  0.26866771  0.73133373  0.26865727  1
  Ge  Ge5  1  0.73134922  0.73135018  0.26865031  1
  Ge  Ge6  1  0.26865777  0.73134730  0.73135292  1
  Ge  Ge7  1  0.26864189  0.26864214  0.73135732  1
  Ge  Ge8  1  0.73133557  0.26866147  0.73134665  1
  Pd  Pd9  1  0.38170808  0.38174879  0.85476702  1
  Pd  Pd10  1  0.65115741  0.00040167  0.34807407  1
  Pd  Pd11  1  0.00036691  0.00034952  0.34816566  1
  Pd  Pd12  1  0.34806768  0.65122946  0.00036249  1
  Pd  Pd13  1  0.34811797  0.00030898  0.00036498  1
  Pd  Pd14  1  0.38169486  0.38174462  0.38176943  1
  Pd  Pd15  1  0.00033085  0.34814224  0.00037388  1
  Pd  Pd16  1  0.65116815  0.00039350  0.00034948  1
  Pd  Pd17  1  0.00038551  0.65113051  0.00035768  1
  Pd  Pd18  1  0.00031230  0.34814420  0.65117717  1
  Pd  Pd19  1  0.61779664  0.61774200  0.14673935  1
  Pd  Pd20  1  0.61779907  0.61774012  0.61771983  1
  Pd  Pd21  1  0.34809433  0.00033653  0.65120125  1
  Pd  Pd22  1  0.14681000  0.61776057  0.61771218  1
  Pd  Pd23  1  0.00033962  0.00035911  0.65113287  1
  Pd  Pd24  1  0.61780147  0.14678864  0.61770577  1
  Pd  Pd25  1  0.65121124  0.34805447  0.00035931  1
  Pd  Pd26  1  0.00038044  0.65114942  0.34813733  1
  Pd  Pd27  1  0.85474867  0.38172558  0.38176491  1
  Pd  Pd28  1  0.38169948  0.85474949  0.38177554  1
