# generated using pymatgen
data_Ce10Se19
_symmetry_space_group_name_H-M   'P 1'
_cell_length_a   9.39427308
_cell_length_b   9.39427308
_cell_length_c   16.66787630
_cell_angle_alpha   90.00000000
_cell_angle_beta   90.00000000
_cell_angle_gamma   90.00000000
_symmetry_Int_Tables_number   1
_chemical_formula_structural   Ce10Se19
_chemical_formula_sum   'Ce20 Se38'
_cell_volume   1470.97953136
_cell_formula_units_Z   2
loop_
 _symmetry_equiv_pos_site_id
 _symmetry_equiv_pos_as_xyz
  1  'x, y, z'
loop_
 _atom_site_type_symbol
 _atom_site_label
 _atom_site_symmetry_multiplicity
 _atom_site_fract_x
 _atom_site_fract_y
 _atom_site_fract_z
 _atom_site_occupancy
  Ce  Ce0  1  0.25000000  0.75000000  0.38107845  1
  Ce  Ce1  1  0.44843734  0.14708251  0.39233800  1
  Ce  Ce2  1  0.25000000  0.75000000  0.88107845  1
  Ce  Ce3  1  0.75000000  0.25000000  0.11892155  1
  Ce  Ce4  1  0.35291749  0.44843734  0.10766200  1
  Ce  Ce5  1  0.45708973  0.15095187  0.88005426  1
  Ce  Ce6  1  0.84904813  0.95708973  0.38005426  1
  Ce  Ce7  1  0.05156266  0.35291749  0.39233800  1
  Ce  Ce8  1  0.34904813  0.45708973  0.61994574  1
  Ce  Ce9  1  0.55156266  0.85291749  0.60766200  1
  Ce  Ce10  1  0.15095187  0.04291027  0.61994574  1
  Ce  Ce11  1  0.04291027  0.34904813  0.88005426  1
  Ce  Ce12  1  0.94843734  0.64708251  0.60766200  1
  Ce  Ce13  1  0.85291749  0.94843734  0.89233800  1
  Ce  Ce14  1  0.65095187  0.54291027  0.38005426  1
  Ce  Ce15  1  0.95708973  0.65095187  0.11994574  1
  Ce  Ce16  1  0.75000000  0.25000000  0.61892155  1
  Ce  Ce17  1  0.54291027  0.84904813  0.11994574  1
  Ce  Ce18  1  0.14708251  0.05156266  0.10766200  1
  Ce  Ce19  1  0.64708251  0.55156266  0.89233800  1
  Se  Se20  1  0.94141119  0.13078142  0.75009635  1
  Se  Se21  1  0.75000000  0.25000000  0.93416141  1
  Se  Se22  1  0.02565741  0.82862242  0.74978876  1
  Se  Se23  1  0.47434259  0.67137758  0.74978876  1
  Se  Se24  1  0.05858881  0.86921858  0.24990365  1
  Se  Se25  1  0.36921858  0.94141119  0.74990365  1
  Se  Se26  1  0.82862242  0.47434259  0.75021124  1
  Se  Se27  1  0.25000000  0.75000000  0.56583859  1
  Se  Se28  1  0.64993843  0.55352418  0.56514597  1
  Se  Se29  1  0.25000000  0.75000000  0.06583859  1
  Se  Se30  1  0.67137758  0.02565741  0.75021124  1
  Se  Se31  1  0.86921858  0.44141119  0.25009635  1
  Se  Se32  1  0.05352418  0.35006157  0.06514597  1
  Se  Se33  1  0.97434259  0.17137758  0.25021124  1
  Se  Se34  1  0.15209959  0.04879182  0.92737084  1
  Se  Se35  1  0.95120818  0.65209959  0.42737084  1
  Se  Se36  1  0.32862242  0.97434259  0.24978876  1
  Se  Se37  1  0.54879182  0.84790041  0.42737084  1
  Se  Se38  1  0.34790041  0.45120818  0.92737084  1
  Se  Se39  1  0.13078142  0.55858881  0.74990365  1
  Se  Se40  1  0.52565741  0.32862242  0.25021124  1
  Se  Se41  1  0.04879182  0.34790041  0.57262916  1
  Se  Se42  1  0.35006157  0.44647582  0.43485403  1
  Se  Se43  1  0.84790041  0.95120818  0.07262916  1
  Se  Se44  1  0.44141119  0.63078142  0.24990365  1
  Se  Se45  1  0.25000000  0.25000000  0.75000000  1
  Se  Se46  1  0.55858881  0.36921858  0.75009635  1
  Se  Se47  1  0.45120818  0.15209959  0.57262916  1
  Se  Se48  1  0.17137758  0.52565741  0.24978876  1
  Se  Se49  1  0.94647582  0.64993843  0.93485403  1
  Se  Se50  1  0.63078142  0.05858881  0.25009635  1
  Se  Se51  1  0.65209959  0.54879182  0.07262916  1
  Se  Se52  1  0.44647582  0.14993843  0.06514597  1
  Se  Se53  1  0.55352418  0.85006157  0.93485403  1
  Se  Se54  1  0.85006157  0.94647582  0.56514597  1
  Se  Se55  1  0.14993843  0.05352418  0.43485403  1
  Se  Se56  1  0.75000000  0.25000000  0.43416141  1
  Se  Se57  1  0.75000000  0.75000000  0.25000000  1
