# generated using pymatgen
data_Nb3IrS8
_symmetry_space_group_name_H-M   'P 1'
_cell_length_a   6.76098943
_cell_length_b   6.72173159
_cell_length_c   13.18069169
_cell_angle_alpha   97.86612684
_cell_angle_beta   74.95228281
_cell_angle_gamma   120.12121126
_symmetry_Int_Tables_number   1
_chemical_formula_structural   Nb3IrS8
_chemical_formula_sum   'Nb6 Ir2 S16'
_cell_volume   500.33602160
_cell_formula_units_Z   2
loop_
 _symmetry_equiv_pos_site_id
 _symmetry_equiv_pos_as_xyz
  1  'x, y, z'
loop_
 _atom_site_type_symbol
 _atom_site_label
 _atom_site_symmetry_multiplicity
 _atom_site_fract_x
 _atom_site_fract_y
 _atom_site_fract_z
 _atom_site_occupancy
  Nb  Nb0  1  0.03398743  0.52884127  0.00153031  1
  Nb  Nb1  1  0.01835822  0.00030885  0.99994287  1
  Nb  Nb2  1  0.50796444  0.47286794  0.99856522  1
  Nb  Nb3  1  0.24053993  0.03032599  0.50326423  1
  Nb  Nb4  1  0.73380027  0.50090366  0.49919161  1
  Nb  Nb5  1  0.71436293  0.97094710  0.49831971  1
  Ir  Ir6  1  0.29146418  0.50211021  0.50021430  1
  Ir  Ir7  1  0.46008043  0.00054026  0.99978368  1
  S  S8  1  0.09449439  0.83743511  0.13153983  1
  S  S9  1  0.12360394  0.33884727  0.12095644  1
  S  S10  1  0.15297111  0.65786848  0.39747757  1
  S  S11  1  0.59887796  0.84568404  0.10290167  1
  S  S12  1  0.33946013  0.82344683  0.61933864  1
  S  S13  1  0.13594709  0.17986616  0.38284842  1
  S  S14  1  0.61285392  0.32230082  0.11826976  1
  S  S15  1  0.36283685  0.33986645  0.63181944  1
  S  S16  1  0.40940914  0.67799623  0.88130966  1
  S  S17  1  0.65754253  0.66337786  0.36777100  1
  S  S18  1  0.84115377  0.83697433  0.62154455  1
  S  S19  1  0.62329177  0.15972460  0.37950421  1
  S  S20  1  0.39111442  0.16512238  0.86856951  1
  S  S21  1  0.89328044  0.34465171  0.60186352  1
  S  S22  1  0.90759860  0.66400823  0.87874651  1
  S  S23  1  0.85827109  0.15616123  0.89702635  1
