# generated using pymatgen
data_Ba2YTlCu2O7
_symmetry_space_group_name_H-M   'P 1'
_cell_length_a   3.87821814
_cell_length_b   3.87823818
_cell_length_c   12.81036143
_cell_angle_alpha   89.99946402
_cell_angle_beta   89.99978866
_cell_angle_gamma   90.00020934
_symmetry_Int_Tables_number   1
_chemical_formula_structural   Ba2YTlCu2O7
_chemical_formula_sum   'Ba2 Y1 Tl1 Cu2 O7'
_cell_volume   192.67620953
_cell_formula_units_Z   1
loop_
 _symmetry_equiv_pos_site_id
 _symmetry_equiv_pos_as_xyz
  1  'x, y, z'
loop_
 _atom_site_type_symbol
 _atom_site_label
 _atom_site_symmetry_multiplicity
 _atom_site_fract_x
 _atom_site_fract_y
 _atom_site_fract_z
 _atom_site_occupancy
  Ba  Ba0  1  0.50000129  0.50000062  0.20682606  1
  Ba  Ba1  1  0.50000010  0.50000446  0.79319196  1
  Y  Y2  1  0.49999802  0.49999595  0.49999759  1
  Tl  Tl3  1  0.00000225  0.00000020  0.00003170  1
  Cu  Cu4  1  0.00000529  0.00000927  0.37482529  1
  Cu  Cu5  1  0.99999806  0.99999820  0.62512783  1
  O  O6  1  -0.00000162  -0.00000287  0.16461497  1
  O  O7  1  -0.00000373  0.49999888  0.38764398  1
  O  O8  1  0.50000288  -0.00000298  0.38764407  1
  O  O9  1  0.49999895  0.00000290  0.61234238  1
  O  O10  1  0.49999928  0.49999810  0.00001265  1
  O  O11  1  0.00000089  0.49999454  0.61234385  1
  O  O12  1  -0.00000166  0.00000274  0.83539769  1
