# generated using pymatgen
data_Pr2PbSe4
_symmetry_space_group_name_H-M   'P 1'
_cell_length_a   7.88259611
_cell_length_b   7.88259687
_cell_length_c   7.88259666
_cell_angle_alpha   109.47295819
_cell_angle_beta   109.47296015
_cell_angle_gamma   109.46774759
_symmetry_Int_Tables_number   1
_chemical_formula_structural   Pr2PbSe4
_chemical_formula_sum   'Pr4 Pb2 Se8'
_cell_volume   377.03874637
_cell_formula_units_Z   2
loop_
 _symmetry_equiv_pos_site_id
 _symmetry_equiv_pos_as_xyz
  1  'x, y, z'
loop_
 _atom_site_type_symbol
 _atom_site_label
 _atom_site_symmetry_multiplicity
 _atom_site_fract_x
 _atom_site_fract_y
 _atom_site_fract_z
 _atom_site_occupancy
  Pr  Pr0  1  0.11792714  0.75000000  0.86792714  1
  Pr  Pr1  1  0.25000000  0.61792714  0.36792714  1
  Pr  Pr2  1  0.38207286  0.25000000  0.63207286  1
  Pr  Pr3  1  0.75000000  0.88207286  0.13207286  1
  Pb  Pb4  1  0.62500000  0.37500000  0.25000000  1
  Pb  Pb5  1  0.87500000  0.12500000  0.75000000  1
  Se  Se6  1  0.00717191  0.85545194  0.49831752  1
  Se  Se7  1  0.00885439  0.35713442  0.50168248  1
  Se  Se8  1  0.49114561  0.99282809  0.34828003  1
  Se  Se9  1  0.14454806  0.14286558  0.15171997  1
  Se  Se10  1  0.35545194  0.50717191  0.99831752  1
  Se  Se11  1  0.64286558  0.64454806  0.65171997  1
  Se  Se12  1  0.49282809  0.99114561  0.84828003  1
  Se  Se13  1  0.85713442  0.50885439  0.00168248  1
