# generated using pymatgen
data_Tb2S3
_symmetry_space_group_name_H-M   'P 1'
_cell_length_a   21.66928635
_cell_length_b   8.34780323
_cell_length_c   8.34780310
_cell_angle_alpha   90.00000000
_cell_angle_beta   54.70018688
_cell_angle_gamma   54.70018626
_symmetry_Int_Tables_number   1
_chemical_formula_structural   Tb2S3
_chemical_formula_sum   'Tb16 S24'
_cell_volume   870.29688783
_cell_formula_units_Z   8
loop_
 _symmetry_equiv_pos_site_id
 _symmetry_equiv_pos_as_xyz
  1  'x, y, z'
loop_
 _atom_site_type_symbol
 _atom_site_label
 _atom_site_symmetry_multiplicity
 _atom_site_fract_x
 _atom_site_fract_y
 _atom_site_fract_z
 _atom_site_occupancy
  Tb  Tb0  1  0.99529215  0.39355359  0.24825532  1
  Tb  Tb1  1  0.99529215  0.12056995  0.76586822  1
  Tb  Tb2  1  0.08400590  0.62399065  0.37399065  1
  Tb  Tb3  1  0.16666700  0.25000000  0.63106921  1
  Tb  Tb4  1  0.33804085  0.37943005  0.25174468  1
  Tb  Tb5  1  0.24932710  0.87600935  0.12600935  1
  Tb  Tb6  1  0.33804085  0.10644641  0.73413178  1
  Tb  Tb7  1  0.16666700  0.75000000  0.86893079  1
  Tb  Tb8  1  0.49529215  0.26586822  0.62056995  1
  Tb  Tb9  1  0.66666700  0.36893079  0.25000000  1
  Tb  Tb10  1  0.58400590  0.87399065  0.12399065  1
  Tb  Tb11  1  0.66666700  0.13106921  0.75000000  1
  Tb  Tb12  1  0.49529215  0.74825532  0.89355359  1
  Tb  Tb13  1  0.74932710  0.62600935  0.37600935  1
  Tb  Tb14  1  0.83804085  0.23413178  0.60644641  1
  Tb  Tb15  1  0.83804085  0.75174468  0.87943005  1
  S  S16  1  0.04882746  0.99845970  0.35847147  1
  S  S17  1  0.12702175  0.48824455  0.99248540  1
  S  S18  1  0.04882746  0.35505893  0.49504716  1
  S  S19  1  0.28450654  0.14494107  0.14152853  1
  S  S20  1  0.28450654  0.50154030  0.00495284  1
  S  S21  1  0.20631125  0.01175545  0.87355063  1
  S  S22  1  0.12702175  0.63069021  0.62644937  1
  S  S23  1  0.38268770  0.00307720  0.34671705  1
  S  S24  1  0.20631125  0.86930979  0.50751460  1
  S  S25  1  0.45064530  0.49478016  0.99692280  1
  S  S26  1  0.38268770  0.34885969  0.50521984  1
  S  S27  1  0.62702175  0.12644937  0.13069021  1
  S  S28  1  0.62702175  0.49248540  0.98824455  1
  S  S29  1  0.54882746  0.99504716  0.85505893  1
  S  S30  1  0.45064530  0.65328295  0.65114031  1
  S  S31  1  0.70631125  0.00751460  0.36930979  1
  S  S32  1  0.54882746  0.85847147  0.49845970  1
  S  S33  1  0.78450654  0.50495284  0.00154030  1
  S  S34  1  0.70631125  0.37355063  0.51175545  1
  S  S35  1  0.95064530  0.15114031  0.15328295  1
  S  S36  1  0.95064530  0.49692280  0.99478016  1
  S  S37  1  0.78450654  0.64152853  0.64494107  1
  S  S38  1  0.88268770  0.00521984  0.84885969  1
  S  S39  1  0.88268770  0.84671705  0.50307720  1
