# generated using pymatgen
data_Nd12Si5Se28
_symmetry_space_group_name_H-M   'P 1'
_cell_length_a   10.61459378
_cell_length_b   10.61564065
_cell_length_c   24.38082291
_cell_angle_alpha   90.00104694
_cell_angle_beta   89.99983246
_cell_angle_gamma   120.00257876
_symmetry_Int_Tables_number   1
_chemical_formula_structural   Nd12Si5Se28
_chemical_formula_sum   'Nd24 Si10 Se56'
_cell_volume   2379.12517733
_cell_formula_units_Z   2
loop_
 _symmetry_equiv_pos_site_id
 _symmetry_equiv_pos_as_xyz
  1  'x, y, z'
loop_
 _atom_site_type_symbol
 _atom_site_label
 _atom_site_symmetry_multiplicity
 _atom_site_fract_x
 _atom_site_fract_y
 _atom_site_fract_z
 _atom_site_occupancy
  Nd  Nd0  1  0.12565190  0.77441186  0.42869596  1
  Nd  Nd1  1  0.13228947  0.78221207  0.18902331  1
  Nd  Nd2  1  0.12577951  0.76274538  0.67183000  1
  Nd  Nd3  1  0.13225001  0.77263802  0.92733528  1
  Nd  Nd4  1  0.21780432  0.35007354  0.18902318  1
  Nd  Nd5  1  0.22565945  0.35124363  0.42869234  1
  Nd  Nd6  1  0.23725851  0.36301629  0.67183166  1
  Nd  Nd7  1  0.22736703  0.35960791  0.92733790  1
  Nd  Nd8  1  0.64993244  0.86771611  0.18901764  1
  Nd  Nd9  1  0.64873084  0.87436083  0.42869825  1
  Nd  Nd10  1  0.63696242  0.87422416  0.67182694  1
  Nd  Nd11  1  0.64040034  0.86775646  0.92733784  1
  Nd  Nd12  1  0.36832907  0.13787382  0.06129626  1
  Nd  Nd13  1  0.35277598  0.13032033  0.30791240  1
  Nd  Nd14  1  0.34424038  0.11985858  0.54496284  1
  Nd  Nd15  1  0.36067279  0.13169554  0.80345988  1
  Nd  Nd16  1  0.76953868  0.63166929  0.06129557  1
  Nd  Nd17  1  0.77752371  0.64722160  0.30791064  1
  Nd  Nd18  1  0.77559170  0.65576793  0.54495871  1
  Nd  Nd19  1  0.77101585  0.63932930  0.80345769  1
  Nd  Nd20  1  0.86213118  0.23046263  0.06129537  1
  Nd  Nd21  1  0.86967629  0.22245363  0.30790696  1
  Nd  Nd22  1  0.88013610  0.22437362  0.54495770  1
  Nd  Nd23  1  0.86830767  0.22898594  0.80345889  1
  Si  Si24  1  0.33331799  0.66665283  0.07625800  1
  Si  Si25  1  0.33334012  0.66668185  0.32717086  1
  Si  Si26  1  0.33333530  0.66667143  0.57283250  1
  Si  Si27  1  0.33332620  0.66666459  0.82178881  1
  Si  Si28  1  0.66668811  0.33335212  0.20531079  1
  Si  Si29  1  0.66665574  0.33332313  0.45019292  1
  Si  Si30  1  0.66666864  0.33333630  0.69806240  1
  Si  Si31  1  0.66668045  0.33334867  0.95277377  1
  Si  Si32  1  0.99999042  -0.00000209  0.73429990  1
  Si  Si33  1  0.00001823  0.99999820  0.98598758  1
  Se  Se34  1  0.08670871  0.86067000  0.03764832  1
  Se  Se35  1  0.09447854  0.83886047  0.30086353  1
  Se  Se36  1  0.08679773  0.85171125  0.79282852  1
  Se  Se37  1  0.08915106  0.82995908  0.55210554  1
  Se  Se38  1  0.10543374  0.52177587  0.36432520  1
  Se  Se39  1  0.10493519  0.52621124  0.11255402  1
  Se  Se40  1  0.10455460  0.51488268  0.61112060  1
  Se  Se41  1  0.10543622  0.52132914  0.85987735  1
  Se  Se42  1  0.42127946  0.89507008  0.11255176  1
  Se  Se43  1  0.41636169  0.89459333  0.36431929  1
  Se  Se44  1  0.41590689  0.89456883  0.85987594  1
  Se  Se45  1  0.41034851  0.89545745  0.61111382  1
  Se  Se46  1  0.33334303  0.66666455  0.23364522  1
  Se  Se47  1  0.33332748  0.66664688  0.48111130  1
  Se  Se48  1  0.33333036  0.66666066  0.72988284  1
  Se  Se49  1  0.33333355  0.66666237  0.98204230  1
  Se  Se50  1  0.13934826  0.22604277  0.03765056  1
  Se  Se51  1  0.16119541  0.25563254  0.30086947  1
  Se  Se52  1  0.17006698  0.25919387  0.55211104  1
  Se  Se53  1  0.14831346  0.23508712  0.79282820  1
  Se  Se54  1  0.47824676  0.58367701  0.36431498  1
  Se  Se55  1  0.47380025  0.57873904  0.11254958  1
  Se  Se56  1  0.47868672  0.58412495  0.85987096  1
  Se  Se57  1  0.48512222  0.58967209  0.61111566  1
  Se  Se58  1  0.25800688  0.09785873  0.17145490  1
  Se  Se59  1  0.25556380  0.09108645  0.42583589  1
  Se  Se60  1  0.23159376  0.07978245  0.68344855  1
  Se  Se61  1  0.24401690  0.08895954  0.92545812  1
  Se  Se62  1  0.77394941  0.91329284  0.03765074  1
  Se  Se63  1  0.74436134  0.90554017  0.30086176  1
  Se  Se64  1  0.74079213  0.91085572  0.55211295  1
  Se  Se65  1  0.76493297  0.91321568  0.79282382  1
  Se  Se66  1  0.52280468  0.41876872  0.24037892  1
  Se  Se67  1  0.52067118  0.41499281  0.48781818  1
  Se  Se68  1  0.52146155  0.41569796  0.73711131  1
  Se  Se69  1  0.52071910  0.41695602  0.98865974  1
  Se  Se70  1  0.83984538  0.74198923  0.17145917  1
  Se  Se71  1  0.83553669  0.74446021  0.42583509  1
  Se  Se72  1  0.84819022  0.76841360  0.68345003  1
  Se  Se73  1  0.84492551  0.75596711  0.92545647  1
  Se  Se74  1  0.66667767  0.33334528  0.11080580  1
  Se  Se75  1  0.66658318  0.33327539  0.35772360  1
  Se  Se76  1  0.66667671  0.33334486  0.85943876  1
  Se  Se77  1  0.66664624  0.33331738  0.60670381  1
  Se  Se78  1  0.58494772  0.10566030  0.48780537  1
  Se  Se79  1  0.58427715  0.10575744  0.73710883  1
  Se  Se80  1  0.58119348  0.10403005  0.24037748  1
  Se  Se81  1  0.58302113  0.10376655  0.98865544  1
  Se  Se82  1  0.89596617  0.47717382  0.24038535  1
  Se  Se83  1  0.89430371  0.47929699  0.48783087  1
  Se  Se84  1  0.89423726  0.47851851  0.73711310  1
  Se  Se85  1  0.89623582  0.47927050  0.98866210  1
  Se  Se86  1  0.90213976  0.16014479  0.17145401  1
  Se  Se87  1  0.91102746  0.15506965  0.92545216  1
  Se  Se88  1  0.90892486  0.16445338  0.42584016  1
  Se  Se89  1  0.92021650  0.15180013  0.68344974  1
