# generated using pymatgen
data_Ni5Ge2P3
_symmetry_space_group_name_H-M   'P 1'
_cell_length_a   4.99446268
_cell_length_b   5.97891210
_cell_length_c   34.89382502
_cell_angle_alpha   90.00000000
_cell_angle_beta   90.00000000
_cell_angle_gamma   90.00000000
_symmetry_Int_Tables_number   1
_chemical_formula_structural   Ni5Ge2P3
_chemical_formula_sum   'Ni40 Ge16 P24'
_cell_volume   1041.98032805
_cell_formula_units_Z   8
loop_
 _symmetry_equiv_pos_site_id
 _symmetry_equiv_pos_as_xyz
  1  'x, y, z'
loop_
 _atom_site_type_symbol
 _atom_site_label
 _atom_site_symmetry_multiplicity
 _atom_site_fract_x
 _atom_site_fract_y
 _atom_site_fract_z
 _atom_site_occupancy
  Ni  Ni0  1  0.51563440  0.79146808  0.78592054  1
  Ni  Ni1  1  0.98884915  0.79665677  0.97549815  1
  Ni  Ni2  1  0.98884915  0.29665677  0.52450185  1
  Ni  Ni3  1  0.51115085  0.79665677  0.47549815  1
  Ni  Ni4  1  0.49658995  0.79962001  0.17385319  1
  Ni  Ni5  1  0.01563440  0.70853192  0.78592054  1
  Ni  Ni6  1  0.99766030  0.21161784  0.93505454  1
  Ni  Ni7  1  0.50233970  0.21161784  0.43505454  1
  Ni  Ni8  1  0.50341005  0.20037999  0.82614681  1
  Ni  Ni9  1  0.47274592  0.70288092  0.37249064  1
  Ni  Ni10  1  0.47274592  0.20288092  0.12750936  1
  Ni  Ni11  1  0.49658995  0.29962001  0.32614681  1
  Ni  Ni12  1  0.01115085  0.20334323  0.02450185  1
  Ni  Ni13  1  0.00341005  0.29962001  0.82614681  1
  Ni  Ni14  1  0.48436560  0.20853192  0.21407946  1
  Ni  Ni15  1  0.49766030  0.78838216  0.56494546  1
  Ni  Ni16  1  0.99766030  0.71161784  0.56494546  1
  Ni  Ni17  1  0.00341005  0.79962001  0.67385319  1
  Ni  Ni18  1  0.99658995  0.20037999  0.32614681  1
  Ni  Ni19  1  0.50233970  0.71161784  0.06494546  1
  Ni  Ni20  1  0.02725408  0.70288092  0.87249064  1
  Ni  Ni21  1  0.52725408  0.79711908  0.87249064  1
  Ni  Ni22  1  0.48436560  0.70853192  0.28592054  1
  Ni  Ni23  1  0.02725408  0.20288092  0.62750936  1
  Ni  Ni24  1  0.00233970  0.78838216  0.06494546  1
  Ni  Ni25  1  0.01115085  0.70334323  0.47549815  1
  Ni  Ni26  1  0.98436560  0.79146808  0.28592054  1
  Ni  Ni27  1  0.48884915  0.20334323  0.52450185  1
  Ni  Ni28  1  0.99658995  0.70037999  0.17385319  1
  Ni  Ni29  1  0.01563440  0.20853192  0.71407946  1
  Ni  Ni30  1  0.51563440  0.29146808  0.71407946  1
  Ni  Ni31  1  0.97274592  0.79711908  0.37249064  1
  Ni  Ni32  1  0.98436560  0.29146808  0.21407946  1
  Ni  Ni33  1  0.49766030  0.28838216  0.93505454  1
  Ni  Ni34  1  0.48884915  0.70334323  0.97549815  1
  Ni  Ni35  1  0.00233970  0.28838216  0.43505454  1
  Ni  Ni36  1  0.52725408  0.29711908  0.62750936  1
  Ni  Ni37  1  0.50341005  0.70037999  0.67385319  1
  Ni  Ni38  1  0.97274592  0.29711908  0.12750936  1
  Ni  Ni39  1  0.51115085  0.29665677  0.02450185  1
  Ge  Ge40  1  0.71897472  0.40654130  0.77212976  1
  Ge  Ge41  1  0.71897472  0.90654130  0.72787024  1
  Ge  Ge42  1  0.70919860  0.91272422  0.62165827  1
  Ge  Ge43  1  0.21897472  0.59345870  0.72787024  1
  Ge  Ge44  1  0.78102528  0.40654130  0.27212976  1
  Ge  Ge45  1  0.79080140  0.41272422  0.37834173  1
  Ge  Ge46  1  0.70919860  0.41272422  0.87834173  1
  Ge  Ge47  1  0.20919860  0.08727578  0.87834173  1
  Ge  Ge48  1  0.78102528  0.90654130  0.22787024  1
  Ge  Ge49  1  0.28102528  0.09345870  0.27212976  1
  Ge  Ge50  1  0.29080140  0.08727578  0.37834173  1
  Ge  Ge51  1  0.20919860  0.58727578  0.62165827  1
  Ge  Ge52  1  0.21897472  0.09345870  0.77212976  1
  Ge  Ge53  1  0.29080140  0.58727578  0.12165827  1
  Ge  Ge54  1  0.79080140  0.91272422  0.12165827  1
  Ge  Ge55  1  0.28102528  0.59345870  0.22787024  1
  P  P56  1  0.18097076  0.56333914  0.32799724  1
  P  P57  1  0.31015768  0.56661981  0.52221359  1
  P  P58  1  0.18097076  0.06333914  0.17200276  1
  P  P59  1  0.20366161  0.57047542  0.92707406  1
  P  P60  1  0.68097076  0.93666086  0.32799724  1
  P  P61  1  0.68984232  0.43338019  0.47778641  1
  P  P62  1  0.70366161  0.92952458  0.92707406  1
  P  P63  1  0.68984232  0.93338019  0.02221359  1
  P  P64  1  0.29633839  0.57047542  0.42707406  1
  P  P65  1  0.68097076  0.43666086  0.17200276  1
  P  P66  1  0.79633839  0.42952458  0.07292594  1
  P  P67  1  0.70366161  0.42952458  0.57292594  1
  P  P68  1  0.18984232  0.56661981  0.02221359  1
  P  P69  1  0.31015768  0.06661981  0.97778641  1
  P  P70  1  0.29633839  0.07047542  0.07292594  1
  P  P71  1  0.81902924  0.43666086  0.67200276  1
  P  P72  1  0.31902924  0.06333914  0.67200276  1
  P  P73  1  0.20366161  0.07047542  0.57292594  1
  P  P74  1  0.81015768  0.93338019  0.52221359  1
  P  P75  1  0.81902924  0.93666086  0.82799724  1
  P  P76  1  0.81015768  0.43338019  0.97778641  1
  P  P77  1  0.31902924  0.56333914  0.82799724  1
  P  P78  1  0.79633839  0.92952458  0.42707406  1
  P  P79  1  0.18984232  0.06661981  0.47778641  1
