# generated using pymatgen
data_SrLa7Ti4(Cu2O11)2
_symmetry_space_group_name_H-M   'P 1'
_cell_length_a   5.60164402
_cell_length_b   5.67172119
_cell_length_c   15.75606754
_cell_angle_alpha   90.00000000
_cell_angle_beta   90.00000000
_cell_angle_gamma   90.09161119
_symmetry_Int_Tables_number   1
_chemical_formula_structural   SrLa7Ti4(Cu2O11)2
_chemical_formula_sum   'Sr1 La7 Ti4 Cu4 O22'
_cell_volume   500.58479998
_cell_formula_units_Z   1
loop_
 _symmetry_equiv_pos_site_id
 _symmetry_equiv_pos_as_xyz
  1  'x, y, z'
loop_
 _atom_site_type_symbol
 _atom_site_label
 _atom_site_symmetry_multiplicity
 _atom_site_fract_x
 _atom_site_fract_y
 _atom_site_fract_z
 _atom_site_occupancy
  Sr  Sr0  1  0.50024893  0.47028794  0.87500000  1
  La  La1  1  0.01042602  0.03981383  0.12105822  1
  La  La2  1  0.01042602  0.03981383  0.62894178  1
  La  La3  1  0.48743290  0.54254291  0.12401285  1
  La  La4  1  0.48743290  0.54254291  0.62598715  1
  La  La5  1  0.51535395  0.45148378  0.37500000  1
  La  La6  1  0.98451608  0.95964072  0.37500000  1
  La  La7  1  0.98591811  0.95349020  0.87500000  1
  Ti  Ti8  1  0.99681151  0.50095940  0.25075601  1
  Ti  Ti9  1  0.99681151  0.50095940  0.49924399  1
  Ti  Ti10  1  0.51063722  0.00273897  0.99779729  1
  Ti  Ti11  1  0.51063722  0.00273897  0.75220271  1
  Cu  Cu12  1  -0.00003519  0.50053889  0.00003250  1
  Cu  Cu13  1  -0.00003519  0.50053889  0.74996750  1
  Cu  Cu14  1  0.49778158  0.99965940  0.24955186  1
  Cu  Cu15  1  0.49778158  0.99965940  0.50044814  1
  O  O16  1  0.09057784  0.52251808  0.37500000  1
  O  O17  1  0.19130396  0.78735250  0.51894771  1
  O  O18  1  0.22783819  0.79117389  0.01826020  1
  O  O19  1  0.19130396  0.78735250  0.23105229  1
  O  O20  1  0.22783819  0.79117389  0.73173980  1
  O  O21  1  0.29919563  0.27991686  0.02173718  1
  O  O22  1  0.27446049  0.29827289  0.23213435  1
  O  O23  1  0.29919563  0.27991686  0.72826282  1
  O  O24  1  0.27446049  0.29827289  0.51786565  1
  O  O25  1  0.41288451  0.01552611  0.87500000  1
  O  O26  1  0.59320055  0.97382095  0.11754472  1
  O  O27  1  0.59320055  0.97382095  0.63245528  1
  O  O28  1  0.71874920  0.70845702  0.28044568  1
  O  O29  1  0.71874920  0.70845702  0.46955432  1
  O  O30  1  0.72083658  0.73033258  0.77661069  1
  O  O31  1  0.72083658  0.73033258  0.97338931  1
  O  O32  1  0.78808590  0.22350896  0.46895676  1
  O  O33  1  0.78808590  0.22350896  0.28104324  1
  O  O34  1  0.78713903  0.20621772  0.77561966  1
  O  O35  1  0.78713903  0.20621772  0.97438034  1
  O  O36  1  0.90138671  0.47321983  0.61562205  1
  O  O37  1  0.90138671  0.47321983  0.13437795  1
