# generated using pymatgen
data_Cu6AgBi12PbS22
_symmetry_space_group_name_H-M   'P 1'
_cell_length_a   3.99412508
_cell_length_b   17.83886827
_cell_length_c   28.75339599
_cell_angle_alpha   105.61648927
_cell_angle_beta   90.00000000
_cell_angle_gamma   90.00000000
_symmetry_Int_Tables_number   1
_chemical_formula_structural   Cu6AgBi12PbS22
_chemical_formula_sum   'Cu12 Ag2 Bi24 Pb2 S44'
_cell_volume   1973.07132168
_cell_formula_units_Z   2
loop_
 _symmetry_equiv_pos_site_id
 _symmetry_equiv_pos_as_xyz
  1  'x, y, z'
loop_
 _atom_site_type_symbol
 _atom_site_label
 _atom_site_symmetry_multiplicity
 _atom_site_fract_x
 _atom_site_fract_y
 _atom_site_fract_z
 _atom_site_occupancy
  Cu  Cu0  1  0.25000000  0.12340235  0.69393140  1
  Cu  Cu1  1  0.25000000  0.34209904  0.49426202  1
  Cu  Cu2  1  0.75000000  0.65790096  0.50573798  1
  Cu  Cu3  1  0.25000000  0.16344108  0.51044648  1
  Cu  Cu4  1  0.75000000  0.22085568  0.25186301  1
  Cu  Cu5  1  0.75000000  0.83655892  0.48955352  1
  Cu  Cu6  1  0.25000000  0.30989669  0.06427507  1
  Cu  Cu7  1  0.75000000  0.63212324  0.69561857  1
  Cu  Cu8  1  0.25000000  0.36787676  0.30438143  1
  Cu  Cu9  1  0.75000000  0.87659765  0.30606860  1
  Cu  Cu10  1  0.25000000  0.77914432  0.74813699  1
  Cu  Cu11  1  0.75000000  0.69010331  0.93572493  1
  Ag  Ag12  1  0.75000000  0.58991932  0.00061412  1
  Ag  Ag13  1  0.25000000  0.41008068  0.99938588  1
  Bi  Bi14  1  0.25000000  0.09666762  0.13472284  1
  Bi  Bi15  1  0.75000000  0.10375554  0.00444888  1
  Bi  Bi16  1  0.75000000  0.90333238  0.86527716  1
  Bi  Bi17  1  0.75000000  0.27263822  0.62071970  1
  Bi  Bi18  1  0.25000000  0.89624446  0.99555112  1
  Bi  Bi19  1  0.25000000  0.47976087  0.87488519  1
  Bi  Bi20  1  0.25000000  0.77039648  0.61850233  1
  Bi  Bi21  1  0.25000000  0.11615803  0.81612705  1
  Bi  Bi22  1  0.25000000  0.71933133  0.08341330  1
  Bi  Bi23  1  0.25000000  0.45974100  0.71978166  1
  Bi  Bi24  1  0.25000000  0.70749798  0.22817981  1
  Bi  Bi25  1  0.75000000  0.54025900  0.28021834  1
  Bi  Bi26  1  0.75000000  0.94364391  0.71733470  1
  Bi  Bi27  1  0.75000000  0.48304793  0.42996127  1
  Bi  Bi28  1  0.75000000  0.52023913  0.12511481  1
  Bi  Bi29  1  0.75000000  0.01397884  0.56874830  1
  Bi  Bi30  1  0.25000000  0.98602116  0.43125170  1
  Bi  Bi31  1  0.25000000  0.72736178  0.37928030  1
  Bi  Bi32  1  0.75000000  0.88384197  0.18387295  1
  Bi  Bi33  1  0.75000000  0.28066867  0.91658670  1
  Bi  Bi34  1  0.75000000  0.29250202  0.77182019  1
  Bi  Bi35  1  0.75000000  0.22960352  0.38149767  1
  Bi  Bi36  1  0.25000000  0.05635609  0.28266530  1
  Bi  Bi37  1  0.25000000  0.51695207  0.57003873  1
  Pb  Pb38  1  0.25000000  0.34183528  0.18071313  1
  Pb  Pb39  1  0.75000000  0.65816472  0.81928687  1
  S  S40  1  0.25000000  0.20774135  0.29150826  1
  S  S41  1  0.75000000  0.46253636  0.93922821  1
  S  S42  1  0.25000000  0.92496328  0.64799801  1
  S  S43  1  0.25000000  0.63485733  0.89876042  1
  S  S44  1  0.75000000  0.82245622  0.93381921  1
  S  S45  1  0.75000000  0.09068812  0.50254018  1
  S  S46  1  0.25000000  0.87732137  0.11807438  1
  S  S47  1  0.75000000  0.78256445  0.55815671  1
  S  S48  1  0.25000000  0.87029237  0.26230258  1
  S  S49  1  0.25000000  0.29537237  0.84420455  1
  S  S50  1  0.75000000  0.88967278  0.38545375  1
  S  S51  1  0.75000000  0.07503672  0.35200199  1
  S  S52  1  0.75000000  0.00535540  0.05750012  1
  S  S53  1  0.25000000  0.90931188  0.49745982  1
  S  S54  1  0.25000000  0.29266633  0.70539363  1
  S  S55  1  0.75000000  0.37953415  0.26557917  1
  S  S56  1  0.25000000  0.17754378  0.06618079  1
  S  S57  1  0.25000000  0.11032722  0.61454625  1
  S  S58  1  0.75000000  0.73385001  0.02123815  1
  S  S59  1  0.75000000  0.20333719  0.17145412  1
  S  S60  1  0.25000000  0.96282075  0.79391048  1
  S  S61  1  0.75000000  0.42859428  0.65034865  1
  S  S62  1  0.75000000  0.03717925  0.20608952  1
  S  S63  1  0.75000000  0.70462763  0.15579545  1
  S  S64  1  0.25000000  0.79666281  0.82854588  1
  S  S65  1  0.25000000  0.26614999  0.97876185  1
  S  S66  1  0.75000000  0.70733367  0.29460637  1
  S  S67  1  0.75000000  0.47132844  0.79755184  1
  S  S68  1  0.75000000  0.12970763  0.73769742  1
  S  S69  1  0.25000000  0.38581152  0.38496193  1
  S  S70  1  0.75000000  0.61418848  0.61503807  1
  S  S71  1  0.75000000  0.36514267  0.10123958  1
  S  S72  1  0.25000000  0.53746364  0.06077179  1
  S  S73  1  0.25000000  0.62046585  0.73442083  1
  S  S74  1  0.25000000  0.21743555  0.44184329  1
  S  S75  1  0.75000000  0.12267863  0.88192562  1
  S  S76  1  0.75000000  0.71337655  0.43834467  1
  S  S77  1  0.25000000  0.57140572  0.34965135  1
  S  S78  1  0.25000000  0.58763115  0.50063228  1
  S  S79  1  0.75000000  0.41236885  0.49936772  1
  S  S80  1  0.25000000  0.99464460  0.94249988  1
  S  S81  1  0.25000000  0.52867156  0.20244816  1
  S  S82  1  0.75000000  0.79225865  0.70849174  1
  S  S83  1  0.25000000  0.28662345  0.56165533  1
