# generated using pymatgen
data_Li4Re6S11
_symmetry_space_group_name_H-M   'P 1'
_cell_length_a   9.66125232
_cell_length_b   11.90277134
_cell_length_c   14.20382877
_cell_angle_alpha   90.00000000
_cell_angle_beta   90.00000000
_cell_angle_gamma   90.00000000
_symmetry_Int_Tables_number   1
_chemical_formula_structural   Li4Re6S11
_chemical_formula_sum   'Li16 Re24 S44'
_cell_volume   1633.37890857
_cell_formula_units_Z   4
loop_
 _symmetry_equiv_pos_site_id
 _symmetry_equiv_pos_as_xyz
  1  'x, y, z'
loop_
 _atom_site_type_symbol
 _atom_site_label
 _atom_site_symmetry_multiplicity
 _atom_site_fract_x
 _atom_site_fract_y
 _atom_site_fract_z
 _atom_site_occupancy
  Li  Li0  1  0.97820491  0.64369384  0.77888572  1
  Li  Li1  1  0.52179509  0.14369384  0.77888572  1
  Li  Li2  1  0.97820491  0.14369384  0.72111428  1
  Li  Li3  1  0.66795105  0.64780699  0.34428293  1
  Li  Li4  1  0.83204895  0.14780699  0.34428293  1
  Li  Li5  1  0.66795105  0.14780699  0.15571707  1
  Li  Li6  1  0.83204895  0.64780699  0.15571707  1
  Li  Li7  1  0.47820491  0.35630616  0.27888572  1
  Li  Li8  1  0.02179509  0.35630616  0.22111428  1
  Li  Li9  1  0.16795105  0.35219301  0.84428293  1
  Li  Li10  1  0.33204895  0.85219301  0.84428293  1
  Li  Li11  1  0.52179509  0.64369384  0.72111428  1
  Li  Li12  1  0.02179509  0.85630616  0.27888572  1
  Li  Li13  1  0.33204895  0.35219301  0.65571707  1
  Li  Li14  1  0.16795105  0.85219301  0.65571707  1
  Li  Li15  1  0.47820491  0.85630616  0.22111428  1
  Re  Re16  1  0.64594412  0.41781492  0.05330376  1
  Re  Re17  1  0.35405588  0.08218508  0.55330376  1
  Re  Re18  1  0.89167721  0.52182431  0.60813509  1
  Re  Re19  1  0.14594412  0.58218508  0.55330376  1
  Re  Re20  1  0.57062812  0.13205328  0.44986316  1
  Re  Re21  1  0.92937188  0.13205328  0.05013684  1
  Re  Re22  1  0.10832279  0.97817569  0.10813509  1
  Re  Re23  1  0.39167721  0.97817569  0.39186491  1
  Re  Re24  1  0.07062812  0.86794672  0.94986316  1
  Re  Re25  1  0.64594412  0.91781492  0.44669624  1
  Re  Re26  1  0.60832279  0.52182431  0.89186491  1
  Re  Re27  1  0.14594412  0.08218508  0.94669624  1
  Re  Re28  1  0.35405588  0.58218508  0.94669624  1
  Re  Re29  1  0.57062812  0.63205328  0.05013684  1
  Re  Re30  1  0.42937188  0.36794672  0.94986316  1
  Re  Re31  1  0.85405588  0.91781492  0.05330376  1
  Re  Re32  1  0.85405588  0.41781492  0.44669624  1
  Re  Re33  1  0.10832279  0.47817569  0.39186491  1
  Re  Re34  1  0.42937188  0.86794672  0.55013684  1
  Re  Re35  1  0.92937188  0.63205328  0.44986316  1
  Re  Re36  1  0.07062812  0.36794672  0.55013684  1
  Re  Re37  1  0.39167721  0.47817569  0.10813509  1
  Re  Re38  1  0.89167721  0.02182431  0.89186491  1
  Re  Re39  1  0.60832279  0.02182431  0.60813509  1
  S  S40  1  0.25000000  0.92500077  0.25000000  1
  S  S41  1  0.16791541  0.19838379  0.62580767  1
  S  S42  1  0.66791541  0.30161621  0.37419233  1
  S  S43  1  0.70163029  0.56482825  0.50399995  1
  S  S44  1  0.52798272  0.21853124  0.60093492  1
  S  S45  1  0.66476656  0.32724263  0.90333183  1
  S  S46  1  0.33523344  0.17275737  0.40333183  1
  S  S47  1  0.16476656  0.17275737  0.09666817  1
  S  S48  1  0.70163029  0.06482825  0.99600005  1
  S  S49  1  0.52798272  0.71853124  0.89906508  1
  S  S50  1  0.09874802  0.47186244  0.69643292  1
  S  S51  1  0.97201728  0.21853124  0.89906508  1
  S  S52  1  0.83208459  0.80161621  0.37419233  1
  S  S53  1  0.75000000  0.07499923  0.75000000  1
  S  S54  1  0.66476656  0.82724263  0.59666817  1
  S  S55  1  0.59874802  0.52813756  0.19643292  1
  S  S56  1  0.90125198  0.52813756  0.30356708  1
  S  S57  1  0.59874802  0.02813756  0.30356708  1
  S  S58  1  0.79836971  0.56482825  0.99600005  1
  S  S59  1  0.20163029  0.43517175  0.00399995  1
  S  S60  1  0.90125198  0.02813756  0.19643292  1
  S  S61  1  0.40125198  0.97186244  0.69643292  1
  S  S62  1  0.16476656  0.67275737  0.40333183  1
  S  S63  1  0.16791541  0.69838379  0.87419233  1
  S  S64  1  0.75000000  0.57499923  0.75000000  1
  S  S65  1  0.40125198  0.47186244  0.80356708  1
  S  S66  1  0.83523344  0.32724263  0.59666817  1
  S  S67  1  0.79836971  0.06482825  0.50399995  1
  S  S68  1  0.29836971  0.43517175  0.49600005  1
  S  S69  1  0.33208459  0.69838379  0.62580767  1
  S  S70  1  0.33523344  0.67275737  0.09666817  1
  S  S71  1  0.66791541  0.80161621  0.12580767  1
  S  S72  1  0.25000000  0.42500077  0.25000000  1
  S  S73  1  0.33208459  0.19838379  0.87419233  1
  S  S74  1  0.97201728  0.71853124  0.60093492  1
  S  S75  1  0.02798272  0.28146876  0.39906508  1
  S  S76  1  0.47201728  0.78146876  0.39906508  1
  S  S77  1  0.09874802  0.97186244  0.80356708  1
  S  S78  1  0.20163029  0.93517175  0.49600005  1
  S  S79  1  0.29836971  0.93517175  0.00399995  1
  S  S80  1  0.83523344  0.82724263  0.90333183  1
  S  S81  1  0.83208459  0.30161621  0.12580767  1
  S  S82  1  0.02798272  0.78146876  0.10093492  1
  S  S83  1  0.47201728  0.28146876  0.10093492  1
