# generated using pymatgen
data_SrLa5F17
_symmetry_space_group_name_H-M   'P 1'
_cell_length_a   7.20369523
_cell_length_b   7.26912322
_cell_length_c   7.36389260
_cell_angle_alpha   90.20268279
_cell_angle_beta   89.40460470
_cell_angle_gamma   119.45798633
_symmetry_Int_Tables_number   1
_chemical_formula_structural   SrLa5F17
_chemical_formula_sum   'Sr1 La5 F17'
_cell_volume   335.73563973
_cell_formula_units_Z   1
loop_
 _symmetry_equiv_pos_site_id
 _symmetry_equiv_pos_as_xyz
  1  'x, y, z'
loop_
 _atom_site_type_symbol
 _atom_site_label
 _atom_site_symmetry_multiplicity
 _atom_site_fract_x
 _atom_site_fract_y
 _atom_site_fract_z
 _atom_site_occupancy
  Sr  Sr0  1  0.99589067  0.66033520  0.27711149  1
  La  La1  1  0.35621210  0.02147521  0.74335327  1
  La  La2  1  0.33499630  0.33822122  0.24367237  1
  La  La3  1  0.65855433  -0.00065603  0.24350309  1
  La  La4  1  0.64900261  0.66077420  0.75011236  1
  La  La5  1  0.99615968  0.31742235  0.74844103  1
  F  F6  1  0.32043185  0.95721094  0.42778966  1
  F  F7  1  0.04906158  0.35981518  0.42708962  1
  F  F8  1  0.34259759  0.66669485  0.19292599  1
  F  F9  1  0.31158044  0.66880612  0.75725136  1
  F  F10  1  0.00315836  0.98767987  0.75970645  1
  F  F11  1  0.31490150  0.34509182  0.91770424  1
  F  F12  1  0.65810223  0.96982371  0.91708183  1
  F  F13  1  0.35884305  0.32295580  0.58342622  1
  F  F14  1  0.63610460  0.68624611  0.42287310  1
  F  F15  1  0.34328341  0.02426891  0.06740794  1
  F  F16  1  0.70466499  0.64304495  0.06208647  1
  F  F17  1  0.99874012  0.01121851  0.25047053  1
  F  F18  1  0.67311501  0.33839584  0.80659991  1
  F  F19  1  0.65248890  0.32176466  0.30411897  1
  F  F20  1  0.96224520  0.64114201  0.62353243  1
  F  F21  1  0.68186779  0.03777693  0.58271707  1
  F  F22  1  0.96029768  0.33429163  0.06782459  1
