# generated using pymatgen
data_Ce5AgSe8
_symmetry_space_group_name_H-M   'P 1'
_cell_length_a   7.71367299
_cell_length_b   7.71367290
_cell_length_c   7.71367260
_cell_angle_alpha   110.00776593
_cell_angle_beta   110.00776575
_cell_angle_gamma   108.40337544
_symmetry_Int_Tables_number   1
_chemical_formula_structural   Ce5AgSe8
_chemical_formula_sum   'Ce5 Ag1 Se8'
_cell_volume   353.22291557
_cell_formula_units_Z   1
loop_
 _symmetry_equiv_pos_site_id
 _symmetry_equiv_pos_as_xyz
  1  'x, y, z'
loop_
 _atom_site_type_symbol
 _atom_site_label
 _atom_site_symmetry_multiplicity
 _atom_site_fract_x
 _atom_site_fract_y
 _atom_site_fract_z
 _atom_site_occupancy
  Ce  Ce0  1  0.11288019  0.74300610  0.87068444  1
  Ce  Ce1  1  0.25699390  0.62767835  0.36987409  1
  Ce  Ce2  1  0.37232165  0.24219574  0.62931556  1
  Ce  Ce3  1  0.62500000  0.37500000  0.25000000  1
  Ce  Ce4  1  0.75780426  0.88711981  0.13012591  1
  Ag  Ag5  1  0.87500000  0.12500000  0.75000000  1
  Se  Se6  1  0.98862640  0.85028188  0.49862428  1
  Se  Se7  1  0.48167082  0.99196983  0.85235147  1
  Se  Se8  1  0.14971812  0.14834240  0.13834451  1
  Se  Se9  1  0.37068065  0.51832918  0.01029901  1
  Se  Se10  1  0.63961835  0.62931935  0.64764853  1
  Se  Se11  1  0.50999788  0.01137360  0.36165549  1
  Se  Se12  1  0.85165760  0.49000212  0.00137572  1
  Se  Se13  1  0.00803017  0.36038165  0.48970099  1
