# generated using pymatgen
data_Ga7(CuSe4)3
_symmetry_space_group_name_H-M   'P 1'
_cell_length_a   3.91879707
_cell_length_b   11.97417928
_cell_length_c   21.23488341
_cell_angle_alpha   40.31512890
_cell_angle_beta   56.35648220
_cell_angle_gamma   60.52015520
_symmetry_Int_Tables_number   1
_chemical_formula_structural   Ga7(CuSe4)3
_chemical_formula_sum   'Ga7 Cu3 Se12'
_cell_volume   532.19024344
_cell_formula_units_Z   1
loop_
 _symmetry_equiv_pos_site_id
 _symmetry_equiv_pos_as_xyz
  1  'x, y, z'
loop_
 _atom_site_type_symbol
 _atom_site_label
 _atom_site_symmetry_multiplicity
 _atom_site_fract_x
 _atom_site_fract_y
 _atom_site_fract_z
 _atom_site_occupancy
  Ga  Ga0  1  0.01102259  0.99774409  0.99730497  1
  Ga  Ga1  1  0.00934944  0.99533925  0.49866166  1
  Ga  Ga2  1  0.01927772  0.82226757  0.24829700  1
  Ga  Ga3  1  0.99954109  0.18362221  0.23877649  1
  Ga  Ga4  1  0.01700356  0.66816464  0.99416864  1
  Ga  Ga5  1  0.98680244  0.50035632  0.75449179  1
  Ga  Ga6  1  0.99112021  0.35416600  0.49114262  1
  Cu  Cu7  1  0.99777828  0.66451687  0.50172408  1
  Cu  Cu8  1  0.99426057  0.82400330  0.75803160  1
  Cu  Cu9  1  0.00041355  0.15594692  0.75618009  1
  Se  Se10  1  0.23696519  0.05753972  0.05862051  1
  Se  Se11  1  0.26254243  0.37692910  0.06016966  1
  Se  Se12  1  0.23067776  0.22095600  0.31007643  1
  Se  Se13  1  0.23943885  0.69814789  0.07154076  1
  Se  Se14  1  0.23662239  0.03820614  0.56812711  1
  Se  Se15  1  0.25709678  0.53980115  0.31018557  1
  Se  Se16  1  0.23107372  0.37031943  0.56990529  1
  Se  Se17  1  0.24088731  0.87489096  0.31449729  1
  Se  Se18  1  0.25691296  0.20902541  0.81047595  1
  Se  Se19  1  0.25665643  0.70385277  0.56232004  1
  Se  Se20  1  0.23943830  0.53753167  0.81829422  1
  Se  Se21  1  0.25720643  0.87650158  0.81051920  1
