# generated using pymatgen
data_RbPHO3F
_symmetry_space_group_name_H-M   'P 1'
_cell_length_a   15.52574908
_cell_length_b   7.45940668
_cell_length_c   8.37069775
_cell_angle_alpha   90.00000000
_cell_angle_beta   90.00000000
_cell_angle_gamma   109.41716484
_symmetry_Int_Tables_number   1
_chemical_formula_structural   RbPHO3F
_chemical_formula_sum   'Rb8 P8 H8 O24 F8'
_cell_volume   914.29615603
_cell_formula_units_Z   8
loop_
 _symmetry_equiv_pos_site_id
 _symmetry_equiv_pos_as_xyz
  1  'x, y, z'
loop_
 _atom_site_type_symbol
 _atom_site_label
 _atom_site_symmetry_multiplicity
 _atom_site_fract_x
 _atom_site_fract_y
 _atom_site_fract_z
 _atom_site_occupancy
  Rb  Rb0  1  0.03530175  0.24913032  0.61813601  1
  Rb  Rb1  1  0.21469825  0.25086968  0.11813701  1
  Rb  Rb2  1  0.28579357  0.75786944  0.87579108  1
  Rb  Rb3  1  0.46557153  0.76836745  0.36242744  1
  Rb  Rb4  1  0.53557071  0.23521558  0.63525166  1
  Rb  Rb5  1  0.71442929  0.26478442  0.13525166  1
  Rb  Rb6  1  0.78442847  0.73163255  0.86242744  1
  Rb  Rb7  1  0.96420643  0.74213056  0.37579108  1
  P  P8  1  0.03938050  0.78501815  0.85497903  1
  P  P9  1  0.21061950  0.71498185  0.35497903  1
  P  P10  1  0.28705162  0.25727020  0.65762344  1
  P  P11  1  0.46822802  0.26065054  0.15585319  1
  P  P12  1  0.53277888  0.74275331  0.84437100  1
  P  P13  1  0.71722112  0.75724669  0.34437100  1
  P  P14  1  0.78177198  0.23934946  0.65585319  1
  P  P15  1  0.96294838  0.24272980  0.15762344  1
  H  H16  1  0.04437635  0.40371465  0.96111293  1
  H  H17  1  0.29572891  0.91549124  0.54663094  1
  H  H18  1  0.20562365  0.09628535  0.46111293  1
  H  H19  1  0.44990598  0.58236238  0.05058902  1
  H  H20  1  0.54948680  0.42025088  0.94749249  1
  H  H21  1  0.80009402  0.91763762  0.55058902  1
  H  H22  1  0.70051320  0.07974912  0.44749249  1
  H  H23  1  0.95427109  0.58450876  0.04663094  1
  O  O24  1  0.03899283  0.28538181  0.01820326  1
  O  O25  1  0.99253576  0.15109903  0.29551936  1
  O  O26  1  0.12605655  0.90427000  0.93237539  1
  O  O27  1  0.12394345  0.59573000  0.43237539  1
  O  O28  1  0.29329521  0.80238108  0.47703775  1
  O  O29  1  0.24730753  0.65144963  0.20826374  1
  O  O30  1  0.25746424  0.34890097  0.79551936  1
  O  O31  1  0.21100717  0.21461819  0.51820326  1
  O  O32  1  0.31948245  0.08851657  0.67426255  1
  O  O33  1  0.43152750  0.42426450  0.17247152  1
  O  O34  1  0.50372514  0.82797850  0.70133673  1
  O  O35  1  0.45842499  0.70294336  0.98191306  1
  O  O36  1  0.54134205  0.29945255  0.01649120  1
  O  O37  1  0.49907375  0.17822762  0.29876561  1
  O  O38  1  0.56806611  0.57682353  0.82679586  1
  O  O39  1  0.68193389  0.92317647  0.32679586  1
  O  O40  1  0.79157501  0.79705664  0.48191306  1
  O  O41  1  0.74627486  0.67202150  0.20133673  1
  O  O42  1  0.75092625  0.32177238  0.79876561  1
  O  O43  1  0.70865795  0.20054745  0.51649120  1
  O  O44  1  0.81847250  0.07573550  0.67247152  1
  O  O45  1  0.93051755  0.41148343  0.17426255  1
  O  O46  1  0.00269247  0.84855037  0.70826374  1
  O  O47  1  0.95670479  0.69761892  0.97703775  1
  F  F48  1  0.05910083  0.58375525  0.80884142  1
  F  F49  1  0.19089917  0.91624475  0.30884142  1
  F  F50  1  0.37027150  0.42016780  0.57398764  1
  F  F51  1  0.38385880  0.09015226  0.08000555  1
  F  F52  1  0.61700385  0.90953957  0.92347112  1
  F  F53  1  0.63299615  0.59046043  0.42347112  1
  F  F54  1  0.86614120  0.40984774  0.58000555  1
  F  F55  1  0.87972850  0.07983220  0.07398764  1
