# generated using pymatgen
data_K2In12Se19
_symmetry_space_group_name_H-M   'P 1'
_cell_length_a   10.11725693
_cell_length_b   10.11725655
_cell_length_c   10.11725699
_cell_angle_alpha   88.01546422
_cell_angle_beta   88.01546419
_cell_angle_gamma   88.01546314
_symmetry_Int_Tables_number   1
_chemical_formula_structural   K2In12Se19
_chemical_formula_sum   'K2 In12 Se19'
_cell_volume   1033.76968621
_cell_formula_units_Z   1
loop_
 _symmetry_equiv_pos_site_id
 _symmetry_equiv_pos_as_xyz
  1  'x, y, z'
loop_
 _atom_site_type_symbol
 _atom_site_label
 _atom_site_symmetry_multiplicity
 _atom_site_fract_x
 _atom_site_fract_y
 _atom_site_fract_z
 _atom_site_occupancy
  K  K0  1  0.16454770  0.16454770  0.16454770  1
  K  K1  1  0.83545230  0.83545230  0.83545230  1
  In  In2  1  0.12447068  0.70110382  0.22325935  1
  In  In3  1  0.18611723  0.52054398  0.57280829  1
  In  In4  1  0.22325935  0.12447068  0.70110382  1
  In  In5  1  0.29889618  0.77674065  0.87552932  1
  In  In6  1  0.42719171  0.81388277  0.47945602  1
  In  In7  1  0.47945602  0.42719171  0.81388277  1
  In  In8  1  0.52054398  0.57280829  0.18611723  1
  In  In9  1  0.57280829  0.18611723  0.52054398  1
  In  In10  1  0.70110382  0.22325935  0.12447068  1
  In  In11  1  0.77674065  0.87552932  0.29889618  1
  In  In12  1  0.81388277  0.47945602  0.42719171  1
  In  In13  1  0.87552932  0.29889618  0.77674065  1
  Se  Se14  1  0.02359604  0.90526953  0.34002611  1
  Se  Se15  1  0.10258153  0.46345619  0.34240014  1
  Se  Se16  1  0.09473047  0.65997389  0.97640396  1
  Se  Se17  1  0.21244132  0.77270859  0.62495627  1
  Se  Se18  1  0.22729141  0.37504373  0.78755868  1
  Se  Se19  1  0.34240014  0.10258153  0.46345619  1
  Se  Se20  1  0.34002611  0.02359604  0.90526953  1
  Se  Se21  1  0.37504373  0.78755868  0.22729141  1
  Se  Se22  1  0.46345619  0.34240014  0.10258153  1
  Se  Se23  1  0.50000000  0.50000000  0.50000000  1
  Se  Se24  1  0.53654381  0.65759986  0.89741847  1
  Se  Se25  1  0.62495627  0.21244132  0.77270859  1
  Se  Se26  1  0.65997389  0.97640396  0.09473047  1
  Se  Se27  1  0.65759986  0.89741847  0.53654381  1
  Se  Se28  1  0.77270859  0.62495627  0.21244132  1
  Se  Se29  1  0.78755868  0.22729141  0.37504373  1
  Se  Se30  1  0.90526953  0.34002611  0.02359604  1
  Se  Se31  1  0.89741847  0.53654381  0.65759986  1
  Se  Se32  1  0.97640396  0.09473047  0.65997389  1
