# generated using pymatgen
data_KGaO2
_symmetry_space_group_name_H-M   'P 1'
_cell_length_a   5.70614552
_cell_length_b   11.27700031
_cell_length_c   16.05586242
_cell_angle_alpha   90.00000000
_cell_angle_beta   90.00000000
_cell_angle_gamma   90.00000000
_symmetry_Int_Tables_number   1
_chemical_formula_structural   KGaO2
_chemical_formula_sum   'K16 Ga16 O32'
_cell_volume   1033.16592321
_cell_formula_units_Z   16
loop_
 _symmetry_equiv_pos_site_id
 _symmetry_equiv_pos_as_xyz
  1  'x, y, z'
loop_
 _atom_site_type_symbol
 _atom_site_label
 _atom_site_symmetry_multiplicity
 _atom_site_fract_x
 _atom_site_fract_y
 _atom_site_fract_z
 _atom_site_occupancy
  K  K0  1  0.71137257  0.74367496  0.68326725  1
  K  K1  1  0.72087346  0.99712106  0.56577867  1
  K  K2  1  0.22087346  0.99712106  0.93422133  1
  K  K3  1  0.27912654  0.00287894  0.43422133  1
  K  K4  1  0.28862743  0.24367496  0.81673275  1
  K  K5  1  0.72087346  0.50287894  0.06577867  1
  K  K6  1  0.22087346  0.50287894  0.43422133  1
  K  K7  1  0.28862743  0.25632504  0.31673275  1
  K  K8  1  0.21137257  0.74367496  0.81673275  1
  K  K9  1  0.77912654  0.49712106  0.56577867  1
  K  K10  1  0.21137257  0.75632504  0.31673275  1
  K  K11  1  0.71137257  0.75632504  0.18326725  1
  K  K12  1  0.27912654  0.49712106  0.93422133  1
  K  K13  1  0.77912654  0.00287894  0.06577867  1
  K  K14  1  0.78862743  0.25632504  0.18326725  1
  K  K15  1  0.78862743  0.24367496  0.68326725  1
  Ga  Ga16  1  0.78367051  0.23155502  0.93773042  1
  Ga  Ga17  1  0.68084523  0.98620122  0.81422567  1
  Ga  Ga18  1  0.31915477  0.48620122  0.68577433  1
  Ga  Ga19  1  0.18084523  0.51379878  0.18577433  1
  Ga  Ga20  1  0.31915477  0.01379878  0.18577433  1
  Ga  Ga21  1  0.68084523  0.51379878  0.31422567  1
  Ga  Ga22  1  0.28367051  0.23155502  0.56226958  1
  Ga  Ga23  1  0.18084523  0.98620122  0.68577433  1
  Ga  Ga24  1  0.21632949  0.76844498  0.06226958  1
  Ga  Ga25  1  0.78367051  0.26844498  0.43773042  1
  Ga  Ga26  1  0.71632949  0.76844498  0.43773042  1
  Ga  Ga27  1  0.81915477  0.01379878  0.31422567  1
  Ga  Ga28  1  0.28367051  0.26844498  0.06226958  1
  Ga  Ga29  1  0.81915477  0.48620122  0.81422567  1
  Ga  Ga30  1  0.71632949  0.73155502  0.93773042  1
  Ga  Ga31  1  0.21632949  0.73155502  0.56226958  1
  O  O32  1  0.81223581  0.92358389  0.41155859  1
  O  O33  1  0.20808542  0.67560933  0.15861675  1
  O  O34  1  0.79191458  0.32439067  0.84138325  1
  O  O35  1  0.88432096  0.02265477  0.72843824  1
  O  O36  1  0.88432096  0.47734523  0.22843824  1
  O  O37  1  0.29191458  0.17560933  0.15861675  1
  O  O38  1  0.08781546  0.29008442  0.47918031  1
  O  O39  1  0.41218454  0.79008442  0.47918031  1
  O  O40  1  0.31223581  0.57641611  0.58844141  1
  O  O41  1  0.79191458  0.17560933  0.34138325  1
  O  O42  1  0.58781546  0.29008442  0.02081969  1
  O  O43  1  0.41218454  0.70991558  0.97918031  1
  O  O44  1  0.38432096  0.02265477  0.77156176  1
  O  O45  1  0.81223581  0.57641611  0.91155859  1
  O  O46  1  0.20808542  0.82439067  0.65861675  1
  O  O47  1  0.68776419  0.42358389  0.41155859  1
  O  O48  1  0.58781546  0.20991558  0.52081969  1
  O  O49  1  0.61567904  0.52265477  0.72843824  1
  O  O50  1  0.18776419  0.42358389  0.08844141  1
  O  O51  1  0.08781546  0.20991558  0.97918031  1
  O  O52  1  0.11567904  0.97734523  0.27156176  1
  O  O53  1  0.11567904  0.52265477  0.77156176  1
  O  O54  1  0.91218454  0.70991558  0.52081969  1
  O  O55  1  0.18776419  0.07641611  0.58844141  1
  O  O56  1  0.31223581  0.92358389  0.08844141  1
  O  O57  1  0.29191458  0.32439067  0.65861675  1
  O  O58  1  0.38432096  0.47734523  0.27156176  1
  O  O59  1  0.61567904  0.97734523  0.22843824  1
  O  O60  1  0.91218454  0.79008442  0.02081969  1
  O  O61  1  0.70808542  0.82439067  0.84138325  1
  O  O62  1  0.68776419  0.07641611  0.91155859  1
  O  O63  1  0.70808542  0.67560933  0.34138325  1
