# generated using pymatgen
data_Li4MnCo2O7
_symmetry_space_group_name_H-M   'P 1'
_cell_length_a   2.86025965
_cell_length_b   5.85264021
_cell_length_c   15.23076968
_cell_angle_alpha   84.59279784
_cell_angle_beta   84.61214005
_cell_angle_gamma   89.99999503
_symmetry_Int_Tables_number   1
_chemical_formula_structural   Li4MnCo2O7
_chemical_formula_sum   'Li8 Mn2 Co4 O14'
_cell_volume   252.69808337
_cell_formula_units_Z   2
loop_
 _symmetry_equiv_pos_site_id
 _symmetry_equiv_pos_as_xyz
  1  'x, y, z'
loop_
 _atom_site_type_symbol
 _atom_site_label
 _atom_site_symmetry_multiplicity
 _atom_site_fract_x
 _atom_site_fract_y
 _atom_site_fract_z
 _atom_site_occupancy
  Li  Li0  1  0.42836304  0.21175036  0.14327292  1
  Li  Li1  1  0.28129165  0.64769797  0.43741570  1
  Li  Li2  1  0.14675297  0.07016826  0.70649406  1
  Li  Li3  1  0.85392668  0.92969752  0.29214665  1
  Li  Li4  1  0.71287705  0.35629371  0.57424689  1
  Li  Li5  1  0.57448393  0.77992886  0.85103314  1
  Li  Li6  1  0.00216317  0.50089854  0.99567366  1
  Li  Li7  1  0.71425232  0.85682696  0.57149636  1
  Mn  Mn8  1  0.00026306  0.00080308  0.99947387  1
  Mn  Mn9  1  0.85607023  0.42490915  0.28785955  1
  Co  Co10  1  0.57327848  0.29255404  0.85344405  1
  Co  Co11  1  0.42715020  0.71466337  0.14569860  1
  Co  Co12  1  0.27696918  0.12687982  0.44606063  1
  Co  Co13  1  0.15118883  0.58084889  0.69762235  1
  O  O14  1  0.49802758  0.22820559  0.00394484  1
  O  O15  1  0.35588425  0.65019319  0.28823151  1
  O  O16  1  0.21760568  0.11374098  0.56478864  1
  O  O17  1  0.92842789  0.94146133  0.14314522  1
  O  O18  1  0.79261153  0.37503705  0.41477594  1
  O  O19  1  0.64197260  0.79379454  0.71605379  1
  O  O20  1  0.07027399  0.51274646  0.85945301  1
  O  O21  1  0.35996719  0.20604397  0.28006662  1
  O  O22  1  0.21096451  0.60402339  0.57807198  1
  O  O23  1  0.07212973  0.06420159  0.85573955  1
  O  O24  1  0.78701737  0.91090612  0.42596525  1
  O  O25  1  0.64232413  0.35227146  0.71535173  1
  O  O26  1  0.50040310  0.77054107  0.99919380  1
  O  O27  1  0.92335966  0.48291272  0.15327969  1
