# generated using pymatgen
data_Li5GeAs3
_symmetry_space_group_name_H-M   'P 1'
_cell_length_a   8.69264786
_cell_length_b   12.90711213
_cell_length_c   10.60637221
_cell_angle_alpha   34.92106129
_cell_angle_beta   34.96363539
_cell_angle_gamma   59.54343931
_symmetry_Int_Tables_number   1
_chemical_formula_structural   Li5GeAs3
_chemical_formula_sum   'Li10 Ge2 As6'
_cell_volume   337.35084716
_cell_formula_units_Z   2
loop_
 _symmetry_equiv_pos_site_id
 _symmetry_equiv_pos_as_xyz
  1  'x, y, z'
loop_
 _atom_site_type_symbol
 _atom_site_label
 _atom_site_symmetry_multiplicity
 _atom_site_fract_x
 _atom_site_fract_y
 _atom_site_fract_z
 _atom_site_occupancy
  Li  Li0  1  0.00162390  0.33409961  0.24580559  1
  Li  Li1  1  0.00469732  0.66826046  0.24498076  1
  Li  Li2  1  0.51359232  0.33985028  0.23652376  1
  Li  Li3  1  0.00797774  0.99966436  0.24653969  1
  Li  Li4  1  0.48753109  0.99502028  0.76065397  1
  Li  Li5  1  0.99787134  0.66794798  0.75146239  1
  Li  Li6  1  0.50849335  0.34284762  0.74083471  1
  Li  Li7  1  0.49625550  0.99492239  0.25181651  1
  Li  Li8  1  0.00080795  0.00006988  0.75239565  1
  Li  Li9  1  0.99387862  0.33434632  0.75303811  1
  Ge  Ge10  1  0.48230236  0.66603215  0.26381806  1
  Ge  Ge11  1  0.50915223  0.66669749  0.73680416  1
  As  As12  1  0.97144616  0.98973831  0.03336135  1
  As  As13  1  0.03015215  0.34475579  0.96594718  1
  As  As14  1  0.50712558  0.98898332  0.99774594  1
  As  As15  1  0.00481766  0.66845754  0.99640991  1
  As  As16  1  0.49611215  0.34521374  0.99924274  1
  As  As17  1  0.50251858  0.66772947  0.99858749  1
