# generated using pymatgen
data_Yb(CeS2)2
_symmetry_space_group_name_H-M   'P 1'
_cell_length_a   7.38294883
_cell_length_b   7.38294904
_cell_length_c   7.38294868
_cell_angle_alpha   109.67949436
_cell_angle_beta   109.05547697
_cell_angle_gamma   109.67949369
_symmetry_Int_Tables_number   1
_chemical_formula_structural   Yb(CeS2)2
_chemical_formula_sum   'Yb2 Ce4 S8'
_cell_volume   309.77796809
_cell_formula_units_Z   2
loop_
 _symmetry_equiv_pos_site_id
 _symmetry_equiv_pos_as_xyz
  1  'x, y, z'
loop_
 _atom_site_type_symbol
 _atom_site_label
 _atom_site_symmetry_multiplicity
 _atom_site_fract_x
 _atom_site_fract_y
 _atom_site_fract_z
 _atom_site_occupancy
  Yb  Yb0  1  0.12500000  0.75000000  0.87500000  1
  Yb  Yb1  1  0.37500000  0.25000000  0.62500000  1
  Ce  Ce2  1  0.25000000  0.62816794  0.37816794  1
  Ce  Ce3  1  0.62183206  0.37183206  0.25000000  1
  Ce  Ce4  1  0.75000000  0.87183206  0.12183206  1
  Ce  Ce5  1  0.87816794  0.12816794  0.75000000  1
  S  S6  1  0.00099693  0.85350614  0.49921503  1
  S  S7  1  0.99921503  0.35350614  0.50099693  1
  S  S8  1  0.14749079  0.14649386  0.14570889  1
  S  S9  1  0.35250921  0.49821809  0.99900307  1
  S  S10  1  0.64570889  0.64649386  0.64749079  1
  S  S11  1  0.49900307  0.99821809  0.85250921  1
  S  S12  1  0.50078497  0.00178191  0.35429111  1
  S  S13  1  0.85429111  0.50178191  0.00078497  1
