# generated using pymatgen
data_BaH4(ClO)2
_symmetry_space_group_name_H-M   'P 1'
_cell_length_a   6.81902372
_cell_length_b   11.05456463
_cell_length_c   7.18399632
_cell_angle_alpha   90.00000000
_cell_angle_beta   91.11495324
_cell_angle_gamma   90.00000000
_symmetry_Int_Tables_number   1
_chemical_formula_structural   BaH4(ClO)2
_chemical_formula_sum   'Ba4 H16 Cl8 O8'
_cell_volume   541.43672661
_cell_formula_units_Z   4
loop_
 _symmetry_equiv_pos_site_id
 _symmetry_equiv_pos_as_xyz
  1  'x, y, z'
loop_
 _atom_site_type_symbol
 _atom_site_label
 _atom_site_symmetry_multiplicity
 _atom_site_fract_x
 _atom_site_fract_y
 _atom_site_fract_z
 _atom_site_occupancy
  Ba  Ba0  1  0.95939129  0.78339491  0.85390253  1
  Ba  Ba1  1  0.45939129  0.71660509  0.35390253  1
  Ba  Ba2  1  0.04060871  0.21660509  0.14609747  1
  Ba  Ba3  1  0.54060871  0.28339491  0.64609747  1
  H  H4  1  0.14644125  0.56092207  0.61839031  1
  H  H5  1  0.64644125  0.93907793  0.11839031  1
  H  H6  1  0.85355875  0.43907793  0.38160969  1
  H  H7  1  0.35355875  0.06092207  0.88160969  1
  H  H8  1  0.02348508  0.62526827  0.45707823  1
  H  H9  1  0.52348508  0.87473173  0.95707823  1
  H  H10  1  0.97651492  0.37473173  0.54292177  1
  H  H11  1  0.47651492  0.12526827  0.04292177  1
  H  H12  1  0.40470329  0.63752694  0.90049132  1
  H  H13  1  0.90470329  0.86247306  0.40049132  1
  H  H14  1  0.59529671  0.36247306  0.09950868  1
  H  H15  1  0.09529671  0.13752694  0.59950868  1
  H  H16  1  0.25131276  0.56418237  0.01174269  1
  H  H17  1  0.75131276  0.93581763  0.51174269  1
  H  H18  1  0.74868724  0.43581763  0.98825731  1
  H  H19  1  0.24868724  0.06418237  0.48825731  1
  Cl  Cl20  1  0.63558846  0.58144254  0.70812808  1
  Cl  Cl21  1  0.13558846  0.91855746  0.20812808  1
  Cl  Cl22  1  0.36441154  0.41855746  0.29187192  1
  Cl  Cl23  1  0.86441154  0.08144254  0.79187192  1
  Cl  Cl24  1  0.85859418  0.60328343  0.20083965  1
  Cl  Cl25  1  0.35859418  0.89671657  0.70083965  1
  Cl  Cl26  1  0.14140582  0.39671657  0.79916035  1
  Cl  Cl27  1  0.64140582  0.10328343  0.29916035  1
  O  O28  1  0.12212087  0.64017517  0.55858395  1
  O  O29  1  0.62212087  0.85982483  0.05858395  1
  O  O30  1  0.87787913  0.35982483  0.44141605  1
  O  O31  1  0.37787913  0.14017517  0.94141605  1
  O  O32  1  0.29959960  0.64697794  0.99310436  1
  O  O33  1  0.79959960  0.85302206  0.49310436  1
  O  O34  1  0.70040040  0.35302206  0.00689564  1
  O  O35  1  0.20040040  0.14697794  0.50689564  1
