# generated using pymatgen
data_Ce5Rh4
_symmetry_space_group_name_H-M   'P 1'
_cell_length_a   7.35615674
_cell_length_b   7.51594556
_cell_length_c   15.07582118
_cell_angle_alpha   89.98573552
_cell_angle_beta   89.97790442
_cell_angle_gamma   90.03153514
_symmetry_Int_Tables_number   1
_chemical_formula_structural   Ce5Rh4
_chemical_formula_sum   'Ce20 Rh16'
_cell_volume   833.51892722
_cell_formula_units_Z   4
loop_
 _symmetry_equiv_pos_site_id
 _symmetry_equiv_pos_as_xyz
  1  'x, y, z'
loop_
 _atom_site_type_symbol
 _atom_site_label
 _atom_site_symmetry_multiplicity
 _atom_site_fract_x
 _atom_site_fract_y
 _atom_site_fract_z
 _atom_site_occupancy
  Ce  Ce0  1  0.01161202  0.17849564  0.40913362  1
  Ce  Ce1  1  0.83464133  0.33454955  0.87830966  1
  Ce  Ce2  1  0.98834375  0.82165773  0.90895575  1
  Ce  Ce3  1  0.17812700  0.52644922  0.74986809  1
  Ce  Ce4  1  0.51175104  0.32147086  0.09086568  1
  Ce  Ce5  1  0.48826691  0.67839346  0.90896637  1
  Ce  Ce6  1  0.16541992  0.66532066  0.12169082  1
  Ce  Ce7  1  0.33463713  0.16543709  0.62166525  1
  Ce  Ce8  1  0.67795116  0.97342981  0.74988882  1
  Ce  Ce9  1  0.33460555  0.16538068  0.87827581  1
  Ce  Ce10  1  0.01160735  0.17853891  0.09091807  1
  Ce  Ce11  1  0.48843180  0.67828757  0.59104507  1
  Ce  Ce12  1  0.82158840  0.47304211  0.24999334  1
  Ce  Ce13  1  0.51149253  0.32169675  0.40914196  1
  Ce  Ce14  1  0.98842419  0.82160837  0.59108625  1
  Ce  Ce15  1  0.83448473  0.33470246  0.62168185  1
  Ce  Ce16  1  0.66548039  0.83456375  0.37844141  1
  Ce  Ce17  1  0.16557401  0.66521459  0.37843674  1
  Ce  Ce18  1  0.66549775  0.83475273  0.12164852  1
  Ce  Ce19  1  0.32172386  0.02698992  0.24991307  1
  Rh  Rh20  1  0.02797334  0.12193976  0.74998870  1
  Rh  Rh21  1  0.81298275  0.53380639  0.03943434  1
  Rh  Rh22  1  0.47216989  0.62191063  0.25004563  1
  Rh  Rh23  1  0.18692812  0.46602714  0.53952978  1
  Rh  Rh24  1  0.69309428  0.14084506  0.24995898  1
  Rh  Rh25  1  0.30694962  0.85927024  0.75000792  1
  Rh  Rh26  1  0.97215711  0.87808359  0.25002109  1
  Rh  Rh27  1  0.68699140  0.03406673  0.96049033  1
  Rh  Rh28  1  0.31314397  0.96598864  0.46060299  1
  Rh  Rh29  1  0.31305213  0.96618095  0.03946766  1
  Rh  Rh30  1  0.52800300  0.37801127  0.74997439  1
  Rh  Rh31  1  0.68685682  0.03400458  0.53954411  1
  Rh  Rh32  1  0.81309402  0.53395407  0.46054500  1
  Rh  Rh33  1  0.80696600  0.64078058  0.75002857  1
  Rh  Rh34  1  0.18694490  0.46596847  0.96047431  1
  Rh  Rh35  1  0.19303181  0.35918004  0.24996003  1
