# generated using pymatgen
data_Al2Se3
_symmetry_space_group_name_H-M   'P 1'
_cell_length_a   7.52182063
_cell_length_b   22.56412738
_cell_length_c   19.89398390
_cell_angle_alpha   19.11333710
_cell_angle_beta   55.43880958
_cell_angle_gamma   59.96667568
_symmetry_Int_Tables_number   1
_chemical_formula_structural   Al2Se3
_chemical_formula_sum   'Al16 Se24'
_cell_volume   902.54337716
_cell_formula_units_Z   8
loop_
 _symmetry_equiv_pos_site_id
 _symmetry_equiv_pos_as_xyz
  1  'x, y, z'
loop_
 _atom_site_type_symbol
 _atom_site_label
 _atom_site_symmetry_multiplicity
 _atom_site_fract_x
 _atom_site_fract_y
 _atom_site_fract_z
 _atom_site_occupancy
  Al  Al0  1  0.98837567  0.99799236  0.00941360  1
  Al  Al1  1  0.00972741  0.33537846  0.99094971  1
  Al  Al2  1  0.23802564  0.24511114  0.26188628  1
  Al  Al3  1  0.62127332  0.10070778  0.15160809  1
  Al  Al4  1  0.09580484  0.12358742  0.62913400  1
  Al  Al5  1  0.25919376  0.58641568  0.24029826  1
  Al  Al6  1  0.62761110  0.48325671  0.09710928  1
  Al  Al7  1  0.15293686  0.46198351  0.61923047  1
  Al  Al8  1  0.64370063  0.12439022  0.62814828  1
  Al  Al9  1  0.62360455  0.29249390  0.62475315  1
  Al  Al10  1  0.62419359  0.79332114  0.12343533  1
  Al  Al11  1  0.60466967  0.46195948  0.61913172  1
  Al  Al12  1  0.12331038  0.79093021  0.62577317  1
  Al  Al13  1  0.61855699  0.64867899  0.60428899  1
  Al  Al14  1  0.62396268  0.79069978  0.62569834  1
  Al  Al15  1  0.62648357  0.93488308  0.64604164  1
  Se  Se16  1  0.37586542  0.03284076  0.38224615  1
  Se  Se17  1  0.38340769  0.20413191  0.38659279  1
  Se  Se18  1  0.38465105  0.35811727  0.38444180  1
  Se  Se19  1  0.87080196  0.03093297  0.38729946  1
  Se  Se20  1  0.84196739  0.20391856  0.38658651  1
  Se  Se21  1  0.38476521  0.04404215  0.87147590  1
  Se  Se22  1  0.38104475  0.54233079  0.37601374  1
  Se  Se23  1  0.38946952  0.70652115  0.36722534  1
  Se  Se24  1  0.85900781  0.36073597  0.39936313  1
  Se  Se25  1  0.38900591  0.22469410  0.84954296  1
  Se  Se26  1  0.86733446  0.04348330  0.87206938  1
  Se  Se27  1  0.86286118  0.54191910  0.37648027  1
  Se  Se28  1  0.40580395  0.37953463  0.86346009  1
  Se  Se29  1  0.36834998  0.87165509  0.38814928  1
  Se  Se30  1  0.86330236  0.68535955  0.40568896  1
  Se  Se31  1  0.37526831  0.55056893  0.86490295  1
  Se  Se32  1  0.86427964  0.22734705  0.86333826  1
  Se  Se33  1  0.86424793  0.37914762  0.86371706  1
  Se  Se34  1  0.84993307  0.86993675  0.38972742  1
  Se  Se35  1  0.39745690  0.71262482  0.86066526  1
  Se  Se36  1  0.38444646  0.89908446  0.84371398  1
  Se  Se37  1  0.87189609  0.54901100  0.86880479  1
  Se  Se38  1  0.87850715  0.71247915  0.86105007  1
  Se  Se39  1  0.85881916  0.87990106  0.88004514  1
