# generated using pymatgen
data_Tb2Se3
_symmetry_space_group_name_H-M   'P 1'
_cell_length_a   22.66975334
_cell_length_b   8.72817894
_cell_length_c   8.72817843
_cell_angle_alpha   90.00000000
_cell_angle_beta   54.72360082
_cell_angle_gamma   54.72360073
_symmetry_Int_Tables_number   1
_chemical_formula_structural   Tb2Se3
_chemical_formula_sum   'Tb16 Se24'
_cell_volume   996.49650298
_cell_formula_units_Z   8
loop_
 _symmetry_equiv_pos_site_id
 _symmetry_equiv_pos_as_xyz
  1  'x, y, z'
loop_
 _atom_site_type_symbol
 _atom_site_label
 _atom_site_symmetry_multiplicity
 _atom_site_fract_x
 _atom_site_fract_y
 _atom_site_fract_z
 _atom_site_occupancy
  Tb  Tb0  1  0.99625305  0.12210917  0.76367488  1
  Tb  Tb1  1  0.08190329  0.62714456  0.37714456  1
  Tb  Tb2  1  0.16666700  0.25000000  0.63136475  1
  Tb  Tb3  1  0.25142971  0.87285544  0.12285544  1
  Tb  Tb4  1  0.33707995  0.37789083  0.25243402  1
  Tb  Tb5  1  0.16666700  0.75000000  0.86863525  1
  Tb  Tb6  1  0.33707995  0.11086831  0.73632512  1
  Tb  Tb7  1  0.49625305  0.26367488  0.62210917  1
  Tb  Tb8  1  0.58190329  0.87714456  0.12714456  1
  Tb  Tb9  1  0.66666700  0.36863525  0.25000000  1
  Tb  Tb10  1  0.49625305  0.74756598  0.88913169  1
  Tb  Tb11  1  0.66666700  0.13136475  0.75000000  1
  Tb  Tb12  1  0.75142971  0.62285544  0.37285544  1
  Tb  Tb13  1  0.83707995  0.23632512  0.61086831  1
  Tb  Tb14  1  0.99625305  0.38913169  0.24756598  1
  Tb  Tb15  1  0.83707995  0.75243402  0.87789083  1
  Se  Se16  1  0.12519886  0.49103073  0.99430072  1
  Se  Se17  1  0.04864912  0.35475299  0.49529064  1
  Se  Se18  1  0.04864912  0.99929866  0.35876100  1
  Se  Se19  1  0.28468388  0.14524701  0.14123900  1
  Se  Se20  1  0.28468388  0.50070134  0.00470936  1
  Se  Se21  1  0.12519886  0.63337169  0.63010170  1
  Se  Se22  1  0.20813414  0.86662831  0.50569928  1
  Se  Se23  1  0.45093623  0.49413452  0.99861172  1
  Se  Se24  1  0.38239777  0.35141942  0.50586548  1
  Se  Se25  1  0.20813414  0.00896927  0.86989830  1
  Se  Se26  1  0.62519886  0.13010170  0.13337169  1
  Se  Se27  1  0.38239777  0.00138828  0.34694222  1
  Se  Se28  1  0.62519886  0.49430072  0.99103073  1
  Se  Se29  1  0.45093623  0.65305778  0.64858058  1
  Se  Se30  1  0.54864912  0.85876100  0.49929866  1
  Se  Se31  1  0.78468388  0.50470936  0.00070134  1
  Se  Se32  1  0.70813414  0.36989830  0.50896927  1
  Se  Se33  1  0.54864912  0.99529064  0.85475299  1
  Se  Se34  1  0.70813414  0.00569928  0.36662831  1
  Se  Se35  1  0.95093623  0.14858058  0.15305778  1
  Se  Se36  1  0.95093623  0.49861172  0.99413452  1
  Se  Se37  1  0.78468388  0.64123900  0.64524701  1
  Se  Se38  1  0.88239777  0.84694222  0.50138828  1
  Se  Se39  1  0.88239777  0.00586548  0.85141942  1
