# generated using pymatgen
data_V23Se40
_symmetry_space_group_name_H-M   'P 1'
_cell_length_a   3.42067089
_cell_length_b   35.14268548
_cell_length_c   12.54052214
_cell_angle_alpha   74.27814726
_cell_angle_beta   97.83869098
_cell_angle_gamma   119.12280774
_symmetry_Int_Tables_number   1
_chemical_formula_structural   V23Se40
_chemical_formula_sum   'V23 Se40'
_cell_volume   1267.64670973
_cell_formula_units_Z   1
loop_
 _symmetry_equiv_pos_site_id
 _symmetry_equiv_pos_as_xyz
  1  'x, y, z'
loop_
 _atom_site_type_symbol
 _atom_site_label
 _atom_site_symmetry_multiplicity
 _atom_site_fract_x
 _atom_site_fract_y
 _atom_site_fract_z
 _atom_site_occupancy
  V  V0  1  0.05457104  0.91058929  0.00324915  1
  V  V1  1  0.98728082  0.94747528  0.49980888  1
  V  V2  1  0.95209444  0.79004110  0.00377783  1
  V  V3  1  0.05181193  0.86068565  0.49676738  1
  V  V4  1  0.00345487  0.82557519  0.75115786  1
  V  V5  1  0.00567293  0.70097712  0.00157462  1
  V  V6  1  0.95598950  0.74140940  0.49788495  1
  V  V7  1  0.94818807  0.48931435  0.00323262  1
  V  V8  1  -0.00567293  0.64902288  0.49842538  1
  V  V9  1  0.04790556  0.55995890  0.49622217  1
  V  V10  1  0.04401050  0.60859060  0.00211505  1
  V  V11  1  0.01271918  0.40252472  0.00019112  1
  V  V12  1  0.99654513  0.52442481  0.74884214  1
  V  V13  1  0.94542896  0.43941071  0.49675085  1
  V  V14  1  0.99847042  0.34968037  0.50013716  1
  V  V15  1  0.04740704  0.20996719  0.99514215  1
  V  V16  1  0.98948359  0.29793676  0.99959960  1
  V  V17  1  0.04927716  0.25952455  0.50330884  1
  V  V18  1  0.95072284  0.09047545  0.99669116  1
  V  V19  1  0.01051641  0.05206324  0.50040040  1
  V  V20  1  0.00000000  0.17500000  0.25000000  1
  V  V21  1  0.95259296  0.14003281  0.50485785  1
  V  V22  1  0.00152958  0.00031963  0.99986284  1
  Se  Se23  1  0.66520191  0.99524510  0.37794880  1
  Se  Se24  1  0.67358149  0.94769907  0.87016833  1
  Se  Se25  1  0.35199579  0.90666535  0.63734208  1
  Se  Se26  1  0.35102273  0.95681346  0.13391490  1
  Se  Se27  1  0.33521642  0.80555089  0.61492792  1
  Se  Se28  1  0.67259183  0.89818328  0.36334690  1
  Se  Se29  1  0.33520930  0.85622915  0.10813114  1
  Se  Se30  1  0.67334173  0.84605088  0.88617067  1
  Se  Se31  1  0.32676296  0.75185859  0.13494407  1
  Se  Se32  1  0.33048237  0.70312995  0.62966928  1
  Se  Se33  1  0.65298670  0.74392137  0.86675566  1
  Se  Se34  1  0.67549399  0.79588437  0.39214027  1
  Se  Se35  1  0.66951763  0.64687005  0.87033072  1
  Se  Se36  1  0.34609584  0.65606927  0.13150302  1
  Se  Se37  1  0.34701330  0.60607863  0.63324434  1
  Se  Se38  1  0.65390416  0.69393073  0.36849698  1
  Se  Se39  1  0.32665827  0.50394912  0.61382933  1
  Se  Se40  1  0.32450601  0.55411563  0.10785973  1
  Se  Se41  1  0.66478358  0.54444911  0.88507208  1
  Se  Se42  1  0.67323704  0.59814141  0.36505593  1
  Se  Se43  1  0.64800421  0.44333465  0.86265792  1
  Se  Se44  1  0.66479070  0.49377085  0.39186886  1
  Se  Se45  1  0.32740817  0.45181672  0.13665310  1
  Se  Se46  1  0.32641851  0.40230093  0.62983167  1
  Se  Se47  1  0.64897727  0.39318654  0.36608510  1
  Se  Se48  1  0.66208950  0.34466827  0.87749233  1
  Se  Se49  1  0.33479809  0.35475490  0.12205120  1
  Se  Se50  1  0.34413314  0.30541809  0.63408941  1
  Se  Se51  1  0.66889424  0.29669231  0.37086140  1
  Se  Se52  1  0.66735221  0.24715613  0.86313913  1
  Se  Se53  1  0.34610125  0.25562309  0.13597557  1
  Se  Se54  1  0.33036074  0.20531554  0.60757007  1
  Se  Se55  1  0.67119482  0.19571158  0.38526979  1
  Se  Se56  1  0.66963926  0.14468446  0.89242993  1
  Se  Se57  1  0.33264779  0.10284387  0.63686087  1
  Se  Se58  1  0.32880518  0.15428842  0.11473021  1
  Se  Se59  1  0.65389875  0.09437691  0.36402443  1
  Se  Se60  1  0.65586686  0.04458191  0.86591059  1
  Se  Se61  1  0.33110576  0.05330769  0.12913860  1
  Se  Se62  1  0.33791050  0.00533173  0.62250767  1
