# generated using pymatgen
data_Li4MnCo2O7
_symmetry_space_group_name_H-M   'P 1'
_cell_length_a   2.85368755
_cell_length_b   17.43531336
_cell_length_c   5.26244306
_cell_angle_alpha   101.49611505
_cell_angle_beta   90.00000000
_cell_angle_gamma   85.30586849
_symmetry_Int_Tables_number   1
_chemical_formula_structural   Li4MnCo2O7
_chemical_formula_sum   'Li8 Mn2 Co4 O14'
_cell_volume   255.68340724
_cell_formula_units_Z   2
loop_
 _symmetry_equiv_pos_site_id
 _symmetry_equiv_pos_as_xyz
  1  'x, y, z'
loop_
 _atom_site_type_symbol
 _atom_site_label
 _atom_site_symmetry_multiplicity
 _atom_site_fract_x
 _atom_site_fract_y
 _atom_site_fract_z
 _atom_site_occupancy
  Li  Li0  1  0.49675302  0.00649396  0.50772627  1
  Li  Li1  1  0.92643247  0.14713406  0.79647269  1
  Li  Li2  1  0.35621803  0.28756394  0.08170976  1
  Li  Li3  1  0.78466208  0.43067483  0.37465914  1
  Li  Li4  1  0.21384990  0.57230119  0.63844707  1
  Li  Li5  1  0.07434525  0.85131049  0.21556871  1
  Li  Li6  1  0.64819961  0.70360077  0.89560972  1
  Li  Li7  1  0.71437849  0.57124402  0.14479040  1
  Mn  Mn8  1  0.99853989  0.00292023  0.00165206  1
  Mn  Mn9  1  0.57259909  0.85480282  0.70647925  1
  Co  Co10  1  0.42666689  0.14666521  0.29684833  1
  Co  Co11  1  0.85646166  0.28707667  0.56720067  1
  Co  Co12  1  0.28139804  0.43720293  0.90254447  1
  Co  Co13  1  0.14950253  0.70099495  0.38284385  1
  O  O14  1  0.53515089  0.92969922  0.05997265  1
  O  O15  1  0.96284246  0.07431508  0.39200062  1
  O  O16  1  0.38929709  0.22140482  0.65706918  1
  O  O17  1  0.81730292  0.36539417  0.94422777  1
  O  O18  1  0.25333387  0.49333126  0.23096862  1
  O  O19  1  0.10159165  0.79681670  0.82622840  1
  O  O20  1  0.67681127  0.64637845  0.53110319  1
  O  O21  1  0.46599617  0.06800665  0.90462610  1
  O  O22  1  0.89437282  0.21125436  0.17712096  1
  O  O23  1  0.32574514  0.34850872  0.47239210  1
  O  O24  1  0.75521378  0.48957343  0.76293602  1
  O  O25  1  0.17520681  0.64958637  0.05522945  1
  O  O26  1  0.04058992  0.91882017  0.59981764  1
  O  O27  1  0.60653823  0.78692454  0.37375492  1
