# generated using pymatgen
data_Mg2Al4Si5O18
_symmetry_space_group_name_H-M   'P 1'
_cell_length_a   9.90314509
_cell_length_b   9.83578466
_cell_length_c   9.44996063
_cell_angle_alpha   90.05845619
_cell_angle_beta   89.97593723
_cell_angle_gamma   119.49771130
_symmetry_Int_Tables_number   1
_chemical_formula_structural   Mg2Al4Si5O18
_chemical_formula_sum   'Mg4 Al8 Si10 O36'
_cell_volume   801.15863048
_cell_formula_units_Z   2
loop_
 _symmetry_equiv_pos_site_id
 _symmetry_equiv_pos_as_xyz
  1  'x, y, z'
loop_
 _atom_site_type_symbol
 _atom_site_label
 _atom_site_symmetry_multiplicity
 _atom_site_fract_x
 _atom_site_fract_y
 _atom_site_fract_z
 _atom_site_occupancy
  Mg  Mg0  1  0.33748100  0.66944301  0.24750996  1
  Mg  Mg1  1  0.33434889  0.66798218  0.75242034  1
  Mg  Mg2  1  0.67099629  0.33271581  0.24833583  1
  Mg  Mg3  1  0.67550267  0.33413102  0.75248428  1
  Al  Al4  1  0.99743302  0.49703761  0.75061415  1
  Al  Al5  1  0.50251022  0.50114900  0.75134735  1
  Al  Al6  1  0.50297803  0.50169068  0.24830435  1
  Al  Al7  1  0.50403088  0.00162672  0.25092309  1
  Al  Al8  1  0.50303070  0.00138221  0.74919583  1
  Al  Al9  1  0.89685178  0.63633180  0.99874949  1
  Al  Al10  1  0.73675243  0.11232881  0.00005580  1
  Al  Al11  1  0.89550830  0.25824280  0.50072732  1
  Si  Si12  1  0.10095383  0.73166331  0.49992200  1
  Si  Si13  1  0.27065150  0.89704925  0.00025225  1
  Si  Si14  1  0.10934283  0.37506109  0.00016368  1
  Si  Si15  1  0.26957467  0.37336188  0.49975947  1
  Si  Si16  1  0.62167028  0.88640209  0.49932911  1
  Si  Si17  1  0.37550444  0.26774603  0.00085267  1
  Si  Si18  1  0.62122260  0.73387201  0.00075521  1
  Si  Si19  1  0.36724354  0.10201930  0.49898600  1
  Si  Si20  1  0.73330443  0.62491731  0.49972592  1
  Si  Si21  1  0.99818775  0.49836216  0.24952328  1
  O  O22  1  0.08879891  0.78244074  0.00081406  1
  O  O23  1  0.22356507  0.91853837  0.49298067  1
  O  O24  1  0.12423050  0.64810725  0.35181424  1
  O  O25  1  0.13602135  0.65242281  0.63790713  1
  O  O26  1  0.13210328  0.48475510  0.14949083  1
  O  O27  1  0.14381004  0.49123903  0.86196111  1
  O  O28  1  0.34945278  0.86516782  0.14266633  1
  O  O29  1  0.34933667  0.86566769  0.85788720  1
  O  O30  1  0.08824155  0.30673881  0.49934077  1
  O  O31  1  0.23747552  0.31535601  0.00689101  1
  O  O32  1  0.50783401  0.85427043  0.35999776  1
  O  O33  1  0.51109275  0.85598726  0.64048667  1
  O  O34  1  0.35122175  0.48447313  0.64055366  1
  O  O35  1  0.35117519  0.48507070  0.35894015  1
  O  O36  1  0.50551231  0.64875996  0.13992250  1
  O  O37  1  0.50934139  0.65039875  0.85944260  1
  O  O38  1  0.30695880  0.22835781  0.49899589  1
  O  O39  1  0.68316787  0.91649622  0.00125206  1
  O  O40  1  0.30941903  0.08072257  0.00099568  1
  O  O41  1  0.69042702  0.76502162  0.49858308  1
  O  O42  1  0.48461511  0.34524504  0.14244223  1
  O  O43  1  0.48023631  0.34385595  0.85729014  1
  O  O44  1  0.65686405  0.51639862  0.35710215  1
  O  O45  1  0.65508147  0.51699896  0.64124465  1
  O  O46  1  0.47693584  0.13343829  0.35984772  1
  O  O47  1  0.47239731  0.13000229  0.64030305  1
  O  O48  1  0.75417252  0.68688696  0.00692613  1
  O  O49  1  0.92167568  0.69693525  0.49931998  1
  O  O50  1  0.65171375  0.14430941  0.15058704  1
  O  O51  1  0.64933784  0.14247174  0.85118560  1
  O  O52  1  0.87587209  0.52236778  0.15388865  1
  O  O53  1  0.86167193  0.51217556  0.85570167  1
  O  O54  1  0.87672044  0.35460255  0.34723255  1
  O  O55  1  0.86180958  0.35174371  0.64094415  1
  O  O56  1  0.76001066  0.06198603  0.49417476  1
  O  O57  1  0.93661955  0.23607374  0.00094874  1
