# generated using pymatgen
data_MgTiNb2(PbO3)4
_symmetry_space_group_name_H-M   'P 1'
_cell_length_a   8.05959695
_cell_length_b   8.30192351
_cell_length_c   10.12039147
_cell_angle_alpha   64.79452069
_cell_angle_beta   66.33432128
_cell_angle_gamma   89.85212509
_symmetry_Int_Tables_number   1
_chemical_formula_structural   MgTiNb2(PbO3)4
_chemical_formula_sum   'Mg2 Ti2 Nb4 Pb8 O24'
_cell_volume   549.45466334
_cell_formula_units_Z   2
loop_
 _symmetry_equiv_pos_site_id
 _symmetry_equiv_pos_as_xyz
  1  'x, y, z'
loop_
 _atom_site_type_symbol
 _atom_site_label
 _atom_site_symmetry_multiplicity
 _atom_site_fract_x
 _atom_site_fract_y
 _atom_site_fract_z
 _atom_site_occupancy
  Mg  Mg0  1  0.12665040  0.62764089  0.26200557  1
  Mg  Mg1  1  0.37828110  0.38010931  0.75828949  1
  Ti  Ti2  1  0.62707591  0.12352068  0.25218927  1
  Ti  Ti3  1  0.87420803  0.87069863  0.75704196  1
  Nb  Nb4  1  0.12419570  0.13326853  0.25834946  1
  Nb  Nb5  1  0.62899298  0.62173256  0.25676496  1
  Nb  Nb6  1  0.37589055  0.88969959  0.75408374  1
  Nb  Nb7  1  0.87771226  0.36822573  0.75995853  1
  Pb  Pb8  1  0.02027347  0.97657390  0.99822210  1
  Pb  Pb9  1  0.01961398  0.49965119  0.98075685  1
  Pb  Pb10  1  0.48799448  0.98039840  0.99539303  1
  Pb  Pb11  1  0.50457261  0.50121178  0.98120111  1
  Pb  Pb12  1  0.25278036  0.24661984  0.48556176  1
  Pb  Pb13  1  0.26550008  0.73367444  0.48791503  1
  Pb  Pb14  1  0.76155472  0.24465780  0.48997347  1
  Pb  Pb15  1  0.75125593  0.73091415  0.49003126  1
  O  O16  1  0.24553487  0.26431246  0.02766677  1
  O  O17  1  0.25404220  0.77898421  0.01128340  1
  O  O18  1  0.11447039  0.36191823  0.29400223  1
  O  O19  1  0.11959223  0.88910698  0.28387634  1
  O  O20  1  0.37104508  0.13527218  0.28261153  1
  O  O21  1  0.37835120  0.64970416  0.27099429  1
  O  O22  1  0.10796022  0.39401696  0.78414696  1
  O  O23  1  0.11847799  0.88800723  0.77316000  1
  O  O24  1  0.74475545  0.26599329  0.02908335  1
  O  O25  1  0.75156818  0.77310473  0.01741690  1
  O  O26  1  0.50324481  0.02057489  0.51689728  1
  O  O27  1  0.62257843  0.38428813  0.27379197  1
  O  O28  1  0.50691917  0.53333312  0.50579169  1
  O  O29  1  0.37561449  0.12407290  0.77395821  1
  O  O30  1  0.62325384  0.89656537  0.27087468  1
  O  O31  1  0.36943715  0.63868436  0.78172949  1
  O  O32  1  0.86503773  0.13678542  0.28140510  1
  O  O33  1  0.86827849  0.65247197  0.26887658  1
  O  O34  1  0.62430675  0.39454570  0.78374822  1
  O  O35  1  0.62704309  0.88765396  0.77257857  1
  O  O36  1  0.99496297  0.01091263  0.53242269  1
  O  O37  1  0.87227492  0.13455272  0.77358375  1
  O  O38  1  0.99452888  0.51373298  0.52841346  1
  O  O39  1  0.86736893  0.63760801  0.78354898  1
