# generated using pymatgen
data_CeSI
_symmetry_space_group_name_H-M   'P 1'
_cell_length_a   7.04548274
_cell_length_b   7.31613684
_cell_length_c   14.43732665
_cell_angle_alpha   89.97422789
_cell_angle_beta   90.00523151
_cell_angle_gamma   89.99614201
_symmetry_Int_Tables_number   1
_chemical_formula_structural   CeSI
_chemical_formula_sum   'Ce8 S8 I8'
_cell_volume   744.18225683
_cell_formula_units_Z   8
loop_
 _symmetry_equiv_pos_site_id
 _symmetry_equiv_pos_as_xyz
  1  'x, y, z'
loop_
 _atom_site_type_symbol
 _atom_site_label
 _atom_site_symmetry_multiplicity
 _atom_site_fract_x
 _atom_site_fract_y
 _atom_site_fract_z
 _atom_site_occupancy
  Ce  Ce0  1  0.25764749  0.47072139  0.08218629  1
  Ce  Ce1  1  0.75765126  0.02928069  0.08212313  1
  Ce  Ce2  1  0.74238133  0.02928830  0.58211316  1
  Ce  Ce3  1  0.25761337  0.97070418  0.41785213  1
  Ce  Ce4  1  0.24236376  0.97072215  0.91783610  1
  Ce  Ce5  1  0.75761912  0.52928544  0.41779801  1
  Ce  Ce6  1  0.74234597  0.52928825  0.91788361  1
  Ce  Ce7  1  0.24236725  0.47072576  0.58211041  1
  S  S8  1  0.49934128  0.25756727  0.47657385  1
  S  S9  1  0.49924649  0.75747299  0.02341655  1
  S  S10  1  0.00076241  0.25749342  0.97661034  1
  S  S11  1  0.50072215  0.74243512  0.52338534  1
  S  S12  1  0.99927744  0.24257284  0.47657707  1
  S  S13  1  0.99938011  0.74248677  0.02341486  1
  S  S14  1  0.00067472  0.75742600  0.52338238  1
  S  S15  1  0.50060956  0.24251348  0.97661024  1
  I  I16  1  0.68273036  0.90555546  0.30085876  1
  I  I17  1  0.18270766  0.59439883  0.30084655  1
  I  I18  1  0.18273351  0.09443859  0.19916984  1
  I  I19  1  0.31727026  0.09439695  0.69917881  1
  I  I20  1  0.81728522  0.90559199  0.80085519  1
  I  I21  1  0.31727742  0.59442477  0.80084821  1
  I  I22  1  0.68271534  0.40560987  0.19919716  1
  I  I23  1  0.81727653  0.40559951  0.69917199  1
