# generated using pymatgen
data_Ba14Ir8(PdO11)3
_symmetry_space_group_name_H-M   'P 1'
_cell_length_a   10.20827300
_cell_length_b   10.20827266
_cell_length_c   30.78914979
_cell_angle_alpha   90.00000000
_cell_angle_beta   90.00000000
_cell_angle_gamma   120.00000111
_symmetry_Int_Tables_number   1
_chemical_formula_structural   Ba14Ir8(PdO11)3
_chemical_formula_sum   'Ba42 Ir24 Pd9 O99'
_cell_volume   2778.64369244
_cell_formula_units_Z   3
loop_
 _symmetry_equiv_pos_site_id
 _symmetry_equiv_pos_as_xyz
  1  'x, y, z'
loop_
 _atom_site_type_symbol
 _atom_site_label
 _atom_site_symmetry_multiplicity
 _atom_site_fract_x
 _atom_site_fract_y
 _atom_site_fract_z
 _atom_site_occupancy
  Ba  Ba0  1  1.00000000  0.65024422  0.00000000  1
  Ba  Ba1  1  0.99969976  0.35003857  0.64047902  1
  Ba  Ba2  1  0.01537457  0.68225042  0.42936760  1
  Ba  Ba3  1  0.67050654  0.67050654  0.50000000  1
  Ba  Ba4  1  0.00030024  0.35033881  0.35952098  1
  Ba  Ba5  1  0.68153328  0.01395432  0.28932277  1
  Ba  Ba6  1  0.99841660  0.33056369  0.21562740  1
  Ba  Ba7  1  0.66757896  0.98604568  0.71067723  1
  Ba  Ba8  1  0.31846672  0.33242104  0.71067723  1
  Ba  Ba9  1  0.33111882  0.01570421  0.92969649  1
  Ba  Ba10  1  0.01395432  0.68153328  0.71067723  1
  Ba  Ba11  1  0.33056369  0.99841660  0.78437260  1
  Ba  Ba12  1  0.66888118  0.68458539  0.07030351  1
  Ba  Ba13  1  0.64966119  0.64996143  0.35952098  1
  Ba  Ba14  1  0.99765098  0.66809043  0.85629096  1
  Ba  Ba15  1  0.66785291  0.66943631  0.78437260  1
  Ba  Ba16  1  0.35003857  0.99969976  0.35952098  1
  Ba  Ba17  1  0.66687585  0.98462543  0.42936760  1
  Ba  Ba18  1  0.35033881  0.00030024  0.64047902  1
  Ba  Ba19  1  0.66943631  0.66785291  0.21562740  1
  Ba  Ba20  1  0.33242104  0.31846672  0.28932277  1
  Ba  Ba21  1  0.00158340  0.33214709  0.78437260  1
  Ba  Ba22  1  0.33190957  0.32956055  0.85629096  1
  Ba  Ba23  1  0.65024422  0.00000000  0.00000000  1
  Ba  Ba24  1  0.31774958  0.33312415  0.42936760  1
  Ba  Ba25  1  0.00234902  0.67043945  0.14370904  1
  Ba  Ba26  1  0.66809043  0.99765098  0.14370904  1
  Ba  Ba27  1  0.64996143  0.64966119  0.64047902  1
  Ba  Ba28  1  0.32949346  0.00000000  0.50000000  1
  Ba  Ba29  1  0.34975578  0.34975578  0.00000000  1
  Ba  Ba30  1  0.98604568  0.66757896  0.28932277  1
  Ba  Ba31  1  0.01570421  0.33111882  0.07030351  1
  Ba  Ba32  1  0.33214709  0.00158340  0.21562740  1
  Ba  Ba33  1  0.32956055  0.33190957  0.14370904  1
  Ba  Ba34  1  0.98429579  0.31541461  0.92969649  1
  Ba  Ba35  1  0.68458539  0.66888118  0.92969649  1
  Ba  Ba36  1  0.68225042  0.01537457  0.57063240  1
  Ba  Ba37  1  0.31541461  0.98429579  0.07030351  1
  Ba  Ba38  1  0.33312415  0.31774958  0.57063240  1
  Ba  Ba39  1  0.67043945  0.00234902  0.85629096  1
  Ba  Ba40  1  0.98462543  0.66687585  0.57063240  1
  Ba  Ba41  1  0.00000000  0.32949346  0.50000000  1
  Ir  Ir42  1  0.00000000  0.00000000  0.09712404  1
  Ir  Ir43  1  0.66666700  0.33333300  0.24711836  1
  Ir  Ir44  1  0.66666700  0.33333300  0.97174084  1
  Ir  Ir45  1  0.00000000  0.00000000  0.81939969  1
  Ir  Ir46  1  0.00000000  0.00000000  0.18060031  1
  Ir  Ir47  1  0.00000000  0.00000000  0.90287596  1
  Ir  Ir48  1  0.66666700  0.33333300  0.33006545  1
  Ir  Ir49  1  0.33333300  0.66666700  0.02825916  1
  Ir  Ir50  1  0.33333300  0.66666700  0.83695923  1
  Ir  Ir51  1  0.33333300  0.66666700  0.38975437  1
  Ir  Ir52  1  0.66666700  0.33333300  0.61024563  1
  Ir  Ir53  1  0.33333300  0.66666700  0.11140087  1
  Ir  Ir54  1  0.00000000  0.00000000  0.73641917  1
  Ir  Ir55  1  0.33333300  0.66666700  0.66993455  1
  Ir  Ir56  1  0.66666700  0.33333300  0.88859913  1
  Ir  Ir57  1  0.66666700  0.33333300  0.80469079  1
  Ir  Ir58  1  0.00000000  0.00000000  0.26358083  1
  Ir  Ir59  1  0.33333300  0.66666700  0.75288164  1
  Ir  Ir60  1  0.66666700  0.33333300  0.52304683  1
  Ir  Ir61  1  0.66666700  0.33333300  0.16304077  1
  Ir  Ir62  1  0.33333300  0.66666700  0.19530921  1
  Ir  Ir63  1  0.00000000  0.00000000  0.54292355  1
  Ir  Ir64  1  0.33333300  0.66666700  0.47695317  1
  Ir  Ir65  1  0.00000000  0.00000000  0.45707645  1
  Pd  Pd66  1  0.00000000  0.00000000  0.63970674  1
  Pd  Pd67  1  0.00000000  0.00000000  0.36029326  1
  Pd  Pd68  1  0.66666700  0.33333300  0.70763502  1
  Pd  Pd69  1  0.33333300  0.66666700  0.57402481  1
  Pd  Pd70  1  0.66666700  0.33333300  0.06708759  1
  Pd  Pd71  1  0.00000000  0.00000000  0.00000000  1
  Pd  Pd72  1  0.33333300  0.66666700  0.29236498  1
  Pd  Pd73  1  0.33333300  0.66666700  0.93291241  1
  Pd  Pd74  1  0.66666700  0.33333300  0.42597519  1
  O  O75  1  0.15237225  0.99206133  0.58179541  1
  O  O76  1  1.00000000  0.84166825  0.50000000  1
  O  O77  1  0.83361874  0.49083097  0.92927423  1
  O  O78  1  0.18470546  0.51440956  0.87654669  1
  O  O79  1  0.67680083  0.49339765  0.01084884  1
  O  O80  1  0.84762775  0.83968908  0.41820459  1
  O  O81  1  0.34278777  0.50916903  0.07072577  1
  O  O82  1  0.34030522  0.83224139  0.71238332  1
  O  O83  1  0.82125170  0.48219524  0.48370880  1
  O  O84  1  0.67607869  0.18137071  0.36877821  1
  O  O85  1  0.51780476  0.33905646  0.48370880  1
  O  O86  1  0.49193616  0.65969478  0.71238332  1
  O  O87  1  0.83879094  0.84096827  0.14026359  1
  O  O88  1  0.50916903  0.34278777  0.92927423  1
  O  O89  1  0.33275630  0.50778816  0.79354218  1
  O  O90  1  0.83224139  0.34030522  0.28761668  1
  O  O91  1  0.18137071  0.67607869  0.63122179  1
  O  O92  1  0.66094354  0.17874830  0.48370880  1
  O  O93  1  0.65969478  0.49193616  0.28761668  1
  O  O94  1  0.17909558  0.65872355  0.23469710  1
  O  O95  1  0.48559044  0.67029590  0.87654669  1
  O  O96  1  0.49470799  0.81862929  0.63122179  1
  O  O97  1  0.50529201  0.32392131  0.36877821  1
  O  O98  1  0.17503186  0.66724370  0.79354218  1
  O  O99  1  0.00078954  0.84014511  0.77948434  1
  O  O100  1  0.16120906  0.00217733  0.85973641  1
  O  O101  1  0.47962797  0.82090442  0.23469710  1
  O  O102  1  0.32774835  0.82253944  0.15160251  1
  O  O103  1  0.18340318  0.50660235  0.98915116  1
  O  O104  1  0.65872355  0.17909558  0.76530290  1
  O  O105  1  0.50660235  0.18340318  0.01084884  1
  O  O106  1  0.65721223  0.16638126  0.92927423  1
  O  O107  1  0.16064444  0.15985489  0.22051566  1
  O  O108  1  0.49339765  0.67680083  0.98915116  1
  O  O109  1  0.49083097  0.83361874  0.07072577  1
  O  O110  1  0.00731321  0.84956326  0.94227353  1
  O  O111  1  0.82090442  0.47962797  0.76530290  1
  O  O112  1  0.18268301  0.67381617  0.35008081  1
  O  O113  1  0.49113316  0.81731699  0.35008081  1
  O  O114  1  0.00793867  0.16031092  0.58179541  1
  O  O115  1  0.84166825  0.00000000  0.50000000  1
  O  O116  1  0.17746056  0.50520892  0.15160251  1
  O  O117  1  0.32392131  0.50529201  0.63122179  1
  O  O118  1  0.15903173  0.99782267  0.14026359  1
  O  O119  1  0.51440956  0.18470546  0.12345331  1
  O  O120  1  0.32618383  0.50886684  0.35008081  1
  O  O121  1  0.49221184  0.82496814  0.79354218  1
  O  O122  1  0.50520892  0.17746056  0.84839749  1
  O  O123  1  0.00686657  0.15845297  0.30251887  1
  O  O124  1  0.81862929  0.49470799  0.36877821  1
  O  O125  1  0.32970410  0.81529454  0.87654669  1
  O  O126  1  0.84014511  0.00078954  0.22051566  1
  O  O127  1  0.82716109  0.33678052  0.56680980  1
  O  O128  1  0.15845297  0.00686657  0.69748113  1
  O  O129  1  0.50961943  0.17283891  0.56680980  1
  O  O130  1  0.66724370  0.17503186  0.20645782  1
  O  O131  1  0.17874830  0.66094354  0.51629120  1
  O  O132  1  0.33905646  0.51780476  0.51629120  1
  O  O133  1  0.84096827  0.83879094  0.85973641  1
  O  O134  1  0.66321948  0.49038057  0.56680980  1
  O  O135  1  0.50778816  0.33275630  0.20645782  1
  O  O136  1  0.33678052  0.82716109  0.43319020  1
  O  O137  1  0.81731699  0.49113316  0.64991919  1
  O  O138  1  0.15833175  0.15833175  0.50000000  1
  O  O139  1  0.16638126  0.65721223  0.07072577  1
  O  O140  1  0.67381617  0.18268301  0.64991919  1
  O  O141  1  0.81529454  0.32970410  0.12345331  1
  O  O142  1  0.84956326  0.00731321  0.05772647  1
  O  O143  1  0.34127645  0.52037203  0.23469710  1
  O  O144  1  0.50806384  0.16775861  0.28761668  1
  O  O145  1  0.84841360  0.84154703  0.69748113  1
  O  O146  1  0.15985489  0.16064444  0.77948434  1
  O  O147  1  0.15774994  0.15043674  0.05772647  1
  O  O148  1  0.84154703  0.84841360  0.30251887  1
  O  O149  1  0.99206133  0.15237225  0.41820459  1
  O  O150  1  0.82496814  0.49221184  0.20645782  1
  O  O151  1  0.67225165  0.49479108  0.84839749  1
  O  O152  1  0.32319917  0.81659682  0.98915116  1
  O  O153  1  0.50886684  0.32618383  0.64991919  1
  O  O154  1  0.67029590  0.48559044  0.12345331  1
  O  O155  1  0.16775861  0.50806384  0.71238332  1
  O  O156  1  0.49479108  0.67225165  0.15160251  1
  O  O157  1  0.52037203  0.34127645  0.76530290  1
  O  O158  1  0.83935556  0.99921046  0.77948434  1
  O  O159  1  0.99782267  0.15903173  0.85973641  1
  O  O160  1  0.15043674  0.15774994  0.94227353  1
  O  O161  1  0.99921046  0.83935556  0.22051566  1
  O  O162  1  0.49038057  0.66321948  0.43319020  1
  O  O163  1  0.00217733  0.16120906  0.14026359  1
  O  O164  1  0.99313343  0.15158640  0.69748113  1
  O  O165  1  0.16031092  0.00793867  0.41820459  1
  O  O166  1  0.82253944  0.32774835  0.84839749  1
  O  O167  1  0.15158640  0.99313343  0.30251887  1
  O  O168  1  0.84225006  0.99268679  0.94227353  1
  O  O169  1  0.17283891  0.50961943  0.43319020  1
  O  O170  1  0.48219524  0.82125170  0.51629120  1
  O  O171  1  0.99268679  0.84225006  0.05772647  1
  O  O172  1  0.81659682  0.32319917  0.01084884  1
  O  O173  1  0.83968908  0.84762775  0.58179541  1
