# generated using pymatgen
data_W3O8
_symmetry_space_group_name_H-M   'P 1'
_cell_length_a   5.16773428
_cell_length_b   6.95298556
_cell_length_c   6.49442831
_cell_angle_alpha   108.86214359
_cell_angle_beta   125.66115628
_cell_angle_gamma   85.77932747
_symmetry_Int_Tables_number   1
_chemical_formula_structural   W3O8
_chemical_formula_sum   'W3 O8'
_cell_volume   177.39861524
_cell_formula_units_Z   1
loop_
 _symmetry_equiv_pos_site_id
 _symmetry_equiv_pos_as_xyz
  1  'x, y, z'
loop_
 _atom_site_type_symbol
 _atom_site_label
 _atom_site_symmetry_multiplicity
 _atom_site_fract_x
 _atom_site_fract_y
 _atom_site_fract_z
 _atom_site_occupancy
  W  W0  1  0.12470637  0.22322168  0.09970589  1
  W  W1  1  0.91566375  0.40999418  0.63142496  1
  W  W2  1  0.33370035  0.03645764  0.56792275  1
  O  O3  1  0.15746599  0.64528961  0.80085608  1
  O  O4  1  0.51701938  0.45028059  0.35863550  1
  O  O5  1  0.20488125  0.19690690  0.80333988  1
  O  O6  1  0.42956596  0.05368539  0.32930066  1
  O  O7  1  0.73234683  0.99621072  0.84077769  1
  O  O8  1  0.09187556  0.80119091  0.39842679  1
  O  O9  1  0.04447361  0.24954297  0.39603963  1
  O  O10  1  0.81996194  0.39285041  0.87018418  1
