# generated using pymatgen
data_BaSr7Ti6Mn2O20
_symmetry_space_group_name_H-M   'P 1'
_cell_length_a   11.29380306
_cell_length_b   11.39256134
_cell_length_c   17.89230482
_cell_angle_alpha   108.61012600
_cell_angle_beta   108.32626534
_cell_angle_gamma   90.00851396
_symmetry_Int_Tables_number   1
_chemical_formula_structural   BaSr7Ti6Mn2O20
_chemical_formula_sum   'Ba4 Sr28 Ti24 Mn8 O80'
_cell_volume   2058.13027580
_cell_formula_units_Z   4
loop_
 _symmetry_equiv_pos_site_id
 _symmetry_equiv_pos_as_xyz
  1  'x, y, z'
loop_
 _atom_site_type_symbol
 _atom_site_label
 _atom_site_symmetry_multiplicity
 _atom_site_fract_x
 _atom_site_fract_y
 _atom_site_fract_z
 _atom_site_occupancy
  Ba  Ba0  1  0.31040260  0.06058472  0.12209295  1
  Ba  Ba1  1  0.31069844  0.56261343  0.11888911  1
  Ba  Ba2  1  0.81108942  0.06376723  0.12249561  1
  Ba  Ba3  1  0.06250073  0.80654637  0.12162601  1
  Sr  Sr4  1  0.30192040  0.05786329  0.60496717  1
  Sr  Sr5  1  0.30651692  0.56164012  0.60869037  1
  Sr  Sr6  1  0.80454374  0.06166378  0.60833635  1
  Sr  Sr7  1  0.80877387  0.55937756  0.11275747  1
  Sr  Sr8  1  0.80510232  0.56157496  0.60975276  1
  Sr  Sr9  1  0.19666771  0.44260043  0.38862293  1
  Sr  Sr10  1  0.19467524  0.43956567  0.88946382  1
  Sr  Sr11  1  0.19142267  0.93299924  0.38255332  1
  Sr  Sr12  1  0.19590121  0.93880122  0.88973704  1
  Sr  Sr13  1  0.69591091  0.44195965  0.38800423  1
  Sr  Sr14  1  0.69520510  0.43762286  0.88733268  1
  Sr  Sr15  1  0.69882317  0.93426463  0.38616305  1
  Sr  Sr16  1  0.69874760  0.93711322  0.89381679  1
  Sr  Sr17  1  0.06008467  0.30534563  0.11220536  1
  Sr  Sr18  1  0.05707892  0.29748585  0.60913869  1
  Sr  Sr19  1  0.05591182  0.80054180  0.60929603  1
  Sr  Sr20  1  0.55504679  0.30587694  0.11360185  1
  Sr  Sr21  1  0.55647473  0.29830096  0.60926325  1
  Sr  Sr22  1  0.55809513  0.79739573  0.11202941  1
  Sr  Sr23  1  0.55455309  0.79206607  0.60422686  1
  Sr  Sr24  1  0.44075285  0.19667493  0.38573263  1
  Sr  Sr25  1  0.44457767  0.20196025  0.89026770  1
  Sr  Sr26  1  0.44652298  0.69271609  0.38527030  1
  Sr  Sr27  1  0.44592085  0.69980092  0.88941348  1
  Sr  Sr28  1  0.94792258  0.20107367  0.38838554  1
  Sr  Sr29  1  0.94431316  0.20375550  0.88808497  1
  Sr  Sr30  1  0.94590814  0.69788843  0.38853674  1
  Sr  Sr31  1  0.94582556  0.69910877  0.89051577  1
  Ti  Ti32  1  0.99755607  0.99796991  0.99276737  1
  Ti  Ti33  1  0.00292515  0.00024975  0.50049127  1
  Ti  Ti34  1  0.99905808  0.49731252  0.99680272  1
  Ti  Ti35  1  0.00567169  0.50349964  0.50555919  1
  Ti  Ti36  1  0.49872188  0.99731336  0.99274894  1
  Ti  Ti37  1  0.49888729  0.99335491  0.48994928  1
  Ti  Ti38  1  0.50127449  0.49646594  0.99486271  1
  Ti  Ti39  1  0.50347512  0.49876537  0.50152329  1
  Ti  Ti40  1  0.24988185  0.24848646  0.99657044  1
  Ti  Ti41  1  0.25349711  0.25180195  0.50260686  1
  Ti  Ti42  1  0.25202745  0.74916034  0.99780421  1
  Ti  Ti43  1  0.25304130  0.74967305  0.50054940  1
  Ti  Ti44  1  0.75595662  0.25451314  0.00670600  1
  Ti  Ti45  1  0.75609207  0.25282578  0.50354825  1
  Ti  Ti46  1  0.75106197  0.74757180  0.99850309  1
  Ti  Ti47  1  0.75408256  0.75039182  0.50137212  1
  Ti  Ti48  1  0.12071331  0.10786051  0.25553662  1
  Ti  Ti49  1  0.11560984  0.60678085  0.25109619  1
  Ti  Ti50  1  0.62030419  0.10283870  0.25425402  1
  Ti  Ti51  1  0.60263455  0.08439865  0.74877757  1
  Ti  Ti52  1  0.62230844  0.60856777  0.25110806  1
  Ti  Ti53  1  0.36653005  0.39377662  0.25194301  1
  Ti  Ti54  1  0.86613054  0.40112520  0.25286166  1
  Ti  Ti55  1  0.86799077  0.88113599  0.25186262  1
  Mn  Mn56  1  0.10549698  0.09399288  0.74873375  1
  Mn  Mn57  1  0.10745435  0.59288896  0.75039463  1
  Mn  Mn58  1  0.60626560  0.59319460  0.74939493  1
  Mn  Mn59  1  0.35476321  0.40871893  0.74850046  1
  Mn  Mn60  1  0.37479172  0.87536809  0.24961586  1
  Mn  Mn61  1  0.35525840  0.89862066  0.74777835  1
  Mn  Mn62  1  0.85728839  0.40980578  0.74921898  1
  Mn  Mn63  1  0.85728099  0.90668891  0.74788852  1
  O  O64  1  0.12257726  0.11852966  0.48755319  1
  O  O65  1  0.12146393  0.12367300  0.99362126  1
  O  O66  1  0.12425154  0.62175512  0.49234176  1
  O  O67  1  0.12486634  0.62434738  0.99480723  1
  O  O68  1  0.62445200  0.12104749  0.49150133  1
  O  O69  1  0.62330843  0.12409485  0.99452122  1
  O  O70  1  0.62200099  0.61957185  0.48919646  1
  O  O71  1  0.62493552  0.62223556  0.99545742  1
  O  O72  1  0.12759659  0.37450591  0.00428912  1
  O  O73  1  0.12978558  0.37677215  0.50517972  1
  O  O74  1  0.12684319  0.87855734  0.00290362  1
  O  O75  1  0.12916882  0.87516675  0.50253903  1
  O  O76  1  0.62950847  0.37524903  0.00379028  1
  O  O77  1  0.62884987  0.37351527  0.50130833  1
  O  O78  1  0.62856884  0.87838593  0.00784980  1
  O  O79  1  0.63114083  0.87919292  0.50857652  1
  O  O80  1  0.37427068  0.11801056  0.49108205  1
  O  O81  1  0.37615793  0.12219980  0.99510628  1
  O  O82  1  0.37452887  0.61991909  0.49144632  1
  O  O83  1  0.37651829  0.62110518  0.99330043  1
  O  O84  1  0.87311919  0.11979067  0.48964598  1
  O  O85  1  0.87375823  0.12366923  0.99416055  1
  O  O86  1  0.87510726  0.62110582  0.49328762  1
  O  O87  1  0.87256089  0.62051825  0.99510129  1
  O  O88  1  0.38239390  0.37662262  0.00542089  1
  O  O89  1  0.38036548  0.37810884  0.50596686  1
  O  O90  1  0.38355124  0.88040699  0.00409849  1
  O  O91  1  0.38233476  0.88021852  0.50665020  1
  O  O92  1  0.87704234  0.37641140  0.00231508  1
  O  O93  1  0.88106340  0.37930388  0.50469322  1
  O  O94  1  0.88001743  0.88087761  0.00664535  1
  O  O95  1  0.88003604  0.87914708  0.50681294  1
  O  O96  1  0.06865282  0.09518337  0.14041496  1
  O  O97  1  0.07322785  0.07921751  0.62333961  1
  O  O98  1  0.06018920  0.56815484  0.13023289  1
  O  O99  1  0.07151653  0.58033171  0.62481872  1
  O  O100  1  0.57391745  0.09786388  0.14177663  1
  O  O101  1  0.58669374  0.09738501  0.64577028  1
  O  O102  1  0.57401681  0.57653428  0.13259866  1
  O  O103  1  0.57165622  0.57864245  0.62342976  1
  O  O104  1  0.43148833  0.41526070  0.36964838  1
  O  O105  1  0.44507859  0.41811584  0.87216889  1
  O  O106  1  0.44761254  0.91562132  0.37711225  1
  O  O107  1  0.44725076  0.92262590  0.87263179  1
  O  O108  1  0.93813912  0.42033073  0.36847635  1
  O  O109  1  0.94577557  0.42204084  0.87277125  1
  O  O110  1  0.93300137  0.91256606  0.37086821  1
  O  O111  1  0.93623837  0.92082155  0.87185077  1
  O  O112  1  0.31597073  0.30705434  0.13151551  1
  O  O113  1  0.31753441  0.29179712  0.62328470  1
  O  O114  1  0.32273830  0.80577191  0.12116399  1
  O  O115  1  0.32047300  0.79582116  0.62410199  1
  O  O116  1  0.81815636  0.31271687  0.13077159  1
  O  O117  1  0.82040106  0.29713348  0.62247478  1
  O  O118  1  0.81380127  0.79851521  0.13135514  1
  O  O119  1  0.81554128  0.79346732  0.62574912  1
  O  O120  1  0.18617461  0.21253944  0.37073309  1
  O  O121  1  0.19702523  0.20265748  0.87349534  1
  O  O122  1  0.18902760  0.69713823  0.37113405  1
  O  O123  1  0.19735244  0.70510620  0.87380256  1
  O  O124  1  0.69922826  0.20923781  0.36575055  1
  O  O125  1  0.68622179  0.19713109  0.85364067  1
  O  O126  1  0.69217308  0.70140549  0.37235311  1
  O  O127  1  0.69363188  0.70531657  0.87487311  1
  O  O128  1  0.48038358  0.04050564  0.26189886  1
  O  O129  1  0.43930190  0.06728011  0.74725726  1
  O  O130  1  0.48010432  0.52038920  0.25788145  1
  O  O131  1  0.42285087  0.57686453  0.74827997  1
  O  O132  1  0.98129006  0.02165989  0.25938582  1
  O  O133  1  0.92297285  0.07411632  0.74803571  1
  O  O134  1  0.96251420  0.53772436  0.25236379  1
  O  O135  1  0.92440730  0.57842978  0.74925209  1
  O  O136  1  0.21349815  0.46874273  0.25135182  1
  O  O137  1  0.17255804  0.42245937  0.74872702  1
  O  O138  1  0.23203629  0.99377336  0.25994744  1
  O  O139  1  0.17720799  0.92687403  0.74930501  1
  O  O140  1  0.71054783  0.45676126  0.25174603  1
  O  O141  1  0.67467494  0.42631536  0.74798875  1
  O  O142  1  0.71823627  0.97034553  0.25010326  1
  O  O143  1  0.66544167  0.93456827  0.74859656  1
