# generated using pymatgen
data_Na13Ca7S12Cl2O48F
_symmetry_space_group_name_H-M   'P 1'
_cell_length_a   9.72318191
_cell_length_b   9.69074073
_cell_length_c   13.90968031
_cell_angle_alpha   90.00573106
_cell_angle_beta   90.01856734
_cell_angle_gamma   120.10107701
_symmetry_Int_Tables_number   1
_chemical_formula_structural   Na13Ca7S12Cl2O48F
_chemical_formula_sum   'Na13 Ca7 S12 Cl2 O48 F1'
_cell_volume   1133.88728105
_cell_formula_units_Z   1
loop_
 _symmetry_equiv_pos_site_id
 _symmetry_equiv_pos_as_xyz
  1  'x, y, z'
loop_
 _atom_site_type_symbol
 _atom_site_label
 _atom_site_symmetry_multiplicity
 _atom_site_fract_x
 _atom_site_fract_y
 _atom_site_fract_z
 _atom_site_occupancy
  Na  Na0  1  0.25739008  0.99543821  0.12875031  1
  Na  Na1  1  0.26245388  0.98951012  0.62041280  1
  Na  Na2  1  0.00857508  0.26492656  0.12668320  1
  Na  Na3  1  0.01426573  0.27931221  0.62203572  1
  Na  Na4  1  0.32250341  0.66139055  0.25387563  1
  Na  Na5  1  0.31803014  0.66004902  0.50234532  1
  Na  Na6  1  0.32576203  0.66571623  0.73724475  1
  Na  Na7  1  0.27963476  0.27323678  0.38003747  1
  Na  Na8  1  0.73826499  0.74338232  0.12736630  1
  Na  Na9  1  0.66424304  0.32700942  0.74325466  1
  Na  Na10  1  0.66135832  0.33129322  0.50510418  1
  Na  Na11  1  0.66687554  0.33419339  0.99830149  1
  Na  Na12  1  0.99961041  0.72388869  0.37781849  1
  Ca  Ca13  1  0.33078860  0.66612348  0.00411676  1
  Ca  Ca14  1  0.24292761  0.23801553  0.87430264  1
  Ca  Ca15  1  0.73315406  0.73824544  0.62474936  1
  Ca  Ca16  1  0.66637447  0.34009775  0.24903504  1
  Ca  Ca17  1  0.99771876  0.75855469  0.87695559  1
  Ca  Ca18  1  0.72684073  0.00914442  0.37707562  1
  Ca  Ca19  1  0.76376636  0.00787439  0.87585603  1
  S  S20  1  0.02231001  0.37751877  0.37095471  1
  S  S21  1  0.03625199  0.40146617  0.87728062  1
  S  S22  1  0.36253302  0.97557674  0.37124716  1
  S  S23  1  0.36730486  0.96421529  0.87749053  1
  S  S24  1  0.40526919  0.37484942  0.12230565  1
  S  S25  1  0.39642343  0.36824610  0.62762764  1
  S  S26  1  0.61824931  0.64762802  0.37274951  1
  S  S27  1  0.59921063  0.63424944  0.87628373  1
  S  S28  1  0.62494478  0.02922383  0.12440284  1
  S  S29  1  0.63241047  0.02508045  0.62588529  1
  S  S30  1  0.96716352  0.59357342  0.12248899  1
  S  S31  1  0.96546117  0.60232892  0.62727154  1
  Cl  Cl32  1  0.00073221  0.00020116  0.07758335  1
  Cl  Cl33  1  0.00193782  0.00403901  0.63705927  1
  O  O34  1  0.26139253  0.93463538  0.45717755  1
  O  O35  1  0.26412621  0.89843093  0.96515515  1
  O  O36  1  0.26033447  0.92162496  0.28510809  1
  O  O37  1  0.25869979  0.90963513  0.79302604  1
  O  O38  1  0.14236979  0.65431349  0.12070805  1
  O  O39  1  0.14106750  0.67526878  0.62645499  1
  O  O40  1  0.10357350  0.55468762  0.37550635  1
  O  O41  1  0.10840613  0.57948419  0.87453745  1
  O  O42  1  0.07445654  0.32590701  0.28525094  1
  O  O43  1  0.09005657  0.34760950  0.79249148  1
  O  O44  1  0.05947387  0.31240903  0.45692362  1
  O  O45  1  0.10300268  0.36481169  0.96460273  1
  O  O46  1  0.47205785  0.89134098  0.87516110  1
  O  O47  1  0.45612791  0.88886472  0.37543635  1
  O  O48  1  0.34380738  0.48882488  0.12025101  1
  O  O49  1  0.33033351  0.47742255  0.62653177  1
  O  O50  1  0.51000654  0.85399638  0.12115708  1
  O  O51  1  0.53358339  0.84655802  0.62625426  1
  O  O52  1  0.44217933  0.55656668  0.37504162  1
  O  O53  1  0.42178744  0.53243669  0.87488465  1
  O  O54  1  0.36597928  0.28355655  0.03074613  1
  O  O55  1  0.34237246  0.26651806  0.20603676  1
  O  O56  1  0.35620312  0.27574971  0.71939034  1
  O  O57  1  0.34185916  0.26010249  0.54425012  1
  O  O58  1  0.68050705  0.75226635  0.46052953  1
  O  O59  1  0.67684736  0.76224899  0.29081455  1
  O  O60  1  0.64183315  0.74306332  0.96122340  1
  O  O61  1  0.65362586  0.74020425  0.78944250  1
  O  O62  1  0.58395058  0.46662876  0.13185177  1
  O  O63  1  0.57622288  0.46500096  0.62344543  1
  O  O64  1  0.48119218  0.15213498  0.36718333  1
  O  O65  1  0.46261134  0.14075811  0.88004854  1
  O  O66  1  0.68222505  0.53598985  0.36824863  1
  O  O67  1  0.67821913  0.53789256  0.87946855  1
  O  O68  1  0.53836347  0.12018628  0.13414476  1
  O  O69  1  0.53328592  0.10131996  0.62017321  1
  O  O70  1  0.91688555  0.63361407  0.03060007  1
  O  O71  1  0.91091052  0.66168007  0.54512421  1
  O  O72  1  0.92310823  0.65871960  0.20568846  1
  O  O73  1  0.91070658  0.64560701  0.71844910  1
  O  O74  1  0.87794296  0.41480604  0.13235058  1
  O  O75  1  0.88538389  0.42572693  0.62201347  1
  O  O76  1  0.84232636  0.30968355  0.36634438  1
  O  O77  1  0.86009651  0.31874189  0.88053270  1
  O  O78  1  0.73087428  0.06925230  0.20991038  1
  O  O79  1  0.72951048  0.08118847  0.71579141  1
  O  O80  1  0.72089599  0.08217985  0.03504194  1
  O  O81  1  0.73962044  0.07544639  0.54035472  1
  F  F82  1  0.99885491  0.99930492  0.86284254  1
