# generated using pymatgen
data_K2HS2NO6
_symmetry_space_group_name_H-M   'P 1'
_cell_length_a   7.32874605
_cell_length_b   7.40328938
_cell_length_c   7.40328946
_cell_angle_alpha   61.56637602
_cell_angle_beta   88.94636427
_cell_angle_gamma   88.94636564
_symmetry_Int_Tables_number   1
_chemical_formula_structural   K2HS2NO6
_chemical_formula_sum   'K4 H2 S4 N2 O12'
_cell_volume   353.14326246
_cell_formula_units_Z   2
loop_
 _symmetry_equiv_pos_site_id
 _symmetry_equiv_pos_as_xyz
  1  'x, y, z'
loop_
 _atom_site_type_symbol
 _atom_site_label
 _atom_site_symmetry_multiplicity
 _atom_site_fract_x
 _atom_site_fract_y
 _atom_site_fract_z
 _atom_site_occupancy
  K  K0  1  0.14279644  0.29799158  0.00739488  1
  K  K1  1  0.35472583  0.99648617  0.70086941  1
  K  K2  1  0.64279644  0.00739488  0.29799158  1
  K  K3  1  0.85472583  0.70086941  0.99648617  1
  H  H4  1  0.32309949  0.49397155  0.55682666  1
  H  H5  1  0.82309949  0.55682666  0.49397155  1
  S  S6  1  0.14128281  0.77686611  0.42378374  1
  S  S7  1  0.36304644  0.57829877  0.21936930  1
  S  S8  1  0.64128281  0.42378374  0.77686611  1
  S  S9  1  0.86304644  0.21936930  0.57829877  1
  N  N10  1  0.24793324  0.57173946  0.42523780  1
  N  N11  1  0.74793324  0.42523780  0.57173946  1
  O  O12  1  0.01838016  0.16632022  0.71800118  1
  O  O13  1  0.09335073  0.70001829  0.64069780  1
  O  O14  1  0.22790447  0.65456276  0.05408520  1
  O  O15  1  0.26703692  0.95160068  0.34547785  1
  O  O16  1  0.41437207  0.36291279  0.29502157  1
  O  O17  1  0.48257142  0.28945851  0.81920773  1
  O  O18  1  0.51838016  0.71800118  0.16632022  1
  O  O19  1  0.59335073  0.64069780  0.70001829  1
  O  O20  1  0.72790447  0.05408520  0.65456276  1
  O  O21  1  0.76703692  0.34547785  0.95160068  1
  O  O22  1  0.91437207  0.29502157  0.36291279  1
  O  O23  1  0.98257142  0.81920773  0.28945851  1
