# generated using pymatgen
data_Li4MnCo2O7
_symmetry_space_group_name_H-M   'P 1'
_cell_length_a   3.02188303
_cell_length_b   10.68304009
_cell_length_c   8.03861421
_cell_angle_alpha   78.47300445
_cell_angle_beta   89.06183435
_cell_angle_gamma   86.66368286
_symmetry_Int_Tables_number   1
_chemical_formula_structural   Li4MnCo2O7
_chemical_formula_sum   'Li8 Mn2 Co4 O14'
_cell_volume   253.84166919
_cell_formula_units_Z   2
loop_
 _symmetry_equiv_pos_site_id
 _symmetry_equiv_pos_as_xyz
  1  'x, y, z'
loop_
 _atom_site_type_symbol
 _atom_site_label
 _atom_site_symmetry_multiplicity
 _atom_site_fract_x
 _atom_site_fract_y
 _atom_site_fract_z
 _atom_site_occupancy
  Li  Li0  1  0.85546362  0.28553075  0.92640342  1
  Li  Li1  1  0.14285700  0.71428600  0.07142900  1
  Li  Li2  1  0.43025038  0.14304025  0.21645358  1
  Li  Li3  1  0.28401996  0.42944934  0.64406511  1
  Li  Li4  1  0.57185237  0.85329645  0.78106529  1
  Li  Li5  1  0.71386263  0.57527555  0.36179171  1
  Li  Li6  1  0.00169404  0.99912166  0.49879189  1
  Li  Li7  1  0.14285700  0.71428600  0.57142900  1
  Mn  Mn8  1  0.00157126  0.99960246  0.00129707  1
  Mn  Mn9  1  0.28414274  0.42896854  0.14155993  1
  Co  Co10  1  0.57890697  0.84981499  0.29842799  1
  Co  Co11  1  0.85995111  0.28483871  0.43005376  1
  Co  Co12  1  0.42576289  0.14373229  0.71280324  1
  Co  Co13  1  0.70680803  0.57875701  0.84442901  1
  O  O14  1  0.40894235  0.13987205  0.95340242  1
  O  O15  1  0.69679371  0.56655560  0.08891905  1
  O  O16  1  0.97987250  0.99193855  0.24462449  1
  O  O17  1  0.83854095  0.27678345  0.66891760  1
  O  O18  1  0.12835239  0.70421642  0.82401219  1
  O  O19  1  0.26450530  0.42245601  0.38765528  1
  O  O20  1  0.56423495  0.85990152  0.51210780  1
  O  O21  1  0.30584150  0.43663245  0.89823251  1
  O  O22  1  0.58892029  0.86201640  0.05393895  1
  O  O23  1  0.87677165  0.28869895  0.18945458  1
  O  O24  1  0.72147905  0.56866948  0.63074920  1
  O  O25  1  0.02120970  0.00611599  0.75520172  1
  O  O26  1  0.15736261  0.72435558  0.31884481  1
  O  O27  1  0.44717305  0.15178755  0.47393940  1
