# generated using pymatgen
data_Ga2CoO4
_symmetry_space_group_name_H-M   'P 1'
_cell_length_a   5.96031599
_cell_length_b   5.96031599
_cell_length_c   23.72615269
_cell_angle_alpha   60.21171129
_cell_angle_beta   60.21171134
_cell_angle_gamma   60.25195914
_symmetry_Int_Tables_number   1
_chemical_formula_structural   Ga2CoO4
_chemical_formula_sum   'Ga16 Co8 O32'
_cell_volume   599.04394937
_cell_formula_units_Z   8
loop_
 _symmetry_equiv_pos_site_id
 _symmetry_equiv_pos_as_xyz
  1  'x, y, z'
loop_
 _atom_site_type_symbol
 _atom_site_label
 _atom_site_symmetry_multiplicity
 _atom_site_fract_x
 _atom_site_fract_y
 _atom_site_fract_z
 _atom_site_occupancy
  Ga  Ga0  1  0.12021390  0.12021390  0.03060268  1
  Ga  Ga1  1  0.99530061  0.50096293  0.12625485  1
  Ga  Ga2  1  0.11641185  0.11641185  0.28357310  1
  Ga  Ga3  1  0.50261669  0.50261669  0.99804391  1
  Ga  Ga4  1  0.50096293  0.99530061  0.12625485  1
  Ga  Ga5  1  0.99657401  0.50093436  0.37491010  1
  Ga  Ga6  1  0.50093436  0.99657401  0.37491010  1
  Ga  Ga7  1  0.12029532  0.12029532  0.53028744  1
  Ga  Ga8  1  0.99264845  0.50298966  0.62527348  1
  Ga  Ga9  1  0.50298966  0.99264845  0.62527348  1
  Ga  Ga10  1  0.88140373  0.88140373  0.21795763  1
  Ga  Ga11  1  0.50332060  0.50332060  0.49737965  1
  Ga  Ga12  1  0.12014022  0.12014022  0.78039240  1
  Ga  Ga13  1  0.99250954  0.50251207  0.87555747  1
  Ga  Ga14  1  0.50279471  0.50279471  0.74789347  1
  Ga  Ga15  1  0.50251207  0.99250954  0.87555747  1
  Co  Co16  1  0.49876626  0.49876626  0.12744787  1
  Co  Co17  1  0.49916891  0.49916891  0.25040478  1
  Co  Co18  1  0.50188537  0.50188537  0.37343177  1
  Co  Co19  1  0.50189111  0.50189111  0.62505876  1
  Co  Co20  1  0.88008159  0.88008159  0.46761915  1
  Co  Co21  1  0.50157326  0.50157326  0.87533018  1
  Co  Co22  1  0.87860721  0.87860721  0.71884010  1
  Co  Co23  1  0.87695538  0.87695538  0.97018720  1
  O  O24  1  0.25740750  0.25740750  0.06332644  1
  O  O25  1  0.25006201  0.25006201  0.18322652  1
  O  O26  1  0.25351959  0.72778043  0.06337109  1
  O  O27  1  0.72778043  0.25351959  0.06337109  1
  O  O28  1  0.26529804  0.75975864  0.18459445  1
  O  O29  1  0.24889490  0.24889490  0.31655557  1
  O  O30  1  0.74365759  0.74365759  0.07332769  1
  O  O31  1  0.75975864  0.26529804  0.18459445  1
  O  O32  1  0.24094045  0.73160545  0.31579725  1
  O  O33  1  0.25000357  0.25000357  0.43277961  1
  O  O34  1  0.75166758  0.75166758  0.18425468  1
  O  O35  1  0.73160545  0.24094045  0.31579725  1
  O  O36  1  0.25581278  0.25581278  0.56390897  1
  O  O37  1  0.28654916  0.74505531  0.43489849  1
  O  O38  1  0.75200366  0.75200366  0.31480866  1
  O  O39  1  0.25249176  0.25249176  0.68215952  1
  O  O40  1  0.25121162  0.72802463  0.56284707  1
  O  O41  1  0.74505531  0.28654916  0.43489849  1
  O  O42  1  0.73971036  0.73971036  0.43432301  1
  O  O43  1  0.72802463  0.25121162  0.56284707  1
  O  O44  1  0.28303558  0.74654557  0.68644145  1
  O  O45  1  0.25558135  0.25558135  0.81397103  1
  O  O46  1  0.74654557  0.28303558  0.68644145  1
  O  O47  1  0.74612118  0.74612118  0.56982145  1
  O  O48  1  0.25240462  0.25240462  0.93217597  1
  O  O49  1  0.25097202  0.72825168  0.81307748  1
  O  O50  1  0.72825168  0.25097202  0.81307748  1
  O  O51  1  0.74060272  0.74060272  0.68519021  1
  O  O52  1  0.28191465  0.74671985  0.93677824  1
  O  O53  1  0.74671985  0.28191465  0.93677824  1
  O  O54  1  0.74516040  0.74516040  0.82061695  1
  O  O55  1  0.74067757  0.74067757  0.93550080  1
