# generated using pymatgen
data_Na13Ca7S12Cl2O48F
_symmetry_space_group_name_H-M   'P 1'
_cell_length_a   9.74200342
_cell_length_b   9.70031363
_cell_length_c   13.90301591
_cell_angle_alpha   89.94385335
_cell_angle_beta   89.81005143
_cell_angle_gamma   120.22331286
_symmetry_Int_Tables_number   1
_chemical_formula_structural   Na13Ca7S12Cl2O48F
_chemical_formula_sum   'Na13 Ca7 S12 Cl2 O48 F1'
_cell_volume   1135.23978509
_cell_formula_units_Z   1
loop_
 _symmetry_equiv_pos_site_id
 _symmetry_equiv_pos_as_xyz
  1  'x, y, z'
loop_
 _atom_site_type_symbol
 _atom_site_label
 _atom_site_symmetry_multiplicity
 _atom_site_fract_x
 _atom_site_fract_y
 _atom_site_fract_z
 _atom_site_occupancy
  Na  Na0  1  0.23224621  0.00388334  0.61111268  1
  Na  Na1  1  0.01099335  0.26963104  0.12894799  1
  Na  Na2  1  0.00109450  0.23184031  0.61637094  1
  Na  Na3  1  0.32257188  0.65332660  0.25265805  1
  Na  Na4  1  0.33166300  0.66025823  0.01572283  1
  Na  Na5  1  0.31764896  0.65843292  0.49497097  1
  Na  Na6  1  0.28024176  0.27510403  0.37412513  1
  Na  Na7  1  0.73141823  0.73779693  0.12925917  1
  Na  Na8  1  0.67484091  0.34685805  0.25382190  1
  Na  Na9  1  0.66074565  0.32753031  0.73919036  1
  Na  Na10  1  0.67460541  0.33723413  0.00613350  1
  Na  Na11  1  0.66415580  0.33468716  0.49522042  1
  Na  Na12  1  0.99418757  0.72094512  0.36991249  1
  Ca  Ca13  1  0.25515346  0.99448816  0.12988917  1
  Ca  Ca14  1  0.32744911  0.66501420  0.74410941  1
  Ca  Ca15  1  0.27509074  0.26469510  0.87553711  1
  Ca  Ca16  1  0.76732291  0.76460875  0.61962795  1
  Ca  Ca17  1  0.98975848  0.72567517  0.87708703  1
  Ca  Ca18  1  0.73389948  0.01119608  0.37127075  1
  Ca  Ca19  1  0.73790818  0.01515822  0.87720429  1
  S  S20  1  0.02705842  0.38248906  0.37643887  1
  S  S21  1  0.03980895  0.39526431  0.87220802  1
  S  S22  1  0.36517479  0.97409630  0.37549022  1
  S  S23  1  0.35794521  0.96243809  0.87398494  1
  S  S24  1  0.39847731  0.36493231  0.12123666  1
  S  S25  1  0.40585815  0.38133197  0.62736835  1
  S  S26  1  0.61474201  0.64695735  0.37741392  1
  S  S27  1  0.60608011  0.64362754  0.87146690  1
  S  S28  1  0.62619286  0.02546196  0.12245760  1
  S  S29  1  0.62289888  0.02245073  0.62618778  1
  S  S30  1  0.97090004  0.60394782  0.12115667  1
  S  S31  1  0.96963582  0.59614395  0.62763329  1
  Cl  Cl32  1  0.99968759  0.00009591  0.83320752  1
  Cl  Cl33  1  0.99557171  0.99945085  0.18285831  1
  O  O34  1  0.26988558  0.92234663  0.28506856  1
  O  O35  1  0.25299240  0.92106775  0.45737719  1
  O  O36  1  0.25895480  0.89301882  0.78648825  1
  O  O37  1  0.24727317  0.91638221  0.95814077  1
  O  O38  1  0.14944385  0.68885314  0.12386056  1
  O  O39  1  0.14554809  0.66423436  0.63048860  1
  O  O40  1  0.10275668  0.55982349  0.38020441  1
  O  O41  1  0.11540649  0.57415547  0.88198657  1
  O  O42  1  0.08079969  0.33693762  0.28839278  1
  O  O43  1  0.10652142  0.36861888  0.78190795  1
  O  O44  1  0.07567688  0.32352430  0.46098721  1
  O  O45  1  0.08934833  0.33199762  0.95395247  1
  O  O46  1  0.45976420  0.88940113  0.37931491  1
  O  O47  1  0.45828873  0.88529421  0.88363260  1
  O  O48  1  0.32279724  0.46469850  0.12400780  1
  O  O49  1  0.33917488  0.49072707  0.63000299  1
  O  O50  1  0.52185704  0.84969518  0.12419949  1
  O  O51  1  0.51624281  0.84398364  0.62953611  1
  O  O52  1  0.42779945  0.54376780  0.88093256  1
  O  O53  1  0.43857443  0.55337318  0.38237773  1
  O  O54  1  0.33279989  0.24920117  0.03710861  1
  O  O55  1  0.36339405  0.26518832  0.20899040  1
  O  O56  1  0.36185672  0.28386816  0.71822909  1
  O  O57  1  0.34505935  0.27366329  0.54448772  1
  O  O58  1  0.67799547  0.75973770  0.46236246  1
  O  O59  1  0.66542075  0.75494652  0.29177571  1
  O  O60  1  0.66972384  0.75910645  0.95179401  1
  O  O61  1  0.63654318  0.73661764  0.77970669  1
  O  O62  1  0.57317927  0.46464484  0.10808704  1
  O  O63  1  0.58397032  0.47809586  0.62340658  1
  O  O64  1  0.45984623  0.13878229  0.86876933  1
  O  O65  1  0.47570286  0.14952034  0.37573190  1
  O  O66  1  0.68306992  0.54085429  0.37647302  1
  O  O67  1  0.67893093  0.54105012  0.86954898  1
  O  O68  1  0.52939416  0.10575458  0.11130391  1
  O  O69  1  0.52952214  0.10423263  0.62434115  1
  O  O70  1  0.92242058  0.66711533  0.03628422  1
  O  O71  1  0.90675125  0.63399385  0.20970675  1
  O  O72  1  0.92444380  0.65870010  0.54341624  1
  O  O73  1  0.91786684  0.65093748  0.71580560  1
  O  O74  1  0.90262425  0.42973374  0.10772717  1
  O  O75  1  0.88523934  0.41989389  0.62716454  1
  O  O76  1  0.84809040  0.30638921  0.37596271  1
  O  O77  1  0.86362685  0.31920804  0.86920694  1
  O  O78  1  0.73882592  0.07696086  0.03869778  1
  O  O79  1  0.71911951  0.08487294  0.21228086  1
  O  O80  1  0.72785995  0.06519775  0.54032391  1
  O  O81  1  0.72651224  0.07372474  0.71394926  1
  F  F82  1  0.98806944  0.98905386  0.59921274  1
