# generated using pymatgen
data_Al2CoO4
_symmetry_space_group_name_H-M   'P 1'
_cell_length_a   5.78422476
_cell_length_b   5.78422485
_cell_length_c   23.14935973
_cell_angle_alpha   60.01780711
_cell_angle_beta   60.01780662
_cell_angle_gamma   60.00000126
_symmetry_Int_Tables_number   1
_chemical_formula_structural   Al2CoO4
_chemical_formula_sum   'Al16 Co8 O32'
_cell_volume   547.81151250
_cell_formula_units_Z   8
loop_
 _symmetry_equiv_pos_site_id
 _symmetry_equiv_pos_as_xyz
  1  'x, y, z'
loop_
 _atom_site_type_symbol
 _atom_site_label
 _atom_site_symmetry_multiplicity
 _atom_site_fract_x
 _atom_site_fract_y
 _atom_site_fract_z
 _atom_site_occupancy
  Al  Al0  1  0.24784004  0.24784004  0.06411997  1
  Al  Al1  1  0.12184927  0.62671718  0.15617909  1
  Al  Al2  1  0.62671718  0.12184927  0.15617909  1
  Al  Al3  1  0.62671718  0.62671718  0.15617909  1
  Al  Al4  1  0.12432622  0.62496610  0.40643540  1
  Al  Al5  1  0.62496610  0.12432622  0.40643540  1
  Al  Al6  1  0.62422905  0.62422905  0.28182821  1
  Al  Al7  1  0.62496610  0.62496610  0.40643540  1
  Al  Al8  1  0.12417648  0.62404178  0.65693499  1
  Al  Al9  1  0.62404178  0.12417648  0.65693499  1
  Al  Al10  1  0.62438906  0.62438906  0.53170821  1
  Al  Al11  1  0.62404178  0.62404178  0.65693499  1
  Al  Al12  1  0.12174962  0.62794270  0.90559125  1
  Al  Al13  1  0.62794270  0.12174962  0.90559125  1
  Al  Al14  1  0.62458343  0.62458343  0.78156243  1
  Al  Al15  1  0.62794270  0.62794270  0.90559125  1
  Co  Co16  1  0.00297867  0.00297867  0.99776600  1
  Co  Co17  1  0.25189635  0.25189635  0.31107774  1
  Co  Co18  1  0.62757888  0.62757888  0.02931584  1
  Co  Co19  1  0.00015506  0.00015506  0.24988371  1
  Co  Co20  1  0.24960419  0.24960419  0.56279685  1
  Co  Co21  1  0.24648939  0.24648939  0.81513296  1
  Co  Co22  1  0.99930247  0.99930247  0.50052315  1
  Co  Co23  1  0.00109139  0.00109139  0.74918146  1
  O  O24  1  0.36776883  0.36776883  0.10052465  1
  O  O25  1  0.39436595  0.39436595  0.20422554  1
  O  O26  1  0.36776883  0.86236373  0.10052465  1
  O  O27  1  0.86236373  0.36776883  0.10052465  1
  O  O28  1  0.38914235  0.38914235  0.34719973  1
  O  O29  1  0.41916753  0.85848586  0.21596519  1
  O  O30  1  0.86135690  0.86135690  0.10398232  1
  O  O31  1  0.38978703  0.38978703  0.45765973  1
  O  O32  1  0.85848586  0.41916753  0.21596519  1
  O  O33  1  0.38914235  0.83291640  0.34719973  1
  O  O34  1  0.83291640  0.38914235  0.34719973  1
  O  O35  1  0.85848586  0.85848586  0.21596519  1
  O  O36  1  0.38912036  0.38912036  0.59771091  1
  O  O37  1  0.41847212  0.86047277  0.46514559  1
  O  O38  1  0.86047277  0.41847212  0.46514559  1
  O  O39  1  0.38785730  0.38785730  0.70910703  1
  O  O40  1  0.38912036  0.83091565  0.59771091  1
  O  O41  1  0.86070207  0.86070207  0.35447345  1
  O  O42  1  0.83091565  0.38912036  0.59771091  1
  O  O43  1  0.86047277  0.86047277  0.46514559  1
  O  O44  1  0.39097575  0.39097575  0.84804579  1
  O  O45  1  0.41882201  0.86017636  0.71520632  1
  O  O46  1  0.37695555  0.37695555  0.96728334  1
  O  O47  1  0.39097575  0.82586532  0.84804579  1
  O  O48  1  0.86017636  0.41882201  0.71520632  1
  O  O49  1  0.86027853  0.86027853  0.60479110  1
  O  O50  1  0.82586532  0.39097575  0.84804579  1
  O  O51  1  0.86017636  0.86017636  0.71520632  1
  O  O52  1  0.41369997  0.87565792  0.95874605  1
  O  O53  1  0.87565792  0.41369997  0.95874605  1
  O  O54  1  0.86329849  0.86329849  0.85252613  1
  O  O55  1  0.87565792  0.87565792  0.95874605  1
