# generated using pymatgen
data_K6Ba2CaU6O24
_symmetry_space_group_name_H-M   'P 1'
_cell_length_a   7.55616363
_cell_length_b   7.55616398
_cell_length_c   30.22744634
_cell_angle_alpha   109.46589375
_cell_angle_beta   109.46589467
_cell_angle_gamma   109.47813228
_symmetry_Int_Tables_number   1
_chemical_formula_structural   K6Ba2CaU6O24
_chemical_formula_sum   'K12 Ba4 Ca2 U12 O48'
_cell_volume   1328.62476029
_cell_formula_units_Z   2
loop_
 _symmetry_equiv_pos_site_id
 _symmetry_equiv_pos_as_xyz
  1  'x, y, z'
loop_
 _atom_site_type_symbol
 _atom_site_label
 _atom_site_symmetry_multiplicity
 _atom_site_fract_x
 _atom_site_fract_y
 _atom_site_fract_z
 _atom_site_occupancy
  K  K0  1  0.50840792  0.50840792  0.87648665  1
  K  K1  1  0.00000000  0.00000000  0.62500000  1
  K  K2  1  0.49898977  0.99898977  0.74949489  1
  K  K3  1  0.50000000  0.50000000  0.62500000  1
  K  K4  1  0.99753869  0.99753869  0.87648665  1
  K  K5  1  0.99898977  0.49898977  0.74949489  1
  K  K6  1  0.49159208  0.49159208  0.37351335  1
  K  K7  1  0.50101023  0.00101023  0.50050511  1
  K  K8  1  0.00101023  0.50101023  0.50050511  1
  K  K9  1  0.00246131  0.00246131  0.37351335  1
  K  K10  1  0.50000000  0.50000000  0.12500000  1
  K  K11  1  0.00000000  0.00000000  0.12500000  1
  Ba  Ba12  1  0.50165022  0.00165022  0.25082511  1
  Ba  Ba13  1  0.00165022  0.50165022  0.25082511  1
  Ba  Ba14  1  0.49834978  0.99834978  0.99917489  1
  Ba  Ba15  1  0.99834978  0.49834978  0.99917489  1
  Ca  Ca16  1  0.99940510  0.99940510  0.74970255  1
  Ca  Ca17  1  0.00059490  0.00059490  0.50029745  1
  U  U18  1  0.99554185  0.49465681  0.87254967  1
  U  U19  1  0.00000000  0.50000000  0.62500000  1
  U  U20  1  0.49465681  0.99554185  0.87254967  1
  U  U21  1  0.00445815  0.50534319  0.37745033  1
  U  U22  1  0.49803293  0.49803293  0.74901646  1
  U  U23  1  0.50000000  0.00000000  0.62500000  1
  U  U24  1  0.00000000  0.50000000  0.12500000  1
  U  U25  1  0.50196707  0.50196707  0.50098354  1
  U  U26  1  0.50534319  0.00445815  0.37745033  1
  U  U27  1  0.50193274  0.50193274  0.25096637  1
  U  U28  1  0.50000000  0.00000000  0.12500000  1
  U  U29  1  0.49806726  0.49806726  0.99903363  1
  O  O30  1  0.00788969  0.71346538  0.93033877  1
  O  O31  1  0.24597311  0.50933316  0.93882657  1
  O  O32  1  0.25440047  0.75440047  0.87720023  1
  O  O33  1  0.27034810  0.99896747  0.81732889  1
  O  O34  1  0.99997306  0.72550020  0.68136831  1
  O  O35  1  0.50933316  0.24597311  0.93882657  1
  O  O36  1  0.24884728  0.49990007  0.68718684  1
  O  O37  1  0.49940284  0.74587936  0.81132055  1
  O  O38  1  0.25000000  0.75000000  0.62500000  1
  O  O39  1  0.27362374  0.27362374  0.74988763  1
  O  O40  1  0.00103253  0.72965190  0.43267111  1
  O  O41  1  0.71346538  0.00788969  0.93033877  1
  O  O42  1  0.72592679  0.72592679  0.74988763  1
  O  O43  1  0.75440047  0.25440047  0.87720023  1
  O  O44  1  0.49990007  0.24884728  0.68718684  1
  O  O45  1  0.25412064  0.50059716  0.43867945  1
  O  O46  1  0.50009993  0.75115272  0.56281316  1
  O  O47  1  0.74587936  0.49940284  0.81132055  1
  O  O48  1  0.24559953  0.74559953  0.37279977  1
  O  O49  1  0.27407321  0.27407321  0.50011237  1
  O  O50  1  0.00982913  0.71875945  0.18214715  1
  O  O51  1  0.27449980  0.00002694  0.56863169  1
  O  O52  1  0.99896747  0.27034810  0.81732889  1
  O  O53  1  0.72550020  0.99997306  0.68136831  1
  O  O54  1  0.72637626  0.72637626  0.50011237  1
  O  O55  1  0.75000000  0.25000000  0.62500000  1
  O  O56  1  0.50059716  0.25412064  0.43867945  1
  O  O57  1  0.25128212  0.51025228  0.19038360  1
  O  O58  1  0.49066684  0.75402689  0.31117343  1
  O  O59  1  0.25000000  0.75000000  0.12500000  1
  O  O60  1  0.75115272  0.50009993  0.56281316  1
  O  O61  1  0.28653462  0.99211031  0.31966123  1
  O  O62  1  0.28219567  0.28219567  0.25016353  1
  O  O63  1  0.28124055  0.99017087  0.06785285  1
  O  O64  1  0.72965190  0.00103253  0.43267111  1
  O  O65  1  0.00002694  0.27449980  0.56863169  1
  O  O66  1  0.71845844  0.71845844  0.25016353  1
  O  O67  1  0.51025228  0.25128212  0.19038360  1
  O  O68  1  0.74559953  0.24559953  0.37279977  1
  O  O69  1  0.48974772  0.74871788  0.05961640  1
  O  O70  1  0.75402689  0.49066684  0.31117343  1
  O  O71  1  0.28154156  0.28154156  0.99983647  1
  O  O72  1  0.99211031  0.28653462  0.31966123  1
  O  O73  1  0.71875945  0.00982913  0.18214715  1
  O  O74  1  0.71780433  0.71780433  0.99983647  1
  O  O75  1  0.75000000  0.25000000  0.12500000  1
  O  O76  1  0.74871788  0.48974772  0.05961640  1
  O  O77  1  0.99017087  0.28124055  0.06785285  1
