# generated using pymatgen
data_La5Ti6S3(ClO5)3
_symmetry_space_group_name_H-M   'P 1'
_cell_length_a   10.83126741
_cell_length_b   10.84470143
_cell_length_c   10.84470162
_cell_angle_alpha   109.67396868
_cell_angle_beta   109.73585872
_cell_angle_gamma   109.05470782
_symmetry_Int_Tables_number   1
_chemical_formula_structural   La5Ti6S3(ClO5)3
_chemical_formula_sum   'La10 Ti12 S6 Cl6 O30'
_cell_volume   979.95374021
_cell_formula_units_Z   2
loop_
 _symmetry_equiv_pos_site_id
 _symmetry_equiv_pos_as_xyz
  1  'x, y, z'
loop_
 _atom_site_type_symbol
 _atom_site_label
 _atom_site_symmetry_multiplicity
 _atom_site_fract_x
 _atom_site_fract_y
 _atom_site_fract_z
 _atom_site_occupancy
  La  La0  1  0.00000000  0.65890265  0.65890265  1
  La  La1  1  0.00000000  0.50000000  0.00000000  1
  La  La2  1  0.00000000  0.00000000  0.50000000  1
  La  La3  1  0.50000000  0.50000000  0.50000000  1
  La  La4  1  0.33732946  0.00591213  0.33141733  1
  La  La5  1  0.35322569  0.34821515  0.00501054  1
  La  La6  1  0.64677431  0.65178485  0.99498946  1
  La  La7  1  0.66267054  0.99408787  0.66858267  1
  La  La8  1  0.50000000  0.00000000  0.00000000  1
  La  La9  1  0.00000000  0.34109735  0.34109735  1
  Ti  Ti10  1  0.06402350  0.69554902  0.36847448  1
  Ti  Ti11  1  0.29940649  0.64526730  0.94546221  1
  Ti  Ti12  1  0.35280512  0.70085675  0.65194838  1
  Ti  Ti13  1  0.29940649  0.35394428  0.65413919  1
  Ti  Ti14  1  0.36311774  0.66793479  0.30156598  1
  Ti  Ti15  1  0.36311774  0.06155176  0.69518295  1
  Ti  Ti16  1  0.63688226  0.93844824  0.30481705  1
  Ti  Ti17  1  0.63688226  0.33206521  0.69843402  1
  Ti  Ti18  1  0.70059351  0.64605572  0.34586081  1
  Ti  Ti19  1  0.64719488  0.29914325  0.34805162  1
  Ti  Ti20  1  0.70059351  0.35473270  0.05453779  1
  Ti  Ti21  1  0.93597650  0.30445098  0.63152552  1
  S  S22  1  0.20357119  0.81372125  0.01972968  1
  S  S23  1  0.20357119  0.18384151  0.38984994  1
  S  S24  1  0.60969132  0.79390854  0.81578278  1
  S  S25  1  0.39030868  0.20609146  0.18421722  1
  S  S26  1  0.79642881  0.81615849  0.61015006  1
  S  S27  1  0.79642881  0.18627875  0.98027032  1
  Cl  Cl28  1  0.17982253  0.97634825  0.79478478  1
  Cl  Cl29  1  0.02662665  0.20457098  0.82205567  1
  Cl  Cl30  1  0.17982253  0.38503775  0.20347428  1
  Cl  Cl31  1  0.82017747  0.61496225  0.79652572  1
  Cl  Cl32  1  0.97337335  0.79542902  0.17794433  1
  Cl  Cl33  1  0.82017747  0.02365175  0.20521522  1
  O  O34  1  0.07314909  0.49821443  0.79689828  1
  O  O35  1  0.20069724  0.92494680  0.49742985  1
  O  O36  1  0.12792617  0.62728133  0.50064483  1
  O  O37  1  0.29190565  0.72124998  0.79608198  1
  O  O38  1  0.07314909  0.27625081  0.57493465  1
  O  O39  1  0.20069724  0.70326739  0.27575044  1
  O  O40  1  0.42212927  0.92576493  0.72129831  1
  O  O41  1  0.36998015  0.50029558  0.86968457  1
  O  O42  1  0.29190565  0.49582366  0.57065567  1
  O  O43  1  0.27540421  0.20104351  0.70830426  1
  O  O44  1  0.42212927  0.70083095  0.49636434  1
  O  O45  1  0.27540421  0.56709995  0.07436070  1
  O  O46  1  0.50000000  0.87110622  0.37110622  1
  O  O47  1  0.49394872  0.20293501  0.92438246  1
  O  O48  1  0.50605128  0.43043374  0.70898629  1
  O  O49  1  0.49394872  0.56956626  0.29101371  1
  O  O50  1  0.50605128  0.79706499  0.07561754  1
  O  O51  1  0.50000000  0.12889378  0.62889378  1
  O  O52  1  0.72459579  0.43290005  0.92563930  1
  O  O53  1  0.57787073  0.29916905  0.50363566  1
  O  O54  1  0.72459579  0.79895649  0.29169574  1
  O  O55  1  0.70809435  0.50417634  0.42934433  1
  O  O56  1  0.63001985  0.49970442  0.13031543  1
  O  O57  1  0.57787073  0.07423507  0.27870169  1
  O  O58  1  0.79930276  0.29673261  0.72424956  1
  O  O59  1  0.92685091  0.72374919  0.42506535  1
  O  O60  1  0.70809435  0.27875002  0.20391802  1
  O  O61  1  0.87207383  0.37271867  0.49935517  1
  O  O62  1  0.79930276  0.07505320  0.50257015  1
  O  O63  1  0.92685091  0.50178557  0.20310172  1
