# generated using pymatgen
data_Mg10Si3(H2O9)2
_symmetry_space_group_name_H-M   'P 1'
_cell_length_a   5.16371160
_cell_length_b   8.82841882
_cell_length_c   14.13420537
_cell_angle_alpha   90.00000000
_cell_angle_beta   90.00000000
_cell_angle_gamma   90.00000000
_symmetry_Int_Tables_number   1
_chemical_formula_structural   Mg10Si3(H2O9)2
_chemical_formula_sum   'Mg20 Si6 H8 O36'
_cell_volume   644.34179643
_cell_formula_units_Z   2
loop_
 _symmetry_equiv_pos_site_id
 _symmetry_equiv_pos_as_xyz
  1  'x, y, z'
loop_
 _atom_site_type_symbol
 _atom_site_label
 _atom_site_symmetry_multiplicity
 _atom_site_fract_x
 _atom_site_fract_y
 _atom_site_fract_z
 _atom_site_occupancy
  Mg  Mg0  1  0.16342393  0.50846082  0.67339523  1
  Mg  Mg1  1  0.83657607  0.50846082  0.32660477  1
  Mg  Mg2  1  0.66342393  0.00846082  0.82660477  1
  Mg  Mg3  1  0.33657607  0.00846082  0.17339523  1
  Mg  Mg4  1  0.65483578  0.68375097  0.67841206  1
  Mg  Mg5  1  0.34516422  0.68375097  0.32158794  1
  Mg  Mg6  1  0.15483578  0.18375097  0.82158794  1
  Mg  Mg7  1  0.84516422  0.18375097  0.17841206  1
  Mg  Mg8  1  0.15210073  0.83182706  0.82481194  1
  Mg  Mg9  1  0.84789927  0.83182706  0.17518806  1
  Mg  Mg10  1  0.65210073  0.33182706  0.67518806  1
  Mg  Mg11  1  0.34789927  0.33182706  0.32481194  1
  Mg  Mg12  1  -0.00000000  0.32694850  0.50000000  1
  Mg  Mg13  1  0.50000000  0.82694850  -0.00000000  1
  Mg  Mg14  1  -0.00000000  0.68540743  0.50000000  1
  Mg  Mg15  1  0.50000000  0.18540743  -0.00000000  1
  Mg  Mg16  1  0.50000000  0.16380701  0.50000000  1
  Mg  Mg17  1  -0.00000000  0.66380701  -0.00000000  1
  Mg  Mg18  1  0.50000000  0.84776154  0.50000000  1
  Mg  Mg19  1  -0.00000000  0.34776154  -0.00000000  1
  Si  Si20  1  0.50000000  0.50768335  0.50000000  1
  Si  Si21  1  -0.00000000  0.00768335  -0.00000000  1
  Si  Si22  1  0.48216011  0.50568993  0.87597583  1
  Si  Si23  1  0.51783989  0.50568993  0.12402417  1
  Si  Si24  1  0.98216011  0.00568993  0.62402417  1
  Si  Si25  1  0.01783989  0.00568993  0.37597583  1
  H  H26  1  0.91903558  0.60764906  0.81025312  1
  H  H27  1  0.08096442  0.60764906  0.18974688  1
  H  H28  1  0.41903558  0.10764906  0.68974688  1
  H  H29  1  0.58096442  0.10764906  0.31025312  1
  H  H30  1  0.41097239  0.90162525  0.69406262  1
  H  H31  1  0.58902761  0.90162525  0.30593738  1
  H  H32  1  0.91097239  0.40162525  0.80593738  1
  H  H33  1  0.08902761  0.40162525  0.19406262  1
  O  O34  1  0.79089318  0.50480729  0.91191860  1
  O  O35  1  0.20910682  0.50480729  0.08808140  1
  O  O36  1  0.29089318  0.00480729  0.58808140  1
  O  O37  1  0.70910682  0.00480729  0.41191860  1
  O  O38  1  0.80361190  0.50789824  0.57914838  1
  O  O39  1  0.19638810  0.50789824  0.42085162  1
  O  O40  1  0.30361190  0.00789824  0.92085162  1
  O  O41  1  0.69638810  0.00789824  0.07914838  1
  O  O42  1  0.47707253  0.84684188  0.75017367  1
  O  O43  1  0.52292747  0.84684188  0.24982633  1
  O  O44  1  0.97707253  0.34684188  0.74982633  1
  O  O45  1  0.02292747  0.34684188  0.25017367  1
  O  O46  1  0.97853395  0.66541830  0.75400003  1
  O  O47  1  0.02146605  0.66541830  0.24599997  1
  O  O48  1  0.47853395  0.16541830  0.74599997  1
  O  O49  1  0.52146605  0.16541830  0.25400003  1
  O  O50  1  0.35505468  0.65217049  0.57344648  1
  O  O51  1  0.64494532  0.65217049  0.42655352  1
  O  O52  1  0.85505468  0.15217049  0.92655352  1
  O  O53  1  0.14494532  0.15217049  0.07344648  1
  O  O54  1  0.85432654  0.86218458  0.92742821  1
  O  O55  1  0.14567346  0.86218458  0.07257179  1
  O  O56  1  0.35432654  0.36218458  0.57257179  1
  O  O57  1  0.64567346  0.36218458  0.42742821  1
  O  O58  1  0.32948547  0.66114030  0.91466533  1
  O  O59  1  0.67051453  0.66114030  0.08533467  1
  O  O60  1  0.82948547  0.16114030  0.58533467  1
  O  O61  1  0.17051453  0.16114030  0.41466533  1
  O  O62  1  0.82935217  0.84944547  0.58675486  1
  O  O63  1  0.17064783  0.84944547  0.41324514  1
  O  O64  1  0.32935217  0.34944547  0.91324514  1
  O  O65  1  0.67064783  0.34944547  0.08675486  1
  O  O66  1  0.48676462  0.50623646  0.75824133  1
  O  O67  1  0.51323538  0.50623646  0.24175867  1
  O  O68  1  0.98676462  0.00623646  0.74175867  1
  O  O69  1  0.01323538  0.00623646  0.25824133  1
