# generated using pymatgen
data_Rb4LiH3(SO4)4
_symmetry_space_group_name_H-M   'P 1'
_cell_length_a   7.65100304
_cell_length_b   30.62441133
_cell_length_c   7.75927653
_cell_angle_alpha   90.00000000
_cell_angle_beta   88.70125544
_cell_angle_gamma   90.00000000
_symmetry_Int_Tables_number   1
_chemical_formula_structural   Rb4LiH3(SO4)4
_chemical_formula_sum   'Rb16 Li4 H12 S16 O64'
_cell_volume   1817.58936014
_cell_formula_units_Z   4
loop_
 _symmetry_equiv_pos_site_id
 _symmetry_equiv_pos_as_xyz
  1  'x, y, z'
loop_
 _atom_site_type_symbol
 _atom_site_label
 _atom_site_symmetry_multiplicity
 _atom_site_fract_x
 _atom_site_fract_y
 _atom_site_fract_z
 _atom_site_occupancy
  Rb  Rb0  1  0.99492864  0.46010947  0.75793574  1
  Rb  Rb1  1  0.00507136  0.96010947  0.24206426  1
  Rb  Rb2  1  0.97959687  0.69061791  0.01255232  1
  Rb  Rb3  1  0.02040313  0.19061791  0.98744768  1
  Rb  Rb4  1  0.38616138  0.80521949  0.92387605  1
  Rb  Rb5  1  0.61383862  0.30521949  0.07612395  1
  Rb  Rb6  1  0.84289749  0.57902404  0.38887814  1
  Rb  Rb7  1  0.15710251  0.07902404  0.61112186  1
  Rb  Rb8  1  0.27516703  0.69798048  0.50045121  1
  Rb  Rb9  1  0.72483297  0.19798048  0.49954879  1
  Rb  Rb10  1  0.52866773  0.94329637  0.50265592  1
  Rb  Rb11  1  0.47133227  0.44329637  0.49734408  1
  Rb  Rb12  1  0.87857610  0.81690192  0.63343807  1
  Rb  Rb13  1  0.12142390  0.31690192  0.36656193  1
  Rb  Rb14  1  0.54822261  0.56999975  0.87193715  1
  Rb  Rb15  1  0.45177739  0.06999975  0.12806285  1
  Li  Li16  1  0.17936682  0.51677767  0.13542633  1
  Li  Li17  1  0.82063318  0.01677767  0.86457367  1
  Li  Li18  1  0.62356453  0.75383145  0.26621360  1
  Li  Li19  1  0.37643547  0.25383145  0.73378640  1
  H  H20  1  0.27590452  0.37253739  0.93416992  1
  H  H21  1  0.72409548  0.87253739  0.06583008  1
  H  H22  1  0.64436528  0.66114404  0.74733272  1
  H  H23  1  0.35563472  0.16114404  0.25266728  1
  H  H24  1  0.19203298  0.60633343  0.66186011  1
  H  H25  1  0.80796702  0.10633343  0.33813989  1
  H  H26  1  0.22802934  0.90494723  0.83376585  1
  H  H27  1  0.77197066  0.40494723  0.16623415  1
  H  H28  1  0.18369741  0.85971612  0.30671728  1
  H  H29  1  0.81630259  0.35971612  0.69328272  1
  H  H30  1  0.50421359  0.49604580  0.14779497  1
  H  H31  1  0.49578641  0.99604580  0.85220503  1
  S  S32  1  0.91259434  0.82134001  0.12573692  1
  S  S33  1  0.08740566  0.32134001  0.87426308  1
  S  S34  1  0.79644065  0.69525732  0.53503415  1
  S  S35  1  0.20355935  0.19525732  0.46496585  1
  S  S36  1  0.03234566  0.57284496  0.86443815  1
  S  S37  1  0.96765434  0.07284496  0.13556185  1
  S  S38  1  0.96398360  0.44312451  0.29955929  1
  S  S39  1  0.03601640  0.94312451  0.70044071  1
  S  S40  1  0.37631324  0.82404923  0.45587405  1
  S  S41  1  0.62368676  0.32404923  0.54412595  1
  S  S42  1  0.36511456  0.56374611  0.41288930  1
  S  S43  1  0.63488544  0.06374611  0.58711070  1
  S  S44  1  0.50179208  0.94173343  0.03081629  1
  S  S45  1  0.49820792  0.44173343  0.96918371  1
  S  S46  1  0.45441401  0.69567406  0.99104991  1
  S  S47  1  0.54558599  0.19567406  0.00895009  1
  O  O48  1  0.82976252  0.79333556  0.25659285  1
  O  O49  1  0.17023748  0.29333556  0.74340715  1
  O  O50  1  0.75796736  0.84328837  0.01730802  1
  O  O51  1  0.24203264  0.34328837  0.98269198  1
  O  O52  1  0.00477591  0.85868160  0.20331735  1
  O  O53  1  0.99522409  0.35868160  0.79668265  1
  O  O54  1  0.01475031  0.79739461  0.99670269  1
  O  O55  1  0.98524969  0.29739461  0.00329731  1
  O  O56  1  0.64642101  0.72232912  0.48282935  1
  O  O57  1  0.35357899  0.22232912  0.51717065  1
  O  O58  1  0.71790014  0.65398648  0.62876960  1
  O  O59  1  0.28209986  0.15398648  0.37123040  1
  O  O60  1  0.89702518  0.67745540  0.38717665  1
  O  O61  1  0.10297482  0.17745540  0.61282335  1
  O  O62  1  0.90758394  0.71863320  0.65690869  1
  O  O63  1  0.09241606  0.21863320  0.34309131  1
  O  O64  1  0.91596847  0.55308854  0.73804924  1
  O  O65  1  0.08403153  0.05308854  0.26195076  1
  O  O66  1  0.17512377  0.54220107  0.90867289  1
  O  O67  1  0.82487623  0.04220107  0.09132711  1
  O  O68  1  0.12132759  0.61394983  0.77884271  1
  O  O69  1  0.87867241  0.11394983  0.22115729  1
  O  O70  1  0.93880154  0.58911982  0.01814698  1
  O  O71  1  0.06119846  0.08911982  0.98185302  1
  O  O72  1  0.11266387  0.42775929  0.39786357  1
  O  O73  1  0.88733613  0.92775929  0.60213643  1
  O  O74  1  0.82919001  0.46531002  0.40435070  1
  O  O75  1  0.17080999  0.96531002  0.59564930  1
  O  O76  1  0.88080097  0.39842084  0.23138996  1
  O  O77  1  0.11919903  0.89842084  0.76861004  1
  O  O78  1  0.01271719  0.46831350  0.14360558  1
  O  O79  1  0.98728281  0.96831350  0.85639442  1
  O  O80  1  0.42871981  0.79515164  0.31227545  1
  O  O81  1  0.57128019  0.29515164  0.68772455  1
  O  O82  1  0.52193771  0.84189171  0.55259343  1
  O  O83  1  0.47806229  0.34189171  0.44740657  1
  O  O84  1  0.23912302  0.80454975  0.56567863  1
  O  O85  1  0.76087698  0.30454975  0.43432137  1
  O  O86  1  0.29566638  0.86691270  0.36816813  1
  O  O87  1  0.70433362  0.36691270  0.63183187  1
  O  O88  1  0.20820113  0.53744635  0.36397350  1
  O  O89  1  0.79179887  0.03744635  0.63602650  1
  O  O90  1  0.29852472  0.60444413  0.50499245  1
  O  O91  1  0.70147528  0.10444413  0.49500755  1
  O  O92  1  0.47516494  0.53797783  0.53237170  1
  O  O93  1  0.52483506  0.03797783  0.46762830  1
  O  O94  1  0.46915962  0.57568171  0.25675274  1
  O  O95  1  0.53084038  0.07568171  0.74324726  1
  O  O96  1  0.58883210  0.72892317  0.04209474  1
  O  O97  1  0.41116790  0.22892317  0.95790526  1
  O  O98  1  0.59011165  0.97818079  0.89981806  1
  O  O99  1  0.40988835  0.47818079  0.10018194  1
  O  O100  1  0.37885490  0.96620724  0.13864269  1
  O  O101  1  0.62114510  0.46620724  0.86135731  1
  O  O102  1  0.42298261  0.90959922  0.91588022  1
  O  O103  1  0.57701739  0.40959922  0.08411978  1
  O  O104  1  0.65177750  0.92406374  0.12232173  1
  O  O105  1  0.34822250  0.42406374  0.87767827  1
  O  O106  1  0.33290551  0.71558474  0.86603879  1
  O  O107  1  0.66709449  0.21558474  0.13396121  1
  O  O108  1  0.55366739  0.65863093  0.90345394  1
  O  O109  1  0.44633261  0.15863093  0.09654606  1
  O  O110  1  0.35678592  0.67903493  0.14280258  1
  O  O111  1  0.64321408  0.17903493  0.85719742  1
