# generated using pymatgen
data_Rb6Te3P6(H13O20)2
_symmetry_space_group_name_H-M   'P 1'
_cell_length_a   11.42432489
_cell_length_b   8.16624301
_cell_length_c   11.91156488
_cell_angle_alpha   111.21583417
_cell_angle_beta   104.91552149
_cell_angle_gamma   83.41388398
_symmetry_Int_Tables_number   1
_chemical_formula_structural   Rb6Te3P6(H13O20)2
_chemical_formula_sum   'Rb6 Te3 P6 H26 O40'
_cell_volume   1000.76568746
_cell_formula_units_Z   1
loop_
 _symmetry_equiv_pos_site_id
 _symmetry_equiv_pos_as_xyz
  1  'x, y, z'
loop_
 _atom_site_type_symbol
 _atom_site_label
 _atom_site_symmetry_multiplicity
 _atom_site_fract_x
 _atom_site_fract_y
 _atom_site_fract_z
 _atom_site_occupancy
  Rb  Rb0  1  0.90359417  0.49769462  0.79874908  1
  Rb  Rb1  1  0.09640583  0.50230538  0.20125092  1
  Rb  Rb2  1  0.71872696  0.21675885  0.19525225  1
  Rb  Rb3  1  0.28127304  0.78324115  0.80474775  1
  Rb  Rb4  1  0.69377593  0.98814580  0.60260153  1
  Rb  Rb5  1  0.30622407  0.01185420  0.39739847  1
  Te  Te6  1  0.00000000  0.00000000  0.00000000  1
  Te  Te7  1  0.00000000  0.00000000  0.50000000  1
  Te  Te8  1  0.50000000  0.50000000  0.50000000  1
  P  P9  1  0.56927488  0.83969613  0.22767757  1
  P  P10  1  0.43072512  0.16030387  0.77232243  1
  P  P11  1  0.77599038  0.61868568  0.13783142  1
  P  P12  1  0.22400962  0.38131432  0.86216858  1
  P  P13  1  0.63735355  0.39855129  0.89703023  1
  P  P14  1  0.36264645  0.60144871  0.10296977  1
  H  H15  1  0.85347093  0.22746185  0.95152222  1
  H  H16  1  0.14652907  0.77253815  0.04847778  1
  H  H17  1  0.89874375  0.84235487  0.09334195  1
  H  H18  1  0.10125625  0.15764513  0.90665805  1
  H  H19  1  0.78978939  0.89265186  0.89675259  1
  H  H20  1  0.21021061  0.10734814  0.10324741  1
  H  H21  1  0.87472526  0.72710528  0.38493508  1
  H  H22  1  0.12527474  0.27289472  0.61506492  1
  H  H23  1  0.87305986  0.25136143  0.46841287  1
  H  H24  1  0.12694014  0.74863857  0.53158713  1
  H  H25  1  0.00145875  0.93355101  0.27559286  1
  H  H26  1  0.99854125  0.06644899  0.72440714  1
  H  H27  1  0.54684774  0.18669844  0.39321076  1
  H  H28  1  0.45315226  0.81330156  0.60678924  1
  H  H29  1  0.60582870  0.56753563  0.72273187  1
  H  H30  1  0.39417130  0.43246437  0.27726813  1
  H  H31  1  0.60056504  0.61211051  0.37750784  1
  H  H32  1  0.39943496  0.38788949  0.62249216  1
  H  H33  1  0.59329508  0.93049939  0.87192523  1
  H  H34  1  0.40670492  0.06950061  0.12807477  1
  H  H35  1  0.64388478  0.79855209  0.94122889  1
  H  H36  1  0.35611522  0.20144791  0.05877111  1
  H  H37  1  0.90673247  0.57910942  0.52557572  1
  H  H38  1  0.09326753  0.42089058  0.47442428  1
  H  H39  1  0.78064815  0.50850082  0.50933119  1
  H  H40  1  0.21935185  0.49149918  0.49066881  1
  O  O41  1  0.91568621  0.22818320  0.02831928  1
  O  O42  1  0.08431379  0.77181680  0.97168072  1
  O  O43  1  0.93079681  0.96624328  0.12585136  1
  O  O44  1  0.06920319  0.03375672  0.87414864  1
  O  O45  1  0.86652424  0.88081298  0.86539077  1
  O  O46  1  0.13347576  0.11918702  0.13460923  1
  O  O47  1  0.89667336  0.80825888  0.47465967  1
  O  O48  1  0.10332664  0.19174112  0.52534033  1
  O  O49  1  0.85957811  0.12206416  0.42857227  1
  O  O50  1  0.14042189  0.87793584  0.57142773  1
  O  O51  1  0.95874855  0.12043739  0.66091636  1
  O  O52  1  0.04125145  0.87956261  0.33908364  1
  O  O53  1  0.55562213  0.25778507  0.48279870  1
  O  O54  1  0.44437787  0.74221493  0.51720130  1
  O  O55  1  0.62834302  0.58122488  0.65028865  1
  O  O56  1  0.37165698  0.41877512  0.34971135  1
  O  O57  1  0.61869792  0.50976993  0.40861469  1
  O  O58  1  0.38130208  0.49023007  0.59138531  1
  O  O59  1  0.53483129  0.02906251  0.24055746  1
  O  O60  1  0.46516871  0.97093749  0.75944254  1
  O  O61  1  0.58456995  0.78946970  0.33947311  1
  O  O62  1  0.41543005  0.21053030  0.66052689  1
  O  O63  1  0.68904491  0.79433071  0.17157740  1
  O  O64  1  0.31095509  0.20566929  0.82842260  1
  O  O65  1  0.52723961  0.28312585  0.88939769  1
  O  O66  1  0.47276039  0.71687415  0.11060231  1
  O  O67  1  0.68150587  0.46444499  0.04822365  1
  O  O68  1  0.31849413  0.53555501  0.95177635  1
  O  O69  1  0.83157435  0.57377105  0.25165335  1
  O  O70  1  0.16842565  0.42622895  0.74834665  1
  O  O71  1  0.85534489  0.64876250  0.06437949  1
  O  O72  1  0.14465511  0.35123750  0.93562051  1
  O  O73  1  0.73310666  0.27836972  0.84093356  1
  O  O74  1  0.26689334  0.72163028  0.15906644  1
  O  O75  1  0.58984615  0.55248775  0.85648300  1
  O  O76  1  0.41015385  0.44751225  0.14351700  1
  O  O77  1  0.66164090  0.91101083  0.93699741  1
  O  O78  1  0.33835910  0.08898917  0.06300259  1
  O  O79  1  0.86810060  0.48913098  0.53980313  1
  O  O80  1  0.13189940  0.51086902  0.46019687  1
