# generated using pymatgen
data_Li4MnCo2O7
_symmetry_space_group_name_H-M   'P 1'
_cell_length_a   4.99594295
_cell_length_b   10.20495925
_cell_length_c   5.29094018
_cell_angle_alpha   95.43498542
_cell_angle_beta   77.19680511
_cell_angle_gamma   78.31574655
_symmetry_Int_Tables_number   1
_chemical_formula_structural   Li4MnCo2O7
_chemical_formula_sum   'Li8 Mn2 Co4 O14'
_cell_volume   254.82546354
_cell_formula_units_Z   2
loop_
 _symmetry_equiv_pos_site_id
 _symmetry_equiv_pos_as_xyz
  1  'x, y, z'
loop_
 _atom_site_type_symbol
 _atom_site_label
 _atom_site_symmetry_multiplicity
 _atom_site_fract_x
 _atom_site_fract_y
 _atom_site_fract_z
 _atom_site_occupancy
  Li  Li0  1  0.28571400  0.92857100  0.42857100  1
  Li  Li1  1  0.71138571  0.07295552  0.57279302  1
  Li  Li2  1  0.14286671  0.21744393  0.71271932  1
  Li  Li3  1  0.42856129  0.63969907  0.14442368  1
  Li  Li4  1  0.86004329  0.78418748  0.28434998  1
  Li  Li5  1  0.57020179  0.35802131  0.85987081  1
  Li  Li6  1  0.00122721  0.49912169  0.99727219  1
  Li  Li7  1  0.28571400  0.42857100  0.42857100  1
  Mn  Mn8  1  -0.00237669  0.00306279  0.00437646  1
  Mn  Mn9  1  0.57380569  0.85408021  0.85276654  1
  Co  Co10  1  0.42713198  0.14623971  0.14826222  1
  Co  Co11  1  0.84950102  0.29237882  0.30039003  1
  Co  Co12  1  0.72192798  0.56476418  0.55675297  1
  Co  Co13  1  0.14429602  0.71090329  0.70888078  1
  O  O14  1  0.21827852  0.83036153  0.06457976  1
  O  O15  1  0.64274941  0.97618229  0.20730194  1
  O  O16  1  0.08052957  0.11997619  0.34849609  1
  O  O17  1  0.37603500  0.54937317  0.77371685  1
  O  O18  1  0.79892676  0.68460577  0.91538491  1
  O  O19  1  0.53257487  0.25268382  0.47981825  1
  O  O20  1  0.91062311  0.39991357  0.62757044  1
  O  O21  1  0.35314948  0.02678147  0.79256324  1
  O  O22  1  0.77250224  0.17253723  0.94175809  1
  O  O23  1  0.19539300  0.30776883  0.08342515  1
  O  O24  1  0.49089943  0.73716681  0.50864691  1
  O  O25  1  0.92867959  0.88096071  0.64984106  1
  O  O26  1  0.66080589  0.45722943  0.22957256  1
  O  O27  1  0.03885313  0.60445918  0.37732475  1
