# generated using pymatgen
data_Na2Sn2H4O5
_symmetry_space_group_name_H-M   'P 1'
_cell_length_a   14.67833554
_cell_length_b   17.20906701
_cell_length_c   5.96075334
_cell_angle_alpha   90.00000000
_cell_angle_beta   90.00000000
_cell_angle_gamma   90.00000000
_symmetry_Int_Tables_number   1
_chemical_formula_structural   Na2Sn2H4O5
_chemical_formula_sum   'Na16 Sn16 H32 O40'
_cell_volume   1505.68903505
_cell_formula_units_Z   8
loop_
 _symmetry_equiv_pos_site_id
 _symmetry_equiv_pos_as_xyz
  1  'x, y, z'
loop_
 _atom_site_type_symbol
 _atom_site_label
 _atom_site_symmetry_multiplicity
 _atom_site_fract_x
 _atom_site_fract_y
 _atom_site_fract_z
 _atom_site_occupancy
  Na  Na0  1  0.69545794  0.53068822  0.26486251  1
  Na  Na1  1  0.80454206  0.46931178  0.76486251  1
  Na  Na2  1  0.19545794  0.96931178  0.73513749  1
  Na  Na3  1  0.30454206  0.03068822  0.23513749  1
  Na  Na4  1  0.56065481  0.01397188  0.23071934  1
  Na  Na5  1  0.93934519  0.98602812  0.73071934  1
  Na  Na6  1  0.06065481  0.48602812  0.76928066  1
  Na  Na7  1  0.43934519  0.51397188  0.26928066  1
  Na  Na8  1  0.69042583  0.98042013  0.73805047  1
  Na  Na9  1  0.80957417  0.01957987  0.23805047  1
  Na  Na10  1  0.19042583  0.51957987  0.26194953  1
  Na  Na11  1  0.30957417  0.48042013  0.76194953  1
  Na  Na12  1  0.57606807  0.53623604  0.74858106  1
  Na  Na13  1  0.92393193  0.46376396  0.24858106  1
  Na  Na14  1  0.07606807  0.96376396  0.25141894  1
  Na  Na15  1  0.42393193  0.03623604  0.75141894  1
  Sn  Sn16  1  0.53695707  0.69304460  0.38341266  1
  Sn  Sn17  1  0.96304293  0.30695540  0.88341266  1
  Sn  Sn18  1  0.03695707  0.80695540  0.61658734  1
  Sn  Sn19  1  0.46304293  0.19304460  0.11658734  1
  Sn  Sn20  1  0.51779509  0.85234504  0.89244461  1
  Sn  Sn21  1  0.98220491  0.14765496  0.39244461  1
  Sn  Sn22  1  0.01779509  0.64765496  0.10755539  1
  Sn  Sn23  1  0.48220491  0.35234504  0.60755539  1
  Sn  Sn24  1  0.76362960  0.67389473  0.63884487  1
  Sn  Sn25  1  0.73637040  0.32610527  0.13884487  1
  Sn  Sn26  1  0.26362960  0.82610527  0.36115513  1
  Sn  Sn27  1  0.23637040  0.17389473  0.86115513  1
  Sn  Sn28  1  0.73419269  0.83689416  0.14408273  1
  Sn  Sn29  1  0.76580731  0.16310584  0.64408273  1
  Sn  Sn30  1  0.23419269  0.66310584  0.85591727  1
  Sn  Sn31  1  0.26580731  0.33689416  0.35591727  1
  H  H32  1  0.59358276  0.62915116  0.03341545  1
  H  H33  1  0.90641724  0.37084884  0.53341545  1
  H  H34  1  0.09358276  0.87084884  0.96658455  1
  H  H35  1  0.40641724  0.12915116  0.46658455  1
  H  H36  1  0.55755536  0.89805839  0.49121604  1
  H  H37  1  0.94244464  0.10194161  0.99121604  1
  H  H38  1  0.05755536  0.60194161  0.50878396  1
  H  H39  1  0.44244464  0.39805839  0.00878396  1
  H  H40  1  0.80225214  0.88592393  0.51000633  1
  H  H41  1  0.69774786  0.11407607  0.01000633  1
  H  H42  1  0.30225214  0.61407607  0.48999367  1
  H  H43  1  0.19774786  0.38592393  0.98999367  1
  H  H44  1  0.79067119  0.60034716  0.00163062  1
  H  H45  1  0.70932881  0.39965284  0.50163062  1
  H  H46  1  0.29067119  0.89965284  0.99836938  1
  H  H47  1  0.20932881  0.10034716  0.49836938  1
  H  H48  1  0.89992600  0.58774512  0.46316217  1
  H  H49  1  0.60007400  0.41225488  0.96316217  1
  H  H50  1  0.39992600  0.91225488  0.53683783  1
  H  H51  1  0.10007400  0.08774512  0.03683783  1
  H  H52  1  0.88335046  0.88358176  0.94669944  1
  H  H53  1  0.61664954  0.11641824  0.44669944  1
  H  H54  1  0.38335046  0.61641824  0.05330056  1
  H  H55  1  0.11664954  0.38358176  0.55330056  1
  H  H56  1  0.93673027  0.86911923  0.30292499  1
  H  H57  1  0.56326973  0.13088077  0.80292499  1
  H  H58  1  0.43673027  0.63088077  0.69707501  1
  H  H59  1  0.06326973  0.36911923  0.19707501  1
  H  H60  1  0.91219661  0.57860824  0.81988445  1
  H  H61  1  0.58780339  0.42139176  0.31988445  1
  H  H62  1  0.41219661  0.92139176  0.18011555  1
  H  H63  1  0.08780339  0.07860824  0.68011555  1
  O  O64  1  0.53412957  0.61556371  0.09864879  1
  O  O65  1  0.96587043  0.38443629  0.59864879  1
  O  O66  1  0.03412957  0.88443629  0.90135121  1
  O  O67  1  0.46587043  0.11556371  0.40135121  1
  O  O68  1  0.52754152  0.92954038  0.60605400  1
  O  O69  1  0.97245848  0.07045962  0.10605400  1
  O  O70  1  0.02754152  0.57045962  0.39394600  1
  O  O71  1  0.47245848  0.42954038  0.89394600  1
  O  O72  1  0.74742997  0.90593547  0.43592407  1
  O  O73  1  0.75257003  0.09406453  0.93592407  1
  O  O74  1  0.24742997  0.59406453  0.56407593  1
  O  O75  1  0.25257003  0.40593547  0.06407593  1
  O  O76  1  0.73306216  0.59873079  0.91966354  1
  O  O77  1  0.76693784  0.40126921  0.41966354  1
  O  O78  1  0.23306216  0.90126921  0.08033646  1
  O  O79  1  0.26693784  0.09873079  0.58033646  1
  O  O80  1  0.64562222  0.63015646  0.50615208  1
  O  O81  1  0.85437778  0.36984354  0.00615208  1
  O  O82  1  0.14562222  0.86984354  0.49384792  1
  O  O83  1  0.35437778  0.13015646  0.99384792  1
  O  O84  1  0.62710910  0.90769775  0.04502605  1
  O  O85  1  0.87289090  0.09230225  0.54502605  1
  O  O86  1  0.12710910  0.59230225  0.95497395  1
  O  O87  1  0.37289090  0.40769775  0.45497395  1
  O  O88  1  0.83539408  0.57620301  0.49439876  1
  O  O89  1  0.66460592  0.42379699  0.99439876  1
  O  O90  1  0.33539408  0.92379699  0.50560124  1
  O  O91  1  0.16460592  0.07620301  0.00560124  1
  O  O92  1  0.82692865  0.91287529  0.96437768  1
  O  O93  1  0.67307135  0.08712471  0.46437768  1
  O  O94  1  0.32692865  0.58712471  0.03562232  1
  O  O95  1  0.17307135  0.41287529  0.53562232  1
  O  O96  1  0.94933233  0.88826515  0.45332214  1
  O  O97  1  0.55066767  0.11173485  0.95332214  1
  O  O98  1  0.44933233  0.61173485  0.54667786  1
  O  O99  1  0.05066767  0.38826515  0.04667786  1
  O  O100  1  0.93029959  0.55950994  0.96771053  1
  O  O101  1  0.56970041  0.44049006  0.46771053  1
  O  O102  1  0.43029959  0.94049006  0.03228947  1
  O  O103  1  0.06970041  0.05950994  0.53228947  1
