# generated using pymatgen
data_Fe17O18
_symmetry_space_group_name_H-M   'P 1'
_cell_length_a   9.30407378
_cell_length_b   11.10523730
_cell_length_c   8.23081672
_cell_angle_alpha   37.84266020
_cell_angle_beta   55.21780561
_cell_angle_gamma   46.53269412
_symmetry_Int_Tables_number   1
_chemical_formula_structural   Fe17O18
_chemical_formula_sum   'Fe17 O18'
_cell_volume   377.95569584
_cell_formula_units_Z   1
loop_
 _symmetry_equiv_pos_site_id
 _symmetry_equiv_pos_as_xyz
  1  'x, y, z'
loop_
 _atom_site_type_symbol
 _atom_site_label
 _atom_site_symmetry_multiplicity
 _atom_site_fract_x
 _atom_site_fract_y
 _atom_site_fract_z
 _atom_site_occupancy
  Fe  Fe0  1  0.22589217  0.32910703  0.00030672  1
  Fe  Fe1  1  0.27144370  0.15715217  0.51835815  1
  Fe  Fe2  1  0.10526091  0.67436891  0.00240426  1
  Fe  Fe3  1  0.56256592  0.32473686  0.00643653  1
  Fe  Fe4  1  0.16103148  0.51725429  0.48558247  1
  Fe  Fe5  1  0.60725963  0.16753467  0.50794297  1
  Fe  Fe6  1  0.43743408  0.67526314  -0.00643653  1
  Fe  Fe7  1  0.05352251  0.83278191  0.49723707  1
  Fe  Fe8  1  0.89473909  0.32563109  -0.00240426  1
  Fe  Fe9  1  0.50000000  0.50000000  0.50000000  1
  Fe  Fe10  1  0.32395807  0.00213962  0.00056200  1
  Fe  Fe11  1  0.94647749  0.16721809  0.50276293  1
  Fe  Fe12  1  0.77410783  0.67089297  -0.00030672  1
  Fe  Fe13  1  0.39274037  0.83246533  0.49205703  1
  Fe  Fe14  1  0.83896852  0.48274571  0.51441753  1
  Fe  Fe15  1  0.67604193  0.99786038  0.99943800  1
  Fe  Fe16  1  0.72855630  0.84284783  0.48164185  1
  O  O17  1  0.12194624  0.09703236  0.23708792  1
  O  O18  1  0.03832485  0.42241374  0.23336559  1
  O  O19  1  0.47346917  0.07475063  0.25728686  1
  O  O20  1  0.07920886  0.27295183  0.74560905  1
  O  O21  1  0.35041845  0.42277642  0.23354128  1
  O  O22  1  0.41109105  0.24523340  0.76268071  1
  O  O23  1  0.27583507  0.72617376  0.26272785  1
  O  O24  1  0.80609628  0.08768056  0.25902271  1
  O  O25  1  0.70946739  0.39966325  0.24966546  1
  O  O26  1  0.29053261  0.60033675  0.75033454  1
  O  O27  1  0.58890895  0.75476660  0.23731929  1
  O  O28  1  0.19390372  0.91231944  0.74097729  1
  O  O29  1  0.72416493  0.27382624  0.73727215  1
  O  O30  1  0.64958155  0.57722358  0.76645872  1
  O  O31  1  0.92079114  0.72704817  0.25439095  1
  O  O32  1  0.52653083  0.92524937  0.74271314  1
  O  O33  1  0.96167515  0.57758626  0.76663441  1
  O  O34  1  0.87805376  0.90296764  0.76291208  1
