# generated using pymatgen
data_Ba2Na7Ti16Bi7O48
_symmetry_space_group_name_H-M   'P 1'
_cell_length_a   5.65480628
_cell_length_b   5.65447357
_cell_length_c   45.04228970
_cell_angle_alpha   59.00811644
_cell_angle_beta   59.00670238
_cell_angle_gamma   58.70216123
_symmetry_Int_Tables_number   1
_chemical_formula_structural   Ba2Na7Ti16Bi7O48
_chemical_formula_sum   'Ba2 Na7 Ti16 Bi7 O48'
_cell_volume   992.93803827
_cell_formula_units_Z   1
loop_
 _symmetry_equiv_pos_site_id
 _symmetry_equiv_pos_as_xyz
  1  'x, y, z'
loop_
 _atom_site_type_symbol
 _atom_site_label
 _atom_site_symmetry_multiplicity
 _atom_site_fract_x
 _atom_site_fract_y
 _atom_site_fract_z
 _atom_site_occupancy
  Ba  Ba0  1  0.76454973  0.76453426  0.84324460  1
  Ba  Ba1  1  0.75800296  0.75818773  0.97153835  1
  Na  Na2  1  0.26665170  0.26447049  0.03819450  1
  Na  Na3  1  0.27866325  0.27691254  0.15993826  1
  Na  Na4  1  0.27852394  0.27832222  0.28465941  1
  Na  Na5  1  0.27906580  0.27876559  0.40952660  1
  Na  Na6  1  0.27947032  0.27908194  0.53444299  1
  Na  Na7  1  0.28321505  0.28029338  0.65835465  1
  Na  Na8  1  0.28813519  0.28850088  0.78031641  1
  Ti  Ti9  1  0.99705939  0.99110719  0.00737807  1
  Ti  Ti10  1  0.02288470  0.01590028  0.12840952  1
  Ti  Ti11  1  0.51473274  0.51685004  0.06553078  1
  Ti  Ti12  1  0.01990469  0.01937368  0.25252372  1
  Ti  Ti13  1  0.51137050  0.51089162  0.18998011  1
  Ti  Ti14  1  0.02099628  0.02099312  0.37723061  1
  Ti  Ti15  1  0.51568124  0.51425122  0.31403830  1
  Ti  Ti16  1  0.02204609  0.02088682  0.50199607  1
  Ti  Ti17  1  0.51636408  0.51477337  0.43882917  1
  Ti  Ti18  1  0.02393820  0.02240497  0.62665965  1
  Ti  Ti19  1  0.51641846  0.51548272  0.56372025  1
  Ti  Ti20  1  0.02327200  0.04077075  0.74958113  1
  Ti  Ti21  1  0.52288280  0.51773886  0.68728990  1
  Ti  Ti22  1  0.02492327  0.02165686  0.87205696  1
  Ti  Ti23  1  0.52172178  0.51860208  0.81209145  1
  Ti  Ti24  1  0.51831852  0.51162881  0.94110364  1
  Bi  Bi25  1  0.79487189  0.78357482  0.10018475  1
  Bi  Bi26  1  0.78912899  0.79060474  0.22376467  1
  Bi  Bi27  1  0.79093479  0.79207265  0.34836446  1
  Bi  Bi28  1  0.79140556  0.79209660  0.47329831  1
  Bi  Bi29  1  0.79383716  0.79477036  0.59738102  1
  Bi  Bi30  1  0.79615783  0.79161189  0.72344563  1
  Bi  Bi31  1  0.27992509  0.28236954  0.91337876  1
  O  O32  1  0.18765564  0.30341285  0.09640654  1
  O  O33  1  0.26726237  0.74335442  0.03082241  1
  O  O34  1  0.74655202  0.22354452  0.03712368  1
  O  O35  1  0.22675900  0.80201484  0.08935574  1
  O  O36  1  0.69396886  0.22971416  0.10164348  1
  O  O37  1  0.18531067  0.30925839  0.21957040  1
  O  O38  1  0.77876843  0.71594775  0.03409996  1
  O  O39  1  0.31066790  0.74223157  0.14996212  1
  O  O40  1  0.74617872  0.18213460  0.16525101  1
  O  O41  1  0.23129425  0.80388830  0.21209958  1
  O  O42  1  0.68959442  0.23173102  0.22643097  1
  O  O43  1  0.18617648  0.31010463  0.34416947  1
  O  O44  1  0.80270448  0.68376188  0.15551480  1
  O  O45  1  0.31062078  0.74720278  0.27374619  1
  O  O46  1  0.74900075  0.18517015  0.28938913  1
  O  O47  1  0.23227424  0.80479903  0.33657529  1
  O  O48  1  0.69106981  0.23395211  0.35079483  1
  O  O49  1  0.18650319  0.31037310  0.46908043  1
  O  O50  1  0.80308881  0.68892644  0.27988660  1
  O  O51  1  0.31058205  0.74781641  0.39861061  1
  O  O52  1  0.74948890  0.18604711  0.41421085  1
  O  O53  1  0.23277509  0.80501451  0.46147648  1
  O  O54  1  0.69137548  0.23453574  0.47566608  1
  O  O55  1  0.18874162  0.31216818  0.59346736  1
  O  O56  1  0.80299202  0.69027456  0.40460303  1
  O  O57  1  0.31104240  0.74812163  0.52346119  1
  O  O58  1  0.75059777  0.18556006  0.53906955  1
  O  O59  1  0.23527408  0.80587312  0.58612683  1
  O  O60  1  0.69285166  0.23506414  0.60040523  1
  O  O61  1  0.20449751  0.31408384  0.71583258  1
  O  O62  1  0.80410916  0.69042822  0.52940156  1
  O  O63  1  0.31886439  0.75228781  0.64745190  1
  O  O64  1  0.75734420  0.18800675  0.66329857  1
  O  O65  1  0.23640311  0.80000298  0.71164052  1
  O  O66  1  0.69930889  0.23639918  0.72389012  1
  O  O67  1  0.23964254  0.26575128  0.84329340  1
  O  O68  1  0.80863947  0.69442606  0.65378211  1
  O  O69  1  0.28559457  0.77358951  0.77550972  1
  O  O70  1  0.74528255  0.24806838  0.78172473  1
  O  O71  1  0.25979130  0.78236148  0.83892863  1
  O  O72  1  0.72467667  0.25871035  0.84647852  1
  O  O73  1  0.22994298  0.26122646  0.96743537  1
  O  O74  1  0.79976841  0.71377612  0.77872087  1
  O  O75  1  0.25905648  0.72848082  0.90420218  1
  O  O76  1  0.72614068  0.22702583  0.90809512  1
  O  O77  1  0.25478812  0.78622262  0.96491741  1
  O  O78  1  0.72078434  0.25301093  0.97336444  1
  O  O79  1  0.78353879  0.70906140  0.90634671  1
