# generated using pymatgen
data_Co9Ru3O16
_symmetry_space_group_name_H-M   'P 1'
_cell_length_a   6.01323712
_cell_length_b   12.01395781
_cell_length_c   16.07056823
_cell_angle_alpha   40.96206076
_cell_angle_beta   55.57670823
_cell_angle_gamma   60.21363166
_symmetry_Int_Tables_number   1
_chemical_formula_structural   Co9Ru3O16
_chemical_formula_sum   'Co18 Ru6 O32'
_cell_volume   622.54848756
_cell_formula_units_Z   2
loop_
 _symmetry_equiv_pos_site_id
 _symmetry_equiv_pos_as_xyz
  1  'x, y, z'
loop_
 _atom_site_type_symbol
 _atom_site_label
 _atom_site_symmetry_multiplicity
 _atom_site_fract_x
 _atom_site_fract_y
 _atom_site_fract_z
 _atom_site_occupancy
  Co  Co0  1  0.14123768  0.03431528  0.05126268  1
  Co  Co1  1  0.13745427  0.53228034  0.05567242  1
  Co  Co2  1  0.49257606  0.12650255  0.25419979  1
  Co  Co3  1  0.50000000  0.37500000  0.25000000  1
  Co  Co4  1  0.12740978  0.29958430  0.54874676  1
  Co  Co5  1  0.98718322  0.12555961  0.25430063  1
  Co  Co6  1  0.50742394  0.62349745  0.24580021  1
  Co  Co7  1  0.00000000  0.37500000  0.75000000  1
  Co  Co8  1  0.49956242  0.13328572  0.74554882  1
  Co  Co9  1  0.11429449  0.78671343  0.55781855  1
  Co  Co10  1  0.86254573  0.21771966  0.44432758  1
  Co  Co11  1  0.01281678  0.62444039  0.24569937  1
  Co  Co12  1  0.50000000  0.37500000  0.75000000  1
  Co  Co13  1  0.50043758  0.61671428  0.75445118  1
  Co  Co14  1  0.85876232  0.71568472  0.44873732  1
  Co  Co15  1  0.50000000  0.87500000  0.75000000  1
  Co  Co16  1  0.87259022  0.45041570  0.95125324  1
  Co  Co17  1  0.88570551  0.96328657  0.94218145  1
  O  O18  1  0.26251866  0.05737521  0.12934236  1
  O  O19  1  0.26830782  0.29513811  0.12356909  1
  O  O20  1  0.73612707  0.06126883  0.12600640  1
  O  O21  1  0.26214701  0.17221322  0.38699547  1
  O  O22  1  0.28009256  0.57573892  0.11262913  1
  O  O23  1  0.73191464  0.29475875  0.14829480  1
  O  O24  1  0.24364357  0.05631506  0.62766845  1
  O  O25  1  0.28105217  0.80271817  0.11289295  1
  O  O26  1  0.26808536  0.45524125  0.35170520  1
  O  O27  1  0.71990744  0.17426108  0.38737087  1
  O  O28  1  0.73785299  0.57778678  0.11300453  1
  O  O29  1  0.26585493  0.32936391  0.61693252  1
  O  O30  1  0.26387293  0.68873017  0.37399360  1
  O  O31  1  0.74963428  0.04460457  0.64489597  1
  O  O32  1  0.73169218  0.45486189  0.37643091  1
  O  O33  1  0.73691700  0.80147590  0.14368651  1
  O  O34  1  0.26830948  0.21125679  0.85277758  1
  O  O35  1  0.27477343  0.55639408  0.61780279  1
  O  O36  1  0.26308300  0.94852410  0.35631349  1
  O  O37  1  0.73748134  0.69262379  0.37065764  1
  O  O38  1  0.72210879  0.33283400  0.61709502  1
  O  O39  1  0.27789121  0.41716600  0.88290498  1
  O  O40  1  0.24306610  0.81502402  0.63036869  1
  O  O41  1  0.71894783  0.94728183  0.38710705  1
  O  O42  1  0.72522657  0.19360692  0.88219721  1
  O  O43  1  0.73169052  0.53874221  0.64722242  1
  O  O44  1  0.25036572  0.70539543  0.85510403  1
  O  O45  1  0.73414507  0.42063609  0.88306748  1
  O  O46  1  0.71200416  0.81954899  0.62749461  1
  O  O47  1  0.28799584  0.93045101  0.87250539  1
  O  O48  1  0.75635643  0.69368494  0.87233155  1
  O  O49  1  0.75693390  0.93497598  0.86963131  1
  Ru  Ru50  1  0.50120744  0.24174769  0.00486563  1
  Ru  Ru51  1  0.51572663  0.75048425  0.99383375  1
  Ru  Ru52  1  0.49879256  0.50825231  0.49513437  1
  Ru  Ru53  1  0.50000000  0.87500000  0.25000000  1
  Ru  Ru54  1  0.48427337  0.99951575  0.50616625  1
  Ru  Ru55  1  0.00000000  0.87500000  0.75000000  1
