# generated using pymatgen
data_V5O9
_symmetry_space_group_name_H-M   'P 1'
_cell_length_a   5.62930638
_cell_length_b   7.10963705
_cell_length_c   8.58128401
_cell_angle_alpha   69.79770412
_cell_angle_beta   74.46411903
_cell_angle_gamma   70.95880583
_symmetry_Int_Tables_number   1
_chemical_formula_structural   V5O9
_chemical_formula_sum   'V10 O18'
_cell_volume   299.98106294
_cell_formula_units_Z   2
loop_
 _symmetry_equiv_pos_site_id
 _symmetry_equiv_pos_as_xyz
  1  'x, y, z'
loop_
 _atom_site_type_symbol
 _atom_site_label
 _atom_site_symmetry_multiplicity
 _atom_site_fract_x
 _atom_site_fract_y
 _atom_site_fract_z
 _atom_site_occupancy
  V  V0  1  0.71969189  0.82477356  0.41765216  1
  V  V1  1  0.28241550  0.17566165  0.57488965  1
  V  V2  1  0.72498705  0.31654297  0.42804631  1
  V  V3  1  0.27374499  0.67993831  0.57709383  1
  V  V4  1  0.36018264  0.65219320  0.21437234  1
  V  V5  1  0.65346496  0.35101357  0.79100027  1
  V  V6  1  0.34077132  0.17147897  0.19877880  1
  V  V7  1  0.63807290  0.84075886  0.80228712  1
  V  V8  1  0.00276114  0.49601990  0.00388092  1
  V  V9  1  0.99231685  0.00209786  0.99559431  1
  O  O10  1  0.05480655  0.20384642  0.41566857  1
  O  O11  1  0.94091810  0.79260360  0.57861777  1
  O  O12  1  0.72051121  0.50729823  0.20472537  1
  O  O13  1  0.29784579  0.48379882  0.79776337  1
  O  O14  1  0.61756204  0.15978488  0.01570766  1
  O  O15  1  0.37380997  0.85007295  0.97121744  1
  O  O16  1  0.90732940  0.80524033  0.91572948  1
  O  O17  1  0.09427750  0.18254940  0.08339754  1
  O  O18  1  0.26415622  0.45893596  0.14386296  1
  O  O19  1  0.74564531  0.53889930  0.86164344  1
  O  O20  1  0.32093779  0.46659961  0.46339593  1
  O  O21  1  0.68466533  0.53508534  0.54015556  1
  O  O22  1  0.00388989  0.19880352  0.75888971  1
  O  O23  1  0.97125910  0.80952220  0.24582550  1
  O  O24  1  0.58063378  0.13280174  0.36529024  1
  O  O25  1  0.42541982  0.86221996  0.63140508  1
  O  O26  1  0.40876109  0.85325634  0.32808445  1
  O  O27  1  0.59916187  0.14820254  0.67502421  1
