# generated using pymatgen
data_Na4P4H2O13
_symmetry_space_group_name_H-M   'P 1'
_cell_length_a   13.80604374
_cell_length_b   13.61174866
_cell_length_c   6.34688197
_cell_angle_alpha   90.00000000
_cell_angle_beta   90.00000000
_cell_angle_gamma   90.00000000
_symmetry_Int_Tables_number   1
_chemical_formula_structural   Na4P4H2O13
_chemical_formula_sum   'Na16 P16 H8 O52'
_cell_volume   1192.73396944
_cell_formula_units_Z   4
loop_
 _symmetry_equiv_pos_site_id
 _symmetry_equiv_pos_as_xyz
  1  'x, y, z'
loop_
 _atom_site_type_symbol
 _atom_site_label
 _atom_site_symmetry_multiplicity
 _atom_site_fract_x
 _atom_site_fract_y
 _atom_site_fract_z
 _atom_site_occupancy
  Na  Na0  1  0.22460175  0.96232610  0.09002649  1
  Na  Na1  1  0.27539825  0.03767390  0.59002649  1
  Na  Na2  1  0.72460175  0.53767390  0.90997351  1
  Na  Na3  1  0.77539825  0.46232610  0.40997351  1
  Na  Na4  1  0.72197796  0.95938036  0.89089337  1
  Na  Na5  1  0.77802204  0.04061964  0.39089337  1
  Na  Na6  1  0.22197796  0.54061964  0.10910663  1
  Na  Na7  1  0.27802204  0.45938036  0.60910663  1
  Na  Na8  1  0.33398691  0.75451317  0.86830507  1
  Na  Na9  1  0.16601309  0.24548683  0.36830507  1
  Na  Na10  1  0.83398691  0.74548683  0.13169493  1
  Na  Na11  1  0.66601309  0.25451317  0.63169493  1
  Na  Na12  1  0.98544904  0.94811424  0.14766235  1
  Na  Na13  1  0.51455096  0.05188576  0.64766235  1
  Na  Na14  1  0.48544904  0.55188576  0.85233765  1
  Na  Na15  1  0.01455096  0.44811424  0.35233765  1
  P  P16  1  0.41771874  0.64235454  0.36180476  1
  P  P17  1  0.08228126  0.35764546  0.86180476  1
  P  P18  1  0.91771874  0.85764546  0.63819524  1
  P  P19  1  0.58228126  0.14235454  0.13819524  1
  P  P20  1  0.41850544  0.86079571  0.34749299  1
  P  P21  1  0.08149456  0.13920429  0.84749299  1
  P  P22  1  0.91850544  0.63920429  0.65250701  1
  P  P23  1  0.58149456  0.36079571  0.15250701  1
  P  P24  1  0.63625905  0.85978508  0.38196667  1
  P  P25  1  0.86374095  0.14021492  0.88196667  1
  P  P26  1  0.13625905  0.64021492  0.61803333  1
  P  P27  1  0.36374095  0.35978508  0.11803333  1
  P  P28  1  0.63548595  0.63914074  0.40560315  1
  P  P29  1  0.86451405  0.36085926  0.90560315  1
  P  P30  1  0.13548595  0.86085926  0.59439685  1
  P  P31  1  0.36451405  0.13914074  0.09439685  1
  H  H32  1  0.52987070  0.76736964  0.00224476  1
  H  H33  1  0.97012930  0.23263036  0.50224476  1
  H  H34  1  0.02987070  0.73263036  0.99775524  1
  H  H35  1  0.47012930  0.26736964  0.49775524  1
  H  H36  1  0.53866567  0.77881414  0.75939920  1
  H  H37  1  0.96133433  0.22118586  0.25939920  1
  H  H38  1  0.03866567  0.72118586  0.24060080  1
  H  H39  1  0.46133433  0.27881414  0.74060080  1
  O  O40  1  0.35953192  0.63588956  0.16319473  1
  O  O41  1  0.14046808  0.36411044  0.66319473  1
  O  O42  1  0.85953192  0.86411044  0.83680527  1
  O  O43  1  0.64046808  0.13588956  0.33680527  1
  O  O44  1  0.39966191  0.57349818  0.54119000  1
  O  O45  1  0.10033809  0.42650182  0.04119000  1
  O  O46  1  0.89966191  0.92650182  0.45881000  1
  O  O47  1  0.60033809  0.07349818  0.95881000  1
  O  O48  1  0.35730223  0.86323772  0.15365523  1
  O  O49  1  0.14269777  0.13676228  0.65365523  1
  O  O50  1  0.85730223  0.63676228  0.84634477  1
  O  O51  1  0.64269777  0.36323772  0.34634477  1
  O  O52  1  0.40687140  0.93478310  0.51911639  1
  O  O53  1  0.09312860  0.06521690  0.01911639  1
  O  O54  1  0.90687140  0.56521690  0.48088361  1
  O  O55  1  0.59312860  0.43478310  0.98088361  1
  O  O56  1  0.63843000  0.93114429  0.56270442  1
  O  O57  1  0.86157000  0.06885571  0.06270442  1
  O  O58  1  0.13843000  0.56885571  0.43729558  1
  O  O59  1  0.36157000  0.43114429  0.93729558  1
  O  O60  1  0.70962401  0.86841053  0.20868401  1
  O  O61  1  0.79037599  0.13158947  0.70868401  1
  O  O62  1  0.20962401  0.63158947  0.79131599  1
  O  O63  1  0.29037599  0.36841053  0.29131599  1
  O  O64  1  0.63731886  0.57436174  0.59590926  1
  O  O65  1  0.86268114  0.42563826  0.09590926  1
  O  O66  1  0.13731886  0.92563826  0.40409074  1
  O  O67  1  0.36268114  0.07436174  0.90409074  1
  O  O68  1  0.70986268  0.62545401  0.23562549  1
  O  O69  1  0.79013732  0.37454599  0.73562549  1
  O  O70  1  0.20986268  0.87454599  0.76437451  1
  O  O71  1  0.29013732  0.12545401  0.26437451  1
  O  O72  1  0.53132286  0.85990799  0.26279156  1
  O  O73  1  0.96867714  0.14009201  0.76279156  1
  O  O74  1  0.03132286  0.64009201  0.73720844  1
  O  O75  1  0.46867714  0.35990799  0.23720844  1
  O  O76  1  0.53073648  0.63677465  0.28577513  1
  O  O77  1  0.96926352  0.36322535  0.78577513  1
  O  O78  1  0.03073648  0.86322535  0.71422487  1
  O  O79  1  0.46926352  0.13677465  0.21422487  1
  O  O80  1  0.63856016  0.75230163  0.49341838  1
  O  O81  1  0.86143984  0.24769837  0.99341838  1
  O  O82  1  0.13856016  0.74769837  0.50658162  1
  O  O83  1  0.36143984  0.25230163  0.00658162  1
  O  O84  1  0.41101107  0.75309850  0.46324092  1
  O  O85  1  0.08898893  0.24690150  0.96324092  1
  O  O86  1  0.91101107  0.74690150  0.53675908  1
  O  O87  1  0.58898893  0.25309850  0.03675908  1
  O  O88  1  0.51147964  0.73674135  0.86922608  1
  O  O89  1  0.98852036  0.26325865  0.36922608  1
  O  O90  1  0.01147964  0.76325865  0.13077392  1
  O  O91  1  0.48852036  0.23674135  0.63077392  1
