# generated using pymatgen
data_CsVH12(C2O7)2
_symmetry_space_group_name_H-M   'P 1'
_cell_length_a   5.94631603
_cell_length_b   5.95162260
_cell_length_c   10.33234330
_cell_angle_alpha   81.49135600
_cell_angle_beta   98.48710039
_cell_angle_gamma   101.96531376
_symmetry_Int_Tables_number   1
_chemical_formula_structural   CsVH12(C2O7)2
_chemical_formula_sum   'Cs1 V1 H12 C4 O14'
_cell_volume   351.18964527
_cell_formula_units_Z   1
loop_
 _symmetry_equiv_pos_site_id
 _symmetry_equiv_pos_as_xyz
  1  'x, y, z'
loop_
 _atom_site_type_symbol
 _atom_site_label
 _atom_site_symmetry_multiplicity
 _atom_site_fract_x
 _atom_site_fract_y
 _atom_site_fract_z
 _atom_site_occupancy
  Cs  Cs0  1  0.99532679  0.99644327  0.99886397  1
  V  V1  1  0.49832947  0.50201613  0.49921705  1
  H  H2  1  0.70954737  0.29285603  0.35250855  1
  H  H3  1  0.29277109  0.71292902  0.64787858  1
  H  H4  1  0.79327042  0.20712406  0.51672913  1
  H  H5  1  0.20560235  0.79914613  0.48397563  1
  H  H6  1  0.83932503  0.37658332  0.16601570  1
  H  H7  1  0.62437201  0.16298255  0.16700304  1
  H  H8  1  0.16457918  0.62137904  0.83499376  1
  H  H9  1  0.37748875  0.83623704  0.83627245  1
  H  H10  1  0.09566498  0.11582517  0.65072501  1
  H  H11  1  0.88085928  0.90346066  0.65046652  1
  H  H12  1  0.90219128  0.88468318  0.34696276  1
  H  H13  1  0.11474624  0.09871534  0.34599660  1
  C  C14  1  0.73779538  0.46967125  0.76249546  1
  C  C15  1  0.52925478  0.26339869  0.76275327  1
  C  C16  1  0.26117905  0.53294262  0.23504416  1
  C  C17  1  0.46900521  0.73967035  0.23519603  1
  O  O18  1  0.69733399  0.30179696  0.44996752  1
  O  O19  1  0.30264822  0.70494273  0.55014105  1
  O  O20  1  0.74791014  0.60278836  0.65105125  1
  O  O21  1  0.39562784  0.25417743  0.65137487  1
  O  O22  1  0.24938498  0.40114596  0.34682734  1
  O  O23  1  0.60212834  0.74885816  0.34662904  1
  O  O24  1  0.87908125  0.49511870  0.86300975  1
  O  O25  1  0.50277999  0.12288597  0.86339688  1
  O  O26  1  0.12126297  0.50605465  0.13402737  1
  O  O27  1  0.49542913  0.88119417  0.13480831  1
  O  O28  1  0.68811230  0.31458189  0.20034956  1
  O  O29  1  0.31641800  0.68528937  0.80182627  1
  O  O30  1  0.92511563  0.07370236  0.64871520  1
  O  O31  1  0.07269956  0.92824444  0.34904591  1
