# generated using pymatgen
data_KVH2SO7
_symmetry_space_group_name_H-M   'P 1'
_cell_length_a   4.72160363
_cell_length_b   10.86869624
_cell_length_c   11.66718166
_cell_angle_alpha   90.00000000
_cell_angle_beta   90.00000000
_cell_angle_gamma   90.00000000
_symmetry_Int_Tables_number   1
_chemical_formula_structural   KVH2SO7
_chemical_formula_sum   'K4 V4 H8 S4 O28'
_cell_volume   598.73264383
_cell_formula_units_Z   4
loop_
 _symmetry_equiv_pos_site_id
 _symmetry_equiv_pos_as_xyz
  1  'x, y, z'
loop_
 _atom_site_type_symbol
 _atom_site_label
 _atom_site_symmetry_multiplicity
 _atom_site_fract_x
 _atom_site_fract_y
 _atom_site_fract_z
 _atom_site_occupancy
  K  K0  1  0.79394666  0.59008580  0.91200746  1
  K  K1  1  0.70605334  0.40991420  0.41200746  1
  K  K2  1  0.29394666  0.90991420  0.08799254  1
  K  K3  1  0.20605334  0.09008580  0.58799254  1
  V  V4  1  0.83383271  0.79314781  0.59999104  1
  V  V5  1  0.66616729  0.20685219  0.09999104  1
  V  V6  1  0.33383271  0.70685219  0.40000896  1
  V  V7  1  0.16616729  0.29314781  0.90000896  1
  H  H8  1  0.90402719  0.54176315  0.65122169  1
  H  H9  1  0.59597281  0.45823685  0.15122169  1
  H  H10  1  0.40402719  0.95823685  0.34877831  1
  H  H11  1  0.09597281  0.04176315  0.84877831  1
  H  H12  1  0.77745560  0.08280170  0.83471788  1
  H  H13  1  0.72254440  0.91719830  0.33471788  1
  H  H14  1  0.27745560  0.41719830  0.16528212  1
  H  H15  1  0.22254440  0.58280170  0.66528212  1
  S  S16  1  0.86477516  0.66975162  0.19944197  1
  S  S17  1  0.63522484  0.33024838  0.69944197  1
  S  S18  1  0.36477516  0.83024838  0.80055803  1
  S  S19  1  0.13522484  0.16975162  0.30055803  1
  O  O20  1  0.87374120  0.30248937  0.01262972  1
  O  O21  1  0.62625880  0.69751063  0.51262972  1
  O  O22  1  0.37374120  0.19751063  0.98737028  1
  O  O23  1  0.12625880  0.80248937  0.48737028  1
  O  O24  1  0.29934924  0.42963952  0.92005373  1
  O  O25  1  0.20065076  0.57036048  0.42005373  1
  O  O26  1  0.79934924  0.07036048  0.07994627  1
  O  O27  1  0.70065076  0.92963952  0.57994627  1
  O  O28  1  0.96391186  0.55078474  0.15361909  1
  O  O29  1  0.53608814  0.44921526  0.65361909  1
  O  O30  1  0.46391186  0.94921526  0.84638091  1
  O  O31  1  0.03608814  0.05078474  0.34638091  1
  O  O32  1  0.25066475  0.75076922  0.89072483  1
  O  O33  1  0.24933525  0.24923078  0.39072483  1
  O  O34  1  0.75066475  0.74923078  0.10927517  1
  O  O35  1  0.74933525  0.25076922  0.60927517  1
  O  O36  1  0.85075278  0.35880741  0.79055513  1
  O  O37  1  0.64924722  0.64119259  0.29055513  1
  O  O38  1  0.35075278  0.14119259  0.20944487  1
  O  O39  1  0.14924722  0.85880741  0.70944487  1
  O  O40  1  0.10824547  0.74111644  0.25483627  1
  O  O41  1  0.39175453  0.25888356  0.75483627  1
  O  O42  1  0.60824547  0.75888356  0.74516373  1
  O  O43  1  0.89175453  0.24111644  0.24516373  1
  O  O44  1  0.97368987  0.11175848  0.82959490  1
  O  O45  1  0.52631013  0.88824152  0.32959490  1
  O  O46  1  0.47368987  0.38824152  0.17040510  1
  O  O47  1  0.02631013  0.61175848  0.67040510  1
