# generated using pymatgen
data_SmP2H9O11
_symmetry_space_group_name_H-M   'P 1'
_cell_length_a   6.70710905
_cell_length_b   11.63768077
_cell_length_c   11.89773640
_cell_angle_alpha   90.00000000
_cell_angle_beta   91.56259733
_cell_angle_gamma   90.00000000
_symmetry_Int_Tables_number   1
_chemical_formula_structural   SmP2H9O11
_chemical_formula_sum   'Sm4 P8 H36 O44'
_cell_volume   928.33477406
_cell_formula_units_Z   4
loop_
 _symmetry_equiv_pos_site_id
 _symmetry_equiv_pos_as_xyz
  1  'x, y, z'
loop_
 _atom_site_type_symbol
 _atom_site_label
 _atom_site_symmetry_multiplicity
 _atom_site_fract_x
 _atom_site_fract_y
 _atom_site_fract_z
 _atom_site_occupancy
  Sm  Sm0  1  0.74525518  0.91911606  0.66487872  1
  Sm  Sm1  1  0.24525518  0.58088394  0.16487872  1
  Sm  Sm2  1  0.25474482  0.08088394  0.33512128  1
  Sm  Sm3  1  0.75474482  0.41911606  0.83512128  1
  P  P4  1  0.24635996  0.04888818  0.64299405  1
  P  P5  1  0.74635996  0.45111182  0.14299405  1
  P  P6  1  0.75364004  0.95111182  0.35700595  1
  P  P7  1  0.25364004  0.54888818  0.85700595  1
  P  P8  1  0.01979170  0.13442112  0.83816793  1
  P  P9  1  0.51979170  0.36557888  0.33816793  1
  P  P10  1  0.98020830  0.86557888  0.16183207  1
  P  P11  1  0.48020830  0.63442112  0.66183207  1
  H  H12  1  0.18434750  0.99224452  0.92585639  1
  H  H13  1  0.68434750  0.50775548  0.42585639  1
  H  H14  1  0.81565250  0.00775548  0.07414361  1
  H  H15  1  0.31565250  0.49224452  0.57414361  1
  H  H16  1  0.58784641  0.13874314  0.54424065  1
  H  H17  1  0.08784641  0.36125686  0.04424065  1
  H  H18  1  0.41215359  0.86125686  0.45575935  1
  H  H19  1  0.91215359  0.63874314  0.95575935  1
  H  H20  1  0.80416480  0.11731833  0.49622399  1
  H  H21  1  0.30416480  0.38268167  0.99622399  1
  H  H22  1  0.19583520  0.88268167  0.50377601  1
  H  H23  1  0.69583520  0.61731833  0.00377601  1
  H  H24  1  0.70286933  0.75904611  0.87383874  1
  H  H25  1  0.20286933  0.74095389  0.37383874  1
  H  H26  1  0.29713067  0.24095389  0.12616126  1
  H  H27  1  0.79713067  0.25904611  0.62616126  1
  H  H28  1  0.74128244  0.88448774  0.91630036  1
  H  H29  1  0.24128244  0.61551226  0.41630036  1
  H  H30  1  0.25871756  0.11551226  0.08369964  1
  H  H31  1  0.75871756  0.38448774  0.58369964  1
  H  H32  1  0.88856975  0.66595879  0.68350139  1
  H  H33  1  0.38856975  0.83404121  0.18350139  1
  H  H34  1  0.11143025  0.33404121  0.31649861  1
  H  H35  1  0.61143025  0.16595879  0.81649861  1
  H  H36  1  0.08305671  0.74187242  0.69960297  1
  H  H37  1  0.58305671  0.75812758  0.19960297  1
  H  H38  1  0.91694329  0.25812758  0.30039703  1
  H  H39  1  0.41694329  0.24187242  0.80039703  1
  H  H40  1  0.22015097  0.79910938  0.94096385  1
  H  H41  1  0.72015097  0.70089062  0.44096385  1
  H  H42  1  0.77984903  0.20089062  0.05903615  1
  H  H43  1  0.27984903  0.29910938  0.55903615  1
  H  H44  1  0.34793048  0.86304542  0.85246055  1
  H  H45  1  0.84793048  0.63695458  0.35246055  1
  H  H46  1  0.65206952  0.13695458  0.14753945  1
  H  H47  1  0.15206952  0.36304542  0.64753945  1
  O  O48  1  0.08149996  0.95958868  0.62413994  1
  O  O49  1  0.58149996  0.54041132  0.12413994  1
  O  O50  1  0.91850004  0.04041132  0.37586006  1
  O  O51  1  0.41850004  0.45958868  0.87586006  1
  O  O52  1  0.43472483  0.00034167  0.69919077  1
  O  O53  1  0.93472483  0.49965833  0.19919077  1
  O  O54  1  0.56527517  0.99965833  0.30080923  1
  O  O55  1  0.06527517  0.50034167  0.80080923  1
  O  O56  1  0.29143119  0.11744270  0.53617736  1
  O  O57  1  0.79143119  0.38255730  0.03617736  1
  O  O58  1  0.70856881  0.88255730  0.46382264  1
  O  O59  1  0.20856881  0.61744270  0.96382264  1
  O  O60  1  0.15528159  0.07911728  0.93505897  1
  O  O61  1  0.65528159  0.42088272  0.43505897  1
  O  O62  1  0.84471841  0.92088272  0.06494103  1
  O  O63  1  0.34471841  0.57911728  0.56494103  1
  O  O64  1  0.84266220  0.05864674  0.80603088  1
  O  O65  1  0.34266220  0.44135326  0.30603088  1
  O  O66  1  0.15733780  0.94135326  0.19396912  1
  O  O67  1  0.65733780  0.55864674  0.69396912  1
  O  O68  1  0.97279411  0.25608090  0.87045301  1
  O  O69  1  0.47279411  0.24391910  0.37045301  1
  O  O70  1  0.02720589  0.74391910  0.12954699  1
  O  O71  1  0.52720589  0.75608090  0.62954699  1
  O  O72  1  0.16271636  0.14607500  0.73006086  1
  O  O73  1  0.66271636  0.35392500  0.23006086  1
  O  O74  1  0.83728364  0.85392500  0.26993914  1
  O  O75  1  0.33728364  0.64607500  0.76993914  1
  O  O76  1  0.72917375  0.12524394  0.56676993  1
  O  O77  1  0.22917375  0.37475606  0.06676993  1
  O  O78  1  0.27082625  0.87475606  0.43323007  1
  O  O79  1  0.77082625  0.62524394  0.93323007  1
  O  O80  1  0.68327760  0.84097416  0.85237620  1
  O  O81  1  0.18327760  0.65902584  0.35237620  1
  O  O82  1  0.31672240  0.15902584  0.14762380  1
  O  O83  1  0.81672240  0.34097416  0.64762380  1
  O  O84  1  0.94486825  0.74251955  0.67071404  1
  O  O85  1  0.44486825  0.75748045  0.17071404  1
  O  O86  1  0.05513175  0.25748045  0.32928596  1
  O  O87  1  0.55513175  0.24251955  0.82928596  1
  O  O88  1  0.22358872  0.86794816  0.89364504  1
  O  O89  1  0.72358872  0.63205184  0.39364504  1
  O  O90  1  0.77641128  0.13205184  0.10635496  1
  O  O91  1  0.27641128  0.36794816  0.60635496  1
