# generated using pymatgen
data_VH10SO10
_symmetry_space_group_name_H-M   'P 1'
_cell_length_a   7.48730028
_cell_length_b   9.24174067
_cell_length_c   6.26493597
_cell_angle_alpha   90.00000000
_cell_angle_beta   90.00000000
_cell_angle_gamma   90.00000000
_symmetry_Int_Tables_number   1
_chemical_formula_structural   VH10SO10
_chemical_formula_sum   'V2 H20 S2 O20'
_cell_volume   433.50655163
_cell_formula_units_Z   2
loop_
 _symmetry_equiv_pos_site_id
 _symmetry_equiv_pos_as_xyz
  1  'x, y, z'
loop_
 _atom_site_type_symbol
 _atom_site_label
 _atom_site_symmetry_multiplicity
 _atom_site_fract_x
 _atom_site_fract_y
 _atom_site_fract_z
 _atom_site_occupancy
  V  V0  1  0.50000000  0.71651509  0.50585065  1
  V  V1  1  0.00000000  0.28348491  0.00585065  1
  H  H2  1  0.50000000  0.88676099  0.09777648  1
  H  H3  1  0.00000000  0.11323901  0.59777648  1
  H  H4  1  0.50000000  0.72216119  0.04630052  1
  H  H5  1  0.00000000  0.27783881  0.54630052  1
  H  H6  1  0.67796527  0.97156793  0.51144763  1
  H  H7  1  0.32203473  0.97156793  0.51144763  1
  H  H8  1  0.82203473  0.02843207  0.01144763  1
  H  H9  1  0.17796527  0.02843207  0.01144763  1
  H  H10  1  0.75372559  0.86045111  0.69441461  1
  H  H11  1  0.24627441  0.86045111  0.69441461  1
  H  H12  1  0.74627441  0.13954889  0.19441461  1
  H  H13  1  0.25372559  0.13954889  0.19441461  1
  H  H14  1  0.80001408  0.62919120  0.30275274  1
  H  H15  1  0.19998592  0.62919120  0.30275274  1
  H  H16  1  0.69998592  0.37080880  0.80275274  1
  H  H17  1  0.30001408  0.37080880  0.80275274  1
  H  H18  1  0.65825320  0.49122845  0.32042245  1
  H  H19  1  0.34174680  0.49122845  0.32042245  1
  H  H20  1  0.84174680  0.50877155  0.82042245  1
  H  H21  1  0.15825320  0.50877155  0.82042245  1
  S  S22  1  0.50000000  0.23172408  0.46215115  1
  S  S23  1  0.00000000  0.76827592  0.96215115  1
  O  O24  1  0.50000000  0.65628132  0.75106296  1
  O  O25  1  0.00000000  0.34371868  0.25106296  1
  O  O26  1  0.50000000  0.79206682  0.16538175  1
  O  O27  1  0.00000000  0.20793318  0.66538175  1
  O  O28  1  0.69664161  0.86696070  0.54810881  1
  O  O29  1  0.30335839  0.86696070  0.54810881  1
  O  O30  1  0.80335839  0.13303930  0.04810881  1
  O  O31  1  0.19664161  0.13303930  0.04810881  1
  O  O32  1  0.69597723  0.58661929  0.37883026  1
  O  O33  1  0.30402277  0.58661929  0.37883026  1
  O  O34  1  0.80402277  0.41338071  0.87883026  1
  O  O35  1  0.19597723  0.41338071  0.87883026  1
  O  O36  1  0.66283127  0.13860877  0.42517676  1
  O  O37  1  0.33716873  0.13860877  0.42517676  1
  O  O38  1  0.83716873  0.86139123  0.92517676  1
  O  O39  1  0.16283127  0.86139123  0.92517676  1
  O  O40  1  0.50000000  0.35076002  0.30311154  1
  O  O41  1  0.00000000  0.64923998  0.80311154  1
  O  O42  1  0.50000000  0.28616257  0.68405845  1
  O  O43  1  0.00000000  0.71383743  0.18405845  1
