# generated using pymatgen
data_Na2Ca6Mg7Fe(SiO3)16
_symmetry_space_group_name_H-M   'P 1'
_cell_length_a   5.31407521
_cell_length_b   13.34261545
_cell_length_c   13.34261487
_cell_angle_alpha   84.57522339
_cell_angle_beta   78.06021845
_cell_angle_gamma   78.06021448
_symmetry_Int_Tables_number   1
_chemical_formula_structural   Na2Ca6Mg7Fe(SiO3)16
_chemical_formula_sum   'Na2 Ca6 Mg7 Fe1 Si16 O48'
_cell_volume   904.22519018
_cell_formula_units_Z   1
loop_
 _symmetry_equiv_pos_site_id
 _symmetry_equiv_pos_as_xyz
  1  'x, y, z'
loop_
 _atom_site_type_symbol
 _atom_site_label
 _atom_site_symmetry_multiplicity
 _atom_site_fract_x
 _atom_site_fract_y
 _atom_site_fract_z
 _atom_site_occupancy
  Na  Na0  1  0.25000000  0.84822765  0.65177235  1
  Na  Na1  1  0.75000000  0.14976432  0.35023568  1
  Ca  Ca2  1  0.25000000  0.34790858  0.15209142  1
  Ca  Ca3  1  0.24962068  0.85146061  0.14913773  1
  Ca  Ca4  1  0.25037932  0.35086227  0.64853939  1
  Ca  Ca5  1  0.75328979  0.15217819  0.85156686  1
  Ca  Ca6  1  0.74671021  0.64843314  0.34782181  1
  Ca  Ca7  1  0.75000000  0.65104288  0.84895712  1
  Mg  Mg8  1  0.25000000  0.04741186  0.45258814  1
  Mg  Mg9  1  0.24786534  0.54715518  0.45428954  1
  Mg  Mg10  1  0.25213466  0.04571046  0.95284482  1
  Mg  Mg11  1  0.25000000  0.54618051  0.95381949  1
  Mg  Mg12  1  0.75000000  0.45297258  0.04702742  1
  Mg  Mg13  1  0.74879363  0.45549876  0.54503351  1
  Mg  Mg14  1  0.75120637  0.95496649  0.04450124  1
  Fe  Fe15  1  0.75000000  0.95170455  0.54829545  1
  Si  Si16  1  0.26910463  0.09549047  0.18974879  1
  Si  Si17  1  0.23089537  0.31025121  0.40450953  1
  Si  Si18  1  0.26941792  0.09540757  0.69071836  1
  Si  Si19  1  0.26819251  0.59784879  0.18933366  1
  Si  Si20  1  0.23180749  0.31066634  0.90215121  1
  Si  Si21  1  0.23058208  0.80928164  0.40459243  1
  Si  Si22  1  0.26740738  0.59885809  0.68903356  1
  Si  Si23  1  0.76896618  0.18847411  0.09901241  1
  Si  Si24  1  0.23259263  0.81096644  0.90114191  1
  Si  Si25  1  0.73103382  0.40098759  0.31152589  1
  Si  Si26  1  0.76614563  0.18792473  0.59759044  1
  Si  Si27  1  0.76880697  0.69098665  0.09498775  1
  Si  Si28  1  0.73119303  0.40501225  0.80901335  1
  Si  Si29  1  0.73385437  0.90240956  0.31207527  1
  Si  Si30  1  0.76669130  0.69119873  0.59740621  1
  Si  Si31  1  0.73330870  0.90259379  0.80880127  1
  O  O32  1  0.00139046  0.31745845  0.33356280  1
  O  O33  1  0.19526898  0.04987052  0.30500810  1
  O  O34  1  0.35936036  0.01346912  0.09992599  1
  O  O35  1  0.99836947  0.31733072  0.83185852  1
  O  O36  1  0.00021082  0.81501990  0.33426973  1
  O  O37  1  0.14063964  0.40007401  0.48653088  1
  O  O38  1  0.17701696  0.05373800  0.80548670  1
  O  O39  1  0.17782582  0.56011463  0.30628623  1
  O  O40  1  0.30473101  0.19499190  0.45012948  1
  O  O41  1  0.37094047  0.01330610  0.59894039  1
  O  O42  1  0.35712832  0.51402112  0.10226403  1
  O  O43  1  0.49860954  0.16643720  0.18254155  1
  O  O44  1  0.99829583  0.81773472  0.83219710  1
  O  O45  1  0.14287168  0.39773597  0.98597888  1
  O  O46  1  0.12905953  0.90105961  0.48669390  1
  O  O47  1  0.18185027  0.55781350  0.80556906  1
  O  O48  1  0.49476769  0.33360750  0.31765038  1
  O  O49  1  0.68008610  0.30486455  0.05765560  1
  O  O50  1  0.32217418  0.19371377  0.93988537  1
  O  O51  1  0.32298304  0.69451330  0.44626200  1
  O  O52  1  0.35693836  0.51506335  0.60156160  1
  O  O53  1  0.50163053  0.66814148  0.18266928  1
  O  O54  1  0.49978918  0.16573027  0.68498010  1
  O  O55  1  0.85897320  0.10118302  0.01459210  1
  O  O56  1  0.14306164  0.89843840  0.98493665  1
  O  O57  1  0.49801178  0.33507050  0.81484979  1
  O  O58  1  0.49909244  0.83293139  0.31928531  1
  O  O59  1  0.64102680  0.48540790  0.39881698  1
  O  O60  1  0.68083847  0.30374064  0.55649663  1
  O  O61  1  0.67850921  0.80725440  0.05492525  1
  O  O62  1  0.31814973  0.69443094  0.94218650  1
  O  O63  1  0.50170417  0.66780290  0.68226528  1
  O  O64  1  0.81991390  0.44234440  0.19513545  1
  O  O65  1  0.85597306  0.09482753  0.51812250  1
  O  O66  1  0.85678695  0.60175590  0.01348925  1
  O  O67  1  0.00523231  0.18234962  0.16639250  1
  O  O68  1  0.50471168  0.83224558  0.81725406  1
  O  O69  1  0.64321305  0.48651075  0.89824410  1
  O  O70  1  0.64402694  0.98187750  0.40517247  1
  O  O71  1  0.68356111  0.80998339  0.55494096  1
  O  O72  1  0.82149079  0.44507476  0.69274560  1
  O  O73  1  0.81916153  0.94350337  0.19625936  1
  O  O74  1  0.85447140  0.60582925  0.51187770  1
  O  O75  1  0.00090756  0.18071469  0.66706861  1
  O  O76  1  0.00198822  0.68515021  0.16492950  1
  O  O77  1  0.64552860  0.98812230  0.89417075  1
  O  O78  1  0.81643889  0.94505904  0.69001661  1
  O  O79  1  0.99528832  0.68274594  0.66775442  1
