# generated using pymatgen
data_Li4MnCo2O7
_symmetry_space_group_name_H-M   'P 1'
_cell_length_a   4.99305963
_cell_length_b   8.71414364
_cell_length_c   5.96850300
_cell_angle_alpha   91.37197063
_cell_angle_beta   78.03234914
_cell_angle_gamma   93.55101005
_symmetry_Int_Tables_number   1
_chemical_formula_structural   Li4MnCo2O7
_chemical_formula_sum   'Li8 Mn2 Co4 O14'
_cell_volume   253.54242192
_cell_formula_units_Z   2
loop_
 _symmetry_equiv_pos_site_id
 _symmetry_equiv_pos_as_xyz
  1  'x, y, z'
loop_
 _atom_site_type_symbol
 _atom_site_label
 _atom_site_symmetry_multiplicity
 _atom_site_fract_x
 _atom_site_fract_y
 _atom_site_fract_z
 _atom_site_occupancy
  Li  Li0  1  0.56901384  0.14335612  0.35771096  1
  Li  Li1  1  0.14114419  0.29171147  0.21696725  1
  Li  Li2  1  0.00241516  0.99950088  0.49943204  1
  Li  Li3  1  0.43028381  0.85114553  0.64017575  1
  Li  Li4  1  0.71037336  0.43013543  0.07218176  1
  Li  Li5  1  0.28571400  0.57142900  0.92857100  1
  Li  Li6  1  0.86105564  0.71272157  0.78496124  1
  Li  Li7  1  0.28571400  0.57142900  0.42857100  1
  Mn  Mn8  1  0.99731428  0.99655041  0.00294534  1
  Mn  Mn9  1  0.57411472  0.14630659  0.85419766  1
  Co  Co10  1  0.14557207  0.28896929  0.70979830  1
  Co  Co11  1  0.71698308  0.43362016  0.55651354  1
  Co  Co12  1  0.85444592  0.70923684  0.30062946  1
  Co  Co13  1  0.42585593  0.85388771  0.14734470  1
  O  O14  1  0.85236502  0.20224189  0.02954321  1
  O  O15  1  0.41579603  0.34963130  0.88709458  1
  O  O16  1  0.28103222  0.05645706  0.17393113  1
  O  O17  1  0.70028360  0.91318061  0.31694321  1
  O  O18  1  0.97931800  0.48126623  0.73775398  1
  O  O19  1  0.59245004  0.63199581  0.59640733  1
  O  O20  1  0.11796789  0.78028891  0.44602668  1
  O  O21  1  0.29039578  0.08640094  0.68321087  1
  O  O22  1  0.87114540  0.22967639  0.54019979  1
  O  O23  1  0.71906398  0.94061511  0.82759979  1
  O  O24  1  0.15563197  0.79322570  0.97004842  1
  O  O25  1  0.45346011  0.36256809  0.41111632  1
  O  O26  1  0.97897896  0.51086119  0.26073567  1
  O  O27  1  0.59211100  0.66159077  0.11938902  1
