# generated using pymatgen
data_Na3AsH22S2O13
_symmetry_space_group_name_H-M   'P 1'
_cell_length_a   12.63445058
_cell_length_b   14.32670028
_cell_length_c   9.68695690
_cell_angle_alpha   90.00000000
_cell_angle_beta   90.00000000
_cell_angle_gamma   90.00000000
_symmetry_Int_Tables_number   1
_chemical_formula_structural   Na3AsH22S2O13
_chemical_formula_sum   'Na12 As4 H88 S8 O52'
_cell_volume   1753.43593927
_cell_formula_units_Z   4
loop_
 _symmetry_equiv_pos_site_id
 _symmetry_equiv_pos_as_xyz
  1  'x, y, z'
loop_
 _atom_site_type_symbol
 _atom_site_label
 _atom_site_symmetry_multiplicity
 _atom_site_fract_x
 _atom_site_fract_y
 _atom_site_fract_z
 _atom_site_occupancy
  Na  Na0  1  0.72932918  0.09554631  0.50454779  1
  Na  Na1  1  0.22932918  0.40445369  0.99545221  1
  Na  Na2  1  0.27067082  0.59554631  0.49545221  1
  Na  Na3  1  0.77067082  0.90445369  0.00454779  1
  Na  Na4  1  0.27067082  0.90445369  0.49545221  1
  Na  Na5  1  0.77067082  0.59554631  0.00454779  1
  Na  Na6  1  0.72932918  0.40445369  0.50454779  1
  Na  Na7  1  0.22932918  0.09554631  0.99545221  1
  Na  Na8  1  0.50000000  0.00000000  0.50000000  1
  Na  Na9  1  0.00000000  0.50000000  0.00000000  1
  Na  Na10  1  0.50000000  0.50000000  0.50000000  1
  Na  Na11  1  0.00000000  0.00000000  0.00000000  1
  As  As12  1  0.08781806  0.25000000  0.46280301  1
  As  As13  1  0.58781806  0.25000000  0.03719699  1
  As  As14  1  0.91218194  0.75000000  0.53719699  1
  As  As15  1  0.41218194  0.75000000  0.96280301  1
  H  H16  1  0.56288941  0.14408704  0.28515215  1
  H  H17  1  0.06288941  0.35591296  0.21484785  1
  H  H18  1  0.43711059  0.64408704  0.71484785  1
  H  H19  1  0.93711059  0.85591296  0.78515215  1
  H  H20  1  0.43711059  0.85591296  0.71484785  1
  H  H21  1  0.93711059  0.64408704  0.78515215  1
  H  H22  1  0.56288941  0.35591296  0.28515215  1
  H  H23  1  0.06288941  0.14408704  0.21484785  1
  H  H24  1  0.51718940  0.18040729  0.42636769  1
  H  H25  1  0.01718940  0.31959271  0.07363231  1
  H  H26  1  0.48281060  0.68040729  0.57363231  1
  H  H27  1  0.98281060  0.81959271  0.92636769  1
  H  H28  1  0.48281060  0.81959271  0.57363231  1
  H  H29  1  0.98281060  0.68040729  0.92636769  1
  H  H30  1  0.51718940  0.31959271  0.42636769  1
  H  H31  1  0.01718940  0.18040729  0.07363231  1
  H  H32  1  0.66858853  0.55005983  0.30927670  1
  H  H33  1  0.16858853  0.94994017  0.19072330  1
  H  H34  1  0.33141147  0.05005983  0.69072330  1
  H  H35  1  0.83141147  0.44994017  0.80927670  1
  H  H36  1  0.33141147  0.44994017  0.69072330  1
  H  H37  1  0.83141147  0.05005983  0.80927670  1
  H  H38  1  0.66858853  0.94994017  0.30927670  1
  H  H39  1  0.16858853  0.55005983  0.19072330  1
  H  H40  1  0.69776724  0.61454015  0.43829901  1
  H  H41  1  0.19776724  0.88545985  0.06170099  1
  H  H42  1  0.30223276  0.11454015  0.56170099  1
  H  H43  1  0.80223276  0.38545985  0.93829901  1
  H  H44  1  0.30223276  0.38545985  0.56170099  1
  H  H45  1  0.80223276  0.11454015  0.93829901  1
  H  H46  1  0.69776724  0.88545985  0.43829901  1
  H  H47  1  0.19776724  0.61454015  0.06170099  1
  H  H48  1  0.06336790  0.56385870  0.38253046  1
  H  H49  1  0.56336790  0.93614130  0.11746954  1
  H  H50  1  0.93663210  0.06385870  0.61746954  1
  H  H51  1  0.43663210  0.43614130  0.88253046  1
  H  H52  1  0.93663210  0.43614130  0.61746954  1
  H  H53  1  0.43663210  0.06385870  0.88253046  1
  H  H54  1  0.06336790  0.93614130  0.38253046  1
  H  H55  1  0.56336790  0.56385870  0.11746954  1
  H  H56  1  0.09806884  0.45828638  0.39032939  1
  H  H57  1  0.59806884  0.04171362  0.10967061  1
  H  H58  1  0.90193116  0.95828638  0.60967061  1
  H  H59  1  0.40193116  0.54171362  0.89032939  1
  H  H60  1  0.90193116  0.54171362  0.60967061  1
  H  H61  1  0.40193116  0.95828638  0.89032939  1
  H  H62  1  0.09806884  0.04171362  0.39032939  1
  H  H63  1  0.59806884  0.45828638  0.10967061  1
  H  H64  1  0.81260569  0.15918865  0.23485231  1
  H  H65  1  0.31260569  0.34081135  0.26514769  1
  H  H66  1  0.18739431  0.65918865  0.76514769  1
  H  H67  1  0.68739431  0.84081135  0.73485231  1
  H  H68  1  0.18739431  0.84081135  0.76514769  1
  H  H69  1  0.68739431  0.65918865  0.73485231  1
  H  H70  1  0.81260569  0.34081135  0.23485231  1
  H  H71  1  0.31260569  0.15918865  0.26514769  1
  H  H72  1  0.91084534  0.13990948  0.33695786  1
  H  H73  1  0.41084534  0.36009052  0.16304214  1
  H  H74  1  0.08915466  0.63990948  0.66304214  1
  H  H75  1  0.58915466  0.86009052  0.83695786  1
  H  H76  1  0.08915466  0.86009052  0.66304214  1
  H  H77  1  0.58915466  0.63990948  0.83695786  1
  H  H78  1  0.91084534  0.36009052  0.33695786  1
  H  H79  1  0.41084534  0.13990948  0.16304214  1
  H  H80  1  0.36765571  0.49342078  0.25867339  1
  H  H81  1  0.86765571  0.00657922  0.24132661  1
  H  H82  1  0.63234429  0.99342078  0.74132661  1
  H  H83  1  0.13234429  0.50657922  0.75867339  1
  H  H84  1  0.63234429  0.50657922  0.74132661  1
  H  H85  1  0.13234429  0.99342078  0.75867339  1
  H  H86  1  0.36765571  0.00657922  0.25867339  1
  H  H87  1  0.86765571  0.49342078  0.24132661  1
  H  H88  1  0.40887729  0.59969263  0.24800272  1
  H  H89  1  0.90887729  0.90030737  0.25199728  1
  H  H90  1  0.59112271  0.09969263  0.75199728  1
  H  H91  1  0.09112271  0.40030737  0.74800272  1
  H  H92  1  0.59112271  0.40030737  0.75199728  1
  H  H93  1  0.09112271  0.09969263  0.74800272  1
  H  H94  1  0.40887729  0.90030737  0.24800272  1
  H  H95  1  0.90887729  0.59969263  0.25199728  1
  H  H96  1  0.16890218  0.75000000  0.34370441  1
  H  H97  1  0.66890218  0.75000000  0.15629559  1
  H  H98  1  0.83109782  0.25000000  0.65629559  1
  H  H99  1  0.33109782  0.25000000  0.84370441  1
  H  H100  1  0.28803141  0.75000000  0.29292611  1
  H  H101  1  0.78803141  0.75000000  0.20707389  1
  H  H102  1  0.71196859  0.25000000  0.70707389  1
  H  H103  1  0.21196859  0.25000000  0.79292611  1
  S  S104  1  0.26138531  0.25000000  0.45808176  1
  S  S105  1  0.76138531  0.25000000  0.04191824  1
  S  S106  1  0.73861469  0.75000000  0.54191824  1
  S  S107  1  0.23861469  0.75000000  0.95808176  1
  S  S108  1  0.52757620  0.25000000  0.82586980  1
  S  S109  1  0.02757620  0.25000000  0.67413020  1
  S  S110  1  0.47242380  0.75000000  0.17413020  1
  S  S111  1  0.97242380  0.75000000  0.32586980  1
  O  O112  1  0.04005170  0.15184394  0.37810147  1
  O  O113  1  0.54005170  0.34815606  0.12189853  1
  O  O114  1  0.95994830  0.65184394  0.62189853  1
  O  O115  1  0.45994830  0.84815606  0.87810147  1
  O  O116  1  0.95994830  0.84815606  0.62189853  1
  O  O117  1  0.45994830  0.65184394  0.87810147  1
  O  O118  1  0.04005170  0.34815606  0.37810147  1
  O  O119  1  0.54005170  0.15184394  0.12189853  1
  O  O120  1  0.56652815  0.13497720  0.38953523  1
  O  O121  1  0.06652815  0.36502280  0.11046477  1
  O  O122  1  0.43347185  0.63497720  0.61046477  1
  O  O123  1  0.93347185  0.86502280  0.88953523  1
  O  O124  1  0.43347185  0.86502280  0.61046477  1
  O  O125  1  0.93347185  0.63497720  0.88953523  1
  O  O126  1  0.56652815  0.36502280  0.38953523  1
  O  O127  1  0.06652815  0.13497720  0.11046477  1
  O  O128  1  0.66765690  0.55366300  0.41098018  1
  O  O129  1  0.16765690  0.94633700  0.08901982  1
  O  O130  1  0.33234310  0.05366300  0.58901982  1
  O  O131  1  0.83234310  0.44633700  0.91098018  1
  O  O132  1  0.33234310  0.44633700  0.58901982  1
  O  O133  1  0.83234310  0.05366300  0.91098018  1
  O  O134  1  0.66765690  0.94633700  0.41098018  1
  O  O135  1  0.16765690  0.55366300  0.08901982  1
  O  O136  1  0.12553470  0.52362793  0.37868190  1
  O  O137  1  0.62553470  0.97637207  0.12131810  1
  O  O138  1  0.87446530  0.02362793  0.62131810  1
  O  O139  1  0.37446530  0.47637207  0.87868190  1
  O  O140  1  0.87446530  0.47637207  0.62131810  1
  O  O141  1  0.37446530  0.02362793  0.87868190  1
  O  O142  1  0.12553470  0.97637207  0.37868190  1
  O  O143  1  0.62553470  0.52362793  0.12131810  1
  O  O144  1  0.83840949  0.11766351  0.30879182  1
  O  O145  1  0.33840949  0.38233649  0.19120818  1
  O  O146  1  0.16159051  0.61766351  0.69120818  1
  O  O147  1  0.66159051  0.88233649  0.80879182  1
  O  O148  1  0.16159051  0.88233649  0.69120818  1
  O  O149  1  0.66159051  0.61766351  0.80879182  1
  O  O150  1  0.83840949  0.38233649  0.30879182  1
  O  O151  1  0.33840949  0.11766351  0.19120818  1
  O  O152  1  0.38848462  0.54980347  0.31237165  1
  O  O153  1  0.88848462  0.95019653  0.18762835  1
  O  O154  1  0.61151538  0.04980347  0.68762835  1
  O  O155  1  0.11151538  0.45019653  0.81237165  1
  O  O156  1  0.61151538  0.45019653  0.68762835  1
  O  O157  1  0.11151538  0.04980347  0.81237165  1
  O  O158  1  0.38848462  0.95019653  0.31237165  1
  O  O159  1  0.88848462  0.54980347  0.18762835  1
  O  O160  1  0.75705496  0.25000000  0.62414618  1
  O  O161  1  0.25705496  0.25000000  0.87585382  1
  O  O162  1  0.24294504  0.75000000  0.37585382  1
  O  O163  1  0.74294504  0.75000000  0.12414618  1
