# generated using pymatgen
data_Ga2P3H11O13
_symmetry_space_group_name_H-M   'P 1'
_cell_length_a   8.18735307
_cell_length_b   10.14515000
_cell_length_c   7.77610854
_cell_angle_alpha   90.00000000
_cell_angle_beta   111.41339323
_cell_angle_gamma   90.00000000
_symmetry_Int_Tables_number   1
_chemical_formula_structural   Ga2P3H11O13
_chemical_formula_sum   'Ga4 P6 H22 O26'
_cell_volume   601.31248938
_cell_formula_units_Z   2
loop_
 _symmetry_equiv_pos_site_id
 _symmetry_equiv_pos_as_xyz
  1  'x, y, z'
loop_
 _atom_site_type_symbol
 _atom_site_label
 _atom_site_symmetry_multiplicity
 _atom_site_fract_x
 _atom_site_fract_y
 _atom_site_fract_z
 _atom_site_occupancy
  Ga  Ga0  1  0.97490253  0.84950061  0.93480776  1
  Ga  Ga1  1  0.02509747  0.34950061  0.06519224  1
  Ga  Ga2  1  0.62400656  0.57772836  0.41084589  1
  Ga  Ga3  1  0.37599344  0.07772836  0.58915411  1
  P  P4  1  0.65546244  0.87700068  0.54280512  1
  P  P5  1  0.34453756  0.37700068  0.45719488  1
  P  P6  1  0.00677875  0.57526880  0.74938057  1
  P  P7  1  0.99322125  0.07526880  0.25061943  1
  P  P8  1  0.07883222  0.13000599  0.77718905  1
  P  P9  1  0.92116778  0.63000599  0.22281095  1
  H  H10  1  0.79001424  0.89183173  0.47331760  1
  H  H11  1  0.20998576  0.39183173  0.52668240  1
  H  H12  1  0.08449646  0.54367391  0.62026304  1
  H  H13  1  0.91550354  0.04367391  0.37973696  1
  H  H14  1  0.91711537  0.17873072  0.65430475  1
  H  H15  1  0.08288463  0.67873072  0.34569525  1
  H  H16  1  0.24616260  0.90741578  0.23666327  1
  H  H17  1  0.75383740  0.40741578  0.76333673  1
  H  H18  1  0.69676187  0.26839424  0.83524566  1
  H  H19  1  0.30323813  0.76839424  0.16475434  1
  H  H20  1  0.33189681  0.52933186  0.11243281  1
  H  H21  1  0.66810319  0.02933186  0.88756719  1
  H  H22  1  0.46115253  0.61345539  0.04209627  1
  H  H23  1  0.53884747  0.11345539  0.95790373  1
  H  H24  1  0.60142490  0.31996430  0.26765090  1
  H  H25  1  0.39857510  0.81996430  0.73234910  1
  H  H26  1  0.77650357  0.39708407  0.28030074  1
  H  H27  1  0.22349643  0.89708407  0.71969926  1
  H  H28  1  0.63294276  0.68863148  0.88916446  1
  H  H29  1  0.36705724  0.18863148  0.11083554  1
  H  H30  1  0.48599354  0.61087774  0.73749432  1
  H  H31  1  0.51400646  0.11087774  0.26250568  1
  O  O32  1  0.73513182  0.86905543  0.75482994  1
  O  O33  1  0.26486818  0.36905543  0.24517006  1
  O  O34  1  0.06303920  0.98020032  0.79849770  1
  O  O35  1  0.93696080  0.48020032  0.20150230  1
  O  O36  1  0.05397724  0.72082471  0.79389165  1
  O  O37  1  0.94602276  0.22082471  0.20610835  1
  O  O38  1  0.87765890  0.70549906  0.04052692  1
  O  O39  1  0.12234110  0.20549906  0.95947308  1
  O  O40  1  0.90940265  0.98339797  0.08367344  1
  O  O41  1  0.09059735  0.48339797  0.91632656  1
  O  O42  1  0.22174927  0.84335162  0.13330270  1
  O  O43  1  0.77825073  0.34335162  0.86669730  1
  O  O44  1  0.55057468  0.75275210  0.45598080  1
  O  O45  1  0.44942532  0.25275210  0.54401920  1
  O  O46  1  0.80769713  0.54764134  0.65758089  1
  O  O47  1  0.19230287  0.04764134  0.34241911  1
  O  O48  1  0.21539154  0.15837127  0.68946723  1
  O  O49  1  0.78460846  0.65837127  0.31053277  1
  O  O50  1  0.45998216  0.50224063  0.51694066  1
  O  O51  1  0.54001784  0.00224063  0.48305934  1
  O  O52  1  0.42275161  0.59929157  0.14926075  1
  O  O53  1  0.57724839  0.09929157  0.85073925  1
  O  O54  1  0.68179935  0.39345787  0.33143193  1
  O  O55  1  0.31820065  0.89345787  0.66856807  1
  O  O56  1  0.50538610  0.66932042  0.84448800  1
  O  O57  1  0.49461390  0.16932042  0.15551200  1
