# generated using pymatgen
data_BaLa4TiCr4O15
_symmetry_space_group_name_H-M   'P 1'
_cell_length_a   5.58076123
_cell_length_b   27.82148268
_cell_length_c   9.61918112
_cell_angle_alpha   30.22802532
_cell_angle_beta   55.40176087
_cell_angle_gamma   60.62537918
_symmetry_Int_Tables_number   1
_chemical_formula_structural   BaLa4TiCr4O15
_chemical_formula_sum   'Ba2 La8 Ti2 Cr8 O30'
_cell_volume   618.93179195
_cell_formula_units_Z   2
loop_
 _symmetry_equiv_pos_site_id
 _symmetry_equiv_pos_as_xyz
  1  'x, y, z'
loop_
 _atom_site_type_symbol
 _atom_site_label
 _atom_site_symmetry_multiplicity
 _atom_site_fract_x
 _atom_site_fract_y
 _atom_site_fract_z
 _atom_site_occupancy
  Ba  Ba0  1  0.24986047  0.99734756  0.25660712  1
  Ba  Ba1  1  0.75038225  0.00216277  0.74445052  1
  La  La2  1  0.25206348  0.20182096  0.24536349  1
  La  La3  1  0.24922038  0.39984246  0.25049806  1
  La  La4  1  0.25214792  0.60292671  0.24198981  1
  La  La5  1  0.75030220  0.20198441  0.74495904  1
  La  La6  1  0.25115995  0.79746591  0.25560239  1
  La  La7  1  0.75065750  0.39715737  0.75736141  1
  La  La8  1  0.74839590  0.59957935  0.75170264  1
  La  La9  1  0.74656428  0.79728260  0.75666356  1
  Ti  Ti10  1  0.99967969  0.99971651  0.00059481  1
  Ti  Ti11  1  0.50038655  0.99980305  0.50038991  1
  Cr  Cr12  1  0.99580389  0.20269440  0.99396235  1
  Cr  Cr13  1  0.99954479  0.40159666  0.99704091  1
  Cr  Cr14  1  0.50478085  0.20273769  0.49298142  1
  Cr  Cr15  1  0.00442612  0.79682415  0.00700511  1
  Cr  Cr16  1  0.50035913  0.40152049  0.49531062  1
  Cr  Cr17  1  0.49907677  0.59791341  0.50602480  1
  Cr  Cr18  1  0.00086247  0.59797957  0.00389211  1
  Cr  Cr19  1  0.49599084  0.79694013  0.50749524  1
  O  O20  1  0.29884485  0.11179460  0.20037987  1
  O  O21  1  0.25149825  0.01834478  0.70377697  1
  O  O22  1  0.20037587  0.11208900  0.74026602  1
  O  O23  1  0.31558915  0.31684273  0.18091855  1
  O  O24  1  0.77352064  0.09540492  0.24021801  1
  O  O25  1  0.24991364  0.22598426  0.68534866  1
  O  O26  1  0.74803232  0.19167827  0.27119820  1
  O  O27  1  0.18579528  0.31574310  0.73911945  1
  O  O28  1  0.72677708  0.09514286  0.78294130  1
  O  O29  1  0.32249424  0.51419585  0.17724921  1
  O  O30  1  0.82390451  0.28691743  0.25130444  1
  O  O31  1  0.24965274  0.42905347  0.67749991  1
  O  O32  1  0.74970205  0.37139938  0.32154732  1
  O  O33  1  0.17372375  0.51533058  0.74993081  1
  O  O34  1  0.67913289  0.28824422  0.81151399  1
  O  O35  1  0.31944476  0.71161229  0.19071558  1
  O  O36  1  0.82326116  0.48564689  0.24690110  1
  O  O37  1  0.25448424  0.62819274  0.67934595  1
  O  O38  1  0.74464272  0.57080924  0.32273870  1
  O  O39  1  0.17783436  0.71089331  0.75736841  1
  O  O40  1  0.67578690  0.48398021  0.82572225  1
  O  O41  1  0.27217896  0.90378138  0.21971908  1
  O  O42  1  0.81567881  0.68393621  0.25907512  1
  O  O43  1  0.26036489  0.80800812  0.72929427  1
  O  O44  1  0.74631071  0.77325618  0.31627919  1
  O  O45  1  0.22643864  0.90405595  0.76149707  1
  O  O46  1  0.68961533  0.68417525  0.81532288  1
  O  O47  1  0.80071024  0.88800445  0.25767672  1
  O  O48  1  0.74954054  0.98142397  0.29622526  1
  O  O49  1  0.70238303  0.88770822  0.79981737  1
