# generated using pymatgen
data_Ca2CdH24(ClO2)6
_symmetry_space_group_name_H-M   'P 1'
_cell_length_a   8.84195514
_cell_length_b   10.25630956
_cell_length_c   12.74744742
_cell_angle_alpha   90.00000000
_cell_angle_beta   113.47527695
_cell_angle_gamma   90.00000000
_symmetry_Int_Tables_number   1
_chemical_formula_structural   Ca2CdH24(ClO2)6
_chemical_formula_sum   'Ca4 Cd2 H48 Cl12 O24'
_cell_volume   1060.33202268
_cell_formula_units_Z   2
loop_
 _symmetry_equiv_pos_site_id
 _symmetry_equiv_pos_as_xyz
  1  'x, y, z'
loop_
 _atom_site_type_symbol
 _atom_site_label
 _atom_site_symmetry_multiplicity
 _atom_site_fract_x
 _atom_site_fract_y
 _atom_site_fract_z
 _atom_site_occupancy
  Ca  Ca0  1  0.73903965  0.46094798  0.86704542  1
  Ca  Ca1  1  0.26096035  0.96094798  0.63295458  1
  Ca  Ca2  1  0.26096035  0.53905202  0.13295458  1
  Ca  Ca3  1  0.73903965  0.03905202  0.36704542  1
  Cd  Cd4  1  0.00000000  0.50000000  0.50000000  1
  Cd  Cd5  1  0.00000000  0.00000000  0.00000000  1
  H  H6  1  0.83586203  0.65126394  0.72466221  1
  H  H7  1  0.16413797  0.15126394  0.77533779  1
  H  H8  1  0.16413797  0.34873606  0.27533779  1
  H  H9  1  0.83586203  0.84873606  0.22466221  1
  H  H10  1  0.93640851  0.70059744  0.85167569  1
  H  H11  1  0.06359149  0.20059744  0.64832431  1
  H  H12  1  0.06359149  0.29940256  0.14832431  1
  H  H13  1  0.93640851  0.79940256  0.35167569  1
  H  H14  1  0.44772110  0.47350573  0.63284523  1
  H  H15  1  0.55227890  0.97350573  0.86715477  1
  H  H16  1  0.55227890  0.52649427  0.36715477  1
  H  H17  1  0.44772110  0.02649427  0.13284523  1
  H  H18  1  0.59701160  0.52701017  0.61045642  1
  H  H19  1  0.40298840  0.02701017  0.88954358  1
  H  H20  1  0.40298840  0.47298983  0.38954358  1
  H  H21  1  0.59701160  0.97298983  0.11045642  1
  H  H22  1  0.42778478  0.59808928  0.88011855  1
  H  H23  1  0.57221522  0.09808928  0.61988145  1
  H  H24  1  0.57221522  0.40191072  0.11988145  1
  H  H25  1  0.42778478  0.90191072  0.38011855  1
  H  H26  1  0.58034754  0.69321543  0.92697796  1
  H  H27  1  0.41965246  0.19321543  0.57302204  1
  H  H28  1  0.41965246  0.30678457  0.07302204  1
  H  H29  1  0.58034754  0.80678457  0.42697796  1
  H  H30  1  0.80600364  0.31598141  0.66998449  1
  H  H31  1  0.19399636  0.81598141  0.83001551  1
  H  H32  1  0.19399636  0.68401859  0.33001551  1
  H  H33  1  0.80600364  0.18401859  0.16998449  1
  H  H34  1  0.81827297  0.21297800  0.76271409  1
  H  H35  1  0.18172703  0.71297800  0.73728591  1
  H  H36  1  0.18172703  0.78702200  0.23728591  1
  H  H37  1  0.81827297  0.28702200  0.26271409  1
  H  H38  1  0.38737991  0.34763106  0.79673050  1
  H  H39  1  0.61262009  0.84763106  0.70326950  1
  H  H40  1  0.61262009  0.65236894  0.20326950  1
  H  H41  1  0.38737991  0.15236894  0.29673050  1
  H  H42  1  0.50274093  0.22451686  0.83346716  1
  H  H43  1  0.49725907  0.72451686  0.66653284  1
  H  H44  1  0.49725907  0.77548314  0.16653284  1
  H  H45  1  0.50274093  0.27548314  0.33346716  1
  H  H46  1  0.89524394  0.53407490  0.12514306  1
  H  H47  1  0.10475606  0.03407490  0.37485694  1
  H  H48  1  0.10475606  0.46592510  0.87485694  1
  H  H49  1  0.89524394  0.96592510  0.62514306  1
  H  H50  1  0.88870348  0.65787640  0.05348390  1
  H  H51  1  0.11129652  0.15787640  0.44651610  1
  H  H52  1  0.11129652  0.34212360  0.94651610  1
  H  H53  1  0.88870348  0.84212360  0.55348390  1
  Cl  Cl54  1  0.16869201  0.49869754  0.72813300  1
  Cl  Cl55  1  0.83130799  0.99869754  0.77186700  1
  Cl  Cl56  1  0.83130799  0.50130246  0.27186700  1
  Cl  Cl57  1  0.16869201  0.00130246  0.22813300  1
  Cl  Cl58  1  0.23936408  0.36016218  0.47201596  1
  Cl  Cl59  1  0.76063592  0.86016218  0.02798404  1
  Cl  Cl60  1  0.76063592  0.63983782  0.52798404  1
  Cl  Cl61  1  0.23936408  0.13983782  0.97201596  1
  Cl  Cl62  1  0.84466328  0.28018238  0.51404589  1
  Cl  Cl63  1  0.15533672  0.78018238  0.98595411  1
  Cl  Cl64  1  0.15533672  0.71981762  0.48595411  1
  Cl  Cl65  1  0.84466328  0.21981762  0.01404589  1
  O  O66  1  0.84152621  0.64658799  0.80307435  1
  O  O67  1  0.15847379  0.14658799  0.69692565  1
  O  O68  1  0.15847379  0.35341201  0.19692565  1
  O  O69  1  0.84152621  0.85341201  0.30307435  1
  O  O70  1  0.54838302  0.52654470  0.66760353  1
  O  O71  1  0.45161698  0.02654470  0.83239647  1
  O  O72  1  0.45161698  0.47345530  0.33239647  1
  O  O73  1  0.54838302  0.97345530  0.16760353  1
  O  O74  1  0.54774234  0.60118228  0.90779108  1
  O  O75  1  0.45225766  0.10118228  0.59220892  1
  O  O76  1  0.45225766  0.39881772  0.09220892  1
  O  O77  1  0.54774234  0.89881772  0.40779108  1
  O  O78  1  0.79832485  0.30654050  0.74485854  1
  O  O79  1  0.20167515  0.80654050  0.75514146  1
  O  O80  1  0.20167515  0.69345950  0.25514146  1
  O  O81  1  0.79832485  0.19345950  0.24485854  1
  O  O82  1  0.50269196  0.31983812  0.82499886  1
  O  O83  1  0.49730804  0.81983812  0.67500114  1
  O  O84  1  0.49730804  0.68016188  0.17500114  1
  O  O85  1  0.50269196  0.18016188  0.32499886  1
  O  O86  1  0.90895659  0.56321636  0.05527941  1
  O  O87  1  0.09104341  0.06321636  0.44472059  1
  O  O88  1  0.09104341  0.43678364  0.94472059  1
  O  O89  1  0.90895659  0.93678364  0.55527941  1
