# generated using pymatgen
data_TaS2
_symmetry_space_group_name_H-M   'P 1'
_cell_length_a   3.37291660
_cell_length_b   3.37291660
_cell_length_c   12.94497040
_cell_angle_alpha   82.51428441
_cell_angle_beta   82.51428441
_cell_angle_gamma   60.00002087
_symmetry_Int_Tables_number   1
_chemical_formula_structural   TaS2
_chemical_formula_sum   'Ta2 S4'
_cell_volume   126.08762222
_cell_formula_units_Z   2
loop_
 _symmetry_equiv_pos_site_id
 _symmetry_equiv_pos_as_xyz
  1  'x, y, z'
loop_
 _atom_site_type_symbol
 _atom_site_label
 _atom_site_symmetry_multiplicity
 _atom_site_fract_x
 _atom_site_fract_y
 _atom_site_fract_z
 _atom_site_occupancy
  Ta  Ta0  1  0.08291447  0.08291447  0.75125659  1
  Ta  Ta1  1  0.91708553  0.91708553  0.24874341  1
  S  S2  1  0.21034580  0.21034580  0.36896259  1
  S  S3  1  0.78965420  0.78965420  0.63103741  1
  S  S4  1  0.37618228  0.37618228  0.87145316  1
  S  S5  1  0.62381772  0.62381772  0.12854684  1
