# generated using pymatgen
data_Ce3Th2O9
_symmetry_space_group_name_H-M   'P 1'
_cell_length_a   3.92023661
_cell_length_b   10.42711944
_cell_length_c   5.62091819
_cell_angle_alpha   105.65956174
_cell_angle_beta   89.98834582
_cell_angle_gamma   79.14799529
_symmetry_Int_Tables_number   1
_chemical_formula_structural   Ce3Th2O9
_chemical_formula_sum   'Ce3 Th2 O9'
_cell_volume   216.96379419
_cell_formula_units_Z   1
loop_
 _symmetry_equiv_pos_site_id
 _symmetry_equiv_pos_as_xyz
  1  'x, y, z'
loop_
 _atom_site_type_symbol
 _atom_site_label
 _atom_site_symmetry_multiplicity
 _atom_site_fract_x
 _atom_site_fract_y
 _atom_site_fract_z
 _atom_site_occupancy
  Ce  Ce0  1  0.60629508  0.79033048  0.40534283  1
  Ce  Ce1  1  0.00102530  0.00029016  0.95788614  1
  Ce  Ce2  1  0.39607417  0.20979362  0.61351211  1
  Th  Th3  1  0.80252102  0.39470781  0.20163572  1
  Th  Th4  1  0.19729823  0.60480044  0.80635159  1
  O  O5  1  0.08588775  0.82572490  0.15453775  1
  O  O6  1  0.69790916  0.60337503  0.05776412  1
  O  O7  1  0.70314568  0.59629527  0.55505773  1
  O  O8  1  0.91270753  0.17618108  0.32755933  1
  O  O9  1  0.30281866  0.39694008  0.45247016  1
  O  O10  1  0.10508707  0.79287779  0.64009561  1
  O  O11  1  0.29831858  0.40321238  0.95568092  1
  O  O12  1  0.89754231  0.20626536  0.84522427  1
  O  O13  1  0.50176343  -0.00004641  0.73819871  1
