# generated using pymatgen
data_TaCuO3
_symmetry_space_group_name_H-M   'P 1'
_cell_length_a   6.43912234
_cell_length_b   6.43912234
_cell_length_c   6.82324853
_cell_angle_alpha   89.82698396
_cell_angle_beta   90.17301604
_cell_angle_gamma   96.06245510
_symmetry_Int_Tables_number   1
_chemical_formula_structural   TaCuO3
_chemical_formula_sum   'Ta4 Cu4 O12'
_cell_volume   281.32303457
_cell_formula_units_Z   4
loop_
 _symmetry_equiv_pos_site_id
 _symmetry_equiv_pos_as_xyz
  1  'x, y, z'
loop_
 _atom_site_type_symbol
 _atom_site_label
 _atom_site_symmetry_multiplicity
 _atom_site_fract_x
 _atom_site_fract_y
 _atom_site_fract_z
 _atom_site_occupancy
  Ta  Ta0  1  0.25285396  0.74714604  0.23379650  1
  Ta  Ta1  1  0.20032541  0.20032541  0.00000000  1
  Ta  Ta2  1  0.79967459  0.79967459  0.00000000  1
  Ta  Ta3  1  0.74714604  0.25285396  0.76620350  1
  Cu  Cu4  1  0.22253545  0.77746555  0.70794721  1
  Cu  Cu5  1  0.15711391  0.15711391  0.50000000  1
  Cu  Cu6  1  0.84288609  0.84288609  0.50000000  1
  Cu  Cu7  1  0.77746555  0.22253545  0.29205279  1
  O  O8  1  0.12923331  0.87076669  0.94495337  1
  O  O9  1  0.32235850  0.67764150  0.48335787  1
  O  O10  1  0.21042567  0.46919399  0.11138652  1
  O  O11  1  0.53080601  0.78957433  0.11138652  1
  O  O12  1  0.06701090  0.26196832  0.74049037  1
  O  O13  1  0.73803168  0.93298910  0.74049037  1
  O  O14  1  0.93298910  0.73803168  0.25950963  1
  O  O15  1  0.26196832  0.06701090  0.25950963  1
  O  O16  1  0.78957433  0.53080601  0.88861348  1
  O  O17  1  0.46919399  0.21042567  0.88861348  1
  O  O18  1  0.67764150  0.32235850  0.51664213  1
  O  O19  1  0.87076669  0.12923331  0.05504663  1
