# generated using pymatgen
data_Ce3Th3O11
_symmetry_space_group_name_H-M   'P 1'
_cell_length_a   3.93259480
_cell_length_b   6.87375223
_cell_length_c   9.67567407
_cell_angle_alpha   90.04353041
_cell_angle_beta   90.00000000
_cell_angle_gamma   90.00000000
_symmetry_Int_Tables_number   1
_chemical_formula_structural   Ce3Th3O11
_chemical_formula_sum   'Ce3 Th3 O11'
_cell_volume   261.54967180
_cell_formula_units_Z   1
loop_
 _symmetry_equiv_pos_site_id
 _symmetry_equiv_pos_as_xyz
  1  'x, y, z'
loop_
 _atom_site_type_symbol
 _atom_site_label
 _atom_site_symmetry_multiplicity
 _atom_site_fract_x
 _atom_site_fract_y
 _atom_site_fract_z
 _atom_site_occupancy
  Ce  Ce0  1  0.50000000  0.83025156  0.65586503  1
  Ce  Ce1  1  0.50000000  0.48452717  0.00021084  1
  Ce  Ce2  1  0.00000000  0.01283074  0.00628756  1
  Th  Th3  1  0.00000000  0.33819218  0.67267975  1
  Th  Th4  1  0.00000000  0.66786856  0.32855631  1
  Th  Th5  1  0.50000000  0.16686752  0.33559475  1
  O  O6  1  0.50000000  0.83307208  0.41311062  1
  O  O7  1  0.00000000  0.33154485  0.91795870  1
  O  O8  1  0.50000000  0.51641349  0.75854623  1
  O  O9  1  0.00000000  0.66208497  0.57603837  1
  O  O10  1  0.00000000  0.98032316  0.76778701  1
  O  O11  1  0.50000000  0.17130867  0.58907199  1
  O  O12  1  0.00000000  0.33396020  0.41759901  1
  O  O13  1  0.50000000  0.49712464  0.24531628  1
  O  O14  1  0.00000000  0.68603414  0.06569298  1
  O  O15  1  0.00000000  0.00308187  0.25483293  1
  O  O16  1  0.50000000  0.15118120  0.07818463  1
