# generated using pymatgen
data_Li4MnCo2O7
_symmetry_space_group_name_H-M   'P 1'
_cell_length_a   5.00530672
_cell_length_b   5.78735414
_cell_length_c   9.37193254
_cell_angle_alpha   90.65682193
_cell_angle_beta   100.01081362
_cell_angle_gamma   73.35973675
_symmetry_Int_Tables_number   1
_chemical_formula_structural   Li4MnCo2O7
_chemical_formula_sum   'Li8 Mn2 Co4 O14'
_cell_volume   255.94057216
_cell_formula_units_Z   2
loop_
 _symmetry_equiv_pos_site_id
 _symmetry_equiv_pos_as_xyz
  1  'x, y, z'
loop_
 _atom_site_type_symbol
 _atom_site_label
 _atom_site_symmetry_multiplicity
 _atom_site_fract_x
 _atom_site_fract_y
 _atom_site_fract_z
 _atom_site_occupancy
  Li  Li0  1  0.56546482  0.36168851  0.14737255  1
  Li  Li1  1  0.28918424  0.92584343  0.56914994  1
  Li  Li2  1  0.13938676  0.21701357  0.28799306  1
  Li  Li3  1  0.86310718  0.78116849  0.70977045  1
  Li  Li4  1  0.71428600  0.07142900  0.42857100  1
  Li  Li5  1  0.43294209  0.63966628  0.85677843  1
  Li  Li6  1  0.99562891  0.50319072  0.00036457  1
  Li  Li7  1  0.71428600  0.57142900  0.42857100  1
  Mn  Mn8  1  0.00226692  0.99711086  0.00379867  1
  Mn  Mn9  1  0.42630408  0.14574614  0.85334433  1
  Co  Co10  1  0.14628618  0.71377536  0.29636360  1
  Co  Co11  1  0.85688081  0.28646893  0.71034678  1
  Co  Co12  1  0.57169119  0.85638807  0.14679622  1
  Co  Co13  1  0.28228482  0.42908164  0.56077940  1
  O  O14  1  0.71485404  0.30355323  0.93286535  1
  O  O15  1  0.40054954  0.87743478  0.35094894  1
  O  O16  1  0.29191718  0.15414511  0.07483851  1
  O  O17  1  0.02347195  0.73055959  0.49760415  1
  O  O18  1  0.85221296  0.01456007  0.21804202  1
  O  O19  1  0.56107215  0.57487809  0.64447103  1
  O  O20  1  0.13574122  0.44748976  0.78376761  1
  O  O21  1  0.40509905  0.41229741  0.35953885  1
  O  O22  1  0.13665482  0.98871189  0.78230449  1
  O  O23  1  0.02802246  0.26542322  0.50619306  1
  O  O24  1  0.71371696  0.83930377  0.92427765  1
  O  O25  1  0.57635804  0.12829693  0.63910098  1
  O  O26  1  0.29282978  0.69536724  0.07337539  1
  O  O27  1  0.86749985  0.56797891  0.21267197  1
