# generated using pymatgen
data_BaTl2O4
_symmetry_space_group_name_H-M   'P 1'
_cell_length_a   3.59190920
_cell_length_b   6.05333165
_cell_length_c   11.05594230
_cell_angle_alpha   90.00000000
_cell_angle_beta   90.00000000
_cell_angle_gamma   107.25882194
_symmetry_Int_Tables_number   1
_chemical_formula_structural   BaTl2O4
_chemical_formula_sum   'Ba2 Tl4 O8'
_cell_volume   229.56583465
_cell_formula_units_Z   2
loop_
 _symmetry_equiv_pos_site_id
 _symmetry_equiv_pos_as_xyz
  1  'x, y, z'
loop_
 _atom_site_type_symbol
 _atom_site_label
 _atom_site_symmetry_multiplicity
 _atom_site_fract_x
 _atom_site_fract_y
 _atom_site_fract_z
 _atom_site_occupancy
  Ba  Ba0  1  0.10805080  0.21610259  0.25000000  1
  Ba  Ba1  1  0.89194920  0.78389741  0.75000000  1
  Tl  Tl2  1  0.36375028  0.72750056  0.43203205  1
  Tl  Tl3  1  0.36375028  0.72750056  0.06796795  1
  Tl  Tl4  1  0.63624972  0.27249944  0.56796795  1
  Tl  Tl5  1  0.63624972  0.27249944  0.93203205  1
  O  O6  1  0.00000000  0.00000000  0.00000000  1
  O  O7  1  0.00000000  0.00000000  0.50000000  1
  O  O8  1  0.43952667  0.87905433  0.25000000  1
  O  O9  1  0.27046261  0.54092621  0.60683516  1
  O  O10  1  0.27046261  0.54092621  0.89316484  1
  O  O11  1  0.56047333  0.12094567  0.75000000  1
  O  O12  1  0.72953739  0.45907379  0.39316484  1
  O  O13  1  0.72953739  0.45907379  0.10683516  1
