# generated using pymatgen
data_Gd2HfO5
_symmetry_space_group_name_H-M   'P 1'
_cell_length_a   4.14786859
_cell_length_b   6.07581224
_cell_length_c   10.97259950
_cell_angle_alpha   90.00000000
_cell_angle_beta   90.00000000
_cell_angle_gamma   109.95870612
_symmetry_Int_Tables_number   1
_chemical_formula_structural   Gd2HfO5
_chemical_formula_sum   'Gd4 Hf2 O10'
_cell_volume   259.91926663
_cell_formula_units_Z   2
loop_
 _symmetry_equiv_pos_site_id
 _symmetry_equiv_pos_as_xyz
  1  'x, y, z'
loop_
 _atom_site_type_symbol
 _atom_site_label
 _atom_site_symmetry_multiplicity
 _atom_site_fract_x
 _atom_site_fract_y
 _atom_site_fract_z
 _atom_site_occupancy
  Gd  Gd0  1  0.13871684  0.27743467  0.56738704  1
  Gd  Gd1  1  0.13871684  0.27743467  0.93261296  1
  Gd  Gd2  1  0.86128316  0.72256533  0.06738704  1
  Gd  Gd3  1  0.86128316  0.72256533  0.43261296  1
  Hf  Hf4  1  0.17665818  0.35331636  0.25000000  1
  Hf  Hf5  1  0.82334182  0.64668364  0.75000000  1
  O  O6  1  0.05010234  0.10020469  0.11989863  1
  O  O7  1  0.05010234  0.10020469  0.38010137  1
  O  O8  1  0.28979678  0.57959356  0.40926111  1
  O  O9  1  0.28979678  0.57959356  0.09073889  1
  O  O10  1  0.26968129  0.53936259  0.75000000  1
  O  O11  1  0.73031871  0.46063741  0.25000000  1
  O  O12  1  0.94989766  0.89979531  0.61989863  1
  O  O13  1  0.94989766  0.89979531  0.88010137  1
  O  O14  1  0.71020322  0.42040644  0.59073889  1
  O  O15  1  0.71020322  0.42040644  0.90926111  1
