# generated using pymatgen
data_Rb3Nb20O34
_symmetry_space_group_name_H-M   'P 1'
_cell_length_a   13.56551888
_cell_length_b   6.08252450
_cell_length_c   10.53426105
_cell_angle_alpha   89.98010537
_cell_angle_beta   75.07503003
_cell_angle_gamma   90.00759954
_symmetry_Int_Tables_number   1
_chemical_formula_structural   Rb3Nb20O34
_chemical_formula_sum   'Rb3 Nb20 O34'
_cell_volume   839.88549733
_cell_formula_units_Z   1
loop_
 _symmetry_equiv_pos_site_id
 _symmetry_equiv_pos_as_xyz
  1  'x, y, z'
loop_
 _atom_site_type_symbol
 _atom_site_label
 _atom_site_symmetry_multiplicity
 _atom_site_fract_x
 _atom_site_fract_y
 _atom_site_fract_z
 _atom_site_occupancy
  Rb  Rb0  1  0.43928806  0.00032063  0.87103288  1
  Rb  Rb1  1  0.56921545  0.49899791  0.64269579  1
  Rb  Rb2  1  0.44165280  0.49893544  0.33775266  1
  Nb  Nb3  1  0.91196701  0.22812410  0.95369710  1
  Nb  Nb4  1  0.66976956  0.49999225  0.94513790  1
  Nb  Nb5  1  0.91162711  0.77238498  0.95404425  1
  Nb  Nb6  1  0.73025217  0.00072099  0.75961409  1
  Nb  Nb7  1  0.08768841  0.99947529  0.81939778  1
  Nb  Nb8  1  0.91120022  0.50064842  0.68219588  1
  Nb  Nb9  1  0.27076079  0.49755206  0.74483920  1
  Nb  Nb10  1  0.91080898  0.27187947  0.45317125  1
  Nb  Nb11  1  0.67087411  0.99924231  0.43988239  1
  Nb  Nb12  1  0.32864741  0.00033740  0.56000080  1
  Nb  Nb13  1  0.91071872  0.72880989  0.45325535  1
  Nb  Nb14  1  0.91125246  0.99964781  0.18074573  1
  Nb  Nb15  1  0.08858509  0.27184513  0.54722812  1
  Nb  Nb16  1  0.08878797  0.72894131  0.54670394  1
  Nb  Nb17  1  0.72926177  0.49879228  0.25369370  1
  Nb  Nb18  1  0.27211750  0.00135926  0.24258446  1
  Nb  Nb19  1  0.08825673  0.50042043  0.31836479  1
  Nb  Nb20  1  0.32620142  0.50054257  0.05349554  1
  Nb  Nb21  1  0.08720305  0.22719922  0.04732318  1
  Nb  Nb22  1  0.08751450  0.77272448  0.04659740  1
  O  O23  1  0.81559005  0.00077809  0.88881473  1
  O  O24  1  0.81608238  0.50032544  0.89504220  1
  O  O25  1  0.62979309  0.24876883  0.86577130  1
  O  O26  1  0.63322246  0.99953727  0.62549935  1
  O  O27  1  0.81608096  0.24667071  0.64443810  1
  O  O28  1  0.18607638  0.25316309  0.85465637  1
  O  O29  1  0.63060331  0.75207592  0.86573584  1
  O  O30  1  0.37719759  0.49867071  0.86852774  1
  O  O31  1  0.37551913  0.25523763  0.62897002  1
  O  O32  1  0.81615792  0.75428876  0.64459602  1
  O  O33  1  0.81682184  0.00056999  0.39297347  1
  O  O34  1  0.18218239  0.00040403  0.60730387  1
  O  O35  1  0.18519859  0.74652909  0.85426487  1
  O  O36  1  0.99984658  0.25083394  0.74922008  1
  O  O37  1  0.37142363  0.74279687  0.63129499  1
  O  O38  1  0.18410603  0.50015202  0.60797371  1
  O  O39  1  0.99978675  0.74980035  0.74931770  1
  O  O40  1  0.99967680  0.00023410  0.50036866  1
  O  O41  1  0.81537657  0.50018342  0.39265870  1
  O  O42  1  0.62794602  0.26109149  0.37568234  1
  O  O43  1  0.36718359  0.99962482  0.37513210  1
  O  O44  1  0.81502968  0.25738480  0.14734283  1
  O  O45  1  0.18364756  0.24659404  0.35495821  1
  O  O46  1  0.63024058  0.73618734  0.37382419  1
  O  O47  1  0.62994303  0.49951160  0.12989419  1
  O  O48  1  0.36830163  0.24650858  0.12698286  1
  O  O49  1  0.81490499  0.74291188  0.14756759  1
  O  O50  1  0.18427617  0.00043760  0.10882591  1
  O  O51  1  0.99925780  0.25028015  0.25128136  1
  O  O52  1  0.18367594  0.75300064  0.35466493  1
  O  O53  1  0.36627766  0.75600430  0.12814891  1
  O  O54  1  0.17980374  0.50005646  0.10597635  1
  O  O55  1  0.99936230  0.75000954  0.25119864  1
  O  O56  1  0.99969857  0.50048387  0.99965772  1
