# generated using pymatgen
data_Bi6O5F8
_symmetry_space_group_name_H-M   'P 1'
_cell_length_a   5.86703395
_cell_length_b   34.51274085
_cell_length_c   5.77174992
_cell_angle_alpha   90.00000000
_cell_angle_beta   90.00000000
_cell_angle_gamma   90.14737901
_symmetry_Int_Tables_number   1
_chemical_formula_structural   Bi6O5F8
_chemical_formula_sum   'Bi24 O20 F32'
_cell_volume   1168.70289700
_cell_formula_units_Z   4
loop_
 _symmetry_equiv_pos_site_id
 _symmetry_equiv_pos_as_xyz
  1  'x, y, z'
loop_
 _atom_site_type_symbol
 _atom_site_label
 _atom_site_symmetry_multiplicity
 _atom_site_fract_x
 _atom_site_fract_y
 _atom_site_fract_z
 _atom_site_occupancy
  Bi  Bi0  1  0.28282176  0.00017853  0.74735862  1
  Bi  Bi1  1  0.28282176  0.50017853  0.75264138  1
  Bi  Bi2  1  0.27285789  0.25137369  0.29084904  1
  Bi  Bi3  1  0.27285789  0.75137369  0.20915096  1
  Bi  Bi4  1  0.28698780  0.33540118  0.73233459  1
  Bi  Bi5  1  0.29413303  0.66544958  0.79647366  1
  Bi  Bi6  1  0.28698780  0.83540118  0.76766541  1
  Bi  Bi7  1  0.29413303  0.16544958  0.70352634  1
  Bi  Bi8  1  0.29342414  0.08239926  0.27351239  1
  Bi  Bi9  1  0.29284775  0.41718060  0.28194160  1
  Bi  Bi10  1  0.29342414  0.58239926  0.22648761  1
  Bi  Bi11  1  0.29284775  0.91718060  0.21805840  1
  Bi  Bi12  1  0.70715225  0.08281940  0.78194160  1
  Bi  Bi13  1  0.70657586  0.91760074  0.72648761  1
  Bi  Bi14  1  0.70715225  0.58281940  0.71805840  1
  Bi  Bi15  1  0.70657586  0.41760074  0.77351239  1
  Bi  Bi16  1  0.71301220  0.16459882  0.23233459  1
  Bi  Bi17  1  0.70586697  0.83455042  0.29647366  1
  Bi  Bi18  1  0.71301220  0.66459882  0.26766541  1
  Bi  Bi19  1  0.70586697  0.33455042  0.20352634  1
  Bi  Bi20  1  0.72714211  0.74862631  0.70915096  1
  Bi  Bi21  1  0.72714211  0.24862631  0.79084904  1
  Bi  Bi22  1  0.71717824  0.49982147  0.24735862  1
  Bi  Bi23  1  0.71717824  0.99982147  0.25264138  1
  O  O24  1  0.47598153  0.28978303  0.01320884  1
  O  O25  1  0.47598153  0.78978303  0.48679116  1
  O  O26  1  0.47875093  0.87390625  0.50935479  1
  O  O27  1  0.48420911  0.62704737  0.50943452  1
  O  O28  1  0.47875093  0.37390625  0.99064521  1
  O  O29  1  0.48420911  0.12704737  0.99056548  1
  O  O30  1  0.49165357  0.54198501  0.48318997  1
  O  O31  1  0.49165357  0.04198501  0.01681003  1
  O  O32  1  0.49018093  0.45778831  0.01749610  1
  O  O33  1  0.49018093  0.95778831  0.48250390  1
  O  O34  1  0.50981907  0.54221169  0.98250390  1
  O  O35  1  0.50834643  0.45801499  0.51681003  1
  O  O36  1  0.50981907  0.04221169  0.51749610  1
  O  O37  1  0.50834643  0.95801499  0.98318997  1
  O  O38  1  0.51579089  0.87295263  0.00943452  1
  O  O39  1  0.52124907  0.62609375  0.00935479  1
  O  O40  1  0.51579089  0.37295263  0.49056548  1
  O  O41  1  0.52124907  0.12609375  0.49064521  1
  O  O42  1  0.52401847  0.21021697  0.51320884  1
  O  O43  1  0.52401847  0.71021697  0.98679116  1
  F  F44  1  0.03478122  0.03593173  0.42976490  1
  F  F45  1  0.02832934  0.46324594  0.43227220  1
  F  F46  1  0.03478122  0.53593173  0.07023510  1
  F  F47  1  0.02832934  0.96324594  0.06772780  1
  F  F48  1  0.07637404  0.11044105  0.61450656  1
  F  F49  1  0.07936077  0.38991740  0.62978245  1
  F  F50  1  0.07637404  0.61044105  0.88549344  1
  F  F51  1  0.07936077  0.88991740  0.87021755  1
  F  F52  1  0.10939134  0.18105669  0.35013361  1
  F  F53  1  0.12777500  0.31483290  0.35425279  1
  F  F54  1  0.12777500  0.81483290  0.14574721  1
  F  F55  1  0.10939134  0.68105669  0.14986639  1
  F  F56  1  0.11642553  0.25170090  0.66455287  1
  F  F57  1  0.11642553  0.75170090  0.83544713  1
  F  F58  1  0.46102313  0.70919649  0.48879561  1
  F  F59  1  0.46102313  0.20919649  0.01120439  1
  F  F60  1  0.53897687  0.29080351  0.51120439  1
  F  F61  1  0.53897687  0.79080351  0.98879561  1
  F  F62  1  0.88357447  0.74829910  0.33544713  1
  F  F63  1  0.88357447  0.24829910  0.16455287  1
  F  F64  1  0.87222500  0.18516710  0.85425279  1
  F  F65  1  0.89060866  0.81894331  0.64986639  1
  F  F66  1  0.89060866  0.31894331  0.85013361  1
  F  F67  1  0.87222500  0.68516710  0.64574721  1
  F  F68  1  0.92063923  0.61008260  0.37021755  1
  F  F69  1  0.92063923  0.11008260  0.12978245  1
  F  F70  1  0.92362596  0.88955895  0.38549344  1
  F  F71  1  0.92362596  0.38955895  0.11450656  1
  F  F72  1  0.97167066  0.03675406  0.93227220  1
  F  F73  1  0.96521878  0.46406827  0.92976490  1
  F  F74  1  0.97167066  0.53675406  0.56772780  1
  F  F75  1  0.96521878  0.96406827  0.57023510  1
