# generated using pymatgen
data_LiCrPO4
_symmetry_space_group_name_H-M   'P 1'
_cell_length_a   9.16961879
_cell_length_b   6.51436145
_cell_length_c   5.12589207
_cell_angle_alpha   90.00000000
_cell_angle_beta   90.00000000
_cell_angle_gamma   90.00000000
_symmetry_Int_Tables_number   1
_chemical_formula_structural   LiCrPO4
_chemical_formula_sum   'Li4 Cr4 P4 O16'
_cell_volume   306.19111928
_cell_formula_units_Z   4
loop_
 _symmetry_equiv_pos_site_id
 _symmetry_equiv_pos_as_xyz
  1  'x, y, z'
loop_
 _atom_site_type_symbol
 _atom_site_label
 _atom_site_symmetry_multiplicity
 _atom_site_fract_x
 _atom_site_fract_y
 _atom_site_fract_z
 _atom_site_occupancy
  Li  Li0  1  0.16296114  0.75000000  0.44257643  1
  Li  Li1  1  0.33703886  0.25000000  0.94257643  1
  Li  Li2  1  0.66296114  0.75000000  0.05742357  1
  Li  Li3  1  0.83703886  0.25000000  0.55742357  1
  Cr  Cr4  1  0.00000000  0.00000000  0.00000000  1
  Cr  Cr5  1  0.00000000  0.50000000  0.00000000  1
  Cr  Cr6  1  0.50000000  0.00000000  0.50000000  1
  Cr  Cr7  1  0.50000000  0.50000000  0.50000000  1
  P  P8  1  0.18294430  0.25000000  0.46053914  1
  P  P9  1  0.31705570  0.75000000  0.96053914  1
  P  P10  1  0.68294430  0.25000000  0.03946086  1
  P  P11  1  0.81705570  0.75000000  0.53946086  1
  O  O12  1  0.14559094  0.25000000  0.75397950  1
  O  O13  1  0.12345699  0.05417309  0.32830614  1
  O  O14  1  0.12345699  0.44582691  0.32830614  1
  O  O15  1  0.14477197  0.75000000  0.91690026  1
  O  O16  1  0.35522803  0.25000000  0.41690026  1
  O  O17  1  0.37654301  0.94582691  0.82830614  1
  O  O18  1  0.37654301  0.55417309  0.82830614  1
  O  O19  1  0.35440906  0.75000000  0.25397950  1
  O  O20  1  0.64559094  0.25000000  0.74602050  1
  O  O21  1  0.62345699  0.05417309  0.17169386  1
  O  O22  1  0.62345699  0.44582691  0.17169386  1
  O  O23  1  0.64477197  0.75000000  0.58309974  1
  O  O24  1  0.85522803  0.25000000  0.08309974  1
  O  O25  1  0.87654301  0.55417309  0.67169386  1
  O  O26  1  0.87654301  0.94582691  0.67169386  1
  O  O27  1  0.85440906  0.75000000  0.24602050  1
