# generated using pymatgen
data_ThU8O18
_symmetry_space_group_name_H-M   'P 1'
_cell_length_a   6.66861839
_cell_length_b   8.60832227
_cell_length_c   6.66846598
_cell_angle_alpha   82.58139575
_cell_angle_beta   99.60241908
_cell_angle_gamma   104.95896461
_symmetry_Int_Tables_number   1
_chemical_formula_structural   ThU8O18
_chemical_formula_sum   'Th1 U8 O18'
_cell_volume   363.16146618
_cell_formula_units_Z   1
loop_
 _symmetry_equiv_pos_site_id
 _symmetry_equiv_pos_as_xyz
  1  'x, y, z'
loop_
 _atom_site_type_symbol
 _atom_site_label
 _atom_site_symmetry_multiplicity
 _atom_site_fract_x
 _atom_site_fract_y
 _atom_site_fract_z
 _atom_site_occupancy
  Th  Th0  1  0.88888900  0.55555600  0.22222200  1
  U  U1  1  0.55451658  0.22116203  0.88750382  1
  U  U2  1  0.11337251  0.44372551  0.77849382  1
  U  U3  1  0.77749663  0.10836275  0.44580051  1
  U  U4  1  0.22326142  0.88994897  0.55694018  1
  U  U5  1  0.66440549  0.66738549  0.66595118  1
  U  U6  1  0.33294429  0.33096182  0.33479540  1
  U  U7  1  0.00028137  0.00274825  0.99864349  1
  U  U8  1  0.44483371  0.78014918  0.10964860  1
  O  O9  1  0.30617520  0.97253141  0.88810148  1
  O  O10  1  0.86046933  0.19319021  0.77816753  1
  O  O11  1  0.47160280  0.13857959  0.55634252  1
  O  O12  1  0.80354916  0.47005230  0.88376505  1
  O  O13  1  0.08359529  0.08344918  0.33295502  1
  O  O14  1  0.41627379  0.41615078  0.66784315  1
  O  O15  1  0.03011838  0.35762738  0.44843953  1
  O  O16  1  0.36150421  0.69496022  0.77660185  1
  O  O17  1  0.63404229  0.30092813  0.22247920  1
  O  O18  1  0.97422784  0.64105870  0.56067895  1
  O  O19  1  0.69418271  0.02766182  0.11148898  1
  O  O20  1  0.14373571  0.81018287  0.22196580  1
  O  O21  1  0.19926059  0.52710365  0.10833846  1
  O  O22  1  0.52871629  0.86226253  0.44543420  1
  O  O23  1  0.24906171  0.24884847  0.99900980  1
  O  O24  1  0.57851741  0.58400735  0.33610654  1
  O  O25  1  0.91730867  0.91792079  0.66627747  1
  O  O26  1  0.74765962  0.75348362  0.99600447  1
