# generated using pymatgen
data_Li4MnCo2O7
_symmetry_space_group_name_H-M   'P 1'
_cell_length_a   4.99914553
_cell_length_b   8.02861332
_cell_length_c   6.46590505
_cell_angle_alpha   85.47885143
_cell_angle_beta   96.56917079
_cell_angle_gamma   97.30392416
_symmetry_Int_Tables_number   1
_chemical_formula_structural   Li4MnCo2O7
_chemical_formula_sum   'Li8 Mn2 Co4 O14'
_cell_volume   255.17633313
_cell_formula_units_Z   2
loop_
 _symmetry_equiv_pos_site_id
 _symmetry_equiv_pos_as_xyz
  1  'x, y, z'
loop_
 _atom_site_type_symbol
 _atom_site_label
 _atom_site_symmetry_multiplicity
 _atom_site_fract_x
 _atom_site_fract_y
 _atom_site_fract_z
 _atom_site_occupancy
  Li  Li0  1  0.93538839  0.36033136  0.85292939  1
  Li  Li1  1  0.20820067  0.92476547  0.43310037  1
  Li  Li2  1  0.49932259  0.50209262  0.99389271  1
  Li  Li3  1  0.07210641  0.64076438  0.14896429  1
  Li  Li4  1  0.36322833  0.21809153  0.70975663  1
  Li  Li5  1  0.63603961  0.78252564  0.28992761  1
  Li  Li6  1  0.78571400  0.07142900  0.57142900  1
  Li  Li7  1  0.28571400  0.57142900  0.57142900  1
  Mn  Mn8  1  -0.00090721  0.99593269  0.99824004  1
  Mn  Mn9  1  0.57233621  0.14692431  0.14461696  1
  Co  Co10  1  0.85469975  0.70285810  0.71207488  1
  Co  Co11  1  0.14589988  0.29021315  0.28709909  1
  Co  Co12  1  0.42552812  0.85264385  0.85575791  1
  Co  Co13  1  0.71672925  0.43999890  0.43078212  1
  O  O14  1  0.68668602  0.10629052  0.87353354  1
  O  O15  1  0.94686000  0.67339525  0.44539642  1
  O  O16  1  0.25773951  0.25313504  0.01801637  1
  O  O17  1  0.83852330  0.39361147  0.16555632  1
  O  O18  1  0.12127799  0.96047459  0.72960915  1
  O  O19  1  0.42340787  0.52467625  0.29689856  1
  O  O20  1  0.56033971  0.81871868  0.59882565  1
  O  O21  1  0.14802113  0.61818075  0.84595844  1
  O  O22  1  0.45015101  0.18238241  0.41324785  1
  O  O23  1  0.73290470  0.74924553  0.97730068  1
  O  O24  1  0.31368949  0.88972196  0.12484063  1
  O  O25  1  0.62456900  0.46946175  0.69746058  1
  O  O26  1  0.88474198  0.03656748  0.26932446  1
  O  O27  1  0.01108829  0.32413832  0.54403135  1
