# generated using pymatgen
data_Na7Ti11O24
_symmetry_space_group_name_H-M   'P 1'
_cell_length_a   6.23157848
_cell_length_b   10.62446061
_cell_length_c   8.82675832
_cell_angle_alpha   66.15819299
_cell_angle_beta   92.23672356
_cell_angle_gamma   73.90740550
_symmetry_Int_Tables_number   1
_chemical_formula_structural   Na7Ti11O24
_chemical_formula_sum   'Na7 Ti11 O24'
_cell_volume   505.93470445
_cell_formula_units_Z   1
loop_
 _symmetry_equiv_pos_site_id
 _symmetry_equiv_pos_as_xyz
  1  'x, y, z'
loop_
 _atom_site_type_symbol
 _atom_site_label
 _atom_site_symmetry_multiplicity
 _atom_site_fract_x
 _atom_site_fract_y
 _atom_site_fract_z
 _atom_site_occupancy
  Na  Na0  1  0.65773689  0.65671617  0.67390067  1
  Na  Na1  1  0.58336984  0.33331171  0.70824032  1
  Na  Na2  1  0.50900195  0.00978963  0.74289291  1
  Na  Na3  1  0.18566126  0.65690251  0.41936419  1
  Na  Na4  1  0.34681176  0.33334834  0.32449274  1
  Na  Na5  1  0.81968711  0.33350139  0.09204308  1
  Na  Na6  1  0.98115139  0.00962400  0.99733457  1
  Ti  Ti7  1  0.23298627  0.49851766  0.87828317  1
  Ti  Ti8  1  0.08321574  0.83338557  0.70839608  1
  Ti  Ti9  1  0.08341694  0.33298596  0.70866498  1
  Ti  Ti10  1  0.93367005  0.16834522  0.53787742  1
  Ti  Ti11  1  0.58313840  0.83337897  0.20818845  1
  Ti  Ti12  1  0.76874908  0.49804869  0.37325134  1
  Ti  Ti13  1  0.75332958  0.99322109  0.37850740  1
  Ti  Ti14  1  0.41314829  0.67369615  0.03807523  1
  Ti  Ti15  1  0.25415233  0.99145169  0.37926265  1
  Ti  Ti16  1  0.91280343  0.67480207  0.03776133  1
  Ti  Ti17  1  0.39820613  0.16858072  0.04370531  1
  O  O18  1  0.58559022  0.81801648  0.98720038  1
  O  O19  1  0.09650241  0.81799378  0.94480383  1
  O  O20  1  0.94000312  0.67498047  0.81131079  1
  O  O21  1  0.37215573  0.65966776  0.81695584  1
  O  O22  1  0.50001520  0.33338326  0.98598883  1
  O  O23  1  0.08960722  0.33331707  0.93842734  1
  O  O24  1  0.37879128  0.18239292  0.82399710  1
  O  O25  1  0.07019714  0.84878064  0.47177540  1
  O  O26  1  0.22766290  0.48439191  0.67303123  1
  O  O27  1  0.93910547  0.18220498  0.74365051  1
  O  O28  1  0.78798376  0.48427139  0.59260654  1
  O  O29  1  0.58112547  0.84879617  0.42954526  1
  O  O30  1  0.66648195  0.33337465  0.43066501  1
  O  O31  1  0.07690296  0.33321292  0.47810560  1
  O  O32  1  0.22671294  0.99157492  0.60546554  1
  O  O33  1  0.88499231  0.67507115  0.26379253  1
  O  O34  1  0.79441807  0.00696021  0.59969443  1
  O  O35  1  0.46822380  0.65976822  0.27331200  1
  O  O36  1  0.94418046  0.13011082  0.31986531  1
  O  O37  1  0.74107058  0.53677911  0.11646369  1
  O  O38  1  0.42549091  0.13008503  0.29996637  1
  O  O39  1  0.22242097  0.53677208  0.09690164  1
  O  O40  1  0.28166905  0.99155822  0.15292108  1
  O  O41  1  0.69846067  0.00692929  0.14331090  1
