# generated using pymatgen
data_Ba4LiY2Cu5O14
_symmetry_space_group_name_H-M   'P 1'
_cell_length_a   7.71683965
_cell_length_b   5.50410073
_cell_length_c   12.50736582
_cell_angle_alpha   77.54089009
_cell_angle_beta   72.05178378
_cell_angle_gamma   45.48422026
_symmetry_Int_Tables_number   1
_chemical_formula_structural   Ba4LiY2Cu5O14
_chemical_formula_sum   'Ba4 Li1 Y2 Cu5 O14'
_cell_volume   360.37097452
_cell_formula_units_Z   1
loop_
 _symmetry_equiv_pos_site_id
 _symmetry_equiv_pos_as_xyz
  1  'x, y, z'
loop_
 _atom_site_type_symbol
 _atom_site_label
 _atom_site_symmetry_multiplicity
 _atom_site_fract_x
 _atom_site_fract_y
 _atom_site_fract_z
 _atom_site_occupancy
  Ba  Ba0  1  0.40443000  0.50041934  0.18725543  1
  Ba  Ba1  1  0.09181937  0.49884803  0.81807448  1
  Ba  Ba2  1  0.90315277  0.50109704  0.18674844  1
  Ba  Ba3  1  0.59393892  0.49840749  0.81748904  1
  Li  Li4  1  0.82932233  0.00025007  0.33683110  1
  Y  Y5  1  0.24855484  0.50190165  0.49743475  1
  Y  Y6  1  0.74872164  0.50117010  0.49744014  1
  Cu  Cu7  1  0.99917594  0.99871959  0.00272392  1
  Cu  Cu8  1  0.49849437  0.00073058  0.99985847  1
  Cu  Cu9  1  0.17603114  0.00034069  0.64665981  1
  Cu  Cu10  1  0.67612463  0.00062557  0.64567945  1
  Cu  Cu11  1  0.31060472  0.00202469  0.37171634  1
  O  O12  1  0.23559869  0.50074948  0.00125273  1
  O  O13  1  0.06787871  0.47896785  0.38083332  1
  O  O14  1  0.42077648  0.00235203  0.15511426  1
  O  O15  1  0.06485000  0.00033526  0.38149518  1
  O  O16  1  0.73887568  0.49863849  0.00208655  1
  O  O17  1  0.43742318  0.49875039  0.62141726  1
  O  O18  1  0.54602036  0.52434622  0.37942271  1
  O  O19  1  0.08281200  0.99648282  0.84482634  1
  O  O20  1  0.92185831  0.99854353  0.16117115  1
  O  O21  1  0.43945554  0.99729987  0.62307523  1
  O  O22  1  0.54855953  0.00212727  0.38160807  1
  O  O23  1  0.93783366  0.50204013  0.62265757  1
  O  O24  1  0.58187157  0.00065711  0.84273869  1
  O  O25  1  0.93528462  0.00416872  0.62335557  1
