# generated using pymatgen
data_NaTi4O8
_symmetry_space_group_name_H-M   'P 1'
_cell_length_a   9.69815322
_cell_length_b   11.31069164
_cell_length_c   5.93846499
_cell_angle_alpha   90.00000000
_cell_angle_beta   90.22214705
_cell_angle_gamma   90.00000000
_symmetry_Int_Tables_number   1
_chemical_formula_structural   NaTi4O8
_chemical_formula_sum   'Na4 Ti16 O32'
_cell_volume   651.40207842
_cell_formula_units_Z   4
loop_
 _symmetry_equiv_pos_site_id
 _symmetry_equiv_pos_as_xyz
  1  'x, y, z'
loop_
 _atom_site_type_symbol
 _atom_site_label
 _atom_site_symmetry_multiplicity
 _atom_site_fract_x
 _atom_site_fract_y
 _atom_site_fract_z
 _atom_site_occupancy
  Na  Na0  1  0.09858973  0.57359628  0.34808404  1
  Na  Na1  1  0.40141027  0.07359628  0.15191596  1
  Na  Na2  1  0.59858973  0.92640372  0.84808404  1
  Na  Na3  1  0.90141027  0.42640372  0.65191596  1
  Ti  Ti4  1  0.01612630  0.12471825  0.12233108  1
  Ti  Ti5  1  0.02115928  0.12326913  0.62769722  1
  Ti  Ti6  1  0.24324976  0.33024855  0.37499538  1
  Ti  Ti7  1  0.23541277  0.34556036  0.87454417  1
  Ti  Ti8  1  0.25675024  0.83024855  0.12500462  1
  Ti  Ti9  1  0.26458723  0.84556036  0.62545583  1
  Ti  Ti10  1  0.47884072  0.62326913  0.87230278  1
  Ti  Ti11  1  0.48387370  0.62471825  0.37766892  1
  Ti  Ti12  1  0.52115928  0.37673087  0.12769722  1
  Ti  Ti13  1  0.51612630  0.37528175  0.62233108  1
  Ti  Ti14  1  0.74324976  0.16975145  0.87499538  1
  Ti  Ti15  1  0.73541277  0.15443964  0.37454417  1
  Ti  Ti16  1  0.76458723  0.65443964  0.12545583  1
  Ti  Ti17  1  0.75675024  0.66975145  0.62500462  1
  Ti  Ti18  1  0.97884072  0.87673087  0.37230278  1
  Ti  Ti19  1  0.98387370  0.87528175  0.87766892  1
  O  O20  1  0.09789000  0.95827259  0.12583997  1
  O  O21  1  0.09895598  0.95866510  0.62550911  1
  O  O22  1  0.13253920  0.76940696  0.37658215  1
  O  O23  1  0.13559465  0.77050510  0.87391299  1
  O  O24  1  0.13038318  0.18750473  0.37282145  1
  O  O25  1  0.12678025  0.19411880  0.87746851  1
  O  O26  1  0.15415074  0.40946888  0.12950503  1
  O  O27  1  0.14650364  0.40825921  0.61674734  1
  O  O28  1  0.34584926  0.90946888  0.37049497  1
  O  O29  1  0.35349636  0.90825921  0.88325266  1
  O  O30  1  0.36961682  0.68750473  0.12717855  1
  O  O31  1  0.37321975  0.69411880  0.62253149  1
  O  O32  1  0.36746080  0.26940696  0.12341785  1
  O  O33  1  0.36440535  0.27050510  0.62608701  1
  O  O34  1  0.40211000  0.45827159  0.37416003  1
  O  O35  1  0.40104402  0.45866510  0.87449089  1
  O  O36  1  0.59895598  0.54133490  0.12550911  1
  O  O37  1  0.59789000  0.54172741  0.62583997  1
  O  O38  1  0.63559465  0.72949490  0.37391299  1
  O  O39  1  0.63253920  0.73059304  0.87658215  1
  O  O40  1  0.62678025  0.30588120  0.37746851  1
  O  O41  1  0.63038318  0.31249527  0.87282145  1
  O  O42  1  0.64650364  0.09174079  0.11674734  1
  O  O43  1  0.65415074  0.09053112  0.62950503  1
  O  O44  1  0.85349636  0.59174079  0.38325266  1
  O  O45  1  0.84584926  0.59053112  0.87049497  1
  O  O46  1  0.87321975  0.80588120  0.12253149  1
  O  O47  1  0.86961682  0.81249527  0.62717855  1
  O  O48  1  0.86440535  0.22949490  0.12608701  1
  O  O49  1  0.86746080  0.23059304  0.62341785  1
  O  O50  1  0.90104402  0.04133490  0.37449089  1
  O  O51  1  0.90211000  0.04172741  0.87416003  1
