# generated using pymatgen
data_TeH3CCl3
_symmetry_space_group_name_H-M   'P 1'
_cell_length_a   10.55901523
_cell_length_b   6.68736222
_cell_length_c   10.83295995
_cell_angle_alpha   90.00000000
_cell_angle_beta   118.63093788
_cell_angle_gamma   90.00000000
_symmetry_Int_Tables_number   1
_chemical_formula_structural   TeH3CCl3
_chemical_formula_sum   'Te4 H12 C4 Cl12'
_cell_volume   671.40343234
_cell_formula_units_Z   4
loop_
 _symmetry_equiv_pos_site_id
 _symmetry_equiv_pos_as_xyz
  1  'x, y, z'
loop_
 _atom_site_type_symbol
 _atom_site_label
 _atom_site_symmetry_multiplicity
 _atom_site_fract_x
 _atom_site_fract_y
 _atom_site_fract_z
 _atom_site_occupancy
  Te  Te0  1  0.08672568  0.39708193  0.76404467  1
  Te  Te1  1  0.41327432  0.89708193  0.73595533  1
  Te  Te2  1  0.58672568  0.10291807  0.26404467  1
  Te  Te3  1  0.91327432  0.60291807  0.23595533  1
  H  H4  1  0.12521218  0.69277509  0.94433874  1
  H  H5  1  0.29900721  0.60086242  0.97489941  1
  H  H6  1  0.20099279  0.10086242  0.52510059  1
  H  H7  1  0.30247077  0.96208804  0.45850256  1
  H  H8  1  0.37478782  0.19277509  0.55566126  1
  H  H9  1  0.19752923  0.46208804  0.04149744  1
  H  H10  1  0.80247077  0.53791196  0.95850256  1
  H  H11  1  0.62521218  0.80722491  0.44433874  1
  H  H12  1  0.69752923  0.03791196  0.54149744  1
  H  H13  1  0.79900721  0.89913758  0.47489941  1
  H  H14  1  0.70099279  0.39913758  0.02510059  1
  H  H15  1  0.87478782  0.30722491  0.05566126  1
  C  C16  1  0.19162446  0.56028299  0.95791943  1
  C  C17  1  0.30837554  0.06028299  0.54208057  1
  C  C18  1  0.69162446  0.93971701  0.45791943  1
  C  C19  1  0.80837554  0.43971701  0.04208057  1
  Cl  Cl20  1  0.02725182  0.11722218  0.86578153  1
  Cl  Cl21  1  0.13771364  0.73651099  0.64028044  1
  Cl  Cl22  1  0.36228636  0.23651099  0.85971956  1
  Cl  Cl23  1  0.14319422  0.45346969  0.29673366  1
  Cl  Cl24  1  0.47274818  0.61722218  0.63421847  1
  Cl  Cl25  1  0.35680578  0.95346969  0.20326634  1
  Cl  Cl26  1  0.64319422  0.04653031  0.79673366  1
  Cl  Cl27  1  0.52725182  0.38277782  0.36578153  1
  Cl  Cl28  1  0.85680578  0.54653031  0.70326634  1
  Cl  Cl29  1  0.63771364  0.76348901  0.14028044  1
  Cl  Cl30  1  0.86228636  0.26348901  0.35971956  1
  Cl  Cl31  1  0.97274818  0.88277782  0.13421847  1
