# generated using pymatgen
data_LiMn3Al2(HO2)6
_symmetry_space_group_name_H-M   'P 1'
_cell_length_a   5.94454174
_cell_length_b   10.12209937
_cell_length_c   7.86961137
_cell_angle_alpha   70.59839913
_cell_angle_beta   100.73147068
_cell_angle_gamma   89.57196725
_symmetry_Int_Tables_number   1
_chemical_formula_structural   LiMn3Al2(HO2)6
_chemical_formula_sum   'Li2 Mn6 Al4 H12 O24'
_cell_volume   437.59350458
_cell_formula_units_Z   2
loop_
 _symmetry_equiv_pos_site_id
 _symmetry_equiv_pos_as_xyz
  1  'x, y, z'
loop_
 _atom_site_type_symbol
 _atom_site_label
 _atom_site_symmetry_multiplicity
 _atom_site_fract_x
 _atom_site_fract_y
 _atom_site_fract_z
 _atom_site_occupancy
  Li  Li0  1  0.82461699  0.49891871  0.32298709  1
  Li  Li1  1  0.50874558  0.50101056  0.01051354  1
  Mn  Mn2  1  0.82904603  0.99614775  0.33529100  1
  Mn  Mn3  1  0.50458438  0.00372374  0.99771472  1
  Mn  Mn4  1  0.66726551  0.00027193  0.66642242  1
  Mn  Mn5  1  0.33015558  0.99747004  0.33599646  1
  Mn  Mn6  1  0.00281820  0.00223461  0.99741825  1
  Mn  Mn7  1  0.16640871  0.00009493  0.66699592  1
  Al  Al8  1  0.66669899  0.49996099  0.66673950  1
  Al  Al9  1  0.33494145  0.49792740  0.32864463  1
  Al  Al10  1  0.16659826  0.50002457  0.66664457  1
  Al  Al11  1  0.99835650  0.50207749  0.00478313  1
  H  H12  1  0.91277650  0.29659284  0.65554091  1
  H  H13  1  0.77530329  0.70953160  0.00948747  1
  H  H14  1  0.91177428  0.71247296  0.67700594  1
  H  H15  1  0.55804960  0.29045013  0.32384714  1
  H  H16  1  0.75947444  0.29675845  0.97212313  1
  H  H17  1  0.57384594  0.70313748  0.36131330  1
  H  H18  1  0.42155182  0.28753288  0.65633279  1
  H  H19  1  0.24429348  0.70866193  0.02715235  1
  H  H20  1  0.42046983  0.70329452  0.67772358  1
  H  H21  1  0.08906359  0.29137400  0.30621545  1
  H  H22  1  0.22785796  0.30158992  0.97270247  1
  H  H23  1  0.10543897  0.69846626  0.36076105  1
  O  O24  1  0.76292895  0.10336431  0.07213161  1
  O  O25  1  0.92823953  0.10343493  0.71789360  1
  O  O26  1  0.90558219  0.39954472  0.61831230  1
  O  O27  1  0.78106450  0.60766799  0.04829680  1
  O  O28  1  0.87168208  0.88805315  0.59355024  1
  O  O29  1  0.93205261  0.60718079  0.72351785  1
  O  O30  1  0.55227774  0.39229748  0.28517925  1
  O  O31  1  0.59440488  0.09833351  0.39965550  1
  O  O32  1  0.75074511  0.39982581  0.92384397  1
  O  O33  1  0.58261040  0.60013497  0.40961487  1
  O  O34  1  0.73819474  0.90175558  0.93296905  1
  O  O35  1  0.56918053  0.89668066  0.26191513  1
  O  O36  1  0.46183562  0.11197463  0.73971557  1
  O  O37  1  0.40123616  0.39284561  0.60990144  1
  O  O38  1  0.26540109  0.10373426  0.05869102  1
  O  O39  1  0.42775796  0.60045482  0.71517398  1
  O  O40  1  0.40409528  0.89741820  0.61170989  1
  O  O41  1  0.24898201  0.60574628  0.07461278  1
  O  O42  1  0.08684774  0.09990560  0.39775771  1
  O  O43  1  0.08431638  0.39420897  0.25883526  1
  O  O44  1  0.21162776  0.40443710  0.92285738  1
  O  O45  1  0.12169247  0.59551724  0.41053606  1
  O  O46  1  0.06914434  0.89535281  0.27846072  1
  O  O47  1  0.24816707  0.89980290  0.93471224  1
