# generated using pymatgen
data_Li6V3P8O29
_symmetry_space_group_name_H-M   'P 1'
_cell_length_a   9.81191005
_cell_length_b   9.79793061
_cell_length_c   13.94529276
_cell_angle_alpha   90.34291920
_cell_angle_beta   90.26529080
_cell_angle_gamma   60.19586021
_symmetry_Int_Tables_number   1
_chemical_formula_structural   Li6V3P8O29
_chemical_formula_sum   'Li12 V6 P16 O58'
_cell_volume   1163.29903786
_cell_formula_units_Z   2
loop_
 _symmetry_equiv_pos_site_id
 _symmetry_equiv_pos_as_xyz
  1  'x, y, z'
loop_
 _atom_site_type_symbol
 _atom_site_label
 _atom_site_symmetry_multiplicity
 _atom_site_fract_x
 _atom_site_fract_y
 _atom_site_fract_z
 _atom_site_occupancy
  Li  Li0  1  0.90975039  0.77455702  0.06275882  1
  Li  Li1  1  0.90505556  0.33130169  0.56008003  1
  Li  Li2  1  0.66615114  0.66770004  0.88735464  1
  Li  Li3  1  0.77540860  0.31339790  0.06086968  1
  Li  Li4  1  0.30983439  0.91841803  0.06455901  1
  Li  Li5  1  0.66985304  0.23219720  0.43595071  1
  Li  Li6  1  0.33242921  0.76647686  0.55634736  1
  Li  Li7  1  0.68214979  0.09227418  0.94051879  1
  Li  Li8  1  0.22554293  0.68735725  0.94190294  1
  Li  Li9  1  0.33169739  0.32687291  0.61175866  1
  Li  Li10  1  0.09186646  0.67338590  0.43707630  1
  Li  Li11  1  0.99742673  0.00123832  0.49385199  1
  V  V12  1  0.56733783  0.43143831  0.24846278  1
  V  V13  1  0.43539931  0.56597863  0.74996148  1
  V  V14  1  0.56661653  0.99482107  0.74535167  1
  V  V15  1  0.42977546  0.00457123  0.25525784  1
  V  V16  1  0.99882457  0.56585392  0.25020186  1
  V  V17  1  0.00344584  0.43123259  0.75303543  1
  P  P18  1  0.91120265  0.77009375  0.84042854  1
  P  P19  1  0.77637119  0.91590964  0.34181043  1
  P  P20  1  0.91206893  0.31424404  0.34472383  1
  P  P21  1  0.66488603  0.66816771  0.12820481  1
  P  P22  1  0.66836884  0.66222000  0.62703488  1
  P  P23  1  0.77078694  0.32149635  0.84290305  1
  P  P24  1  0.68301176  0.22608061  0.65783417  1
  P  P25  1  0.31977056  0.91169195  0.84766313  1
  P  P26  1  0.67978044  0.08459825  0.15650635  1
  P  P27  1  0.31759040  0.77122904  0.34111260  1
  P  P28  1  0.23223673  0.67879261  0.15850007  1
  P  P29  1  0.33253714  0.33661866  0.37295197  1
  P  P30  1  0.33749591  0.33185043  0.87178883  1
  P  P31  1  0.09043463  0.68374943  0.65386211  1
  P  P32  1  0.22272567  0.08457567  0.65977997  1
  P  P33  1  0.08480458  0.22917255  0.16040291  1
  O  O34  1  0.00887991  0.77009894  0.56465631  1
  O  O35  1  0.91874191  0.74474884  0.33839154  1
  O  O36  1  0.75409981  0.99689867  0.06496231  1
  O  O37  1  0.74898909  0.92045918  0.84172498  1
  O  O38  1  0.88495967  0.62734678  0.82461208  1
  O  O39  1  0.81361291  0.67370400  0.16660043  1
  O  O40  1  0.90599936  0.47186221  0.33039341  1
  O  O41  1  0.99018081  0.23913850  0.07521470  1
  O  O42  1  0.91680377  0.33905859  0.84134830  1
  O  O43  1  0.66365461  0.81261097  0.67233656  1
  O  O44  1  0.62187261  0.91486891  0.33355245  1
  O  O45  1  0.81905275  0.51450703  0.66775109  1
  O  O46  1  0.66812710  0.66596114  0.01990022  1
  O  O47  1  0.66059931  0.66082077  0.52092831  1
  O  O48  1  0.67187584  0.51270441  0.16488355  1
  O  O49  1  0.48710871  0.88697636  0.82715970  1
  O  O50  1  0.51347213  0.81448721  0.16675015  1
  O  O51  1  0.74275543  0.33710135  0.33448124  1
  O  O52  1  0.78630135  0.21375334  0.75095247  1
  O  O53  1  0.76879554  0.23183244  0.56970867  1
  O  O54  1  0.75045135  0.24624318  0.93085729  1
  O  O55  1  0.62576725  0.48858080  0.82670714  1
  O  O56  1  0.51790157  0.66346379  0.67029294  1
  O  O57  1  0.66153320  0.25060736  0.15632649  1
  O  O58  1  0.47236473  0.61812359  0.33012669  1
  O  O59  1  0.34322840  0.91387219  0.33570040  1
  O  O60  1  0.79693865  0.99209387  0.24301540  1
  O  O61  1  0.79576090  0.00565516  0.42316666  1
  O  O62  1  0.21903514  0.98778502  0.57775371  1
  O  O63  1  0.66076403  0.08286901  0.65997994  1
  O  O64  1  0.51871083  0.37589373  0.66944740  1
  O  O65  1  0.33262520  0.74696196  0.84179788  1
  O  O66  1  0.48877179  0.32472888  0.33458778  1
  O  O67  1  0.38002525  0.51850673  0.17766877  1
  O  O68  1  0.24759758  0.75528243  0.06907313  1
  O  O69  1  0.22444984  0.77951902  0.42968829  1
  O  O70  1  0.20872719  0.79106136  0.24895735  1
  O  O71  1  0.25677249  0.66469163  0.65862152  1
  O  O72  1  0.48074417  0.17968572  0.82862948  1
  O  O73  1  0.52165583  0.09426467  0.17777715  1
  O  O74  1  0.34129584  0.47951489  0.82798895  1
  O  O75  1  0.33837269  0.33797403  0.97777536  1
  O  O76  1  0.33555693  0.33941824  0.48106833  1
  O  O77  1  0.18756412  0.49302435  0.33606031  1
  O  O78  1  0.37293560  0.10147977  0.66768672  1
  O  O79  1  0.32213778  0.19574639  0.32983448  1
  O  O80  1  0.08349140  0.66332267  0.15760755  1
  O  O81  1  0.00067534  0.78567958  0.74849449  1
  O  O82  1  0.00490258  0.75141440  0.93000334  1
  O  O83  1  0.10446947  0.51963812  0.66664479  1
  O  O84  1  0.18489260  0.34292342  0.82490986  1
  O  O85  1  0.09251660  0.38284282  0.17887335  1
  O  O86  1  0.25256282  0.08583726  0.16081192  1
  O  O87  1  0.24978387  0.99450298  0.93866508  1
  O  O88  1  0.20894002  0.00886754  0.75883646  1
  O  O89  1  0.07904778  0.25260650  0.65841302  1
  O  O90  1  0.98169839  0.22929383  0.43672016  1
  O  O91  1  0.00744063  0.20285477  0.25620730  1
