# generated using pymatgen
data_LiAg2F4
_symmetry_space_group_name_H-M   'P 1'
_cell_length_a   6.07225050
_cell_length_b   8.43174488
_cell_length_c   8.65043255
_cell_angle_alpha   90.00000000
_cell_angle_beta   104.90239509
_cell_angle_gamma   90.00000000
_symmetry_Int_Tables_number   1
_chemical_formula_structural   LiAg2F4
_chemical_formula_sum   'Li4 Ag8 F16'
_cell_volume   428.00249541
_cell_formula_units_Z   4
loop_
 _symmetry_equiv_pos_site_id
 _symmetry_equiv_pos_as_xyz
  1  'x, y, z'
loop_
 _atom_site_type_symbol
 _atom_site_label
 _atom_site_symmetry_multiplicity
 _atom_site_fract_x
 _atom_site_fract_y
 _atom_site_fract_z
 _atom_site_occupancy
  Li  Li0  1  0.17621340  0.81393725  0.49136400  1
  Li  Li1  1  0.67621340  0.68606275  0.99136400  1
  Li  Li2  1  0.32378660  0.31393725  0.00863600  1
  Li  Li3  1  0.82378660  0.18606275  0.50863600  1
  Ag  Ag4  1  0.21272992  0.98871154  0.86451184  1
  Ag  Ag5  1  0.28727008  0.48871154  0.63548816  1
  Ag  Ag6  1  0.18063914  0.67465595  0.12149212  1
  Ag  Ag7  1  0.31936086  0.17465595  0.37850788  1
  Ag  Ag8  1  0.68063914  0.82534405  0.62149212  1
  Ag  Ag9  1  0.81936086  0.32534405  0.87850788  1
  Ag  Ag10  1  0.71272992  0.51128846  0.36451184  1
  Ag  Ag11  1  0.78727008  0.01128846  0.13548816  1
  F  F12  1  0.12572665  0.41844299  0.82680071  1
  F  F13  1  0.05389169  0.30803953  0.45747586  1
  F  F14  1  0.11321570  0.95130983  0.31752800  1
  F  F15  1  0.09413493  0.16736127  0.03269448  1
  F  F16  1  0.37427335  0.91844299  0.67319929  1
  F  F17  1  0.55389169  0.19196047  0.95747586  1
  F  F18  1  0.40586507  0.66736127  0.46730552  1
  F  F19  1  0.61321570  0.54869017  0.81752800  1
  F  F20  1  0.38678430  0.45130983  0.18247200  1
  F  F21  1  0.59413493  0.33263873  0.53269448  1
  F  F22  1  0.44610831  0.80803953  0.04252414  1
  F  F23  1  0.62572665  0.08155701  0.32680071  1
  F  F24  1  0.90586507  0.83263873  0.96730552  1
  F  F25  1  0.88678430  0.04869017  0.68247200  1
  F  F26  1  0.94610831  0.69196047  0.54252414  1
  F  F27  1  0.87427335  0.58155701  0.17319929  1
