# generated using pymatgen
data_Li6V3P8O29
_symmetry_space_group_name_H-M   'P 1'
_cell_length_a   9.83780765
_cell_length_b   9.83286678
_cell_length_c   13.86379557
_cell_angle_alpha   90.11947430
_cell_angle_beta   90.11255873
_cell_angle_gamma   60.00471328
_symmetry_Int_Tables_number   1
_chemical_formula_structural   Li6V3P8O29
_chemical_formula_sum   'Li12 V6 P16 O58'
_cell_volume   1161.47721331
_cell_formula_units_Z   2
loop_
 _symmetry_equiv_pos_site_id
 _symmetry_equiv_pos_as_xyz
  1  'x, y, z'
loop_
 _atom_site_type_symbol
 _atom_site_label
 _atom_site_symmetry_multiplicity
 _atom_site_fract_x
 _atom_site_fract_y
 _atom_site_fract_z
 _atom_site_occupancy
  Li  Li0  1  0.90803890  0.77506245  0.06020693  1
  Li  Li1  1  0.77510459  0.90797408  0.56034156  1
  Li  Li2  1  0.90902793  0.31805601  0.56194613  1
  Li  Li3  1  0.66774792  0.66909638  0.38217031  1
  Li  Li4  1  0.66921419  0.66840803  0.88217376  1
  Li  Li5  1  0.77339855  0.31200908  0.06023536  1
  Li  Li6  1  0.31814176  0.90898173  0.06189574  1
  Li  Li7  1  0.67652164  0.22588404  0.43978158  1
  Li  Li8  1  0.31193528  0.77352946  0.56014829  1
  Li  Li9  1  0.22567790  0.67667329  0.93988075  1
  Li  Li10  1  0.22767542  0.09319392  0.44004412  1
  Li  Li11  1  0.09331350  0.22772515  0.93988187  1
  V  V12  1  0.56609808  0.43162305  0.24801421  1
  V  V13  1  0.43133569  0.56626091  0.74749350  1
  V  V14  1  0.56582765  0.00637018  0.75460050  1
  V  V15  1  0.43304886  0.00274557  0.24855138  1
  V  V16  1  0.00588889  0.56646763  0.25436525  1
  V  V17  1  0.00241470  0.43299485  0.74851430  1
  P  P18  1  0.91146112  0.77039793  0.84338007  1
  P  P19  1  0.77034584  0.91137239  0.34309460  1
  P  P20  1  0.90996453  0.32012761  0.34155366  1
  P  P21  1  0.66870978  0.66610892  0.12626662  1
  P  P22  1  0.66577218  0.66892536  0.62627999  1
  P  P23  1  0.76974093  0.32096614  0.84393917  1
  P  P24  1  0.68327776  0.23056839  0.65842083  1
  P  P25  1  0.32023304  0.90995993  0.84152768  1
  P  P26  1  0.68437035  0.08449302  0.15681082  1
  P  P27  1  0.32058961  0.76989077  0.34392073  1
  P  P28  1  0.23108974  0.68261348  0.15852138  1
  P  P29  1  0.33505941  0.33082088  0.37466475  1
  P  P30  1  0.33028438  0.33550428  0.87488738  1
  P  P31  1  0.08440751  0.68422678  0.65717394  1
  P  P32  1  0.23411768  0.08640306  0.65674409  1
  P  P33  1  0.08633937  0.23403804  0.15687725  1
  O  O34  1  0.99061394  0.76991359  0.57129263  1
  O  O35  1  0.91503335  0.74708187  0.34014336  1
  O  O36  1  0.77010850  0.99061423  0.07128552  1
  O  O37  1  0.74745748  0.91503777  0.84056720  1
  O  O38  1  0.89034718  0.62496769  0.82517953  1
  O  O39  1  0.81625627  0.66956609  0.16619813  1
  O  O40  1  0.88704532  0.48681052  0.32625557  1
  O  O41  1  0.99724261  0.24290234  0.06678680  1
  O  O42  1  0.91907112  0.33794961  0.83988293  1
  O  O43  1  0.66892074  0.81663531  0.66656372  1
  O  O44  1  0.62502398  0.89031690  0.32526405  1
  O  O45  1  0.81394199  0.51482611  0.66448077  1
  O  O46  1  0.66659634  0.66612182  0.01755732  1
  O  O47  1  0.66582278  0.66730240  0.51756728  1
  O  O48  1  0.67279930  0.51271373  0.16485562  1
  O  O49  1  0.48686375  0.88696322  0.82672085  1
  O  O50  1  0.51484651  0.81405154  0.16475302  1
  O  O51  1  0.74514327  0.33547589  0.34173057  1
  O  O52  1  0.79031791  0.21211561  0.75065577  1
  O  O53  1  0.75725448  0.24614801  0.56744591  1
  O  O54  1  0.76095938  0.24572186  0.93428065  1
  O  O55  1  0.62554446  0.48651508  0.82460116  1
  O  O56  1  0.51248044  0.67327404  0.66468062  1
  O  O57  1  0.66356891  0.25130891  0.15841675  1
  O  O58  1  0.48644401  0.62550624  0.32464601  1
  O  O59  1  0.33777740  0.91909402  0.34008404  1
  O  O60  1  0.78625304  0.00678053  0.25430342  1
  O  O61  1  0.75347992  0.00212972  0.43379965  1
  O  O62  1  0.24288016  0.99708418  0.56681118  1
  O  O63  1  0.66549096  0.08434027  0.65798622  1
  O  O64  1  0.52291656  0.38163696  0.67684894  1
  O  O65  1  0.33596044  0.74451163  0.84144645  1
  O  O66  1  0.48595364  0.32780708  0.33346362  1
  O  O67  1  0.38149312  0.52234776  0.17654038  1
  O  O68  1  0.24604566  0.75711032  0.06758865  1
  O  O69  1  0.24570350  0.76051452  0.43433603  1
  O  O70  1  0.21209834  0.79032530  0.25073493  1
  O  O71  1  0.25156884  0.66305554  0.65837795  1
  O  O72  1  0.47837012  0.18630814  0.82827958  1
  O  O73  1  0.52391368  0.09367967  0.17420062  1
  O  O74  1  0.32768212  0.48534206  0.83352049  1
  O  O75  1  0.32954314  0.33295047  0.98193535  1
  O  O76  1  0.33353940  0.32884761  0.48184687  1
  O  O77  1  0.18692372  0.47876610  0.32854071  1
  O  O78  1  0.38258938  0.09562813  0.67388292  1
  O  O79  1  0.32929715  0.18338429  0.33283454  1
  O  O80  1  0.08443244  0.66530932  0.15829644  1
  O  O81  1  0.00709536  0.78615376  0.75439377  1
  O  O82  1  0.00253956  0.75305759  0.93382077  1
  O  O83  1  0.09354479  0.52385250  0.67429449  1
  O  O84  1  0.18329256  0.32890027  0.83315830  1
  O  O85  1  0.09453138  0.38319821  0.17439219  1
  O  O86  1  0.24964286  0.08433322  0.15827106  1
  O  O87  1  0.24272308  0.00040346  0.93171041  1
  O  O88  1  0.21235974  0.99756040  0.74978740  1
  O  O89  1  0.08380779  0.24945077  0.65830727  1
  O  O90  1  0.00060279  0.24276880  0.43177710  1
  O  O91  1  0.99774564  0.21211524  0.24978207  1
