# generated using pymatgen
data_Li6V3P8O29
_symmetry_space_group_name_H-M   'P 1'
_cell_length_a   9.81076301
_cell_length_b   9.83388106
_cell_length_c   13.94256527
_cell_angle_alpha   90.24584196
_cell_angle_beta   90.47945998
_cell_angle_gamma   60.07850208
_symmetry_Int_Tables_number   1
_chemical_formula_structural   Li6V3P8O29
_chemical_formula_sum   'Li12 V6 P16 O58'
_cell_volume   1165.81286734
_cell_formula_units_Z   2
loop_
 _symmetry_equiv_pos_site_id
 _symmetry_equiv_pos_as_xyz
  1  'x, y, z'
loop_
 _atom_site_type_symbol
 _atom_site_label
 _atom_site_symmetry_multiplicity
 _atom_site_fract_x
 _atom_site_fract_y
 _atom_site_fract_z
 _atom_site_occupancy
  Li  Li0  1  0.77678731  0.92069818  0.55873610  1
  Li  Li1  1  0.91364758  0.31424746  0.56054686  1
  Li  Li2  1  0.67478228  0.65988093  0.38394926  1
  Li  Li3  1  0.67591584  0.66143267  0.88587958  1
  Li  Li4  1  0.76378209  0.32761013  0.06513594  1
  Li  Li5  1  0.32441533  0.90972960  0.06270804  1
  Li  Li6  1  0.31478355  0.77283269  0.56106654  1
  Li  Li7  1  0.66522928  0.10033428  0.94167580  1
  Li  Li8  1  0.23309865  0.66246740  0.94242878  1
  Li  Li9  1  0.09153778  0.68132284  0.43594389  1
  Li  Li10  1  0.22539067  0.09556536  0.43954136  1
  Li  Li11  1  0.99985089  0.00074534  0.00431849  1
  V  V12  1  0.56470842  0.43170024  0.25404601  1
  V  V13  1  0.43157877  0.56551389  0.74624774  1
  V  V14  1  0.56838776  0.00130175  0.74813950  1
  V  V15  1  0.43585899  0.00161114  0.24862023  1
  V  V16  1  0.99670993  0.56598230  0.24224356  1
  V  V17  1  0.00752790  0.42988387  0.75626959  1
  P  P18  1  0.91389922  0.77780456  0.84019780  1
  P  P19  1  0.77216511  0.90856504  0.34142263  1
  P  P20  1  0.91067409  0.32131264  0.34390350  1
  P  P21  1  0.66310516  0.66377960  0.12710183  1
  P  P22  1  0.66959314  0.66572691  0.62734538  1
  P  P23  1  0.77266224  0.31733794  0.84503739  1
  P  P24  1  0.68585609  0.23090914  0.65857599  1
  P  P25  1  0.31924027  0.90588005  0.84379595  1
  P  P26  1  0.68726642  0.08606180  0.15718749  1
  P  P27  1  0.32230119  0.77110162  0.34189936  1
  P  P28  1  0.22809364  0.68574413  0.15769502  1
  P  P29  1  0.32762420  0.33650434  0.37060380  1
  P  P30  1  0.33762611  0.33467077  0.87408882  1
  P  P31  1  0.08409354  0.67952271  0.65428560  1
  P  P32  1  0.22989604  0.08571604  0.65998243  1
  P  P33  1  0.08307820  0.22360362  0.15834472  1
  O  O34  1  0.99915587  0.75578745  0.56257621  1
  O  O35  1  0.92078162  0.74472627  0.33887067  1
  O  O36  1  0.77280074  0.01040379  0.06619060  1
  O  O37  1  0.74267372  0.92119546  0.84031581  1
  O  O38  1  0.89886288  0.62793745  0.83394660  1
  O  O39  1  0.80888516  0.66907979  0.16964127  1
  O  O40  1  0.89024664  0.48650120  0.32619103  1
  O  O41  1  0.98968266  0.20887979  0.07708879  1
  O  O42  1  0.91615384  0.33849590  0.84153471  1
  O  O43  1  0.67274217  0.81577810  0.66527562  1
  O  O44  1  0.62841423  0.88336260  0.32117512  1
  O  O45  1  0.81685711  0.51780138  0.67093352  1
  O  O46  1  0.66241200  0.66130718  0.01908980  1
  O  O47  1  0.67118650  0.66390130  0.51952978  1
  O  O48  1  0.67165862  0.51073221  0.16658066  1
  O  O49  1  0.48292020  0.89038398  0.83022450  1
  O  O50  1  0.50981541  0.81238769  0.16441361  1
  O  O51  1  0.74588148  0.34058632  0.34095965  1
  O  O52  1  0.78601410  0.20635041  0.75607554  1
  O  O53  1  0.77003670  0.24138939  0.57439238  1
  O  O54  1  0.76853651  0.23268005  0.93455232  1
  O  O55  1  0.62422158  0.48064100  0.83002236  1
  O  O56  1  0.51464649  0.67253338  0.66401770  1
  O  O57  1  0.66018582  0.25442761  0.16311901  1
  O  O58  1  0.48978181  0.62917356  0.32564913  1
  O  O59  1  0.33623365  0.92048543  0.34394910  1
  O  O60  1  0.79147561  0.99808757  0.25042297  1
  O  O61  1  0.75443796  0.99589259  0.43192167  1
  O  O62  1  0.24563619  0.99668094  0.56897642  1
  O  O63  1  0.66259286  0.08585457  0.65805382  1
  O  O64  1  0.52407912  0.38204669  0.67643759  1
  O  O65  1  0.34049505  0.73785258  0.83686845  1
  O  O66  1  0.47174770  0.34141201  0.32596200  1
  O  O67  1  0.38546572  0.53279328  0.16876317  1
  O  O68  1  0.22219485  0.77806829  0.06891833  1
  O  O69  1  0.24683566  0.75296684  0.43077666  1
  O  O70  1  0.21258158  0.79252924  0.25092285  1
  O  O71  1  0.24789332  0.66810262  0.65799452  1
  O  O72  1  0.48759235  0.18733480  0.83390340  1
  O  O73  1  0.53045046  0.08572706  0.16872047  1
  O  O74  1  0.32687468  0.48758604  0.83169636  1
  O  O75  1  0.33500936  0.33884954  0.98046035  1
  O  O76  1  0.32370883  0.34064531  0.47721929  1
  O  O77  1  0.17733043  0.48191393  0.32632067  1
  O  O78  1  0.38096497  0.09500166  0.68049580  1
  O  O79  1  0.33289631  0.18261948  0.32988510  1
  O  O80  1  0.08767097  0.66065324  0.16108181  1
  O  O81  1  0.98585379  0.79714012  0.74095201  1
  O  O82  1  0.00804879  0.78835926  0.92156445  1
  O  O83  1  0.09778301  0.52086008  0.67396278  1
  O  O84  1  0.18822941  0.33299154  0.82806080  1
  O  O85  1  0.08423934  0.37909920  0.16480403  1
  O  O86  1  0.25204200  0.08213971  0.15945405  1
  O  O87  1  0.23370614  0.98303674  0.93369356  1
  O  O88  1  0.21190678  0.99524106  0.75090894  1
  O  O89  1  0.08434676  0.24945789  0.66018502  1
  O  O90  1  0.00192082  0.24795190  0.43480498  1
  O  O91  1  0.00884195  0.20579853  0.25810324  1
