# generated using pymatgen
data_Li6V3P8O29
_symmetry_space_group_name_H-M   'P 1'
_cell_length_a   9.79096535
_cell_length_b   9.80669468
_cell_length_c   13.99480741
_cell_angle_alpha   89.73293612
_cell_angle_beta   90.14272304
_cell_angle_gamma   59.99873032
_symmetry_Int_Tables_number   1
_chemical_formula_structural   Li6V3P8O29
_chemical_formula_sum   'Li12 V6 P16 O58'
_cell_volume   1163.66700510
_cell_formula_units_Z   2
loop_
 _symmetry_equiv_pos_site_id
 _symmetry_equiv_pos_as_xyz
  1  'x, y, z'
loop_
 _atom_site_type_symbol
 _atom_site_label
 _atom_site_symmetry_multiplicity
 _atom_site_fract_x
 _atom_site_fract_y
 _atom_site_fract_z
 _atom_site_occupancy
  Li  Li0  1  0.76449211  0.90423059  0.55959813  1
  Li  Li1  1  0.67297798  0.66811501  0.88867749  1
  Li  Li2  1  0.76896595  0.32070537  0.06097733  1
  Li  Li3  1  0.32646767  0.90336757  0.06187036  1
  Li  Li4  1  0.66335431  0.23966904  0.43868236  1
  Li  Li5  1  0.33236879  0.76536998  0.56372705  1
  Li  Li6  1  0.66794218  0.09611008  0.93972792  1
  Li  Li7  1  0.09816715  0.66831173  0.43841983  1
  Li  Li8  1  0.23698881  0.10305922  0.43985352  1
  Li  Li9  1  0.10166830  0.23011079  0.93834313  1
  Li  Li10  1  0.01025035  0.92643221  0.01079549  1
  Li  Li11  1  0.98539561  0.05599337  0.50786755  1
  V  V12  1  0.56500869  0.43663322  0.24970815  1
  V  V13  1  0.43261031  0.56329976  0.75234255  1
  V  V14  1  0.56553080  0.00050921  0.74843730  1
  V  V15  1  0.43229334  0.00183590  0.24912512  1
  V  V16  1  0.99923879  0.56675035  0.24887348  1
  V  V17  1  0.99771161  0.43834481  0.74751012  1
  P  P18  1  0.91344715  0.77823024  0.84140207  1
  P  P19  1  0.77282721  0.91320927  0.34028949  1
  P  P20  1  0.91743943  0.30581779  0.33868629  1
  P  P21  1  0.66506896  0.66723664  0.13000357  1
  P  P22  1  0.66356454  0.66929145  0.63017512  1
  P  P23  1  0.77568571  0.31427943  0.84010855  1
  P  P24  1  0.68817421  0.22757107  0.65479179  1
  P  P25  1  0.31823872  0.90583484  0.84315998  1
  P  P26  1  0.68569252  0.08811760  0.15566973  1
  P  P27  1  0.31639803  0.77175453  0.34637256  1
  P  P28  1  0.22141568  0.69287940  0.16265271  1
  P  P29  1  0.33457765  0.33221807  0.36951128  1
  P  P30  1  0.33503346  0.32997221  0.87105609  1
  P  P31  1  0.08296649  0.69010872  0.65559994  1
  P  P32  1  0.22309002  0.08858855  0.65979955  1
  P  P33  1  0.08478886  0.23057748  0.15379206  1
  O  O34  1  0.99771812  0.77308668  0.56429870  1
  O  O35  1  0.91710439  0.74575984  0.34196682  1
  O  O36  1  0.77347868  0.01277704  0.06559031  1
  O  O37  1  0.73977548  0.91971839  0.84057006  1
  O  O38  1  0.90266547  0.62582299  0.83327000  1
  O  O39  1  0.80506619  0.67443460  0.17641414  1
  O  O40  1  0.92503376  0.45816877  0.33077211  1
  O  O41  1  0.00201665  0.22956586  0.06238642  1
  O  O42  1  0.92283702  0.33228235  0.84311995  1
  O  O43  1  0.67548731  0.81416226  0.66927989  1
  O  O44  1  0.61819151  0.90959623  0.32663254  1
  O  O45  1  0.80847708  0.52106432  0.67891198  1
  O  O46  1  0.66356299  0.66653351  0.02211693  1
  O  O47  1  0.66302558  0.67206159  0.52390340  1
  O  O48  1  0.67591152  0.51023125  0.16746072  1
  O  O49  1  0.48251882  0.89122907  0.82867296  1
  O  O50  1  0.50841693  0.81154326  0.16753948  1
  O  O51  1  0.74499222  0.33947279  0.34106141  1
  O  O52  1  0.79642248  0.20852907  0.74764580  1
  O  O53  1  0.77825071  0.21291351  0.56465629  1
  O  O54  1  0.76496590  0.23125711  0.92845142  1
  O  O55  1  0.62874191  0.48098057  0.82732398  1
  O  O56  1  0.51008341  0.67713958  0.67150464  1
  O  O57  1  0.66003061  0.25794964  0.16147855  1
  O  O58  1  0.47402944  0.61965190  0.32987064  1
  O  O59  1  0.33760319  0.91799632  0.34275605  1
  O  O60  1  0.79588295  0.99796427  0.24761079  1
  O  O61  1  0.77098799  0.00252769  0.42890219  1
  O  O62  1  0.21695602  0.00438124  0.57012747  1
  O  O63  1  0.66384920  0.08278274  0.66063992  1
  O  O64  1  0.53415102  0.38392815  0.66534663  1
  O  O65  1  0.33975828  0.74106506  0.84210713  1
  O  O66  1  0.48895519  0.32254268  0.32833272  1
  O  O67  1  0.38083496  0.54010297  0.16953823  1
  O  O68  1  0.20489536  0.79935007  0.08052564  1
  O  O69  1  0.23483905  0.76952985  0.43760069  1
  O  O70  1  0.20039052  0.79218146  0.25950965  1
  O  O71  1  0.24909284  0.66988581  0.65875834  1
  O  O72  1  0.48660616  0.18346136  0.82975404  1
  O  O73  1  0.53008707  0.08850105  0.16833634  1
  O  O74  1  0.33830470  0.47524213  0.82328521  1
  O  O75  1  0.33874602  0.32717412  0.97720385  1
  O  O76  1  0.34277651  0.32056989  0.47638029  1
  O  O77  1  0.18942295  0.48917770  0.33315804  1
  O  O78  1  0.38316610  0.08295744  0.67045000  1
  O  O79  1  0.32156743  0.18948492  0.32678324  1
  O  O80  1  0.08421491  0.65842744  0.16594948  1
  O  O81  1  0.98626942  0.80218007  0.74312019  1
  O  O82  1  0.00296292  0.78832515  0.92335534  1
  O  O83  1  0.09083205  0.53095553  0.67070225  1
  O  O84  1  0.18486973  0.33072006  0.82963514  1
  O  O85  1  0.09259414  0.37950481  0.16988260  1
  O  O86  1  0.25198507  0.08214903  0.15874509  1
  O  O87  1  0.23580957  0.99749949  0.93181651  1
  O  O88  1  0.20814852  0.99735988  0.75179323  1
  O  O89  1  0.08542429  0.25553307  0.66290493  1
  O  O90  1  0.01093561  0.19780050  0.41995687  1
  O  O91  1  0.98843968  0.20963541  0.24046908  1
