# generated using pymatgen
data_Li2Fe3Si3O10
_symmetry_space_group_name_H-M   'P 1'
_cell_length_a   4.86387294
_cell_length_b   8.37485430
_cell_length_c   10.49383129
_cell_angle_alpha   93.45335783
_cell_angle_beta   90.00000000
_cell_angle_gamma   73.11896527
_symmetry_Int_Tables_number   1
_chemical_formula_structural   Li2Fe3Si3O10
_chemical_formula_sum   'Li4 Fe6 Si6 O20'
_cell_volume   408.22761981
_cell_formula_units_Z   2
loop_
 _symmetry_equiv_pos_site_id
 _symmetry_equiv_pos_as_xyz
  1  'x, y, z'
loop_
 _atom_site_type_symbol
 _atom_site_label
 _atom_site_symmetry_multiplicity
 _atom_site_fract_x
 _atom_site_fract_y
 _atom_site_fract_z
 _atom_site_occupancy
  Li  Li0  1  0.26539931  0.88106930  0.02181844  1
  Li  Li1  1  0.85353039  0.88106930  0.52181844  1
  Li  Li2  1  0.14646961  0.11893070  0.47818156  1
  Li  Li3  1  0.73460069  0.11893070  0.97818156  1
  Fe  Fe4  1  0.37308244  0.68751086  0.29065331  1
  Fe  Fe5  1  0.93940770  0.68751086  0.79065331  1
  Fe  Fe6  1  0.50000000  0.50000000  0.00000000  1
  Fe  Fe7  1  0.00000000  0.50000000  0.50000000  1
  Fe  Fe8  1  0.06059230  0.31248914  0.20934669  1
  Fe  Fe9  1  0.62691756  0.31248914  0.70934669  1
  Si  Si10  1  0.83961728  0.69149636  0.09708033  1
  Si  Si11  1  0.46888636  0.69149636  0.59708033  1
  Si  Si12  1  0.53111364  0.30850364  0.40291967  1
  Si  Si13  1  0.16038272  0.30850364  0.90291967  1
  Si  Si14  1  0.81245337  0.00000000  0.25000000  1
  Si  Si15  1  0.18754663  1.00000000  0.75000000  1
  O  O16  1  0.04183522  0.90786767  0.35533500  1
  O  O17  1  0.65249737  0.87033912  0.17409320  1
  O  O18  1  0.05029710  0.90786767  0.85533500  1
  O  O19  1  0.47716250  0.87033912  0.67409320  1
  O  O20  1  0.17663049  0.68805196  0.09985515  1
  O  O21  1  0.61076165  0.69437783  0.45623572  1
  O  O22  1  0.13531755  0.68805196  0.59985515  1
  O  O23  1  0.69486052  0.69437783  0.95623572  1
  O  O24  1  0.75851980  0.54210432  0.17017691  1
  O  O25  1  0.69937588  0.54210432  0.67017691  1
  O  O26  1  0.30062412  0.45789568  0.32982309  1
  O  O27  1  0.24148020  0.45789568  0.82982309  1
  O  O28  1  0.30513948  0.30562217  0.04376428  1
  O  O29  1  0.86468245  0.31194804  0.40014485  1
  O  O30  1  0.38923835  0.30562217  0.54376428  1
  O  O31  1  0.82336951  0.31194804  0.90014485  1
  O  O32  1  0.52283750  0.12966088  0.32590680  1
  O  O33  1  0.94970290  0.09213233  0.14466500  1
  O  O34  1  0.34750263  0.12966088  0.82590680  1
  O  O35  1  0.95816478  0.09213233  0.64466500  1
