# generated using pymatgen
data_Li4MnCo2O7
_symmetry_space_group_name_H-M   'P 1'
_cell_length_a   3.02240741
_cell_length_b   5.99729657
_cell_length_c   14.23120465
_cell_angle_alpha   82.83504058
_cell_angle_beta   95.68413391
_cell_angle_gamma   95.03633652
_symmetry_Int_Tables_number   1
_chemical_formula_structural   Li4MnCo2O7
_chemical_formula_sum   'Li8 Mn2 Co4 O14'
_cell_volume   253.94143289
_cell_formula_units_Z   2
loop_
 _symmetry_equiv_pos_site_id
 _symmetry_equiv_pos_as_xyz
  1  'x, y, z'
loop_
 _atom_site_type_symbol
 _atom_site_label
 _atom_site_symmetry_multiplicity
 _atom_site_fract_x
 _atom_site_fract_y
 _atom_site_fract_z
 _atom_site_occupancy
  Li  Li0  1  0.00204541  0.49982156  0.00109044  1
  Li  Li1  1  0.57574604  0.21978711  0.14612599  1
  Li  Li2  1  0.14285700  0.92857100  0.28571400  1
  Li  Li3  1  0.42740439  0.78451935  0.85551632  1
  Li  Li4  1  0.85830961  0.07262365  0.71591268  1
  Li  Li5  1  0.28366859  0.35732144  0.57033856  1
  Li  Li6  1  0.70996896  0.63735589  0.42530201  1
  Li  Li7  1  0.14285700  0.42857100  0.28571400  1
  Mn  Mn8  1  0.00148423  0.00005123  0.00110939  1
  Mn  Mn9  1  0.28422977  0.85709177  0.57031961  1
  Co  Co10  1  0.57902699  0.70000940  0.14915191  1
  Co  Co11  1  0.70668801  0.15713360  0.42227609  1
  Co  Co12  1  0.85925201  0.56938118  0.71477615  1
  Co  Co13  1  0.42646199  0.28776182  0.85665285  1
  O  O14  1  0.47585005  0.24494464  0.99332096  1
  O  O15  1  0.04619008  0.95301726  0.13901259  1
  O  O16  1  0.63133903  0.68512119  0.27230623  1
  O  O17  1  0.90145494  0.52428668  0.85056605  1
  O  O18  1  0.33060275  0.81055781  0.70962527  1
  O  O19  1  0.75872609  0.10217320  0.56059380  1
  O  O20  1  0.19394722  0.37462085  0.42826801  1
  O  O21  1  0.52698791  0.75496980  0.01083520  1
  O  O22  1  0.09176678  0.48252215  0.14316099  1
  O  O23  1  0.65437497  0.17202181  0.29912277  1
  O  O24  1  0.95511225  0.04658519  0.86180273  1
  O  O25  1  0.38425906  0.33285532  0.72086195  1
  O  O26  1  0.80986495  0.61219836  0.57810704  1
  O  O27  1  0.23952392  0.90412574  0.43241641  1
