# generated using pymatgen
data_Li4MnSi2O7
_symmetry_space_group_name_H-M   'P 1'
_cell_length_a   4.58516901
_cell_length_b   5.31969332
_cell_length_c   6.91140394
_cell_angle_alpha   79.87369848
_cell_angle_beta   90.00000000
_cell_angle_gamma   64.47138134
_symmetry_Int_Tables_number   1
_chemical_formula_structural   Li4MnSi2O7
_chemical_formula_sum   'Li4 Mn1 Si2 O7'
_cell_volume   149.20687151
_cell_formula_units_Z   1
loop_
 _symmetry_equiv_pos_site_id
 _symmetry_equiv_pos_as_xyz
  1  'x, y, z'
loop_
 _atom_site_type_symbol
 _atom_site_label
 _atom_site_symmetry_multiplicity
 _atom_site_fract_x
 _atom_site_fract_y
 _atom_site_fract_z
 _atom_site_occupancy
  Li  Li0  1  0.16703688  0.70120784  0.43855031  1
  Li  Li1  1  0.71809483  0.57479820  0.14930923  1
  Li  Li2  1  0.29289303  0.42520180  0.85069077  1
  Li  Li3  1  0.86824472  0.29879216  0.56144969  1
  Mn  Mn4  1  0.99865292  0.00000000  0.00000000  1
  Si  Si5  1  0.56622281  0.84846210  0.70838831  1
  Si  Si6  1  0.41468491  0.15153790  0.29161169  1
  O  O7  1  0.34428958  0.89470296  0.23222464  1
  O  O8  1  0.85961655  0.72695763  0.88612067  1
  O  O9  1  0.49852566  0.59083125  0.65651423  1
  O  O10  1  0.08935791  0.40916875  0.34348577  1
  O  O11  1  0.58657418  0.27304237  0.11387933  1
  O  O12  1  0.23899354  0.10529704  0.76777536  1
  O  O13  1  0.68381149  1.00000000  0.50000000  1
