# generated using pymatgen
data_Li4Cr2Si3O10
_symmetry_space_group_name_H-M   'P 1'
_cell_length_a   5.44228453
_cell_length_b   5.44228453
_cell_length_c   16.67646745
_cell_angle_alpha   82.22380148
_cell_angle_beta   97.77619852
_cell_angle_gamma   118.09513566
_symmetry_Int_Tables_number   1
_chemical_formula_structural   Li4Cr2Si3O10
_chemical_formula_sum   'Li8 Cr4 Si6 O20'
_cell_volume   430.27258442
_cell_formula_units_Z   2
loop_
 _symmetry_equiv_pos_site_id
 _symmetry_equiv_pos_as_xyz
  1  'x, y, z'
loop_
 _atom_site_type_symbol
 _atom_site_label
 _atom_site_symmetry_multiplicity
 _atom_site_fract_x
 _atom_site_fract_y
 _atom_site_fract_z
 _atom_site_occupancy
  Li  Li0  1  0.16679161  0.67243030  0.94675985  1
  Li  Li1  1  0.41589434  0.78869285  0.76646469  1
  Li  Li2  1  0.32756970  0.83320839  0.44675985  1
  Li  Li3  1  0.21130715  0.58410566  0.26646469  1
  Li  Li4  1  0.78869285  0.41589434  0.73353531  1
  Li  Li5  1  0.67243030  0.16679161  0.55324015  1
  Li  Li6  1  0.58410566  0.21130715  0.23353531  1
  Li  Li7  1  0.83320839  0.32756970  0.05324015  1
  Cr  Cr8  1  0.80118169  0.97634500  0.91700947  1
  Cr  Cr9  1  0.02365500  0.19881831  0.41700947  1
  Cr  Cr10  1  0.97634500  0.80118169  0.58299053  1
  Cr  Cr11  1  0.19881831  0.02365500  0.08299053  1
  Si  Si12  1  0.34360584  0.46879505  0.59847436  1
  Si  Si13  1  0.11245097  0.11245097  0.75000000  1
  Si  Si14  1  0.46879505  0.34360584  0.90152564  1
  Si  Si15  1  0.53120495  0.65639416  0.09847436  1
  Si  Si16  1  0.88754903  0.88754903  0.25000000  1
  Si  Si17  1  0.65639416  0.53120495  0.40152564  1
  O  O18  1  0.07195717  0.84221653  0.70816123  1
  O  O19  1  0.15778347  0.92804283  0.20816123  1
  O  O20  1  0.39650553  0.78082345  0.56560143  1
  O  O21  1  0.42557890  0.62624964  0.88448263  1
  O  O22  1  0.20124210  0.40229027  0.68785317  1
  O  O23  1  0.22820027  0.09818796  0.95773696  1
  O  O24  1  0.09818796  0.22820027  0.54226304  1
  O  O25  1  0.21917655  0.60349447  0.06560143  1
  O  O26  1  0.37375036  0.57442110  0.38448263  1
  O  O27  1  0.40229027  0.20124210  0.81214683  1
  O  O28  1  0.59770973  0.79875790  0.18785317  1
  O  O29  1  0.62624964  0.42557890  0.61551737  1
  O  O30  1  0.78082345  0.39650553  0.93439857  1
  O  O31  1  0.90181204  0.77179973  0.45773696  1
  O  O32  1  0.77179973  0.90181204  0.04226304  1
  O  O33  1  0.79875790  0.59770973  0.31214683  1
  O  O34  1  0.57442110  0.37375036  0.11551737  1
  O  O35  1  0.60349447  0.21917655  0.43439857  1
  O  O36  1  0.84221653  0.07195717  0.79183877  1
  O  O37  1  0.92804283  0.15778347  0.29183877  1
