# generated using pymatgen
data_LiFeSiO4
_symmetry_space_group_name_H-M   'P 1'
_cell_length_a   10.28465661
_cell_length_b   13.54305060
_cell_length_c   5.13785485
_cell_angle_alpha   90.00000000
_cell_angle_beta   90.00000000
_cell_angle_gamma   90.00000000
_symmetry_Int_Tables_number   1
_chemical_formula_structural   LiFeSiO4
_chemical_formula_sum   'Li8 Fe8 Si8 O32'
_cell_volume   715.62932329
_cell_formula_units_Z   8
loop_
 _symmetry_equiv_pos_site_id
 _symmetry_equiv_pos_as_xyz
  1  'x, y, z'
loop_
 _atom_site_type_symbol
 _atom_site_label
 _atom_site_symmetry_multiplicity
 _atom_site_fract_x
 _atom_site_fract_y
 _atom_site_fract_z
 _atom_site_occupancy
  Li  Li0  1  0.03462122  0.75246440  0.06452131  1
  Li  Li1  1  0.21506733  0.00192087  0.55021581  1
  Li  Li2  1  0.28493267  0.50192087  0.55021581  1
  Li  Li3  1  0.46537878  0.25246440  0.06452131  1
  Li  Li4  1  0.53462122  0.75246440  0.93547869  1
  Li  Li5  1  0.71506733  0.00192087  0.44978419  1
  Li  Li6  1  0.78493267  0.50192087  0.44978419  1
  Li  Li7  1  0.96537878  0.25246440  0.93547869  1
  Fe  Fe8  1  0.03243766  0.50221640  0.92164123  1
  Fe  Fe9  1  0.21475380  0.75060867  0.55601487  1
  Fe  Fe10  1  0.28524620  0.25060867  0.55601487  1
  Fe  Fe11  1  0.46756234  0.00221640  0.92164123  1
  Fe  Fe12  1  0.53243766  0.50221640  0.07835877  1
  Fe  Fe13  1  0.71475380  0.75060867  0.44398513  1
  Fe  Fe14  1  0.78524620  0.25060867  0.44398513  1
  Fe  Fe15  1  0.96756234  0.00221640  0.07835877  1
  Si  Si16  1  0.03332506  0.37565291  0.43179400  1
  Si  Si17  1  0.21598032  0.12771862  0.05435414  1
  Si  Si18  1  0.28401968  0.62771862  0.05435414  1
  Si  Si19  1  0.46667494  0.87565291  0.43179400  1
  Si  Si20  1  0.53332506  0.37565291  0.56820600  1
  Si  Si21  1  0.71598032  0.12771862  0.94564586  1
  Si  Si22  1  0.78401968  0.62771862  0.94564586  1
  Si  Si23  1  0.96667494  0.87565291  0.56820600  1
  O  O24  1  0.99845721  0.88434199  0.88108883  1
  O  O25  1  0.97465790  0.47440559  0.57741274  1
  O  O26  1  0.04069181  0.77764370  0.45037874  1
  O  O27  1  0.05909606  0.12061184  0.99068382  1
  O  O28  1  0.19005954  0.36874464  0.49015464  1
  O  O29  1  0.21397733  0.52926026  0.92822891  1
  O  O30  1  0.28089815  0.22629662  0.92067732  1
  O  O31  1  0.24049199  0.13371348  0.37075975  1
  O  O32  1  0.25950801  0.63371348  0.37075975  1
  O  O33  1  0.21910185  0.72629662  0.92067732  1
  O  O34  1  0.28602267  0.02926026  0.92822891  1
  O  O35  1  0.30994046  0.86874464  0.49015464  1
  O  O36  1  0.44090394  0.62061184  0.99068382  1
  O  O37  1  0.45930819  0.27764370  0.45037874  1
  O  O38  1  0.52534210  0.97440559  0.57741274  1
  O  O39  1  0.50154279  0.38434199  0.88108883  1
  O  O40  1  0.49845721  0.88434199  0.11891117  1
  O  O41  1  0.47465790  0.47440559  0.42258726  1
  O  O42  1  0.54069181  0.77764370  0.54962126  1
  O  O43  1  0.55909606  0.12061184  0.00931618  1
  O  O44  1  0.69005954  0.36874464  0.50984536  1
  O  O45  1  0.71397733  0.52926026  0.07177109  1
  O  O46  1  0.78089815  0.22629662  0.07932268  1
  O  O47  1  0.74049199  0.13371348  0.62924025  1
  O  O48  1  0.75950801  0.63371348  0.62924025  1
  O  O49  1  0.71910185  0.72629662  0.07932268  1
  O  O50  1  0.78602267  0.02926026  0.07177109  1
  O  O51  1  0.80994046  0.86874464  0.50984536  1
  O  O52  1  0.94090394  0.62061184  0.00931618  1
  O  O53  1  0.95930819  0.27764370  0.54962126  1
  O  O54  1  0.02534210  0.97440559  0.42258726  1
  O  O55  1  0.00154279  0.38434199  0.11891117  1
