# generated using pymatgen
data_Co6OF11
_symmetry_space_group_name_H-M   'P 1'
_cell_length_a   7.40956566
_cell_length_b   5.70792437
_cell_length_c   5.70792437
_cell_angle_alpha   72.99603016
_cell_angle_beta   73.32992111
_cell_angle_gamma   73.32992111
_symmetry_Int_Tables_number   1
_chemical_formula_structural   Co6OF11
_chemical_formula_sum   'Co6 O1 F11'
_cell_volume   215.65478146
_cell_formula_units_Z   1
loop_
 _symmetry_equiv_pos_site_id
 _symmetry_equiv_pos_as_xyz
  1  'x, y, z'
loop_
 _atom_site_type_symbol
 _atom_site_label
 _atom_site_symmetry_multiplicity
 _atom_site_fract_x
 _atom_site_fract_y
 _atom_site_fract_z
 _atom_site_occupancy
  Co  Co0  1  0.83437837  0.66708258  0.66708258  1
  Co  Co1  1  0.33071341  0.65159036  0.65159036  1
  Co  Co2  1  0.65718970  0.33570899  0.33570899  1
  Co  Co3  1  0.17854388  0.34065661  0.34065661  1
  Co  Co4  1  0.49849950  0.99797662  0.99797662  1
  Co  Co5  1  0.00301375  0.00261404  0.00261404  1
  O  O6  1  0.36202969  0.44142876  0.44142876  1
  F  F7  1  0.33003921  0.35987232  0.97327637  1
  F  F8  1  0.66912018  0.03137351  0.63748837  1
  F  F9  1  0.62792120  0.57130613  0.57130613  1
  F  F10  1  0.30286616  0.88549594  0.88549594  1
  F  F11  1  0.96569310  0.23793445  0.23793445  1
  F  F12  1  0.03985317  0.76551741  0.76551741  1
  F  F13  1  0.70287598  0.10191048  0.10191048  1
  F  F14  1  0.33003921  0.97327637  0.35987232  1
  F  F15  1  0.66912018  0.63748837  0.03137351  1
  F  F16  1  0.99905216  0.30060271  0.69816636  1
  F  F17  1  0.99905216  0.69816636  0.30060271  1
