# generated using pymatgen
data_Li8Fe3Ni7O20
_symmetry_space_group_name_H-M   'P 1'
_cell_length_a   5.17260831
_cell_length_b   2.87956499
_cell_length_c   23.86792418
_cell_angle_alpha   90.00000000
_cell_angle_beta   93.54599065
_cell_angle_gamma   90.00000000
_symmetry_Int_Tables_number   1
_chemical_formula_structural   Li8Fe3Ni7O20
_chemical_formula_sum   'Li8 Fe3 Ni7 O20'
_cell_volume   354.82880011
_cell_formula_units_Z   1
loop_
 _symmetry_equiv_pos_site_id
 _symmetry_equiv_pos_as_xyz
  1  'x, y, z'
loop_
 _atom_site_type_symbol
 _atom_site_label
 _atom_site_symmetry_multiplicity
 _atom_site_fract_x
 _atom_site_fract_y
 _atom_site_fract_z
 _atom_site_occupancy
  Li  Li0  1  0.10000000  0.50000000  0.80000000  1
  Li  Li1  1  0.10000000  0.00000000  0.30000000  1
  Li  Li2  1  0.29724479  0.00000000  0.90117963  1
  Li  Li3  1  0.49866599  0.50000000  0.00000533  1
  Li  Li4  1  0.48218574  0.00000000  0.49141338  1
  Li  Li5  1  0.70133401  0.50000000  0.59999467  1
  Li  Li6  1  0.90275521  0.00000000  0.69882037  1
  Li  Li7  1  0.71781426  0.00000000  0.10858662  1
  Fe  Fe8  1  0.40659416  0.50000000  0.69707841  1
  Fe  Fe9  1  0.60000000  0.00000000  0.80000000  1
  Fe  Fe10  1  0.79340584  0.50000000  0.90292159  1
  Ni  Ni11  1  0.19781433  0.00000000  0.59786274  1
  Ni  Ni12  1  0.00218567  0.00000000  0.00213726  1
  Ni  Ni13  1  0.20739048  0.50000000  0.10076124  1
  Ni  Ni14  1  0.40179699  0.00000000  0.20140685  1
  Ni  Ni15  1  0.60000000  0.50000000  0.30000000  1
  Ni  Ni16  1  0.79820301  0.00000000  0.39859315  1
  Ni  Ni17  1  0.99260952  0.50000000  0.49923876  1
  O  O18  1  0.12674004  0.50000000  0.95328840  1
  O  O19  1  0.07325996  0.50000000  0.64671160  1
  O  O20  1  0.11665340  0.00000000  0.45728054  1
  O  O21  1  0.26995711  0.00000000  0.74817771  1
  O  O22  1  0.08334660  0.00000000  0.14271946  1
  O  O23  1  0.30276354  0.50000000  0.54673465  1
  O  O24  1  0.29923392  0.50000000  0.25204747  1
  O  O25  1  0.46092684  0.50000000  0.84991380  1
  O  O26  1  0.33870483  0.00000000  0.05734935  1
  O  O27  1  0.54763582  0.00000000  0.64802333  1
  O  O28  1  0.65236418  0.00000000  0.95197667  1
  O  O29  1  0.47454416  0.00000000  0.34234690  1
  O  O30  1  0.50480370  0.50000000  0.14980913  1
  O  O31  1  0.73907316  0.50000000  0.75008620  1
  O  O32  1  0.69519630  0.50000000  0.45019087  1
  O  O33  1  0.72545584  0.00000000  0.25765310  1
  O  O34  1  0.93004289  0.00000000  0.85182329  1
  O  O35  1  0.86129517  0.00000000  0.54265065  1
  O  O36  1  0.90076608  0.50000000  0.34795253  1
  O  O37  1  0.89723646  0.50000000  0.05326535  1
