# generated using pymatgen
data_LiMn3Al2(HO2)6
_symmetry_space_group_name_H-M   'P 1'
_cell_length_a   9.65574535
_cell_length_b   5.98323125
_cell_length_c   7.83424701
_cell_angle_alpha   101.92835407
_cell_angle_beta   86.35710602
_cell_angle_gamma   81.45668562
_symmetry_Int_Tables_number   1
_chemical_formula_structural   LiMn3Al2(HO2)6
_chemical_formula_sum   'Li2 Mn6 Al4 H12 O24'
_cell_volume   435.83528230
_cell_formula_units_Z   2
loop_
 _symmetry_equiv_pos_site_id
 _symmetry_equiv_pos_as_xyz
  1  'x, y, z'
loop_
 _atom_site_type_symbol
 _atom_site_label
 _atom_site_symmetry_multiplicity
 _atom_site_fract_x
 _atom_site_fract_y
 _atom_site_fract_z
 _atom_site_occupancy
  Li  Li0  1  0.50053749  0.25882954  0.51092089  1
  Li  Li1  1  0.49944050  0.57446557  0.82228850  1
  Mn  Mn2  1  0.00006122  0.00053670  0.00125015  1
  Mn  Mn3  1  0.00035847  0.16438125  0.66719573  1
  Mn  Mn4  1  0.00376874  0.33047441  0.33202931  1
  Mn  Mn5  1  0.99971358  0.66902019  0.66624644  1
  Mn  Mn6  1  0.99613423  0.50299625  0.00151141  1
  Mn  Mn7  1  0.99984624  0.83272304  0.33223477  1
  Al  Al8  1  0.49699885  0.08571561  0.82875829  1
  Al  Al9  1  0.49998287  0.41665401  0.16661602  1
  Al  Al10  1  0.50300156  0.74753574  0.50446743  1
  Al  Al11  1  0.50001786  0.91665596  0.16661001  1
  H  H12  1  0.30051261  0.00736587  0.40882796  1
  H  H13  1  0.28683039  0.19541211  0.08482136  1
  H  H14  1  0.29020991  0.34165374  0.75481435  1
  H  H15  1  0.70356743  0.13634905  0.24342059  1
  H  H16  1  0.70417895  0.28596228  0.93107045  1
  H  H17  1  0.29575183  0.54737425  0.40232471  1
  H  H18  1  0.70976612  0.49174235  0.57844655  1
  H  H19  1  0.29638222  0.69701606  0.08985748  1
  H  H20  1  0.29075959  0.87651382  0.73583072  1
  H  H21  1  0.71315799  0.63777582  0.24858636  1
  H  H22  1  0.69951377  0.82600253  0.92430495  1
  H  H23  1  0.70934431  0.95666244  0.59745402  1
  O  O24  1  0.40420117  0.97754724  0.39213880  1
  O  O25  1  0.10734474  0.06250784  0.44282421  1
  O  O26  1  0.39217637  0.16772433  0.07464577  1
  O  O27  1  0.10972833  0.23044774  0.10383055  1
  O  O28  1  0.09742068  0.41886131  0.76417996  1
  O  O29  1  0.39219240  0.31721767  0.75079030  1
  O  O30  1  0.89757844  0.07761117  0.23380038  1
  O  O31  1  0.60055207  0.16385287  0.24887149  1
  O  O32  1  0.89631018  0.24388496  0.90393764  1
  O  O33  1  0.60084281  0.31674496  0.94249831  1
  O  O34  1  0.10382597  0.59004526  0.43003474  1
  O  O35  1  0.39912926  0.51656289  0.39071435  1
  O  O36  1  0.90252654  0.41467910  0.56892873  1
  O  O37  1  0.60779302  0.51605955  0.58243629  1
  O  O38  1  0.39941081  0.66949837  0.08435576  1
  O  O39  1  0.10213766  0.75511851  0.09938804  1
  O  O40  1  0.10233357  0.91802178  0.76656402  1
  O  O41  1  0.39380948  0.84989740  0.72397753  1
  O  O42  1  0.89026521  0.60246624  0.23023678  1
  O  O43  1  0.60781089  0.66556026  0.25856605  1
  O  O44  1  0.89233092  0.77135407  0.89005740  1
  O  O45  1  0.59578650  0.85575620  0.94109627  1
  O  O46  1  0.89783115  0.91538513  0.56700413  1
  O  O47  1  0.60622212  0.98337758  0.60923504  1
