# generated using pymatgen
data_LiMn3Al2(HO2)6
_symmetry_space_group_name_H-M   'P 1'
_cell_length_a   5.96909132
_cell_length_b   10.11904803
_cell_length_c   7.79854407
_cell_angle_alpha   70.40278969
_cell_angle_beta   101.64171393
_cell_angle_gamma   90.73174692
_symmetry_Int_Tables_number   1
_chemical_formula_structural   LiMn3Al2(HO2)6
_chemical_formula_sum   'Li2 Mn6 Al4 H12 O24'
_cell_volume   433.85908331
_cell_formula_units_Z   2
loop_
 _symmetry_equiv_pos_site_id
 _symmetry_equiv_pos_as_xyz
  1  'x, y, z'
loop_
 _atom_site_type_symbol
 _atom_site_label
 _atom_site_symmetry_multiplicity
 _atom_site_fract_x
 _atom_site_fract_y
 _atom_site_fract_z
 _atom_site_occupancy
  Li  Li0  1  0.83738774  0.49684239  0.32349277  1
  Li  Li1  1  0.99592647  0.50315790  0.01000488  1
  Mn  Mn2  1  0.83727115  0.99700029  0.33491319  1
  Mn  Mn3  1  0.49588535  0.00341675  0.99868827  1
  Mn  Mn4  1  0.66534280  0.00135096  0.66545657  1
  Mn  Mn5  1  0.33732998  0.99598750  0.33641815  1
  Mn  Mn6  1  0.99785722  0.00239603  0.99864996  1
  Mn  Mn7  1  0.16612945  0.00033783  0.66537444  1
  Al  Al8  1  0.50306102  0.50319491  0.00354797  1
  Al  Al9  1  0.67286143  0.49873439  0.66842006  1
  Al  Al10  1  0.33030671  0.49664938  0.33008062  1
  Al  Al11  1  0.16046961  0.50131309  0.66477551  1
  H  H12  1  0.91537664  0.28836586  0.66528078  1
  H  H13  1  0.72878214  0.71080338  0.01054989  1
  H  H14  1  0.91795938  0.71145997  0.66765000  1
  H  H15  1  0.56078772  0.29048952  0.30616189  1
  H  H16  1  0.72947546  0.29691600  0.97259450  1
  H  H17  1  0.57910512  0.69921615  0.35987421  1
  H  H18  1  0.40904813  0.29032089  0.65443859  1
  H  H19  1  0.27213159  0.70933131  0.02799537  1
  H  H20  1  0.42414974  0.70965771  0.67893722  1
  H  H21  1  0.10485068  0.28923025  0.32258571  1
  H  H22  1  0.25382480  0.30086897  0.97365782  1
  H  H23  1  0.10452645  0.70347828  0.36023270  1
  O  O24  1  0.76621550  0.10299696  0.06634155  1
  O  O25  1  0.92444427  0.10720682  0.73700130  1
  O  O26  1  0.90606741  0.39259344  0.62933192  1
  O  O27  1  0.74474913  0.60813325  0.04955357  1
  O  O28  1  0.90883065  0.89290353  0.59627189  1
  O  O29  1  0.92733134  0.60752729  0.70415690  1
  O  O30  1  0.54566529  0.39339864  0.26012445  1
  O  O31  1  0.59390021  0.10271688  0.39647692  1
  O  O32  1  0.70912783  0.39956627  0.92480535  1
  O  O33  1  0.58177626  0.59517102  0.41219482  1
  O  O34  1  0.72813135  0.90115058  0.93718211  1
  O  O35  1  0.56069543  0.89574491  0.26493472  1
  O  O36  1  0.42258635  0.10904141  0.73742588  1
  O  O37  1  0.40255148  0.39513461  0.60512465  1
  O  O38  1  0.26803859  0.10387689  0.06726411  1
  O  O39  1  0.43084431  0.60468765  0.72845515  1
  O  O40  1  0.41077789  0.89046650  0.59692932  1
  O  O41  1  0.28753022  0.60666648  0.07310051  1
  O  O42  1  0.11045508  0.09911696  0.39676021  1
  O  O43  1  0.08843670  0.39156643  0.28396440  1
  O  O44  1  0.25166213  0.40470262  0.92128610  1
  O  O45  1  0.12430653  0.60005139  0.40888313  1
  O  O46  1  0.07364498  0.89503022  0.26423948  1
  O  O47  1  0.23258230  0.89943054  0.93861045  1
