# generated using pymatgen
data_LiFe(PO3)4
_symmetry_space_group_name_H-M   'P 1'
_cell_length_a   7.21119688
_cell_length_b   7.21294439
_cell_length_c   9.77562602
_cell_angle_alpha   70.81375254
_cell_angle_beta   80.74180812
_cell_angle_gamma   109.76421509
_symmetry_Int_Tables_number   1
_chemical_formula_structural   LiFe(PO3)4
_chemical_formula_sum   'Li2 Fe2 P8 O24'
_cell_volume   430.25277524
_cell_formula_units_Z   2
loop_
 _symmetry_equiv_pos_site_id
 _symmetry_equiv_pos_as_xyz
  1  'x, y, z'
loop_
 _atom_site_type_symbol
 _atom_site_label
 _atom_site_symmetry_multiplicity
 _atom_site_fract_x
 _atom_site_fract_y
 _atom_site_fract_z
 _atom_site_occupancy
  Li  Li0  1  0.99890648  0.99679709  0.99975259  1
  Li  Li1  1  0.50030364  0.00353082  0.50131257  1
  Fe  Fe2  1  0.05193855  0.80151016  0.75071648  1
  Fe  Fe3  1  0.94673939  0.19616042  0.25042809  1
  P  P4  1  0.27044720  0.72738896  0.02261646  1
  P  P5  1  0.69108388  0.98676666  0.80141154  1
  P  P6  1  0.28690595  0.49122483  0.69809708  1
  P  P7  1  0.24968634  0.28940485  0.48008467  1
  P  P8  1  0.74870552  0.70924193  0.52057370  1
  P  P9  1  0.71066521  0.50998370  0.30043614  1
  P  P10  1  0.30822518  0.01133420  0.19859376  1
  P  P11  1  0.72874065  0.27001462  0.97825421  1
  O  O12  1  0.18940085  0.85873947  0.91292391  1
  O  O13  1  0.35182034  0.96737173  0.34506616  1
  O  O14  1  0.26795710  0.70136992  0.68001318  1
  O  O15  1  0.29847150  0.81171535  0.15342625  1
  O  O16  1  0.50178343  0.77601662  0.93881221  1
  O  O17  1  0.15324725  0.48655522  0.09753301  1
  O  O18  1  0.21016215  0.43744022  0.56207827  1
  O  O19  1  0.18545929  0.30309667  0.84532550  1
  O  O20  1  0.72710479  0.89986151  0.41067956  1
  O  O21  1  0.08594673  0.24230833  0.40416973  1
  O  O22  1  0.88056998  0.94550494  0.82118423  1
  O  O23  1  0.53152182  0.54714037  0.64875791  1
  O  O24  1  0.46557673  0.45090553  0.35095564  1
  O  O25  1  0.11589501  0.04774116  0.18127335  1
  O  O26  1  0.91285014  0.75302412  0.59666728  1
  O  O27  1  0.27270483  0.10001943  0.59043494  1
  O  O28  1  0.80722514  0.69745348  0.15281833  1
  O  O29  1  0.78545854  0.56148807  0.43747153  1
  O  O30  1  0.84808930  0.51054457  0.90158260  1
  O  O31  1  0.49618161  0.22207384  0.05929153  1
  O  O32  1  0.69978305  0.18375787  0.84856408  1
  O  O33  1  0.73400027  0.30233448  0.31730618  1
  O  O34  1  0.65273074  0.03500558  0.65317533  1
  O  O35  1  0.80980743  0.14052029  0.08877799  1
