# generated using pymatgen
data_Li2FeSiO4
_symmetry_space_group_name_H-M   'P 1'
_cell_length_a   6.37486112
_cell_length_b   11.01582606
_cell_length_c   5.05906712
_cell_angle_alpha   90.00000000
_cell_angle_beta   90.00000000
_cell_angle_gamma   92.38829802
_symmetry_Int_Tables_number   1
_chemical_formula_structural   Li2FeSiO4
_chemical_formula_sum   'Li8 Fe4 Si4 O16'
_cell_volume   354.96115629
_cell_formula_units_Z   4
loop_
 _symmetry_equiv_pos_site_id
 _symmetry_equiv_pos_as_xyz
  1  'x, y, z'
loop_
 _atom_site_type_symbol
 _atom_site_label
 _atom_site_symmetry_multiplicity
 _atom_site_fract_x
 _atom_site_fract_y
 _atom_site_fract_z
 _atom_site_occupancy
  Li  Li0  1  0.99715476  0.58566053  0.31361723  1
  Li  Li1  1  0.99715476  0.08566053  0.18638277  1
  Li  Li2  1  0.22644842  0.67361715  0.81246324  1
  Li  Li3  1  0.22644842  0.17361715  0.68753676  1
  Li  Li4  1  0.77355158  0.82638285  0.31246324  1
  Li  Li5  1  0.77355158  0.32638285  0.18753676  1
  Li  Li6  1  0.00284524  0.91433947  0.81361723  1
  Li  Li7  1  0.00284524  0.41433947  0.68638277  1
  Fe  Fe8  1  0.51660990  0.90628163  0.79226478  1
  Fe  Fe9  1  0.51660990  0.40628163  0.70773522  1
  Fe  Fe10  1  0.48339010  0.59371837  0.29226478  1
  Fe  Fe11  1  0.48339010  0.09371837  0.20773522  1
  Si  Si12  1  0.24340996  0.83883500  0.31504378  1
  Si  Si13  1  0.24340996  0.33883500  0.18495622  1
  Si  Si14  1  0.75659004  0.66116500  0.81504378  1
  Si  Si15  1  0.75659004  0.16116500  0.68495622  1
  O  O16  1  0.04296257  0.90902902  0.20282433  1
  O  O17  1  0.04296257  0.40902902  0.29717567  1
  O  O18  1  0.24562263  0.83894467  0.64217348  1
  O  O19  1  0.24562263  0.33894467  0.85782652  1
  O  O20  1  0.24440099  0.69585955  0.21019097  1
  O  O21  1  0.24440099  0.19585955  0.28980903  1
  O  O22  1  0.47433032  0.90647847  0.21554916  1
  O  O23  1  0.47433032  0.40647847  0.28445084  1
  O  O24  1  0.52566968  0.59352153  0.71554916  1
  O  O25  1  0.52566968  0.09352153  0.78445084  1
  O  O26  1  0.75559901  0.80414045  0.71019097  1
  O  O27  1  0.75559901  0.30414045  0.78980903  1
  O  O28  1  0.75437737  0.66105533  0.14217348  1
  O  O29  1  0.75437737  0.16105533  0.35782652  1
  O  O30  1  0.95703743  0.59097098  0.70282433  1
  O  O31  1  0.95703743  0.09097098  0.79717567  1
