# generated using pymatgen
data_Li4MnCo2O7
_symmetry_space_group_name_H-M   'P 1'
_cell_length_a   5.00021560
_cell_length_b   5.07417056
_cell_length_c   10.71557566
_cell_angle_alpha   105.40015077
_cell_angle_beta   80.61287922
_cell_angle_gamma   101.08394240
_symmetry_Int_Tables_number   1
_chemical_formula_structural   Li4MnCo2O7
_chemical_formula_sum   'Li8 Mn2 Co4 O14'
_cell_volume   255.41360543
_cell_formula_units_Z   2
loop_
 _symmetry_equiv_pos_site_id
 _symmetry_equiv_pos_as_xyz
  1  'x, y, z'
loop_
 _atom_site_type_symbol
 _atom_site_label
 _atom_site_symmetry_multiplicity
 _atom_site_fract_x
 _atom_site_fract_y
 _atom_site_fract_z
 _atom_site_occupancy
  Li  Li0  1  0.71428600  0.50000000  0.07142900  1
  Li  Li1  1  0.56906765  0.50633102  0.35967595  1
  Li  Li2  1  0.14077934  0.50363601  0.21548079  1
  Li  Li3  1  0.99642971  0.49810354  0.50149148  1
  Li  Li4  1  0.43214129  0.50189646  0.64136552  1
  Li  Li5  1  0.85950435  0.49366898  0.78318105  1
  Li  Li6  1  0.28779166  0.49636399  0.92737621  1
  Li  Li7  1  0.71428600  -0.00000000  0.57142900  1
  Mn  Mn8  1  0.00075019  0.99890845  0.99648308  1
  Mn  Mn9  1  0.42782081  0.00109155  0.14637392  1
  Co  Co10  1  0.85461077  0.00236372  0.28982401  1
  Co  Co11  1  0.57396123  0.99763628  0.85303299  1
  Co  Co12  1  0.28483838  0.00934264  0.43777330  1
  Co  Co13  1  0.14373262  0.99065736  0.70508370  1
  O  O14  1  0.91306442  0.23199851  0.89308495  1
  O  O15  1  0.77699783  0.23012752  0.18542214  1
  O  O16  1  0.34766089  0.23370300  0.04010663  1
  O  O17  1  0.19562236  0.22612700  0.32740562  1
  O  O18  1  0.61094849  0.23120802  0.46052124  1
  O  O19  1  0.08673810  0.22711743  0.60817017  1
  O  O20  1  0.46985698  0.21969052  0.75531992  1
  O  O21  1  0.51550758  0.76800149  0.24977305  1
  O  O22  1  0.34183390  0.77288257  0.53468683  1
  O  O23  1  0.95871402  0.78030948  0.38753708  1
  O  O24  1  0.81762251  0.76879198  0.68233576  1
  O  O25  1  0.23294864  0.77387300  0.81545138  1
  O  O26  1  0.65157417  0.76987248  0.95743486  1
  O  O27  1  0.08091011  0.76629700  0.10275037  1
