# generated using pymatgen
data_Li3MnCo3O8
_symmetry_space_group_name_H-M   'P 1'
_cell_length_a   5.65628480
_cell_length_b   5.65628491
_cell_length_c   5.85392047
_cell_angle_alpha   119.56425395
_cell_angle_beta   90.63836128
_cell_angle_gamma   59.94100883
_symmetry_Int_Tables_number   1
_chemical_formula_structural   Li3MnCo3O8
_chemical_formula_sum   'Li3 Mn1 Co3 O8'
_cell_volume   133.88751720
_cell_formula_units_Z   1
loop_
 _symmetry_equiv_pos_site_id
 _symmetry_equiv_pos_as_xyz
  1  'x, y, z'
loop_
 _atom_site_type_symbol
 _atom_site_label
 _atom_site_symmetry_multiplicity
 _atom_site_fract_x
 _atom_site_fract_y
 _atom_site_fract_z
 _atom_site_occupancy
  Li  Li0  1  0.00000000  0.00000000  0.50000000  1
  Li  Li1  1  0.50000000  0.00000000  0.50000000  1
  Li  Li2  1  0.50000000  0.50000000  0.50000000  1
  Mn  Mn3  1  0.00000000  0.00000000  0.00000000  1
  Co  Co4  1  0.00000000  0.50000000  0.00000000  1
  Co  Co5  1  0.50000000  0.00000000  0.00000000  1
  Co  Co6  1  0.50000000  0.50000000  0.00000000  1
  O  O7  1  0.23783822  0.02020924  0.78237102  1
  O  O8  1  0.23975509  0.52350256  0.78853373  1
  O  O9  1  0.26715640  0.47566354  0.20850714  1
  O  O10  1  0.73496883  0.02828882  0.78853373  1
  O  O11  1  0.26503117  0.97171118  0.21146627  1
  O  O12  1  0.73284360  0.52433646  0.79149286  1
  O  O13  1  0.76024491  0.47649744  0.21146627  1
  O  O14  1  0.76216178  0.97979076  0.21762898  1
