# generated using pymatgen
data_Li3FeNi3O8
_symmetry_space_group_name_H-M   'P 1'
_cell_length_a   5.82360923
_cell_length_b   5.92278483
_cell_length_c   5.77875880
_cell_angle_alpha   60.80119778
_cell_angle_beta   119.74557067
_cell_angle_gamma   120.25598159
_symmetry_Int_Tables_number   1
_chemical_formula_structural   Li3FeNi3O8
_chemical_formula_sum   'Li3 Fe1 Ni3 O8'
_cell_volume   141.76747754
_cell_formula_units_Z   1
loop_
 _symmetry_equiv_pos_site_id
 _symmetry_equiv_pos_as_xyz
  1  'x, y, z'
loop_
 _atom_site_type_symbol
 _atom_site_label
 _atom_site_symmetry_multiplicity
 _atom_site_fract_x
 _atom_site_fract_y
 _atom_site_fract_z
 _atom_site_occupancy
  Li  Li0  1  0.00000000  0.50000000  0.50000000  1
  Li  Li1  1  0.50000000  0.50000000  0.00000000  1
  Li  Li2  1  0.00000000  0.50000000  0.00000000  1
  Fe  Fe3  1  0.00000000  0.00000000  0.50000000  1
  Ni  Ni4  1  0.50000000  0.00000000  0.50000000  1
  Ni  Ni5  1  0.50000000  0.00000000  0.00000000  1
  Ni  Ni6  1  0.00000000  0.00000000  0.00000000  1
  O  O7  1  0.77490200  0.77846916  0.76384843  1
  O  O8  1  0.25343586  0.77704937  0.73819324  1
  O  O9  1  0.24347501  0.79588274  0.22379613  1
  O  O10  1  0.77490200  0.77846916  0.23258541  1
  O  O11  1  0.22509800  0.22153084  0.76741459  1
  O  O12  1  0.75652499  0.20411726  0.77620387  1
  O  O13  1  0.74656414  0.22295063  0.26180676  1
  O  O14  1  0.22509800  0.22153084  0.23615157  1
