# generated using pymatgen
data_Fe9O10
_symmetry_space_group_name_H-M   'P 1'
_cell_length_a   6.14284889
_cell_length_b   5.35679887
_cell_length_c   6.88518630
_cell_angle_alpha   82.60053688
_cell_angle_beta   76.71944876
_cell_angle_gamma   107.37748159
_symmetry_Int_Tables_number   1
_chemical_formula_structural   Fe9O10
_chemical_formula_sum   'Fe9 O10'
_cell_volume   205.63349287
_cell_formula_units_Z   1
loop_
 _symmetry_equiv_pos_site_id
 _symmetry_equiv_pos_as_xyz
  1  'x, y, z'
loop_
 _atom_site_type_symbol
 _atom_site_label
 _atom_site_symmetry_multiplicity
 _atom_site_fract_x
 _atom_site_fract_y
 _atom_site_fract_z
 _atom_site_occupancy
  Fe  Fe0  1  0.50000000  0.00000000  0.00000000  1
  Fe  Fe1  1  0.29496415  0.38129652  0.19924296  1
  Fe  Fe2  1  0.80566929  0.40738777  0.19567502  1
  Fe  Fe3  1  0.90367821  0.20143603  0.61435029  1
  Fe  Fe4  1  0.38892112  0.19290891  0.61205736  1
  Fe  Fe5  1  0.61107888  0.80709109  0.38794264  1
  Fe  Fe6  1  0.09632179  0.79856397  0.38564971  1
  Fe  Fe7  1  0.19433071  0.59261223  0.80432498  1
  Fe  Fe8  1  0.70503585  0.61870348  0.80075704  1
  O  O9  1  0.63190265  0.66863327  0.09773604  1
  O  O10  1  0.44623327  0.11196356  0.29551928  1
  O  O11  1  0.94683721  0.12189496  0.31586441  1
  O  O12  1  0.16994235  0.67739862  0.11220694  1
  O  O13  1  0.26602986  0.50103725  0.48327819  1
  O  O14  1  0.73397014  0.49896275  0.51672181  1
  O  O15  1  0.55376673  0.88803644  0.70448072  1
  O  O16  1  0.83005765  0.32260138  0.88779306  1
  O  O17  1  0.05316279  0.87810504  0.68413559  1
  O  O18  1  0.36809735  0.33136673  0.90226396  1
