# generated using pymatgen
data_Li2Co3(SiO4)2
_symmetry_space_group_name_H-M   'P 1'
_cell_length_a   4.98217211
_cell_length_b   8.84251248
_cell_length_c   13.46013629
_cell_angle_alpha   70.13289037
_cell_angle_beta   79.71034083
_cell_angle_gamma   89.31980313
_symmetry_Int_Tables_number   1
_chemical_formula_structural   Li2Co3(SiO4)2
_chemical_formula_sum   'Li6 Co9 Si6 O24'
_cell_volume   547.95894280
_cell_formula_units_Z   3
loop_
 _symmetry_equiv_pos_site_id
 _symmetry_equiv_pos_as_xyz
  1  'x, y, z'
loop_
 _atom_site_type_symbol
 _atom_site_label
 _atom_site_symmetry_multiplicity
 _atom_site_fract_x
 _atom_site_fract_y
 _atom_site_fract_z
 _atom_site_occupancy
  Li  Li0  1  0.43638330  0.40846610  0.23295066  1
  Li  Li1  1  0.39270673  0.05722414  0.31239186  1
  Li  Li2  1  0.26196700  0.94211951  0.53195054  1
  Li  Li3  1  0.48463180  0.75729802  0.14802543  1
  Li  Li4  1  0.72051129  0.01679245  0.64009781  1
  Li  Li5  1  0.60311591  0.87371650  0.90505428  1
  Co  Co6  1  0.99950168  0.99234889  0.00036257  1
  Co  Co7  1  0.27741381  0.28318073  0.50466972  1
  Co  Co8  1  0.20831629  0.72807357  0.81575438  1
  Co  Co9  1  0.28328199  0.47483288  0.66081953  1
  Co  Co10  1  0.92104855  0.24256688  0.15734759  1
  Co  Co11  1  0.60249339  0.51110778  0.96432327  1
  Co  Co12  1  0.67960869  0.26632876  0.81135580  1
  Co  Co13  1  0.93877856  0.56202859  0.31288954  1
  Co  Co14  1  0.85944147  0.82115300  0.46319883  1
  Si  Si15  1  0.02897338  0.62200537  0.06655534  1
  Si  Si16  1  0.48162565  0.14358682  0.06017728  1
  Si  Si17  1  0.18541790  0.09748659  0.74739692  1
  Si  Si18  1  0.38975265  0.66419261  0.40404289  1
  Si  Si19  1  0.83375243  0.18412095  0.40188357  1
  Si  Si20  1  0.76319930  0.64471690  0.71638174  1
  O  O21  1  0.04609014  0.03922026  0.41162714  1
  O  O22  1  0.03407277  0.33966388  0.39280166  1
  O  O23  1  0.17514176  0.58881341  0.17096544  1
  O  O24  1  0.07613539  0.70025156  0.38200672  1
  O  O25  1  0.36649135  0.98979594  0.03449353  1
  O  O26  1  0.05748244  0.12880074  0.63904868  1
  O  O27  1  0.30403872  0.19272651  0.15879780  1
  O  O28  1  0.38672430  0.49773209  0.50958403  1
  O  O29  1  0.38364563  0.94402405  0.77195434  1
  O  O30  1  0.49264635  0.82187688  0.42888756  1
  O  O31  1  0.56520110  0.63046280  0.29843311  1
  O  O32  1  0.38385648  0.25263916  0.73598560  1
  O  O33  1  0.28907313  0.65180153  0.96466546  1
  O  O34  1  0.43104403  0.62361107  0.72318076  1
  O  O35  1  0.78044854  0.09387418  0.09523323  1
  O  O36  1  0.57825091  0.13111172  0.50579954  1
  O  O37  1  0.68715843  0.22800997  0.29573448  1
  O  O38  1  0.82353623  0.46708786  0.07993971  1
  O  O39  1  0.83046529  0.77401505  0.04064935  1
  O  O40  1  0.53111227  0.30364652  0.94808868  1
  O  O41  1  0.90223503  0.79845161  0.61287681  1
  O  O42  1  0.81251391  0.67753845  0.82686548  1
  O  O43  1  0.88819133  0.47209805  0.71568934  1
  O  O44  1  0.91962068  0.07229865  0.84825899  1
