# generated using pymatgen
data_Li4MnCo2O7
_symmetry_space_group_name_H-M   'P 1'
_cell_length_a   3.02181502
_cell_length_b   10.70371972
_cell_length_c   8.04661483
_cell_angle_alpha   78.39086943
_cell_angle_beta   89.04616259
_cell_angle_gamma   86.76489574
_symmetry_Int_Tables_number   1
_chemical_formula_structural   Li4MnCo2O7
_chemical_formula_sum   'Li8 Mn2 Co4 O14'
_cell_volume   254.53083335
_cell_formula_units_Z   2
loop_
 _symmetry_equiv_pos_site_id
 _symmetry_equiv_pos_as_xyz
  1  'x, y, z'
loop_
 _atom_site_type_symbol
 _atom_site_label
 _atom_site_symmetry_multiplicity
 _atom_site_fract_x
 _atom_site_fract_y
 _atom_site_fract_z
 _atom_site_occupancy
  Li  Li0  1  0.85506908  0.29030457  0.93161352  1
  Li  Li1  1  0.14796267  0.71232593  0.06815361  1
  Li  Li2  1  0.42346533  0.14481707  0.21756139  1
  Li  Li3  1  0.28571400  0.42857100  0.64285700  1
  Li  Li4  1  0.57332275  0.85545074  0.78441668  1
  Li  Li5  1  0.71635992  0.56683843  0.35410048  1
  Li  Li6  1  0.99810625  0.00169226  0.50129732  1
  Li  Li7  1  0.28571400  0.42857100  0.14285700  1
  Mn  Mn8  1  0.99897559  0.00307476  0.99675678  1
  Mn  Mn9  1  0.57245341  0.85406824  0.28895722  1
  Co  Co10  1  0.85196846  0.29185508  0.41751772  1
  Co  Co11  1  0.14510954  0.71155921  0.57610603  1
  Co  Co12  1  0.42631846  0.14558379  0.70960897  1
  Co  Co13  1  0.71946054  0.56528792  0.86819628  1
  O  O14  1  0.40577277  0.14280496  0.95081016  1
  O  O15  1  0.70771363  0.57430133  0.08165795  1
  O  O16  1  0.97568306  0.99513005  0.24307507  1
  O  O17  1  0.83924481  0.27763641  0.66008927  1
  O  O18  1  0.12452086  0.70509599  0.81178199  1
  O  O19  1  0.26888671  0.41776041  0.39710609  1
  O  O20  1  0.55043862  0.84843175  0.53209281  1
  O  O21  1  0.30254229  0.43938259  0.88860791  1
  O  O22  1  0.59574494  0.86201295  0.04263993  1
  O  O23  1  0.86371437  0.28284167  0.20405705  1
  O  O24  1  0.73218319  0.57950559  0.62562473  1
  O  O25  1  0.02099038  0.00871125  0.75362119  1
  O  O26  1  0.16565623  0.71433804  0.33490384  1
  O  O27  1  0.44690814  0.15204701  0.47393201  1
