# generated using pymatgen
data_Li8FeO6
_symmetry_space_group_name_H-M   'P 1'
_cell_length_a   5.60918731
_cell_length_b   5.60524054
_cell_length_c   10.91673829
_cell_angle_alpha   90.20670910
_cell_angle_beta   90.18681269
_cell_angle_gamma   120.74392037
_symmetry_Int_Tables_number   1
_chemical_formula_structural   Li8FeO6
_chemical_formula_sum   'Li16 Fe2 O12'
_cell_volume   294.98681947
_cell_formula_units_Z   2
loop_
 _symmetry_equiv_pos_site_id
 _symmetry_equiv_pos_as_xyz
  1  'x, y, z'
loop_
 _atom_site_type_symbol
 _atom_site_label
 _atom_site_symmetry_multiplicity
 _atom_site_fract_x
 _atom_site_fract_y
 _atom_site_fract_z
 _atom_site_occupancy
  Li  Li0  1  0.00470598  0.69456509  0.76890797  1
  Li  Li1  1  0.99881192  0.60931335  0.12716077  1
  Li  Li2  1  0.00005598  0.39048307  0.62629001  1
  Li  Li3  1  0.99742167  0.30758555  0.26900442  1
  Li  Li4  1  0.33490748  0.66863712  0.40846702  1
  Li  Li5  1  0.33256717  0.66473781  0.90785068  1
  Li  Li6  1  0.30928971  0.30915779  0.76731430  1
  Li  Li7  1  0.38525819  0.38528452  0.12704982  1
  Li  Li8  1  0.61410081  0.61407480  0.62706381  1
  Li  Li9  1  0.30768688  0.99769828  0.26911066  1
  Li  Li10  1  0.68868609  0.68895653  0.26898295  1
  Li  Li11  1  0.39092603  0.00004396  0.62624117  1
  Li  Li12  1  0.66450534  0.33264601  0.90784704  1
  Li  Li13  1  0.66881678  0.33479605  0.40846733  1
  Li  Li14  1  0.60893550  0.99881856  0.12705370  1
  Li  Li15  1  0.69455452  0.00456191  0.76895440  1
  Fe  Fe16  1  0.99537870  0.99582705  0.99362936  1
  Fe  Fe17  1  0.00159691  0.00146743  0.49356658  1
  O  O18  1  0.00863378  0.68687336  0.94970765  1
  O  O19  1  0.99799227  0.31627218  0.44886463  1
  O  O20  1  0.33162505  0.66395837  0.21597864  1
  O  O21  1  0.99495488  0.99497998  0.16949446  1
  O  O22  1  0.00076978  0.00062709  0.67034775  1
  O  O23  1  0.33641406  0.66866978  0.71683860  1
  O  O24  1  0.31271846  0.31261792  0.94692086  1
  O  O25  1  0.31677738  0.99835286  0.44896853  1
  O  O26  1  0.68181817  0.68216172  0.44860154  1
  O  O27  1  0.66886810  0.33644385  0.71683432  1
  O  O28  1  0.66391460  0.33187870  0.21597368  1
  O  O29  1  0.68710881  0.00850530  0.94976636  1
