# generated using pymatgen
data_LiPWO5
_symmetry_space_group_name_H-M   'P 1'
_cell_length_a   7.09787708
_cell_length_b   7.46169266
_cell_length_c   8.13231535
_cell_angle_alpha   89.67082533
_cell_angle_beta   92.38234733
_cell_angle_gamma   115.90471199
_symmetry_Int_Tables_number   1
_chemical_formula_structural   LiPWO5
_chemical_formula_sum   'Li4 P4 W4 O20'
_cell_volume   387.05688044
_cell_formula_units_Z   4
loop_
 _symmetry_equiv_pos_site_id
 _symmetry_equiv_pos_as_xyz
  1  'x, y, z'
loop_
 _atom_site_type_symbol
 _atom_site_label
 _atom_site_symmetry_multiplicity
 _atom_site_fract_x
 _atom_site_fract_y
 _atom_site_fract_z
 _atom_site_occupancy
  Li  Li0  1  0.29698912  0.81702320  0.43115833  1
  Li  Li1  1  0.21766767  0.29638459  0.06971543  1
  Li  Li2  1  0.78233233  0.70361541  0.93028457  1
  Li  Li3  1  0.70301088  0.18297680  0.56884167  1
  P  P4  1  0.23213761  0.74551004  0.09445722  1
  P  P5  1  0.26459800  0.24132621  0.40616482  1
  P  P6  1  0.73540200  0.75867379  0.59383518  1
  P  P7  1  0.76786239  0.25448996  0.90554278  1
  W  W8  1  0.24464882  0.49852051  0.74401616  1
  W  W9  1  0.24558349  0.00051507  0.75771780  1
  W  W10  1  0.75441651  0.99948493  0.24228220  1
  W  W11  1  0.75535118  0.50147949  0.25598384  1
  O  O12  1  0.12819086  0.84501356  0.97726291  1
  O  O13  1  0.08656136  0.64516001  0.23877546  1
  O  O14  1  0.24332655  0.75143395  0.66343054  1
  O  O15  1  0.27450442  0.58960041  0.99668770  1
  O  O16  1  0.20080501  0.37643134  0.50965230  1
  O  O17  1  0.43309594  0.90341469  0.18144440  1
  O  O18  1  0.07306018  0.09407205  0.30223876  1
  O  O19  1  0.26594040  0.25897788  0.84155531  1
  O  O20  1  0.64530603  0.87610752  0.48084113  1
  O  O21  1  0.42380515  0.36314138  0.27654596  1
  O  O22  1  0.57619485  0.63685862  0.72345404  1
  O  O23  1  0.35469397  0.12389248  0.51915887  1
  O  O24  1  0.73405960  0.74102212  0.15844469  1
  O  O25  1  0.92693982  0.90592795  0.69776124  1
  O  O26  1  0.56690406  0.09658531  0.81855560  1
  O  O27  1  0.79919499  0.62356866  0.49034770  1
  O  O28  1  0.72549558  0.41039959  0.00331230  1
  O  O29  1  0.75667345  0.24856605  0.33656946  1
  O  O30  1  0.91343864  0.35483999  0.76122454  1
  O  O31  1  0.87180914  0.15498644  0.02273709  1
