# generated using pymatgen
data_Mn(Ni9O10)2
_symmetry_space_group_name_H-M   'P 1'
_cell_length_a   5.95305851
_cell_length_b   5.95305851
_cell_length_c   21.39607257
_cell_angle_alpha   97.99667789
_cell_angle_beta   97.99667789
_cell_angle_gamma   90.00000000
_symmetry_Int_Tables_number   1
_chemical_formula_structural   Mn(Ni9O10)2
_chemical_formula_sum   'Mn2 Ni36 O40'
_cell_volume   743.43397023
_cell_formula_units_Z   2
loop_
 _symmetry_equiv_pos_site_id
 _symmetry_equiv_pos_as_xyz
  1  'x, y, z'
loop_
 _atom_site_type_symbol
 _atom_site_label
 _atom_site_symmetry_multiplicity
 _atom_site_fract_x
 _atom_site_fract_y
 _atom_site_fract_z
 _atom_site_occupancy
  Mn  Mn0  1  0.59968215  0.59968215  0.19936430  1
  Mn  Mn1  1  0.20031785  0.20031785  0.40063570  1
  Ni  Ni2  1  0.99959817  0.99959817  0.99919535  1
  Ni  Ni3  1  0.50035705  0.00035705  0.00071411  1
  Ni  Ni4  1  0.49998786  0.49998786  -0.00002328  1
  Ni  Ni5  1  0.00035705  0.50035705  0.00071411  1
  Ni  Ni6  1  0.80740192  0.80740192  0.10114198  1
  Ni  Ni7  1  0.29373906  0.80740192  0.10114198  1
  Ni  Ni8  1  0.29373906  0.29373906  0.10114198  1
  Ni  Ni9  1  0.80740192  0.29373906  0.10114198  1
  Ni  Ni10  1  0.10011316  0.60011316  0.20022732  1
  Ni  Ni11  1  0.60011316  0.10011316  0.20022732  1
  Ni  Ni12  1  0.90000000  0.40000000  0.30000000  1
  Ni  Ni13  1  0.40000000  0.40000000  0.30000000  1
  Ni  Ni14  1  0.90000000  0.90000000  0.30000000  1
  Ni  Ni15  1  0.40000000  0.90000000  0.30000000  1
  Ni  Ni16  1  0.69988684  0.19988684  0.39977268  1
  Ni  Ni17  1  0.19988684  0.69988684  0.39977268  1
  Ni  Ni18  1  0.99259808  0.99259808  0.49885802  1
  Ni  Ni19  1  0.50626094  0.50626094  0.49885802  1
  Ni  Ni20  1  0.99259808  0.50626094  0.49885802  1
  Ni  Ni21  1  0.50626094  0.99259808  0.49885802  1
  Ni  Ni22  1  0.29964295  0.79964295  0.59928589  1
  Ni  Ni23  1  0.80040183  0.80040183  0.60080465  1
  Ni  Ni24  1  0.30001214  0.30001214  0.60002328  1
  Ni  Ni25  1  0.79964295  0.29964295  0.59928589  1
  Ni  Ni26  1  0.10009428  0.59974131  0.69983559  1
  Ni  Ni27  1  0.59974131  0.59974131  0.69983559  1
  Ni  Ni28  1  0.59974131  0.10009428  0.69983559  1
  Ni  Ni29  1  0.10009428  0.10009428  0.69983559  1
  Ni  Ni30  1  0.90000000  0.40000000  0.80000000  1
  Ni  Ni31  1  0.40000000  0.40000000  0.80000000  1
  Ni  Ni32  1  0.40000000  0.90000000  0.80000000  1
  Ni  Ni33  1  0.90000000  0.90000000  0.80000000  1
  Ni  Ni34  1  0.20025869  0.20025869  0.90016441  1
  Ni  Ni35  1  0.69990572  0.69990572  0.90016441  1
  Ni  Ni36  1  0.20025869  0.69990572  0.90016441  1
  Ni  Ni37  1  0.69990572  0.20025869  0.90016441  1
  O  O38  1  0.25248345  0.25248345  0.00048410  1
  O  O39  1  0.74800065  0.25248345  0.00048410  1
  O  O40  1  0.74800065  0.74800065  0.00048410  1
  O  O41  1  0.25248345  0.74800065  0.00048410  1
  O  O42  1  0.04731863  0.04731863  0.09463826  1
  O  O43  1  0.05068961  0.55068961  0.10137922  1
  O  O44  1  0.55068961  0.05068961  0.10137922  1
  O  O45  1  0.55253145  0.55253145  0.10506191  1
  O  O46  1  0.37179111  0.82857327  0.20036437  1
  O  O47  1  0.82857327  0.37179111  0.20036437  1
  O  O48  1  0.37179111  0.37179111  0.20036437  1
  O  O49  1  0.82857327  0.82857327  0.20036437  1
  O  O50  1  0.64532215  0.64532215  0.29064431  1
  O  O51  1  0.15000000  0.65000000  0.30000000  1
  O  O52  1  0.65000000  0.15000000  0.30000000  1
  O  O53  1  0.15467785  0.15467785  0.30935569  1
  O  O54  1  0.97142673  0.42820889  0.39963563  1
  O  O55  1  0.42820889  0.42820889  0.39963563  1
  O  O56  1  0.42820889  0.97142673  0.39963563  1
  O  O57  1  0.97142673  0.97142673  0.39963563  1
  O  O58  1  0.24746855  0.24746855  0.49493809  1
  O  O59  1  0.74931039  0.24931039  0.49862078  1
  O  O60  1  0.24931039  0.74931039  0.49862078  1
  O  O61  1  0.75268137  0.75268137  0.50536174  1
  O  O62  1  0.54751655  0.54751655  0.59951590  1
  O  O63  1  0.05199935  0.54751655  0.59951590  1
  O  O64  1  0.05199935  0.05199935  0.59951590  1
  O  O65  1  0.54751655  0.05199935  0.59951590  1
  O  O66  1  0.84992203  0.84992203  0.69984406  1
  O  O67  1  0.84979053  0.34979053  0.69958106  1
  O  O68  1  0.34979053  0.84979053  0.69958106  1
  O  O69  1  0.35000252  0.35000252  0.70000604  1
  O  O70  1  0.65016093  0.14983907  0.80000000  1
  O  O71  1  0.14983907  0.14983907  0.80000000  1
  O  O72  1  0.65016093  0.65016093  0.80000000  1
  O  O73  1  0.14983907  0.65016093  0.80000000  1
  O  O74  1  0.44999748  0.44999748  0.89999396  1
  O  O75  1  0.95020947  0.45020947  0.90041894  1
  O  O76  1  0.45020947  0.95020947  0.90041894  1
  O  O77  1  0.95007797  0.95007797  0.90015594  1
