# generated using pymatgen
data_Li7V7P6(O8F)3
_symmetry_space_group_name_H-M   'P 1'
_cell_length_a   13.65888247
_cell_length_b   13.65883072
_cell_length_c   6.44972116
_cell_angle_alpha   90.00015460
_cell_angle_beta   89.99997710
_cell_angle_gamma   59.99954017
_symmetry_Int_Tables_number   1
_chemical_formula_structural   Li7V7P6(O8F)3
_chemical_formula_sum   'Li14 V14 P12 O48 F6'
_cell_volume   1042.07325363
_cell_formula_units_Z   2
loop_
 _symmetry_equiv_pos_site_id
 _symmetry_equiv_pos_as_xyz
  1  'x, y, z'
loop_
 _atom_site_type_symbol
 _atom_site_label
 _atom_site_symmetry_multiplicity
 _atom_site_fract_x
 _atom_site_fract_y
 _atom_site_fract_z
 _atom_site_occupancy
  Li  Li0  1  0.25528791  0.92803931  0.25684707  1
  Li  Li1  1  0.18332592  0.74471943  0.75685426  1
  Li  Li2  1  0.49988387  0.87571610  0.75590726  1
  Li  Li3  1  0.12427737  0.37561110  0.25590052  1
  Li  Li4  1  0.07196726  0.18332262  0.75684842  1
  Li  Li5  1  0.37559665  0.50013429  0.25589552  1
  Li  Li6  1  0.33336095  0.33331646  0.43797595  1
  Li  Li7  1  0.66668820  0.66663521  0.93797755  1
  Li  Li8  1  0.62439312  0.49986981  0.75589501  1
  Li  Li9  1  0.92803486  0.81667511  0.25684710  1
  Li  Li10  1  0.87573761  0.62439362  0.75588680  1
  Li  Li11  1  0.50013023  0.12426603  0.25590247  1
  Li  Li12  1  0.81667646  0.25528090  0.25685444  1
  Li  Li13  1  0.74471357  0.07195949  0.75684679  1
  V  V14  1  0.12652820  0.57888421  0.01097237  1
  V  V15  1  0.12310613  0.58261985  0.51123916  1
  V  V16  1  0.42112073  0.70541396  0.51096840  1
  V  V17  1  0.41738846  0.70571721  0.01124177  1
  V  V18  1  0.70571796  0.87689883  0.01124315  1
  V  V19  1  0.70541374  0.87346985  0.51097411  1
  V  V20  1  0.00000339  0.00000086  0.00719977  1
  V  V21  1  -0.00000131  0.99999865  0.50720540  1
  V  V22  1  0.29458636  0.12652557  0.01097990  1
  V  V23  1  0.29427857  0.12310453  0.51124128  1
  V  V24  1  0.58261427  0.29428102  0.51124202  1
  V  V25  1  0.57888312  0.29458983  0.01097355  1
  V  V26  1  0.87689286  0.41737509  0.01123523  1
  V  V27  1  0.87347736  0.42110736  0.51097034  1
  P  P28  1  0.24231135  0.94083843  0.75895210  1
  P  P29  1  0.18315052  0.75769527  0.25899072  1
  P  P30  1  0.48465017  0.88312254  0.25999982  1
  P  P31  1  0.11686752  0.36777846  0.75999890  1
  P  P32  1  0.36778140  0.51535113  0.75997963  1
  P  P33  1  0.05915870  0.18314589  0.25896898  1
  P  P34  1  0.94084638  0.81685582  0.75898350  1
  P  P35  1  0.63222180  0.48464522  0.26001203  1
  P  P36  1  0.88313239  0.63221015  0.25998191  1
  P  P37  1  0.51534266  0.11688093  0.76000083  1
  P  P38  1  0.81685053  0.24230106  0.75899324  1
  P  P39  1  0.75769172  0.05916549  0.25899454  1
  O  O40  1  0.10928367  0.01522909  0.75762065  1
  O  O41  1  0.12451137  0.89072359  0.25760813  1
  O  O42  1  0.01135924  0.68300940  0.76166224  1
  O  O43  1  0.36778477  0.99788240  0.25475867  1
  O  O44  1  0.27874924  0.86884590  0.56091227  1
  O  O45  1  0.14758600  0.72125011  0.06090411  1
  O  O46  1  0.27677899  0.86830370  0.95595518  1
  O  O47  1  0.14507617  0.72323952  0.45595013  1
  O  O48  1  0.31699301  0.69436558  0.26166026  1
  O  O49  1  0.00211744  0.36566850  0.75475308  1
  O  O50  1  0.54610126  0.88189284  0.46123701  1
  O  O51  1  0.11810581  0.42799485  0.96122908  1
  O  O52  1  0.45886509  0.78445318  0.26146231  1
  O  O53  1  0.13018802  0.42289579  0.56020645  1
  O  O54  1  0.55308042  0.86981015  0.06021332  1
  O  O55  1  0.69436310  0.98863968  0.26166237  1
  O  O56  1  0.24330590  0.54115273  0.76146249  1
  O  O57  1  0.36567448  0.63221567  0.75475726  1
  O  O58  1  0.98477423  0.12450353  0.25761860  1
  O  O59  1  0.21554568  0.24331384  0.76145980  1
  O  O60  1  0.13169356  0.14507712  0.45595373  1
  O  O61  1  0.42799133  0.45389859  0.96123309  1
  O  O62  1  0.13116351  0.14758411  0.06090475  1
  O  O63  1  0.57711478  0.55307815  0.06019938  1
  O  O64  1  0.42288361  0.44692591  0.56020961  1
  O  O65  1  0.86883488  0.85241731  0.56090254  1
  O  O66  1  0.57201184  0.54609675  0.46122272  1
  O  O67  1  0.86830404  0.85492943  0.95595618  1
  O  O68  1  0.78445794  0.75668840  0.26145712  1
  O  O69  1  0.01522750  0.87549298  0.75762307  1
  O  O70  1  0.63432744  0.36778236  0.25475322  1
  O  O71  1  0.75669298  0.45884752  0.26145680  1
  O  O72  1  0.30563964  0.01136043  0.76165802  1
  O  O73  1  0.44691667  0.13019755  0.56021108  1
  O  O74  1  0.86980878  0.57710852  0.06019740  1
  O  O75  1  0.54113448  0.21554869  0.76146015  1
  O  O76  1  0.88189639  0.57199954  0.46121624  1
  O  O77  1  0.45390222  0.11810759  0.96122983  1
  O  O78  1  0.99788856  0.63432307  0.25474808  1
  O  O79  1  0.68300442  0.30562916  0.76166130  1
  O  O80  1  0.85492078  0.27675808  0.95595201  1
  O  O81  1  0.72322874  0.13168983  0.45594507  1
  O  O82  1  0.85241361  0.27874468  0.56090678  1
  O  O83  1  0.72124464  0.13116538  0.06090308  1
  O  O84  1  0.63221552  0.00211635  0.75475019  1
  O  O85  1  0.98863778  0.31699150  0.26165036  1
  O  O86  1  0.87549064  0.10927146  0.75761835  1
  O  O87  1  0.89071874  0.98477264  0.25762231  1
  F  F88  1  0.24146574  0.48383586  0.27051508  1
  F  F89  1  0.51616892  0.72529571  0.77052031  1
  F  F90  1  0.72530671  0.75853510  0.77051992  1
  F  F91  1  0.27470104  0.24146646  0.27051345  1
  F  F92  1  0.48382847  0.27469984  0.27052225  1
  F  F93  1  0.75853027  0.51616018  0.77050330  1
