# generated using pymatgen
data_LiFeSiO4
_symmetry_space_group_name_H-M   'P 1'
_cell_length_a   10.29571608
_cell_length_b   13.47865640
_cell_length_c   5.14602764
_cell_angle_alpha   90.00000000
_cell_angle_beta   90.00000000
_cell_angle_gamma   90.00000000
_symmetry_Int_Tables_number   1
_chemical_formula_structural   LiFeSiO4
_chemical_formula_sum   'Li8 Fe8 Si8 O32'
_cell_volume   714.12670608
_cell_formula_units_Z   8
loop_
 _symmetry_equiv_pos_site_id
 _symmetry_equiv_pos_as_xyz
  1  'x, y, z'
loop_
 _atom_site_type_symbol
 _atom_site_label
 _atom_site_symmetry_multiplicity
 _atom_site_fract_x
 _atom_site_fract_y
 _atom_site_fract_z
 _atom_site_occupancy
  Li  Li0  1  0.03585563  0.50315013  0.91019060  1
  Li  Li1  1  0.21624614  0.74968403  0.56019014  1
  Li  Li2  1  0.28375386  0.24968403  0.56019014  1
  Li  Li3  1  0.46414437  0.00315013  0.91019060  1
  Li  Li4  1  0.53585563  0.50315013  0.08980940  1
  Li  Li5  1  0.71624614  0.74968403  0.43980986  1
  Li  Li6  1  0.78375386  0.24968403  0.43980986  1
  Li  Li7  1  0.96414437  0.00315013  0.08980940  1
  Fe  Fe8  1  0.04074416  0.75330486  0.06904697  1
  Fe  Fe9  1  0.21408088  0.00002837  0.55532555  1
  Fe  Fe10  1  0.28591912  0.50002837  0.55532555  1
  Fe  Fe11  1  0.45925584  0.25330486  0.06904697  1
  Fe  Fe12  1  0.54074416  0.75330486  0.93095303  1
  Fe  Fe13  1  0.71408088  0.00002837  0.44467445  1
  Fe  Fe14  1  0.78591912  0.50002837  0.44467445  1
  Fe  Fe15  1  0.95925584  0.25330486  0.93095303  1
  Si  Si16  1  0.03416783  0.37542476  0.42637664  1
  Si  Si17  1  0.21253044  0.12793394  0.05626484  1
  Si  Si18  1  0.28746956  0.62793394  0.05626484  1
  Si  Si19  1  0.46583217  0.87542476  0.42637664  1
  Si  Si20  1  0.53416783  0.37542476  0.57362336  1
  Si  Si21  1  0.71253044  0.12793394  0.94373516  1
  Si  Si22  1  0.78746956  0.62793394  0.94373516  1
  Si  Si23  1  0.96583217  0.87542476  0.57362336  1
  O  O24  1  0.99167929  0.87096143  0.89022786  1
  O  O25  1  0.96244165  0.47571078  0.54190178  1
  O  O26  1  0.03321818  0.77793912  0.43372359  1
  O  O27  1  0.05502520  0.13555915  0.00584267  1
  O  O28  1  0.19052281  0.38065370  0.49039822  1
  O  O29  1  0.23285655  0.52885983  0.90259270  1
  O  O30  1  0.28779348  0.22695812  0.94373854  1
  O  O31  1  0.24807595  0.11943178  0.36830996  1
  O  O32  1  0.25192405  0.61943178  0.36830996  1
  O  O33  1  0.21220652  0.72695812  0.94373854  1
  O  O34  1  0.26714345  0.02885983  0.90259270  1
  O  O35  1  0.30947719  0.88065370  0.49039822  1
  O  O36  1  0.44497480  0.63555915  0.00584267  1
  O  O37  1  0.46678182  0.27793912  0.43372359  1
  O  O38  1  0.53755835  0.97571078  0.54190178  1
  O  O39  1  0.50832071  0.37096143  0.89022786  1
  O  O40  1  0.49167929  0.87096143  0.10977214  1
  O  O41  1  0.46244165  0.47571078  0.45809822  1
  O  O42  1  0.53321818  0.77793912  0.56627641  1
  O  O43  1  0.55502520  0.13555915  0.99415733  1
  O  O44  1  0.69052281  0.38065370  0.50960178  1
  O  O45  1  0.73285655  0.52885983  0.09740730  1
  O  O46  1  0.78779348  0.22695812  0.05626146  1
  O  O47  1  0.74807595  0.11943178  0.63169004  1
  O  O48  1  0.75192405  0.61943178  0.63169004  1
  O  O49  1  0.71220652  0.72695812  0.05626146  1
  O  O50  1  0.76714345  0.02885983  0.09740730  1
  O  O51  1  0.80947719  0.88065370  0.50960178  1
  O  O52  1  0.94497480  0.63555915  0.99415733  1
  O  O53  1  0.96678182  0.27793912  0.56627641  1
  O  O54  1  0.03755835  0.97571078  0.45809822  1
  O  O55  1  0.00832071  0.37096143  0.10977214  1
