# generated using pymatgen
data_TiFe2O5
_symmetry_space_group_name_H-M   'P 1'
_cell_length_a   3.79856451
_cell_length_b   5.33100566
_cell_length_c   10.06643964
_cell_angle_alpha   90.00000000
_cell_angle_beta   90.00000000
_cell_angle_gamma   69.12864996
_symmetry_Int_Tables_number   1
_chemical_formula_structural   TiFe2O5
_chemical_formula_sum   'Ti2 Fe4 O10'
_cell_volume   190.47121439
_cell_formula_units_Z   2
loop_
 _symmetry_equiv_pos_site_id
 _symmetry_equiv_pos_as_xyz
  1  'x, y, z'
loop_
 _atom_site_type_symbol
 _atom_site_label
 _atom_site_symmetry_multiplicity
 _atom_site_fract_x
 _atom_site_fract_y
 _atom_site_fract_z
 _atom_site_occupancy
  Ti  Ti0  1  0.13174114  0.73651771  0.06086097  1
  Ti  Ti1  1  0.86825886  0.26348229  0.56086097  1
  Fe  Fe2  1  0.13972741  0.72054518  0.43395070  1
  Fe  Fe3  1  0.19168566  0.61662769  0.75088345  1
  Fe  Fe4  1  0.80831434  0.38337231  0.25088345  1
  Fe  Fe5  1  0.86027259  0.27945482  0.93395070  1
  O  O6  1  0.04443852  0.91112395  0.61677915  1
  O  O7  1  0.05090876  0.89818247  0.88735979  1
  O  O8  1  0.68586109  0.62827883  0.07346061  1
  O  O9  1  0.69555350  0.60889301  0.43053441  1
  O  O10  1  0.23541955  0.52916190  0.24616991  1
  O  O11  1  0.76458045  0.47083810  0.74616991  1
  O  O12  1  0.30444650  0.39110699  0.93053441  1
  O  O13  1  0.31413891  0.37172117  0.57346061  1
  O  O14  1  0.94909124  0.10181753  0.38735979  1
  O  O15  1  0.95556148  0.08887605  0.11677915  1
