# generated using pymatgen
data_MnAl2P2(HO)18
_symmetry_space_group_name_H-M   'P 1'
_cell_length_a   10.25515538
_cell_length_b   10.60728010
_cell_length_c   7.07345571
_cell_angle_alpha   90.14872810
_cell_angle_beta   69.99815637
_cell_angle_gamma   72.10489547
_symmetry_Int_Tables_number   1
_chemical_formula_structural   MnAl2P2(HO)18
_chemical_formula_sum   'Mn2 Al4 P4 H36 O36'
_cell_volume   683.04541328
_cell_formula_units_Z   2
loop_
 _symmetry_equiv_pos_site_id
 _symmetry_equiv_pos_as_xyz
  1  'x, y, z'
loop_
 _atom_site_type_symbol
 _atom_site_label
 _atom_site_symmetry_multiplicity
 _atom_site_fract_x
 _atom_site_fract_y
 _atom_site_fract_z
 _atom_site_occupancy
  Mn  Mn0  1  0.26952816  0.48954309  0.36973779  1
  Mn  Mn1  1  0.73047184  0.51045691  0.63026221  1
  Al  Al2  1  0.00000000  0.00000000  0.00000000  1
  Al  Al3  1  0.50000000  0.00000000  0.50000000  1
  Al  Al4  1  0.74835585  0.00373529  0.74088236  1
  Al  Al5  1  0.25164415  0.99626471  0.25911764  1
  P  P6  1  0.09224503  0.81854396  0.56673146  1
  P  P7  1  0.46109295  0.17229821  0.13458018  1
  P  P8  1  0.53890705  0.82770179  0.86541982  1
  P  P9  1  0.90775497  0.18145604  0.43326854  1
  H  H10  1  0.03579090  0.14485402  0.70460444  1
  H  H11  1  0.05631537  0.21594039  0.89581078  1
  H  H12  1  0.04963672  0.39147193  0.63491247  1
  H  H13  1  0.01015781  0.33509269  0.18701826  1
  H  H14  1  0.14923659  0.28370401  0.44229911  1
  H  H15  1  0.34829895  0.25574839  0.65219460  1
  H  H16  1  0.17845174  0.25797877  0.07344135  1
  H  H17  1  0.44549294  0.17131705  0.77709835  1
  H  H18  1  0.12657499  0.46701697  0.10083876  1
  H  H19  1  0.23090330  0.73991985  0.82760827  1
  H  H20  1  0.32990060  0.52410541  0.70782070  1
  H  H21  1  0.25872173  0.97795606  0.91968339  1
  H  H22  1  0.38509880  0.67007962  0.85361744  1
  H  H23  1  0.18334510  0.59500267  0.06170385  1
  H  H24  1  0.53024712  0.38597140  0.91188338  1
  H  H25  1  0.46665994  0.39967067  0.59799443  1
  H  H26  1  0.27293786  0.95574216  0.58174042  1
  H  H27  1  0.66654462  0.29229489  0.72954728  1
  H  H28  1  0.33345538  0.70770511  0.27045272  1
  H  H29  1  0.72706214  0.04425784  0.41825958  1
  H  H30  1  0.53334006  0.60032933  0.40200557  1
  H  H31  1  0.46975288  0.61402860  0.08811662  1
  H  H32  1  0.81665490  0.40499733  0.93829615  1
  H  H33  1  0.61490120  0.32992038  0.14638256  1
  H  H34  1  0.74127827  0.02204394  0.08031661  1
  H  H35  1  0.67009940  0.47589459  0.29217930  1
  H  H36  1  0.76909670  0.26008015  0.17239173  1
  H  H37  1  0.87342501  0.53298303  0.89916124  1
  H  H38  1  0.55450706  0.82868295  0.22290165  1
  H  H39  1  0.82154826  0.74202123  0.92655865  1
  H  H40  1  0.65170105  0.74425161  0.34780540  1
  H  H41  1  0.85076341  0.71629599  0.55770089  1
  H  H42  1  0.98984219  0.66490731  0.81298174  1
  H  H43  1  0.95036328  0.60852807  0.36508753  1
  H  H44  1  0.94368463  0.78405961  0.10418922  1
  H  H45  1  0.96420910  0.85514598  0.29539556  1
  O  O46  1  0.01549408  0.15180893  0.85236354  1
  O  O47  1  0.06590056  0.11690474  0.43373503  1
  O  O48  1  0.14603254  0.36091942  0.52221456  1
  O  O49  1  0.09263269  0.32440364  0.05435566  1
  O  O50  1  0.12422222  0.66767700  0.57678140  1
  O  O51  1  0.38660883  0.16662314  0.69174902  1
  O  O52  1  0.11400113  0.88106426  0.75035046  1
  O  O53  1  0.29164218  0.65656624  0.86056987  1
  O  O54  1  0.13563810  0.54537358  0.16907984  1
  O  O55  1  0.31006292  0.15231935  0.17471159  1
  O  O56  1  0.56009909  0.12379420  0.90858602  1
  O  O57  1  0.36369011  0.43971284  0.61227465  1
  O  O58  1  0.20083776  0.84191266  0.36543868  1
  O  O59  1  0.53940224  0.09481050  0.27157729  1
  O  O60  1  0.67363572  0.00302068  0.52823371  1
  O  O61  1  0.43947808  0.32349486  0.16718676  1
  O  O62  1  0.59330135  0.38636804  0.77117213  1
  O  O63  1  0.82500080  0.00728827  0.95227775  1
  O  O64  1  0.17499920  0.99271173  0.04772225  1
  O  O65  1  0.40669865  0.61363196  0.22882787  1
  O  O66  1  0.56052192  0.67650514  0.83281324  1
  O  O67  1  0.32636428  0.99697932  0.47176629  1
  O  O68  1  0.46059776  0.90518950  0.72842271  1
  O  O69  1  0.79916224  0.15808734  0.63456132  1
  O  O70  1  0.63630989  0.56028716  0.38772535  1
  O  O71  1  0.43990191  0.87620580  0.09141398  1
  O  O72  1  0.68993708  0.84768065  0.82528841  1
  O  O73  1  0.86436190  0.45462642  0.83092016  1
  O  O74  1  0.70835782  0.34343376  0.13943013  1
  O  O75  1  0.88599887  0.11893574  0.24964954  1
  O  O76  1  0.61339117  0.83337686  0.30825098  1
  O  O77  1  0.87577778  0.33232300  0.42321860  1
  O  O78  1  0.90736731  0.67559636  0.94564434  1
  O  O79  1  0.85396746  0.63908058  0.47778544  1
  O  O80  1  0.93409944  0.88309526  0.56626497  1
  O  O81  1  0.98450592  0.84819107  0.14763646  1
