# generated using pymatgen
data_Li6V3P8O29
_symmetry_space_group_name_H-M   'P 1'
_cell_length_a   9.80183910
_cell_length_b   9.79866526
_cell_length_c   13.90678469
_cell_angle_alpha   90.08461809
_cell_angle_beta   90.08491838
_cell_angle_gamma   60.11184386
_symmetry_Int_Tables_number   1
_chemical_formula_structural   Li6V3P8O29
_chemical_formula_sum   'Li12 V6 P16 O58'
_cell_volume   1158.02936371
_cell_formula_units_Z   2
loop_
 _symmetry_equiv_pos_site_id
 _symmetry_equiv_pos_as_xyz
  1  'x, y, z'
loop_
 _atom_site_type_symbol
 _atom_site_label
 _atom_site_symmetry_multiplicity
 _atom_site_fract_x
 _atom_site_fract_y
 _atom_site_fract_z
 _atom_site_occupancy
  Li  Li0  1  0.91969604  0.77713125  0.06007102  1
  Li  Li1  1  0.90061939  0.33370701  0.56134734  1
  Li  Li2  1  0.65973191  0.67442615  0.88512763  1
  Li  Li3  1  0.77602279  0.31342174  0.06118461  1
  Li  Li4  1  0.31145948  0.91301314  0.05808044  1
  Li  Li5  1  0.66133941  0.23394888  0.44090224  1
  Li  Li6  1  0.33377031  0.76319254  0.56373272  1
  Li  Li7  1  0.68134114  0.09203232  0.93643283  1
  Li  Li8  1  0.09789004  0.66475964  0.44069077  1
  Li  Li9  1  0.23286815  0.10109257  0.44105355  1
  Li  Li10  1  0.09579687  0.22531953  0.93946397  1
  Li  Li11  1  0.96323183  0.98706067  0.50825817  1
  V  V12  1  0.56534858  0.43296828  0.24899517  1
  V  V13  1  0.43244321  0.56407829  0.75438786  1
  V  V14  1  0.56894148  0.99593646  0.74310641  1
  V  V15  1  0.43346776  0.00087967  0.25156639  1
  V  V16  1  0.00123552  0.56825179  0.24998794  1
  V  V17  1  0.00000486  0.43794375  0.74856792  1
  P  P18  1  0.91006336  0.77233333  0.84292124  1
  P  P19  1  0.77575090  0.91576181  0.34153543  1
  P  P20  1  0.91180048  0.31690029  0.34208220  1
  P  P21  1  0.66810236  0.66670263  0.12800499  1
  P  P22  1  0.66235093  0.66478394  0.62774082  1
  P  P23  1  0.77243617  0.32146631  0.84229105  1
  P  P24  1  0.68706233  0.22854167  0.65718527  1
  P  P25  1  0.32027802  0.90892910  0.84267794  1
  P  P26  1  0.67942592  0.08647906  0.15542294  1
  P  P27  1  0.31603470  0.77010093  0.34494384  1
  P  P28  1  0.23112647  0.68441417  0.15861703  1
  P  P29  1  0.33153208  0.33438212  0.37309505  1
  P  P30  1  0.33753613  0.32530650  0.87092927  1
  P  P31  1  0.08608941  0.68956270  0.65721825  1
  P  P32  1  0.22687646  0.08748591  0.65753844  1
  P  P33  1  0.08897467  0.23226157  0.15828254  1
  O  O34  1  0.00746577  0.77896597  0.56711994  1
  O  O35  1  0.91813806  0.74500805  0.34070952  1
  O  O36  1  0.75205929  -0.00013434  0.06359162  1
  O  O37  1  0.74597410  0.92202971  0.84043808  1
  O  O38  1  0.88303923  0.62976172  0.82153738  1
  O  O39  1  0.81509414  0.67361905  0.16707924  1
  O  O40  1  0.90754597  0.47390418  0.32974299  1
  O  O41  1  0.99923047  0.24516648  0.06775257  1
  O  O42  1  0.92255819  0.33491290  0.84463856  1
  O  O43  1  0.66893321  0.80983261  0.67255316  1
  O  O44  1  0.61888670  0.91776942  0.33461702  1
  O  O45  1  0.81141412  0.51069645  0.66782399  1
  O  O46  1  0.66856662  0.66689923  0.01973720  1
  O  O47  1  0.65732630  0.66474201  0.52095999  1
  O  O48  1  0.67455910  0.51224978  0.16597061  1
  O  O49  1  0.48613711  0.88943077  0.82689786  1
  O  O50  1  0.51555266  0.81354673  0.16803850  1
  O  O51  1  0.74382937  0.33811247  0.33908133  1
  O  O52  1  0.79373897  0.21315047  0.75071487  1
  O  O53  1  0.78152133  0.22033136  0.56842495  1
  O  O54  1  0.75396410  0.24473810  0.93120569  1
  O  O55  1  0.62999127  0.48945893  0.82653072  1
  O  O56  1  0.50980956  0.67361370  0.67132411  1
  O  O57  1  0.66525570  0.25090937  0.15758807  1
  O  O58  1  0.47321109  0.61909814  0.33059856  1
  O  O59  1  0.33681462  0.91765515  0.34055543  1
  O  O60  1  0.79641155  0.98946726  0.24168851  1
  O  O61  1  0.79297614  0.00818470  0.42207293  1
  O  O62  1  0.22628112  0.99758371  0.56897579  1
  O  O63  1  0.66267772  0.08696727  0.66055602  1
  O  O64  1  0.53358191  0.38552432  0.66674971  1
  O  O65  1  0.33853605  0.74459814  0.84224911  1
  O  O66  1  0.48821144  0.32087423  0.33287386  1
  O  O67  1  0.38183813  0.52226696  0.17693278  1
  O  O68  1  0.24121161  0.76958262  0.07386623  1
  O  O69  1  0.22802319  0.77455069  0.43525808  1
  O  O70  1  0.20511477  0.78796606  0.25526445  1
  O  O71  1  0.25502446  0.66176773  0.66179050  1
  O  O72  1  0.48383454  0.17590245  0.82705754  1
  O  O73  1  0.51840825  0.10068399  0.17737983  1
  O  O74  1  0.34270898  0.46973285  0.82470804  1
  O  O75  1  0.34294241  0.32067710  0.97745103  1
  O  O76  1  0.32832799  0.33504866  0.48061603  1
  O  O77  1  0.18969330  0.49118613  0.33173816  1
  O  O78  1  0.37904674  0.09477231  0.66793600  1
  O  O79  1  0.31741691  0.19153935  0.33154295  1
  O  O80  1  0.08487918  0.66284736  0.15859911  1
  O  O81  1  0.99908931  0.79209923  0.75096879  1
  O  O82  1  0.99833116  0.75303072  0.93298884  1
  O  O83  1  0.08521158  0.53258312  0.66749490  1
  O  O84  1  0.18318234  0.33171081  0.82970721  1
  O  O85  1  0.10135777  0.38052061  0.17767885  1
  O  O86  1  0.25319105  0.08283463  0.15836827  1
  O  O87  1  0.24233679  0.00403573  0.93114420  1
  O  O88  1  0.20947502  0.00114710  0.75158762  1
  O  O89  1  0.08006031  0.25298259  0.65814833  1
  O  O90  1  0.99760681  0.22683570  0.43122223  1
  O  O91  1  0.99814228  0.21009973  0.24854283  1
