# generated using pymatgen
data_MnFeCo(PO4)3
_symmetry_space_group_name_H-M   'P 1'
_cell_length_a   9.85508182
_cell_length_b   6.00656167
_cell_length_c   14.65443421
_cell_angle_alpha   90.00000000
_cell_angle_beta   89.70174073
_cell_angle_gamma   90.00000000
_symmetry_Int_Tables_number   1
_chemical_formula_structural   MnFeCo(PO4)3
_chemical_formula_sum   'Mn4 Fe4 Co4 P12 O48'
_cell_volume   867.45977560
_cell_formula_units_Z   4
loop_
 _symmetry_equiv_pos_site_id
 _symmetry_equiv_pos_as_xyz
  1  'x, y, z'
loop_
 _atom_site_type_symbol
 _atom_site_label
 _atom_site_symmetry_multiplicity
 _atom_site_fract_x
 _atom_site_fract_y
 _atom_site_fract_z
 _atom_site_occupancy
  Mn  Mn0  1  0.21590487  0.75000000  0.81226629  1
  Mn  Mn1  1  0.21328781  0.75000000  0.48041446  1
  Mn  Mn2  1  0.28303331  0.25000000  0.64604604  1
  Mn  Mn3  1  0.28355245  0.25000000  0.31324403  1
  Fe  Fe4  1  0.22549504  0.75000000  0.15393758  1
  Fe  Fe5  1  0.27691521  0.25000000  0.98510236  1
  Fe  Fe6  1  0.72911738  0.75000000  0.34410714  1
  Fe  Fe7  1  0.72684882  0.75000000  0.00887888  1
  Co  Co8  1  0.72644370  0.75000000  0.67707316  1
  Co  Co9  1  0.77184472  0.25000000  0.17651978  1
  Co  Co10  1  0.77411953  0.25000000  0.51413950  1
  Co  Co11  1  0.77282122  0.25000000  0.84062491  1
  P  P12  1  0.09847704  0.25000000  0.47274961  1
  P  P13  1  0.09738287  0.25000000  0.80531461  1
  P  P14  1  0.09923939  0.25000000  0.14034393  1
  P  P15  1  0.40030260  0.75000000  0.97057868  1
  P  P16  1  0.40111144  0.75000000  0.30732853  1
  P  P17  1  0.40068802  0.75000000  0.63950961  1
  P  P18  1  0.60168425  0.25000000  0.02761500  1
  P  P19  1  0.60152850  0.25000000  0.36241770  1
  P  P20  1  0.59809763  0.25000000  0.69603860  1
  P  P21  1  0.90042976  0.75000000  0.52968005  1
  P  P22  1  0.90086065  0.75000000  0.86037859  1
  P  P23  1  0.90128516  0.75000000  0.19490559  1
  O  O24  1  0.05329280  0.75000000  0.88242688  1
  O  O25  1  0.05300653  0.75000000  0.55368653  1
  O  O26  1  0.05335105  0.75000000  0.21646644  1
  O  O27  1  0.11994602  0.25000000  0.24441741  1
  O  O28  1  0.11869141  0.25000000  0.57668207  1
  O  O29  1  0.11769187  0.25000000  0.90845159  1
  O  O30  1  0.17098684  0.04969960  0.42444912  1
  O  O31  1  0.17098684  0.45030040  0.42444912  1
  O  O32  1  0.16795321  0.04891177  0.75659437  1
  O  O33  1  0.16795321  0.45108823  0.75659437  1
  O  O34  1  0.17168592  0.05032489  0.09155927  1
  O  O35  1  0.17168592  0.44967511  0.09155927  1
  O  O36  1  0.32731329  0.55198629  0.25706516  1
  O  O37  1  0.32731329  0.94801371  0.25706516  1
  O  O38  1  0.32844606  0.54567020  0.92514436  1
  O  O39  1  0.32844606  0.95432980  0.92514436  1
  O  O40  1  0.32985559  0.54945742  0.59112021  1
  O  O41  1  0.32985559  0.95054258  0.59112021  1
  O  O42  1  0.37909370  0.75000000  0.07465898  1
  O  O43  1  0.37890984  0.75000000  0.41083953  1
  O  O44  1  0.38103490  0.75000000  0.74366455  1
  O  O45  1  0.45017390  0.25000000  0.04895528  1
  O  O46  1  0.44788663  0.25000000  0.38317364  1
  O  O47  1  0.44517912  0.25000000  0.71754409  1
  O  O48  1  0.55285328  0.75000000  0.94938358  1
  O  O49  1  0.55220415  0.75000000  0.28648069  1
  O  O50  1  0.55531190  0.75000000  0.62080293  1
  O  O51  1  0.62356717  0.25000000  0.25765064  1
  O  O52  1  0.62710459  0.25000000  0.92368216  1
  O  O53  1  0.62114498  0.25000000  0.59111042  1
  O  O54  1  0.67272820  0.04788136  0.40971131  1
  O  O55  1  0.67272820  0.45211864  0.40971131  1
  O  O56  1  0.67466966  0.04874256  0.07579572  1
  O  O57  1  0.67466966  0.45125744  0.07579572  1
  O  O58  1  0.66983353  0.04895364  0.74365009  1
  O  O59  1  0.66983353  0.45104636  0.74365009  1
  O  O60  1  0.82766795  0.54879059  0.57812461  1
  O  O61  1  0.82766795  0.95120941  0.57812461  1
  O  O62  1  0.82968791  0.54997749  0.90956966  1
  O  O63  1  0.82968791  0.95002251  0.90956966  1
  O  O64  1  0.82796581  0.55087281  0.24498164  1
  O  O65  1  0.82796581  0.94912719  0.24498164  1
  O  O66  1  0.87677590  0.75000000  0.75628351  1
  O  O67  1  0.87997206  0.75000000  0.09190441  1
  O  O68  1  0.88219213  0.75000000  0.42625510  1
  O  O69  1  0.94453195  0.25000000  0.45267120  1
  O  O70  1  0.94288322  0.25000000  0.78470541  1
  O  O71  1  0.94512463  0.25000000  0.12260632  1
