# generated using pymatgen
data_CrPO4
_symmetry_space_group_name_H-M   'P 1'
_cell_length_a   8.71435996
_cell_length_b   6.42292871
_cell_length_c   4.72998767
_cell_angle_alpha   90.00000000
_cell_angle_beta   90.00000000
_cell_angle_gamma   90.00000000
_symmetry_Int_Tables_number   1
_chemical_formula_structural   CrPO4
_chemical_formula_sum   'Cr4 P4 O16'
_cell_volume   264.74551130
_cell_formula_units_Z   4
loop_
 _symmetry_equiv_pos_site_id
 _symmetry_equiv_pos_as_xyz
  1  'x, y, z'
loop_
 _atom_site_type_symbol
 _atom_site_label
 _atom_site_symmetry_multiplicity
 _atom_site_fract_x
 _atom_site_fract_y
 _atom_site_fract_z
 _atom_site_occupancy
  Cr  Cr0  1  0.00000000  0.00000000  0.00000000  1
  Cr  Cr1  1  0.00000000  0.50000000  0.00000000  1
  Cr  Cr2  1  0.50000000  0.00000000  0.50000000  1
  Cr  Cr3  1  0.50000000  0.50000000  0.50000000  1
  P  P4  1  0.17677402  0.25000000  0.47591262  1
  P  P5  1  0.32322598  0.75000000  0.97591262  1
  P  P6  1  0.67677402  0.25000000  0.02408738  1
  P  P7  1  0.82322598  0.75000000  0.52408738  1
  O  O8  1  0.12467188  0.04916899  0.33567005  1
  O  O9  1  0.12467188  0.45083101  0.33567005  1
  O  O10  1  0.14165181  0.75000000  0.94367672  1
  O  O11  1  0.11689158  0.25000000  0.79176500  1
  O  O12  1  0.38310842  0.75000000  0.29176500  1
  O  O13  1  0.35834819  0.25000000  0.44367672  1
  O  O14  1  0.37532812  0.54916899  0.83567005  1
  O  O15  1  0.37532812  0.95083101  0.83567005  1
  O  O16  1  0.62467188  0.04916899  0.16432995  1
  O  O17  1  0.62467188  0.45083101  0.16432995  1
  O  O18  1  0.64165181  0.75000000  0.55632328  1
  O  O19  1  0.61689158  0.25000000  0.70823500  1
  O  O20  1  0.88310842  0.75000000  0.20823500  1
  O  O21  1  0.85834819  0.25000000  0.05632328  1
  O  O22  1  0.87532812  0.54916899  0.66432995  1
  O  O23  1  0.87532812  0.95083101  0.66432995  1
