# generated using pymatgen
data_Li2FeSiO4
_symmetry_space_group_name_H-M   'P 1'
_cell_length_a   5.03992952
_cell_length_b   5.48001033
_cell_length_c   6.37100645
_cell_angle_alpha   91.49007089
_cell_angle_beta   89.90779738
_cell_angle_gamma   90.52695582
_symmetry_Int_Tables_number   1
_chemical_formula_structural   Li2FeSiO4
_chemical_formula_sum   'Li4 Fe2 Si2 O8'
_cell_volume   175.89286601
_cell_formula_units_Z   2
loop_
 _symmetry_equiv_pos_site_id
 _symmetry_equiv_pos_as_xyz
  1  'x, y, z'
loop_
 _atom_site_type_symbol
 _atom_site_label
 _atom_site_symmetry_multiplicity
 _atom_site_fract_x
 _atom_site_fract_y
 _atom_site_fract_z
 _atom_site_occupancy
  Li  Li0  1  0.50485266  0.83487377  0.50205194  1
  Li  Li1  1  0.00628726  0.65094057  0.27041918  1
  Li  Li2  1  0.50083941  0.34907758  0.72566280  1
  Li  Li3  1  0.00059750  0.16161182  0.49611364  1
  Fe  Fe4  1  0.01180293  0.18441714  0.98645534  1
  Fe  Fe5  1  0.51520570  0.82114322  0.01230723  1
  Si  Si6  1  0.99974204  0.67493150  0.74045021  1
  Si  Si7  1  0.49735324  0.32493974  0.25709504  1
  O  O8  1  0.09894705  0.81300855  0.96943527  1
  O  O9  1  0.11254232  0.81729618  0.53825056  1
  O  O10  1  0.67139721  0.67741888  0.74627040  1
  O  O11  1  0.60369346  0.61162816  0.25227221  1
  O  O12  1  0.09988384  0.38692689  0.74247893  1
  O  O13  1  0.16834819  0.31852235  0.25372937  1
  O  O14  1  0.60882810  0.18164974  0.45792855  1
  O  O15  1  0.59239508  0.18901393  0.02633932  1
