# generated using pymatgen
data_V4O7F5
_symmetry_space_group_name_H-M   'P 1'
_cell_length_a   5.26960494
_cell_length_b   5.36717486
_cell_length_c   9.02109998
_cell_angle_alpha   73.73288549
_cell_angle_beta   89.93343380
_cell_angle_gamma   60.23558550
_symmetry_Int_Tables_number   1
_chemical_formula_structural   V4O7F5
_chemical_formula_sum   'V4 O7 F5'
_cell_volume   209.68473627
_cell_formula_units_Z   1
loop_
 _symmetry_equiv_pos_site_id
 _symmetry_equiv_pos_as_xyz
  1  'x, y, z'
loop_
 _atom_site_type_symbol
 _atom_site_label
 _atom_site_symmetry_multiplicity
 _atom_site_fract_x
 _atom_site_fract_y
 _atom_site_fract_z
 _atom_site_occupancy
  V  V0  1  0.73107900  0.52350893  0.26410835  1
  V  V1  1  0.45264601  0.04001392  0.50998349  1
  V  V2  1  0.24606692  0.54702105  0.75228803  1
  V  V3  1  0.04117795  0.00296107  0.01495983  1
  O  O4  1  0.95132044  0.23741589  0.11963740  1
  O  O5  1  0.56516150  0.74040636  0.37493449  1
  O  O6  1  0.40641358  0.75037561  0.08215364  1
  O  O7  1  0.41172139  0.74120346  0.66238118  1
  O  O8  1  0.44922688  0.23751677  0.62463240  1
  O  O9  1  0.05261901  0.74335192  0.86755864  1
  O  O10  1  0.10225379  0.24030765  0.41190319  1
  F  F11  1  0.92197070  0.73412203  0.58655834  1
  F  F12  1  0.92070011  0.74470170  0.15267936  1
  F  F13  1  0.59901827  0.22986111  0.33855346  1
  F  F14  1  0.57487080  0.23767394  0.90827447  1
  F  F15  1  0.07375464  0.24956061  0.82939474  1
