# generated using pymatgen
data_Fe3(PO4)2
_symmetry_space_group_name_H-M   'P 1'
_cell_length_a   8.91577965
_cell_length_b   10.08226982
_cell_length_c   21.05642310
_cell_angle_alpha   90.00000000
_cell_angle_beta   99.04182164
_cell_angle_gamma   90.00000000
_symmetry_Int_Tables_number   1
_chemical_formula_structural   Fe3(PO4)2
_chemical_formula_sum   'Fe36 P24 O96'
_cell_volume   1869.26916229
_cell_formula_units_Z   12
loop_
 _symmetry_equiv_pos_site_id
 _symmetry_equiv_pos_as_xyz
  1  'x, y, z'
loop_
 _atom_site_type_symbol
 _atom_site_label
 _atom_site_symmetry_multiplicity
 _atom_site_fract_x
 _atom_site_fract_y
 _atom_site_fract_z
 _atom_site_occupancy
  Fe  Fe0  1  0.06489015  0.90681733  0.94027587  1
  Fe  Fe1  1  0.09699376  0.39557869  0.89219815  1
  Fe  Fe2  1  0.03989009  0.21454916  0.54236684  1
  Fe  Fe3  1  0.10891923  0.61476632  0.58334652  1
  Fe  Fe4  1  0.20615705  0.58221329  0.78268775  1
  Fe  Fe5  1  0.04233698  0.11356135  0.24393155  1
  Fe  Fe6  1  0.10311656  0.70400725  0.29612131  1
  Fe  Fe7  1  0.29384295  0.08221329  0.71731225  1
  Fe  Fe8  1  0.39108077  0.11476632  0.91665348  1
  Fe  Fe9  1  0.46010991  0.71454916  0.95763316  1
  Fe  Fe10  1  0.23583237  0.27949683  0.35938632  1
  Fe  Fe11  1  0.27659493  0.87809314  0.42510551  1
  Fe  Fe12  1  0.40300624  0.89557869  0.60780185  1
  Fe  Fe13  1  0.22340507  0.37809314  0.07489449  1
  Fe  Fe14  1  0.26416763  0.77949683  0.14061368  1
  Fe  Fe15  1  0.43510985  0.40681733  0.55972413  1
  Fe  Fe16  1  0.54233698  0.38643865  0.74393155  1
  Fe  Fe17  1  0.60311656  0.79599275  0.79612131  1
  Fe  Fe18  1  0.39688344  0.20400725  0.20387869  1
  Fe  Fe19  1  0.45766302  0.61356135  0.25606845  1
  Fe  Fe20  1  0.56489015  0.59318267  0.44027587  1
  Fe  Fe21  1  0.73583237  0.22050317  0.85938632  1
  Fe  Fe22  1  0.77659493  0.62190686  0.92510551  1
  Fe  Fe23  1  0.59699376  0.10442131  0.39219815  1
  Fe  Fe24  1  0.72340507  0.12190686  0.57489449  1
  Fe  Fe25  1  0.76416763  0.72050317  0.64061368  1
  Fe  Fe26  1  0.53989009  0.28545084  0.04236684  1
  Fe  Fe27  1  0.60891923  0.88523368  0.08334652  1
  Fe  Fe28  1  0.70615705  0.91778671  0.28268775  1
  Fe  Fe29  1  0.89688344  0.29599275  0.70387869  1
  Fe  Fe30  1  0.95766302  0.88643865  0.75606845  1
  Fe  Fe31  1  0.79384295  0.41778671  0.21731225  1
  Fe  Fe32  1  0.89108077  0.38523368  0.41665348  1
  Fe  Fe33  1  0.96010991  0.78545084  0.45763316  1
  Fe  Fe34  1  0.90300624  0.60442131  0.10780185  1
  Fe  Fe35  1  0.93510985  0.09318267  0.05972413  1
  P  P36  1  0.05001787  0.13007257  0.82818948  1
  P  P37  1  0.12943274  0.64498699  0.99903301  1
  P  P38  1  0.03310365  0.92449763  0.60592084  1
  P  P39  1  0.19221660  0.35720996  0.66947380  1
  P  P40  1  0.30778340  0.85720996  0.83052620  1
  P  P41  1  0.19876427  0.55534099  0.43927432  1
  P  P42  1  0.15100702  0.43151887  0.21780788  1
  P  P43  1  0.46689635  0.42449763  0.89407916  1
  P  P44  1  0.37056726  0.14498699  0.50096699  1
  P  P45  1  0.44998213  0.63007257  0.67181052  1
  P  P46  1  0.34899298  0.93151887  0.28219212  1
  P  P47  1  0.30123573  0.05534099  0.06072568  1
  P  P48  1  0.69876427  0.94465901  0.93927432  1
  P  P49  1  0.65100702  0.06848113  0.71780788  1
  P  P50  1  0.55001787  0.36992743  0.32818948  1
  P  P51  1  0.62943274  0.85501301  0.49903301  1
  P  P52  1  0.53310365  0.57550237  0.10592084  1
  P  P53  1  0.84899298  0.56848113  0.78219212  1
  P  P54  1  0.80123573  0.44465901  0.56072568  1
  P  P55  1  0.69221660  0.14279004  0.16947380  1
  P  P56  1  0.80778340  0.64279004  0.33052620  1
  P  P57  1  0.96689635  0.07550237  0.39407916  1
  P  P58  1  0.87056726  0.35501301  0.00096699  1
  P  P59  1  0.94998213  0.86992743  0.17181052  1
  O  O60  1  0.00195869  0.53352462  0.82510122  1
  O  O61  1  0.15627766  0.49752852  0.98298322  1
  O  O62  1  0.09966100  0.07417985  0.76599878  1
  O  O63  1  0.07931939  0.24338636  0.64673232  1
  O  O64  1  0.11216902  0.44310124  0.71526187  1
  O  O65  1  0.18040282  0.20007060  0.87477878  1
  O  O66  1  0.05435985  0.81524784  0.55650073  1
  O  O67  1  0.15994131  0.78870171  0.79461348  1
  O  O68  1  0.25477287  0.73942338  0.98389061  1
  O  O69  1  0.05887137  0.95738126  0.42941119  1
  O  O70  1  0.08787825  0.60896607  0.48344336  1
  O  O71  1  0.05895780  0.13509637  0.34403722  1
  O  O72  1  0.27272337  0.93704700  0.88914924  1
  O  O73  1  0.19339256  0.96914793  0.63815555  1
  O  O74  1  0.12201293  0.42973526  0.40309261  1
  O  O75  1  0.02550211  0.98505391  0.13978058  1
  O  O76  1  0.30660744  0.46914793  0.86184445  1
  O  O77  1  0.22727663  0.43704700  0.61085076  1
  O  O78  1  0.01577577  0.29417843  0.04280299  1
  O  O79  1  0.07116930  0.75944364  0.19174539  1
  O  O80  1  0.11999724  0.31979225  0.26442148  1
  O  O81  1  0.24522713  0.23942338  0.51610939  1
  O  O82  1  0.22044414  0.66843324  0.39173061  1
  O  O83  1  0.34005869  0.28870171  0.70538652  1
  O  O84  1  0.44564015  0.31524784  0.94349927  1
  O  O85  1  0.31959718  0.70007060  0.62522122  1
  O  O86  1  0.38783098  0.94310124  0.78473813  1
  O  O87  1  0.11659809  0.65310587  0.07250208  1
  O  O88  1  0.42068061  0.74338636  0.85326768  1
  O  O89  1  0.23382203  0.88230958  0.32513843  1
  O  O90  1  0.40033900  0.57417985  0.73400122  1
  O  O91  1  0.22571248  0.55379270  0.25627920  1
  O  O92  1  0.14544704  0.02067956  0.02128730  1
  O  O93  1  0.34372234  0.99752852  0.51701678  1
  O  O94  1  0.35455296  0.52067956  0.47871270  1
  O  O95  1  0.27428752  0.05379270  0.24372080  1
  O  O96  1  0.26617797  0.38230958  0.17486157  1
  O  O97  1  0.55887137  0.54261874  0.92941119  1
  O  O98  1  0.58787825  0.89103393  0.98344336  1
  O  O99  1  0.38340191  0.15310587  0.42749792  1
  O  O100  1  0.55895780  0.36490363  0.84403722  1
  O  O101  1  0.27955586  0.16843324  0.10826939  1
  O  O102  1  0.49804131  0.03352462  0.67489878  1
  O  O103  1  0.62201293  0.07026474  0.90309261  1
  O  O104  1  0.52550211  0.51494609  0.63978058  1
  O  O105  1  0.38000276  0.81979225  0.23557852  1
  O  O106  1  0.51577577  0.20582157  0.54280299  1
  O  O107  1  0.57116930  0.74055636  0.69174539  1
  O  O108  1  0.42883070  0.25944364  0.30825461  1
  O  O109  1  0.48422423  0.79417843  0.45719701  1
  O  O110  1  0.61999724  0.18020775  0.76442148  1
  O  O111  1  0.47449789  0.48505391  0.36021942  1
  O  O112  1  0.37798707  0.92973526  0.09690739  1
  O  O113  1  0.50195869  0.96647538  0.32510122  1
  O  O114  1  0.72044414  0.83156676  0.89173061  1
  O  O115  1  0.44104220  0.63509637  0.15596278  1
  O  O116  1  0.61659809  0.84689413  0.57250208  1
  O  O117  1  0.41212175  0.10896607  0.01655664  1
  O  O118  1  0.44112863  0.45738126  0.07058881  1
  O  O119  1  0.73382203  0.61769042  0.82513843  1
  O  O120  1  0.72571248  0.94620730  0.75627920  1
  O  O121  1  0.64544704  0.47932044  0.52128630  1
  O  O122  1  0.65627766  0.00247148  0.48298322  1
  O  O123  1  0.85455296  0.97932044  0.97871370  1
  O  O124  1  0.77428752  0.44620730  0.74372080  1
  O  O125  1  0.59966100  0.42582015  0.26599878  1
  O  O126  1  0.76617797  0.11769042  0.67486157  1
  O  O127  1  0.57931939  0.25661364  0.14673232  1
  O  O128  1  0.88340191  0.34689413  0.92749792  1
  O  O129  1  0.61216902  0.05689876  0.21526187  1
  O  O130  1  0.68040282  0.29992940  0.37477878  1
  O  O131  1  0.55435985  0.68475216  0.05650073  1
  O  O132  1  0.65994131  0.71129829  0.29461348  1
  O  O133  1  0.77955586  0.33156676  0.60826939  1
  O  O134  1  0.75477287  0.76057662  0.48389061  1
  O  O135  1  0.88000276  0.68020775  0.73557852  1
  O  O136  1  0.92883070  0.24055636  0.80825461  1
  O  O137  1  0.98422423  0.70582157  0.95719701  1
  O  O138  1  0.77272337  0.56295300  0.38914924  1
  O  O139  1  0.69339256  0.53085207  0.13815555  1
  O  O140  1  0.97449789  0.01494609  0.86021942  1
  O  O141  1  0.87798707  0.57026474  0.59690739  1
  O  O142  1  0.80660744  0.03085207  0.36184445  1
  O  O143  1  0.72727663  0.06295300  0.11085076  1
  O  O144  1  0.94104220  0.86490363  0.65596278  1
  O  O145  1  0.91212175  0.39103393  0.51655664  1
  O  O146  1  0.94112863  0.04261874  0.57058881  1
  O  O147  1  0.74522713  0.26057662  0.01610939  1
  O  O148  1  0.84005869  0.21129829  0.20538652  1
  O  O149  1  0.94564015  0.18475216  0.44349927  1
  O  O150  1  0.81959718  0.79992940  0.12522122  1
  O  O151  1  0.88783098  0.55689876  0.28473813  1
  O  O152  1  0.92068061  0.75661364  0.35326768  1
  O  O153  1  0.90033900  0.92582015  0.23400122  1
  O  O154  1  0.84372234  0.50247148  0.01701678  1
  O  O155  1  0.99804131  0.46647538  0.17489878  1
