# generated using pymatgen
data_LiMnF5
_symmetry_space_group_name_H-M   'P 1'
_cell_length_a   6.72797993
_cell_length_b   10.58514880
_cell_length_c   10.58514880
_cell_angle_alpha   95.79667844
_cell_angle_beta   108.53009965
_cell_angle_gamma   71.46990035
_symmetry_Int_Tables_number   1
_chemical_formula_structural   LiMnF5
_chemical_formula_sum   'Li8 Mn8 F40'
_cell_volume   677.70233202
_cell_formula_units_Z   8
loop_
 _symmetry_equiv_pos_site_id
 _symmetry_equiv_pos_as_xyz
  1  'x, y, z'
loop_
 _atom_site_type_symbol
 _atom_site_label
 _atom_site_symmetry_multiplicity
 _atom_site_fract_x
 _atom_site_fract_y
 _atom_site_fract_z
 _atom_site_occupancy
  Li  Li0  1  0.21089165  0.21690662  0.54443097  1
  Li  Li1  1  0.61663270  0.71690662  0.04443097  1
  Li  Li2  1  0.07220173  0.04443097  0.78309338  1
  Li  Li3  1  0.16645968  0.54443097  0.28309338  1
  Li  Li4  1  0.83354032  0.45556903  0.71690662  1
  Li  Li5  1  0.92779827  0.95556903  0.21690662  1
  Li  Li6  1  0.78910835  0.78309338  0.45556903  1
  Li  Li7  1  0.38336730  0.28309338  0.95556903  1
  Mn  Mn8  1  0.32391846  0.04776421  0.14586083  1
  Mn  Mn9  1  0.87168267  0.35413917  0.04776421  1
  Mn  Mn10  1  0.67805763  0.14586083  0.45223579  1
  Mn  Mn11  1  0.72582184  0.45223579  0.35413917  1
  Mn  Mn12  1  0.27417816  0.54776421  0.64586083  1
  Mn  Mn13  1  0.32194237  0.85413917  0.54776421  1
  Mn  Mn14  1  0.12831733  0.64586083  0.95223579  1
  Mn  Mn15  1  0.67608154  0.95223579  0.85413917  1
  F  F16  1  0.42401350  0.16484231  0.08884085  1
  F  F17  1  0.04104750  0.18001387  0.12391583  1
  F  F18  1  0.41713168  0.12391583  0.31998613  1
  F  F19  1  0.83517265  0.08884085  0.33515769  1
  F  F20  1  0.08885581  0.41115915  0.16484231  1
  F  F21  1  0.72106137  0.37608417  0.18001387  1
  F  F22  1  0.71129379  0.52165579  0.99575170  1
  F  F23  1  0.26280213  0.02165579  0.49575170  1
  F  F24  1  0.59714554  0.31998613  0.37608417  1
  F  F25  1  0.44407432  0.55570423  0.28523044  1
  F  F26  1  0.78545289  0.05570423  0.78523044  1
  F  F27  1  0.99854325  0.67775776  0.08568176  1
  F  F28  1  0.90938175  0.17775776  0.58568176  1
  F  F29  1  0.00001496  0.33515769  0.41115915  1
  F  F30  1  0.34115612  0.71476956  0.05570423  1
  F  F31  1  0.49977855  0.21476956  0.55570423  1
  F  F32  1  0.41286149  0.08568176  0.82224224  1
  F  F33  1  0.82370000  0.58568176  0.32224224  1
  F  F34  1  0.26705043  0.49575170  0.47834421  1
  F  F35  1  0.21554209  0.99575170  0.97834421  1
  F  F36  1  0.73294957  0.50424830  0.52165579  1
  F  F37  1  0.78445791  0.00424830  0.02165579  1
  F  F38  1  0.58713851  0.91431824  0.17775776  1
  F  F39  1  0.17630000  0.41431824  0.67775776  1
  F  F40  1  0.50022145  0.78523044  0.44429577  1
  F  F41  1  0.65884388  0.28523044  0.94429577  1
  F  F42  1  -0.00001496  0.66484231  0.58884085  1
  F  F43  1  0.09061825  0.82224224  0.41431824  1
  F  F44  1  0.00145675  0.32224224  0.91431824  1
  F  F45  1  0.21454711  0.94429577  0.21476956  1
  F  F46  1  0.55592568  0.44429577  0.71476956  1
  F  F47  1  0.40285446  0.68001387  0.62391583  1
  F  F48  1  0.73719787  0.97834421  0.50424830  1
  F  F49  1  0.28870621  0.47834421  0.00424830  1
  F  F50  1  0.27893863  0.62391583  0.81998613  1
  F  F51  1  0.91114419  0.58884085  0.83515769  1
  F  F52  1  0.16482735  0.91115915  0.66484231  1
  F  F53  1  0.58286832  0.87608417  0.68001387  1
  F  F54  1  0.95895250  0.81998613  0.87608417  1
  F  F55  1  0.57598650  0.83515769  0.91115915  1
