# generated using pymatgen
data_Li4MnCo2O7
_symmetry_space_group_name_H-M   'P 1'
_cell_length_a   3.01605666
_cell_length_b   6.00222134
_cell_length_c   14.26682959
_cell_angle_alpha   82.95649930
_cell_angle_beta   95.55709318
_cell_angle_gamma   95.21819679
_symmetry_Int_Tables_number   1
_chemical_formula_structural   Li4MnCo2O7
_chemical_formula_sum   'Li8 Mn2 Co4 O14'
_cell_volume   254.30045696
_cell_formula_units_Z   2
loop_
 _symmetry_equiv_pos_site_id
 _symmetry_equiv_pos_as_xyz
  1  'x, y, z'
loop_
 _atom_site_type_symbol
 _atom_site_label
 _atom_site_symmetry_multiplicity
 _atom_site_fract_x
 _atom_site_fract_y
 _atom_site_fract_z
 _atom_site_occupancy
  Li  Li0  1  0.99993595  0.49864144  0.99884778  1
  Li  Li1  1  0.57149305  0.21564456  0.14400922  1
  Li  Li2  1  0.14470094  0.93004491  0.28762399  1
  Li  Li3  1  0.42672706  0.78424009  0.85523301  1
  Li  Li4  1  0.85370655  0.06658315  0.71222994  1
  Li  Li5  1  0.28571400  0.35714300  0.57142900  1
  Li  Li6  1  0.71772245  0.64770285  0.43062706  1
  Li  Li7  1  0.28571400  0.85714300  0.57142900  1
  Mn  Mn8  1  0.99865190  0.00504961  0.99846144  1
  Mn  Mn9  1  0.57277710  0.70923639  0.14439556  1
  Co  Co10  1  0.14315819  0.42553378  0.28885295  1
  Co  Co11  1  0.71743531  0.13186720  0.43471608  1
  Co  Co12  1  0.85399369  0.58241880  0.70814092  1
  Co  Co13  1  0.42826981  0.28875122  0.85400405  1
  O  O14  1  0.47394295  0.24922285  0.99200977  1
  O  O15  1  0.04267683  0.95904682  0.13873366  1
  O  O16  1  0.61539438  0.66349513  0.28297885  1
  O  O17  1  0.89750072  0.52487274  0.84483122  1
  O  O18  1  0.33573382  0.80170503  0.71451095  1
  O  O19  1  0.77657104  0.11578261  0.55799354  1
  O  O20  1  0.19235253  0.37836369  0.42334464  1
  O  O21  1  0.52875117  0.75523918  0.00412434  1
  O  O22  1  0.09748605  0.46506315  0.15084723  1
  O  O23  1  0.67392728  0.18941226  0.29802578  1
  O  O24  1  0.95603462  0.05079087  0.85987815  1
  O  O25  1  0.37907547  0.33592131  0.71951236  1
  O  O26  1  0.79485796  0.59850339  0.58486346  1
  O  O27  1  0.23569518  0.91258097  0.42834605  1
