# generated using pymatgen
data_V4O7F5
_symmetry_space_group_name_H-M   'P 1'
_cell_length_a   5.18539774
_cell_length_b   7.40601668
_cell_length_c   5.35148237
_cell_angle_alpha   92.77054749
_cell_angle_beta   89.43614124
_cell_angle_gamma   89.75757244
_symmetry_Int_Tables_number   1
_chemical_formula_structural   V4O7F5
_chemical_formula_sum   'V4 O7 F5'
_cell_volume   205.26129689
_cell_formula_units_Z   1
loop_
 _symmetry_equiv_pos_site_id
 _symmetry_equiv_pos_as_xyz
  1  'x, y, z'
loop_
 _atom_site_type_symbol
 _atom_site_label
 _atom_site_symmetry_multiplicity
 _atom_site_fract_x
 _atom_site_fract_y
 _atom_site_fract_z
 _atom_site_occupancy
  V  V0  1  0.46525276  0.51939403  0.47119000  1
  V  V1  1  0.53319582  0.02373253  0.47320078  1
  V  V2  1  0.02866986  0.51320924  0.97329258  1
  V  V3  1  0.03013414  0.00290683  0.98293216  1
  O  O4  1  0.70538171  0.95808083  0.21760547  1
  O  O5  1  0.58377084  0.24521498  0.50468676  1
  O  O6  1  0.41298082  0.74054467  0.49826766  1
  O  O7  1  0.28191345  0.45386821  0.21568168  1
  O  O8  1  0.28341269  0.03459606  0.79742944  1
  O  O9  1  0.21332156  0.45293440  0.71716926  1
  O  O10  1  0.07577741  0.73775060  0.00259719  1
  F  F11  1  0.90424598  0.25334230  0.00728663  1
  F  F12  1  0.78921233  0.53634004  0.30967521  1
  F  F13  1  0.78221842  0.94670495  0.71056365  1
  F  F14  1  0.70668152  0.53550596  0.80872998  1
  F  F15  1  0.20383069  0.04587539  0.30969156  1
