# generated using pymatgen
data_Li2V3CoO8
_symmetry_space_group_name_H-M   'P 1'
_cell_length_a   5.95240761
_cell_length_b   5.95240764
_cell_length_c   5.95240766
_cell_angle_alpha   59.77344454
_cell_angle_beta   59.77344196
_cell_angle_gamma   59.77344031
_symmetry_Int_Tables_number   1
_chemical_formula_structural   Li2V3CoO8
_chemical_formula_sum   'Li2 V3 Co1 O8'
_cell_volume   148.36219972
_cell_formula_units_Z   1
loop_
 _symmetry_equiv_pos_site_id
 _symmetry_equiv_pos_as_xyz
  1  'x, y, z'
loop_
 _atom_site_type_symbol
 _atom_site_label
 _atom_site_symmetry_multiplicity
 _atom_site_fract_x
 _atom_site_fract_y
 _atom_site_fract_z
 _atom_site_occupancy
  Li  Li0  1  0.12083962  0.12083962  0.12083962  1
  Li  Li1  1  0.50153377  0.50153377  0.50153377  1
  V  V2  1  0.00734298  0.49787315  0.49787315  1
  V  V3  1  0.49787315  0.49787315  0.00734298  1
  V  V4  1  0.49787315  0.00734298  0.49787315  1
  Co  Co5  1  0.87841420  0.87841420  0.87841420  1
  O  O6  1  0.25876576  0.25876576  0.25876576  1
  O  O7  1  0.24895107  0.71143254  0.24895107  1
  O  O8  1  0.24895107  0.24895107  0.71143254  1
  O  O9  1  0.71143254  0.24895107  0.24895107  1
  O  O10  1  0.28564214  0.75043043  0.75043043  1
  O  O11  1  0.75043043  0.75043043  0.28564214  1
  O  O12  1  0.75043043  0.28564214  0.75043043  1
  O  O13  1  0.74151867  0.74151867  0.74151867  1
