# generated using pymatgen
data_V6O5F19
_symmetry_space_group_name_H-M   'P 1'
_cell_length_a   5.52583393
_cell_length_b   5.30504316
_cell_length_c   14.81711072
_cell_angle_alpha   90.00076364
_cell_angle_beta   100.18288706
_cell_angle_gamma   89.31873809
_symmetry_Int_Tables_number   1
_chemical_formula_structural   V6O5F19
_chemical_formula_sum   'V6 O5 F19'
_cell_volume   427.48742017
_cell_formula_units_Z   1
loop_
 _symmetry_equiv_pos_site_id
 _symmetry_equiv_pos_as_xyz
  1  'x, y, z'
loop_
 _atom_site_type_symbol
 _atom_site_label
 _atom_site_symmetry_multiplicity
 _atom_site_fract_x
 _atom_site_fract_y
 _atom_site_fract_z
 _atom_site_occupancy
  V  V0  1  0.03269517  0.95630954  0.00503636  1
  V  V1  1  0.11920674  0.47089122  0.32996026  1
  V  V2  1  0.27653275  0.01995206  0.66434215  1
  V  V3  1  0.46404341  0.45518915  0.99471811  1
  V  V4  1  0.65192085  0.99025535  0.33444302  1
  V  V5  1  0.77492130  0.47775656  0.66400079  1
  O  O6  1  0.03000729  0.20540205  0.64245462  1
  O  O7  1  0.21470441  0.27869675  0.97811631  1
  O  O8  1  0.53102377  0.29517695  0.64294053  1
  O  O9  1  0.28549698  0.77765587  0.02152020  1
  O  O10  1  0.87136779  0.29605851  0.30989720  1
  F  F11  1  0.14806608  0.72375684  0.69216865  1
  F  F12  1  0.03778745  0.10040785  0.11336610  1
  F  F13  1  0.22737776  0.42335982  0.44803222  1
  F  F14  1  0.39754396  0.08611157  0.78045740  1
  F  F15  1  0.14169490  0.59351702  0.22092541  1
  F  F16  1  0.31434174  0.91921813  0.55363989  1
  F  F17  1  0.46539468  0.59746925  0.88660676  1
  F  F18  1  0.35007738  0.20122471  0.30874413  1
  F  F19  1  0.69504283  0.22339291  0.97641657  1
  F  F20  1  0.48246640  0.70713208  0.35853115  1
  F  F21  1  0.64538393  0.77807866  0.69200148  1
  F  F22  1  0.55933860  0.44338227  0.11520063  1
  F  F23  1  0.71690131  0.09675379  0.44924066  1
  F  F24  1  0.90075792  0.41658132  0.78029949  1
  F  F25  1  0.63342829  0.92930111  0.21615921  1
  F  F26  1  0.81424841  0.58295283  0.55407256  1
  F  F27  1  0.94238797  0.94508477  0.88457157  1
  F  F28  1  0.80797146  0.72622774  0.02427526  1
  F  F29  1  0.96786746  0.78270434  0.35786331  1
