# generated using pymatgen
data_K2HoPCO7
_symmetry_space_group_name_H-M   'P 1'
_cell_length_a   9.91727453
_cell_length_b   7.13359294
_cell_length_c   5.80511430
_cell_angle_alpha   90.00000000
_cell_angle_beta   92.26010865
_cell_angle_gamma   90.00000000
_symmetry_Int_Tables_number   1
_chemical_formula_structural   K2HoPCO7
_chemical_formula_sum   'K4 Ho2 P2 C2 O14'
_cell_volume   410.36797680
_cell_formula_units_Z   2
loop_
 _symmetry_equiv_pos_site_id
 _symmetry_equiv_pos_as_xyz
  1  'x, y, z'
loop_
 _atom_site_type_symbol
 _atom_site_label
 _atom_site_symmetry_multiplicity
 _atom_site_fract_x
 _atom_site_fract_y
 _atom_site_fract_z
 _atom_site_occupancy
  K  K0  1  0.22494880  0.01186319  0.24546872  1
  K  K1  1  0.22494880  0.48813681  0.24546872  1
  K  K2  1  0.77505120  0.51186319  0.75453128  1
  K  K3  1  0.77505120  0.98813681  0.75453128  1
  Ho  Ho4  1  0.36542906  0.75000000  0.77737993  1
  Ho  Ho5  1  0.63457094  0.25000000  0.22262007  1
  P  P6  1  0.42936550  0.25000000  0.71139443  1
  P  P7  1  0.57063450  0.75000000  0.28860557  1
  C  C8  1  0.08920159  0.75000000  0.72958962  1
  C  C9  1  0.91079841  0.25000000  0.27041038  1
  O  O10  1  0.03648178  0.25000000  0.30114115  1
  O  O11  1  0.15166819  0.75000000  0.93502919  1
  O  O12  1  0.17251098  0.75000000  0.55470917  1
  O  O13  1  0.35027075  0.06956172  0.76908517  1
  O  O14  1  0.35027075  0.43043828  0.76908517  1
  O  O15  1  0.43243640  0.75000000  0.14743953  1
  O  O16  1  0.45842846  0.25000000  0.44774470  1
  O  O17  1  0.54157154  0.75000000  0.55225530  1
  O  O18  1  0.56756360  0.25000000  0.85256047  1
  O  O19  1  0.64972925  0.56956172  0.23091483  1
  O  O20  1  0.64972925  0.93043828  0.23091483  1
  O  O21  1  0.82748902  0.25000000  0.44529083  1
  O  O22  1  0.84833181  0.25000000  0.06497081  1
  O  O23  1  0.96351822  0.75000000  0.69885885  1
