# generated using pymatgen
data_Li3CuSbO5
_symmetry_space_group_name_H-M   'P 1'
_cell_length_a   5.20225849
_cell_length_b   5.46285930
_cell_length_c   7.83672918
_cell_angle_alpha   104.80175514
_cell_angle_beta   102.88895205
_cell_angle_gamma   103.74834351
_symmetry_Int_Tables_number   1
_chemical_formula_structural   Li3CuSbO5
_chemical_formula_sum   'Li6 Cu2 Sb2 O10'
_cell_volume   199.37629189
_cell_formula_units_Z   2
loop_
 _symmetry_equiv_pos_site_id
 _symmetry_equiv_pos_as_xyz
  1  'x, y, z'
loop_
 _atom_site_type_symbol
 _atom_site_label
 _atom_site_symmetry_multiplicity
 _atom_site_fract_x
 _atom_site_fract_y
 _atom_site_fract_z
 _atom_site_occupancy
  Li  Li0  1  0.22493570  0.89138923  0.37576303  1
  Li  Li1  1  0.41805478  0.29773070  0.81190722  1
  Li  Li2  1  0.49808206  0.48856762  0.49243095  1
  Li  Li3  1  0.29095320  0.10698359  0.10043836  1
  Li  Li4  1  0.58977005  0.70358940  0.19730445  1
  Li  Li5  1  0.77685454  0.10479744  0.61094878  1
  Cu  Cu6  1  0.00687104  0.50053579  0.00249148  1
  Cu  Cu7  1  0.70636247  0.89570970  0.90341530  1
  Sb  Sb8  1  0.10663756  0.69950990  0.70156224  1
  Sb  Sb9  1  0.88823770  0.29604165  0.29550754  1
  O  O10  1  0.04972717  0.03745503  0.82687162  1
  O  O11  1  0.34322627  0.68250766  0.93838899  1
  O  O12  1  0.14462448  0.33947992  0.54922840  1
  O  O13  1  0.22172349  0.50663638  0.24214135  1
  O  O14  1  0.45611319  0.88914320  0.66781929  1
  O  O15  1  0.56024893  0.11220962  0.34932793  1
  O  O16  1  0.79113173  0.48039315  0.75954190  1
  O  O17  1  0.86627721  0.66448619  0.45004666  1
  O  O18  1  0.66931532  0.34102847  0.06917340  1
  O  O19  1  0.93579209  0.95396437  0.16213311  1
