# generated using pymatgen
data_BaMn4O8
_symmetry_space_group_name_H-M   'P 1'
_cell_length_a   12.96342532
_cell_length_b   5.95276204
_cell_length_c   12.97337580
_cell_angle_alpha   96.82848215
_cell_angle_beta   90.79754724
_cell_angle_gamma   83.50132084
_symmetry_Int_Tables_number   1
_chemical_formula_structural   BaMn4O8
_chemical_formula_sum   'Ba6 Mn24 O48'
_cell_volume   987.64308930
_cell_formula_units_Z   6
loop_
 _symmetry_equiv_pos_site_id
 _symmetry_equiv_pos_as_xyz
  1  'x, y, z'
loop_
 _atom_site_type_symbol
 _atom_site_label
 _atom_site_symmetry_multiplicity
 _atom_site_fract_x
 _atom_site_fract_y
 _atom_site_fract_z
 _atom_site_occupancy
  Ba  Ba0  1  0.85521976  0.42031231  0.48371933  1
  Ba  Ba1  1  0.48373606  0.65378766  0.14508640  1
  Ba  Ba2  1  0.00000000  0.75000000  0.00000000  1
  Ba  Ba3  1  0.00000000  0.25000000  0.00000000  1
  Ba  Ba4  1  0.51626394  0.84621234  0.85491360  1
  Ba  Ba5  1  0.14478024  0.07968769  0.51628067  1
  Mn  Mn6  1  0.71927430  0.82506738  0.02249762  1
  Mn  Mn7  1  0.71615272  0.32532302  0.01907966  1
  Mn  Mn8  1  0.78148566  0.10824495  0.21227393  1
  Mn  Mn9  1  0.78440469  0.60663467  0.21162719  1
  Mn  Mn10  1  0.62237483  0.43395662  0.36465676  1
  Mn  Mn11  1  0.62708935  0.93698875  0.36946237  1
  Mn  Mn12  1  0.98094243  0.68565352  0.71631823  1
  Mn  Mn13  1  0.97747841  0.18349097  0.71917046  1
  Mn  Mn14  1  0.63031141  0.24933763  0.62677048  1
  Mn  Mn15  1  0.63510120  0.74821894  0.62241934  1
  Mn  Mn16  1  0.78803764  0.49966047  0.78503983  1
  Mn  Mn17  1  0.78807090  0.99795617  0.78075244  1
  Mn  Mn18  1  0.21192910  0.50204383  0.21924756  1
  Mn  Mn19  1  0.21196236  0.00033953  0.21496017  1
  Mn  Mn20  1  0.36489880  0.75178106  0.37758066  1
  Mn  Mn21  1  0.36968859  0.25066237  0.37322952  1
  Mn  Mn22  1  0.02252159  0.31650903  0.28082954  1
  Mn  Mn23  1  0.01905757  0.81434648  0.28368177  1
  Mn  Mn24  1  0.37762517  0.06604338  0.63534324  1
  Mn  Mn25  1  0.37291065  0.56301125  0.63053763  1
  Mn  Mn26  1  0.21851434  0.39175505  0.78772607  1
  Mn  Mn27  1  0.21559531  0.89336533  0.78837281  1
  Mn  Mn28  1  0.28072570  0.67493262  0.97750238  1
  Mn  Mn29  1  0.28384728  0.17467698  0.98092034  1
  O  O30  1  0.81897150  0.55815663  0.05862071  1
  O  O31  1  0.81846138  0.06130438  0.05970740  1
  O  O32  1  0.87978530  0.34617544  0.23712358  1
  O  O33  1  0.87993370  0.83243356  0.23281663  1
  O  O34  1  0.99480546  0.10040744  0.37225106  1
  O  O35  1  0.00096422  0.58998533  0.37292428  1
  O  O36  1  0.68764179  0.85799175  0.17470602  1
  O  O37  1  0.68669413  0.38463707  0.17399244  1
  O  O38  1  0.72797785  0.65290948  0.35053785  1
  O  O39  1  0.72803886  0.16058785  0.35087370  1
  O  O40  1  0.37313131  0.90334086  0.00480469  1
  O  O41  1  0.37203767  0.41198865  0.00026855  1
  O  O42  1  0.52786579  0.70762178  0.35160826  1
  O  O43  1  0.52950863  0.20293262  0.35579966  1
  O  O44  1  0.94027774  0.96818449  0.81752733  1
  O  O45  1  0.94156793  0.47118112  0.81985159  1
  O  O46  1  0.64334707  0.97401983  0.52960860  1
  O  O47  1  0.64903592  0.46817391  0.52762332  1
  O  O48  1  0.23686402  0.72313991  0.12028942  1
  O  O49  1  0.23272637  0.21913270  0.12034973  1
  O  O50  1  0.82619503  0.70159428  0.68712516  1
  O  O51  1  0.82565496  0.22875750  0.68778443  1
  O  O52  1  0.35063253  0.48273060  0.27253823  1
  O  O53  1  0.35071619  0.97546677  0.27171757  1
  O  O54  1  0.64928381  0.52453323  0.72828243  1
  O  O55  1  0.64936747  0.01726940  0.72746177  1
  O  O56  1  0.17380497  0.79840572  0.31287484  1
  O  O57  1  0.17434504  0.27124250  0.31221557  1
  O  O58  1  0.76313598  0.77686009  0.87971058  1
  O  O59  1  0.76727363  0.28086730  0.87965027  1
  O  O60  1  0.35665293  0.52598017  0.47039140  1
  O  O61  1  0.35096408  0.03182609  0.47237668  1
  O  O62  1  0.05972226  0.53181551  0.18247267  1
  O  O63  1  0.05843207  0.02881888  0.18014841  1
  O  O64  1  0.47213421  0.79237822  0.64839174  1
  O  O65  1  0.47049137  0.29706738  0.64420034  1
  O  O66  1  0.62686869  0.59665914  0.99519531  1
  O  O67  1  0.62796233  0.08801135  0.99973145  1
  O  O68  1  0.27202215  0.84709052  0.64946215  1
  O  O69  1  0.27196114  0.33941215  0.64912630  1
  O  O70  1  0.31235821  0.64200825  0.82529398  1
  O  O71  1  0.31330587  0.11536293  0.82600756  1
  O  O72  1  0.00519454  0.39959256  0.62774894  1
  O  O73  1  0.99903578  0.91001467  0.62707572  1
  O  O74  1  0.12006630  0.66756644  0.76718337  1
  O  O75  1  0.12021470  0.15382456  0.76287642  1
  O  O76  1  0.18102850  0.94184337  0.94137929  1
  O  O77  1  0.18153862  0.43869562  0.94029260  1
