# generated using pymatgen
data_LiMnF5
_symmetry_space_group_name_H-M   'P 1'
_cell_length_a   5.66396940
_cell_length_b   7.88090653
_cell_length_c   8.22196353
_cell_angle_alpha   90.00000000
_cell_angle_beta   90.00000000
_cell_angle_gamma   90.00000000
_symmetry_Int_Tables_number   1
_chemical_formula_structural   LiMnF5
_chemical_formula_sum   'Li4 Mn4 F20'
_cell_volume   367.00554090
_cell_formula_units_Z   4
loop_
 _symmetry_equiv_pos_site_id
 _symmetry_equiv_pos_as_xyz
  1  'x, y, z'
loop_
 _atom_site_type_symbol
 _atom_site_label
 _atom_site_symmetry_multiplicity
 _atom_site_fract_x
 _atom_site_fract_y
 _atom_site_fract_z
 _atom_site_occupancy
  Li  Li0  1  0.01236583  0.77456195  0.40395002  1
  Li  Li1  1  0.48763417  0.27456195  0.59604998  1
  Li  Li2  1  0.51236583  0.72543805  0.09604998  1
  Li  Li3  1  0.98763417  0.22543805  0.90395002  1
  Mn  Mn4  1  0.23067744  0.40107036  0.24633052  1
  Mn  Mn5  1  0.26932156  0.90107036  0.75366948  1
  Mn  Mn6  1  0.73067844  0.09892964  0.25366948  1
  Mn  Mn7  1  0.76932156  0.59892964  0.74633052  1
  F  F8  1  0.00068854  0.02027610  0.76605486  1
  F  F9  1  0.07852874  0.60240827  0.24620441  1
  F  F10  1  0.08463692  0.69808727  0.75509310  1
  F  F11  1  0.20674768  0.37429352  0.02635052  1
  F  F12  1  0.24511858  0.38794032  0.46732875  1
  F  F13  1  0.25488142  0.88794032  0.53267125  1
  F  F14  1  0.29325232  0.87429352  0.97364948  1
  F  F15  1  0.41536308  0.19808727  0.24490690  1
  F  F16  1  0.42147126  0.10240827  0.75379559  1
  F  F17  1  0.49931146  0.52027610  0.23394514  1
  F  F18  1  0.50068854  0.47972390  0.73394514  1
  F  F19  1  0.57852874  0.89759173  0.25379559  1
  F  F20  1  0.58463692  0.80191273  0.74490690  1
  F  F21  1  0.70674768  0.12570648  0.47364948  1
  F  F22  1  0.74511858  0.11205968  0.03267125  1
  F  F23  1  0.75488142  0.61205968  0.96732875  1
  F  F24  1  0.79325232  0.62570648  0.52635052  1
  F  F25  1  0.91536308  0.30191273  0.25509310  1
  F  F26  1  0.92147126  0.39759173  0.74620441  1
  F  F27  1  0.99931146  0.97972390  0.26605486  1
