# generated using pymatgen
data_Ga7(Fe3O8)3
_symmetry_space_group_name_H-M   'P 1'
_cell_length_a   8.86258967
_cell_length_b   9.54794693
_cell_length_c   5.17916640
_cell_angle_alpha   89.82767625
_cell_angle_beta   89.90248034
_cell_angle_gamma   89.99329621
_symmetry_Int_Tables_number   1
_chemical_formula_structural   Ga7(Fe3O8)3
_chemical_formula_sum   'Ga7 Fe9 O24'
_cell_volume   438.25603659
_cell_formula_units_Z   1
loop_
 _symmetry_equiv_pos_site_id
 _symmetry_equiv_pos_as_xyz
  1  'x, y, z'
loop_
 _atom_site_type_symbol
 _atom_site_label
 _atom_site_symmetry_multiplicity
 _atom_site_fract_x
 _atom_site_fract_y
 _atom_site_fract_z
 _atom_site_occupancy
  Ga  Ga0  1  0.15377849  0.42046162  0.82443498  1
  Ga  Ga1  1  0.14808178  0.83346018  0.81259379  1
  Ga  Ga2  1  0.33971581  0.11275180  0.68849545  1
  Ga  Ga3  1  0.34644845  0.41973151  0.32650836  1
  Ga  Ga4  1  0.65361456  0.92148120  0.67540596  1
  Ga  Ga5  1  0.84118495  0.61464327  0.81318042  1
  Ga  Ga6  1  0.84729122  0.92077366  0.17224077  1
  Fe  Fe7  1  0.03238401  0.62352811  0.32451563  1
  Fe  Fe8  1  0.16126622  0.11283845  0.18649770  1
  Fe  Fe9  1  0.34707822  0.83927522  0.31330328  1
  Fe  Fe10  1  0.46574768  0.62509113  0.82737230  1
  Fe  Fe11  1  0.52949850  0.12165020  0.17415828  1
  Fe  Fe12  1  0.65148439  0.33678455  0.68788193  1
  Fe  Fe13  1  0.66114552  0.61307769  0.31479410  1
  Fe  Fe14  1  0.84543759  0.34075172  0.18443889  1
  Fe  Fe15  1  0.96955365  0.12300898  0.67036598  1
  O  O16  1  0.99797167  0.21959567  0.33997770  1
  O  O17  1  0.01295987  0.98425012  0.97845307  1
  O  O18  1  0.16101811  0.22349459  0.84269460  1
  O  O19  1  0.16951153  0.48134201  0.48656311  1
  O  O20  1  0.17651721  0.99577414  0.53103611  1
  O  O21  1  0.17054051  0.75065332  0.15135570  1
  O  O22  1  0.32574028  0.75099902  0.65937330  1
  O  O23  1  0.32924723  0.99770428  0.02660377  1
  O  O24  1  0.33080953  0.48053597  0.98850917  1
  O  O25  1  0.34038787  0.22315061  0.34880912  1
  O  O26  1  0.48919270  0.98829587  0.48769077  1
  O  O27  1  0.49754661  0.21849952  0.84445726  1
  O  O28  1  0.49790935  0.71929482  0.15705101  1
  O  O29  1  0.50859093  0.48825389  0.51961912  1
  O  O30  1  0.65958522  0.72386514  0.65935267  1
  O  O31  1  0.67026404  0.98096234  0.01288560  1
  O  O32  1  0.68102859  0.49561331  0.97662024  1
  O  O33  1  0.66850618  0.24984264  0.34451293  1
  O  O34  1  0.83046096  0.24864424  0.84270385  1
  O  O35  1  0.82735718  0.49674894  0.48051715  1
  O  O36  1  0.83068262  0.98081044  0.50966833  1
  O  O37  1  0.84200480  0.72384426  0.15103886  1
  O  O38  1  0.99045896  0.48998707  0.01285158  1
  O  O39  1  0.99799497  0.72053048  0.65146714  1
