# generated using pymatgen
data_Li2Co(CO3)2
_symmetry_space_group_name_H-M   'P 1'
_cell_length_a   5.39687801
_cell_length_b   6.26290720
_cell_length_c   8.65105403
_cell_angle_alpha   97.73569103
_cell_angle_beta   108.16511008
_cell_angle_gamma   64.47608418
_symmetry_Int_Tables_number   1
_chemical_formula_structural   Li2Co(CO3)2
_chemical_formula_sum   'Li4 Co2 C4 O12'
_cell_volume   250.71886133
_cell_formula_units_Z   2
loop_
 _symmetry_equiv_pos_site_id
 _symmetry_equiv_pos_as_xyz
  1  'x, y, z'
loop_
 _atom_site_type_symbol
 _atom_site_label
 _atom_site_symmetry_multiplicity
 _atom_site_fract_x
 _atom_site_fract_y
 _atom_site_fract_z
 _atom_site_occupancy
  Li  Li0  1  0.77670180  0.45668483  0.83138705  1
  Li  Li1  1  0.19509360  0.95614634  0.66844684  1
  Li  Li2  1  0.48132771  0.04398328  0.33134347  1
  Li  Li3  1  0.40085171  0.54309918  0.16870255  1
  Co  Co4  1  0.12405399  0.49983228  0.49988876  1
  Co  Co5  1  0.87353913  0.99980199  0.00010219  1
  C  C6  1  0.15242493  0.60375513  0.79928687  1
  C  C7  1  0.60338250  0.10354269  0.70059007  1
  C  C8  1  0.00683992  0.89658100  0.29952305  1
  C  C9  1  0.95683669  0.39636049  0.20059450  1
  O  O10  1  0.13740167  0.65943255  0.94711415  1
  O  O11  1  0.85393545  0.10827475  0.75200856  1
  O  O12  1  0.96095320  0.54322586  0.69541014  1
  O  O13  1  0.51657462  0.04226901  0.80447322  1
  O  O14  1  0.35155841  0.60778569  0.74751937  1
  O  O15  1  0.43986441  0.15934246  0.55292553  1
  O  O16  1  0.80780027  0.45750464  0.30401080  1
  O  O17  1  0.04817575  0.84002818  0.44728743  1
  O  O18  1  0.75438849  0.95825063  0.19614465  1
  O  O19  1  0.20993732  0.89188763  0.24748483  1
  O  O20  1  0.21188903  0.39228872  0.25300429  1
  O  O21  1  0.85134539  0.33984367  0.05278168  1
