# generated using pymatgen
data_Li3Mn(OF)2
_symmetry_space_group_name_H-M   'P 1'
_cell_length_a   2.85194938
_cell_length_b   6.02564953
_cell_length_c   6.02564538
_cell_angle_alpha   57.43917072
_cell_angle_beta   118.24829403
_cell_angle_gamma   118.24844165
_symmetry_Int_Tables_number   1
_chemical_formula_structural   Li3Mn(OF)2
_chemical_formula_sum   'Li3 Mn1 O2 F2'
_cell_volume   73.47297882
_cell_formula_units_Z   1
loop_
 _symmetry_equiv_pos_site_id
 _symmetry_equiv_pos_as_xyz
  1  'x, y, z'
loop_
 _atom_site_type_symbol
 _atom_site_label
 _atom_site_symmetry_multiplicity
 _atom_site_fract_x
 _atom_site_fract_y
 _atom_site_fract_z
 _atom_site_occupancy
  Li  Li0  1  0.99902665  0.50027103  0.99993650  1
  Li  Li1  1  0.00021705  0.50031821  0.50032005  1
  Li  Li2  1  0.99902896  0.99993851  0.50027153  1
  Mn  Mn3  1  0.00076582  0.00079214  0.00077723  1
  O  O4  1  0.50122917  0.77355821  0.22847729  1
  O  O5  1  0.50122951  0.22846741  0.77356794  1
  F  F6  1  0.52240769  0.26194169  0.26193884  1
  F  F7  1  0.47802915  0.73969980  0.73969763  1
