# generated using pymatgen
data_Li2V3Si3O10
_symmetry_space_group_name_H-M   'P 1'
_cell_length_a   4.86851104
_cell_length_b   8.29112999
_cell_length_c   10.64030770
_cell_angle_alpha   92.65780813
_cell_angle_beta   90.00000000
_cell_angle_gamma   72.92654375
_symmetry_Int_Tables_number   1
_chemical_formula_structural   Li2V3Si3O10
_chemical_formula_sum   'Li4 V6 Si6 O20'
_cell_volume   410.08907430
_cell_formula_units_Z   2
loop_
 _symmetry_equiv_pos_site_id
 _symmetry_equiv_pos_as_xyz
  1  'x, y, z'
loop_
 _atom_site_type_symbol
 _atom_site_label
 _atom_site_symmetry_multiplicity
 _atom_site_fract_x
 _atom_site_fract_y
 _atom_site_fract_z
 _atom_site_occupancy
  Li  Li0  1  0.25513987  0.88566307  0.02506132  1
  Li  Li1  1  0.85919706  0.88566307  0.52506132  1
  Li  Li2  1  0.14080294  0.11433693  0.47493868  1
  Li  Li3  1  0.74486013  0.11433693  0.97493868  1
  V  V4  1  0.38898807  0.69791831  0.28587827  1
  V  V5  1  0.91309462  0.69791831  0.78587827  1
  V  V6  1  0.50000000  0.50000000  0.00000000  1
  V  V7  1  0.00000000  0.50000000  0.50000000  1
  V  V8  1  0.08690538  0.30208169  0.21412173  1
  V  V9  1  0.61101193  0.30208169  0.71412173  1
  Si  Si10  1  0.83920337  0.68892685  0.09900849  1
  Si  Si11  1  0.47186979  0.68892685  0.59900849  1
  Si  Si12  1  0.52813021  0.31107315  0.40099151  1
  Si  Si13  1  0.16079663  0.31107315  0.90099151  1
  Si  Si14  1  0.80153747  1.00000000  0.25000000  1
  Si  Si15  1  0.19846253  0.00000000  0.75000000  1
  O  O16  1  0.02335365  0.91752170  0.36021580  1
  O  O17  1  0.64246587  0.86038690  0.18533916  1
  O  O18  1  0.05912365  0.91752170  0.86021580  1
  O  O19  1  0.49714723  0.86038690  0.68533916  1
  O  O20  1  0.17059349  0.69171524  0.10451876  1
  O  O21  1  0.60801876  0.70291129  0.46082572  1
  O  O22  1  0.13769227  0.69171524  0.60451876  1
  O  O23  1  0.68906994  0.70291129  0.96082572  1
  O  O24  1  0.75887632  0.53081598  0.16433885  1
  O  O25  1  0.71030770  0.53081598  0.66433885  1
  O  O26  1  0.28969230  0.46918402  0.33566115  1
  O  O27  1  0.24112368  0.46918402  0.83566115  1
  O  O28  1  0.31093006  0.29708871  0.03917428  1
  O  O29  1  0.86230773  0.30828476  0.39548124  1
  O  O30  1  0.39198124  0.29708871  0.53917428  1
  O  O31  1  0.82940651  0.30828476  0.89548124  1
  O  O32  1  0.50285277  0.13961310  0.31466084  1
  O  O33  1  0.94087635  0.08247830  0.13978420  1
  O  O34  1  0.35753413  0.13961310  0.81466084  1
  O  O35  1  0.97664635  0.08247830  0.63978420  1
