# generated using pymatgen
data_Ta2MnO6
_symmetry_space_group_name_H-M   'P 1'
_cell_length_a   10.85911648
_cell_length_b   5.81902287
_cell_length_c   7.14587101
_cell_angle_alpha   90.00000000
_cell_angle_beta   75.62342756
_cell_angle_gamma   90.00000000
_symmetry_Int_Tables_number   1
_chemical_formula_structural   Ta2MnO6
_chemical_formula_sum   'Ta8 Mn4 O24'
_cell_volume   437.40344424
_cell_formula_units_Z   4
loop_
 _symmetry_equiv_pos_site_id
 _symmetry_equiv_pos_as_xyz
  1  'x, y, z'
loop_
 _atom_site_type_symbol
 _atom_site_label
 _atom_site_symmetry_multiplicity
 _atom_site_fract_x
 _atom_site_fract_y
 _atom_site_fract_z
 _atom_site_occupancy
  Ta  Ta0  1  0.08867892  0.66299510  0.33042360  1
  Ta  Ta1  1  0.24465408  0.33700490  0.00290940  1
  Ta  Ta2  1  0.41666700  0.85080565  0.16666700  1
  Ta  Ta3  1  0.41666700  0.67966643  0.66666700  1
  Ta  Ta4  1  0.58867892  0.33700490  0.33042360  1
  Ta  Ta5  1  0.74465408  0.66299510  0.00290940  1
  Ta  Ta6  1  0.91666700  0.14919435  0.16666700  1
  Ta  Ta7  1  0.91666700  0.32033357  0.66666700  1
  Mn  Mn8  1  0.08475996  0.82318566  0.82211022  1
  Mn  Mn9  1  0.24857304  0.17681434  0.51122378  1
  Mn  Mn10  1  0.58475996  0.17681434  0.82211022  1
  Mn  Mn11  1  0.74857304  0.82318566  0.51122378  1
  O  O12  1  0.10101378  0.13326837  0.02832527  1
  O  O13  1  0.11818181  0.60581020  0.04728967  1
  O  O14  1  0.04512321  0.60235313  0.60508876  1
  O  O15  1  0.21515119  0.39418980  0.28604433  1
  O  O16  1  0.05229732  0.12104732  0.65451873  1
  O  O17  1  0.23231922  0.86673163  0.30500873  1
  O  O18  1  0.28103668  0.87895268  0.67881527  1
  O  O19  1  0.45198642  0.11413790  0.33202599  1
  O  O20  1  0.60101378  0.86673163  0.02832527  1
  O  O21  1  0.28820979  0.39764687  0.72824524  1
  O  O22  1  0.44802418  0.62945601  0.36567951  1
  O  O23  1  0.61818181  0.39418980  0.04728967  1
  O  O24  1  0.38530982  0.62945601  0.96765449  1
  O  O25  1  0.54512321  0.39764687  0.60508876  1
  O  O26  1  0.71515119  0.60581020  0.28604433  1
  O  O27  1  0.38134758  0.11413790  0.00130701  1
  O  O28  1  0.55229732  0.87895268  0.65451873  1
  O  O29  1  0.73231922  0.13326837  0.30500873  1
  O  O30  1  0.78103668  0.12104732  0.67881527  1
  O  O31  1  0.95198642  0.88586310  0.33202599  1
  O  O32  1  0.78820979  0.60235313  0.72824524  1
  O  O33  1  0.94802418  0.37054399  0.36567951  1
  O  O34  1  0.88530982  0.37054399  0.96765449  1
  O  O35  1  0.88134758  0.88586310  0.00130701  1
