# generated using pymatgen
data_Li4MnCo2O7
_symmetry_space_group_name_H-M   'P 1'
_cell_length_a   3.03250641
_cell_length_b   13.57420724
_cell_length_c   6.38700263
_cell_angle_alpha   83.96488375
_cell_angle_beta   76.63096359
_cell_angle_gamma   88.98837578
_symmetry_Int_Tables_number   1
_chemical_formula_structural   Li4MnCo2O7
_chemical_formula_sum   'Li8 Mn2 Co4 O14'
_cell_volume   254.36535121
_cell_formula_units_Z   2
loop_
 _symmetry_equiv_pos_site_id
 _symmetry_equiv_pos_as_xyz
  1  'x, y, z'
loop_
 _atom_site_type_symbol
 _atom_site_label
 _atom_site_symmetry_multiplicity
 _atom_site_fract_x
 _atom_site_fract_y
 _atom_site_fract_z
 _atom_site_occupancy
  Li  Li0  1  0.85435640  0.21532553  0.07419704  1
  Li  Li1  1  0.99799407  0.50190504  0.50277834  1
  Li  Li2  1  0.14649790  0.78489470  0.92654884  1
  Li  Li3  1  0.42493010  0.35796230  0.78773616  1
  Li  Li4  1  0.57343493  0.64095196  0.21150766  1
  Li  Li5  1  0.71707260  0.92753147  0.64008896  1
  Li  Li6  1  0.28571400  0.07142900  0.35714300  1
  Li  Li7  1  0.28571400  0.57142900  0.85714300  1
  Mn  Mn8  1  0.99985072  0.99788994  0.00288744  1
  Mn  Mn9  1  0.57157828  0.14496706  0.71139856  1
  Co  Co10  1  0.14456265  0.28795569  0.42420909  1
  Co  Co11  1  0.42686535  0.85490131  0.29007591  1
  Co  Co12  1  0.71768705  0.43474919  0.13150182  1
  Co  Co13  1  0.85374195  0.70810781  0.58278418  1
  O  O14  1  0.41109558  0.10592762  0.02446528  1
  O  O15  1  0.56285027  0.39040159  0.43852989  1
  O  O16  1  0.72165987  0.68434380  0.86370088  1
  O  O17  1  0.99050882  0.25054376  0.73222702  1
  O  O18  1  0.12767097  0.52694580  0.17682238  1
  O  O19  1  0.27531891  0.81575456  0.59007418  1
  O  O20  1  0.83833701  0.95897165  0.31229420  1
  O  O21  1  0.29610909  0.32710344  0.12421182  1
  O  O22  1  0.44375703  0.61591120  0.53746262  1
  O  O23  1  0.58092018  0.89231324  0.98205898  1
  O  O24  1  0.84976913  0.45851320  0.85058512  1
  O  O25  1  0.00857873  0.75245541  0.27575611  1
  O  O26  1  0.16033242  0.03692938  0.68981972  1
  O  O27  1  0.73309199  0.18388535  0.40199180  1
