# generated using pymatgen
data_La6Sm2Co7AgO24
_symmetry_space_group_name_H-M   'P 1'
_cell_length_a   7.66514789
_cell_length_b   7.66514789
_cell_length_c   7.68907390
_cell_angle_alpha   90.00000000
_cell_angle_beta   90.00000000
_cell_angle_gamma   90.04141751
_symmetry_Int_Tables_number   1
_chemical_formula_structural   La6Sm2Co7AgO24
_chemical_formula_sum   'La6 Sm2 Co7 Ag1 O24'
_cell_volume   451.76751434
_cell_formula_units_Z   1
loop_
 _symmetry_equiv_pos_site_id
 _symmetry_equiv_pos_as_xyz
  1  'x, y, z'
loop_
 _atom_site_type_symbol
 _atom_site_label
 _atom_site_symmetry_multiplicity
 _atom_site_fract_x
 _atom_site_fract_y
 _atom_site_fract_z
 _atom_site_occupancy
  La  La0  1  0.24691182  0.24733668  0.25272063  1
  La  La1  1  0.24691182  0.24733668  0.74727937  1
  La  La2  1  0.24641340  0.75358660  0.25317499  1
  La  La3  1  0.24641340  0.75358660  0.74682501  1
  La  La4  1  0.75266332  0.75308818  0.25272063  1
  La  La5  1  0.75266332  0.75308818  0.74727937  1
  Sm  Sm6  1  0.75310715  0.24689285  0.25432313  1
  Sm  Sm7  1  0.75310715  0.24689285  0.74567687  1
  Co  Co8  1  0.99873970  0.00126030  0.00000000  1
  Co  Co9  1  0.99899650  0.00100350  0.50000000  1
  Co  Co10  1  0.99856295  0.50022175  0.00000000  1
  Co  Co11  1  0.99850476  0.49962598  0.50000000  1
  Co  Co12  1  0.49977825  0.00143705  0.00000000  1
  Co  Co13  1  0.50037402  0.00149524  0.50000000  1
  Co  Co14  1  0.49852497  0.50147503  0.50000000  1
  Ag  Ag15  1  0.49915442  0.50084558  0.00000000  1
  O  O16  1  0.24774025  0.00067522  0.00000000  1
  O  O17  1  0.24883343  0.00025276  0.50000000  1
  O  O18  1  0.23619563  0.49841795  0.00000000  1
  O  O19  1  0.24931326  0.49997709  0.50000000  1
  O  O20  1  0.75208500  0.00417031  0.00000000  1
  O  O21  1  0.75096090  0.00623614  0.50000000  1
  O  O22  1  0.76237286  0.49197909  0.00000000  1
  O  O23  1  0.75040193  0.49420242  0.50000000  1
  O  O24  1  0.99582969  0.24791500  0.00000000  1
  O  O25  1  0.99376386  0.24903910  0.50000000  1
  O  O26  1  0.99932478  0.75225975  0.00000000  1
  O  O27  1  0.99974724  0.75116657  0.50000000  1
  O  O28  1  0.50802091  0.23762714  0.00000000  1
  O  O29  1  0.50579758  0.24959807  0.50000000  1
  O  O30  1  0.50158205  0.76380437  0.00000000  1
  O  O31  1  0.50002291  0.75068674  0.50000000  1
  O  O32  1  0.99650123  0.00349877  0.25179420  1
  O  O33  1  0.99650123  0.00349877  0.74820580  1
  O  O34  1  0.99703539  0.49674401  0.25276945  1
  O  O35  1  0.99703539  0.49674401  0.74723055  1
  O  O36  1  0.50325599  0.00296461  0.25276945  1
  O  O37  1  0.50325599  0.00296461  0.74723055  1
  O  O38  1  0.50679778  0.49320222  0.26143845  1
  O  O39  1  0.50679778  0.49320222  0.73856155  1
