# generated using pymatgen
data_LiCu2(SO4)3
_symmetry_space_group_name_H-M   'P 1'
_cell_length_a   8.38101988
_cell_length_b   8.65714777
_cell_length_c   12.18779612
_cell_angle_alpha   90.00000000
_cell_angle_beta   91.47902089
_cell_angle_gamma   90.00000000
_symmetry_Int_Tables_number   1
_chemical_formula_structural   LiCu2(SO4)3
_chemical_formula_sum   'Li4 Cu8 S12 O48'
_cell_volume   883.99980586
_cell_formula_units_Z   4
loop_
 _symmetry_equiv_pos_site_id
 _symmetry_equiv_pos_as_xyz
  1  'x, y, z'
loop_
 _atom_site_type_symbol
 _atom_site_label
 _atom_site_symmetry_multiplicity
 _atom_site_fract_x
 _atom_site_fract_y
 _atom_site_fract_z
 _atom_site_occupancy
  Li  Li0  1  0.18794188  0.71757469  0.81899210  1
  Li  Li1  1  0.31205812  0.21757469  0.68100790  1
  Li  Li2  1  0.68794188  0.78242531  0.31899210  1
  Li  Li3  1  0.81205812  0.28242531  0.18100790  1
  Cu  Cu4  1  0.25126243  0.96549159  0.38522687  1
  Cu  Cu5  1  0.25135785  0.53944837  0.60511512  1
  Cu  Cu6  1  0.24873757  0.46549159  0.11477313  1
  Cu  Cu7  1  0.24864215  0.03944837  0.89488488  1
  Cu  Cu8  1  0.75135785  0.96055163  0.10511512  1
  Cu  Cu9  1  0.75126243  0.53450841  0.88522687  1
  Cu  Cu10  1  0.74864215  0.46055163  0.39488488  1
  Cu  Cu11  1  0.74873757  0.03450841  0.61477313  1
  S  S12  1  0.03292331  0.24832044  0.50569871  1
  S  S13  1  0.10157592  0.11609071  0.15358478  1
  S  S14  1  0.10780312  0.38768641  0.85843917  1
  S  S15  1  0.39219688  0.88768641  0.64156083  1
  S  S16  1  0.39842408  0.61609071  0.34641522  1
  S  S17  1  0.46707669  0.74832044  0.99430129  1
  S  S18  1  0.53292331  0.25167956  0.00569871  1
  S  S19  1  0.60157592  0.38390929  0.65358478  1
  S  S20  1  0.60780312  0.11231359  0.35843917  1
  S  S21  1  0.89219688  0.61231359  0.14156083  1
  S  S22  1  0.89842408  0.88390929  0.84641522  1
  S  S23  1  0.96707669  0.75167956  0.49430129  1
  O  O24  1  0.04646394  0.62937602  0.56105525  1
  O  O25  1  0.06369546  0.63058044  0.11876459  1
  O  O26  1  0.07116420  0.91944701  0.82197994  1
  O  O27  1  0.06597800  0.80864470  0.40330468  1
  O  O28  1  0.08018910  0.12661692  0.42847076  1
  O  O29  1  0.11284927  0.28563484  0.17576916  1
  O  O30  1  0.13368257  0.08155581  0.03921111  1
  O  O31  1  0.13452678  0.50745079  0.77421985  1
  O  O32  1  0.17919502  0.31671684  0.56115094  1
  O  O33  1  0.17078804  0.23748559  0.81526692  1
  O  O34  1  0.20298112  0.43510239  0.95698450  1
  O  O35  1  0.20788408  0.02184918  0.22557513  1
  O  O36  1  0.29211592  0.52184918  0.27442487  1
  O  O37  1  0.29701888  0.93510239  0.54301550  1
  O  O38  1  0.32921196  0.73748559  0.68473308  1
  O  O39  1  0.32080498  0.81671684  0.93884906  1
  O  O40  1  0.36631743  0.58155581  0.46078889  1
  O  O41  1  0.36547322  0.00745079  0.72578015  1
  O  O42  1  0.38715073  0.78563484  0.32423084  1
  O  O43  1  0.41981090  0.62661692  0.07152924  1
  O  O44  1  0.43402200  0.30864470  0.09669532  1
  O  O45  1  0.43630454  0.13058044  0.38123541  1
  O  O46  1  0.42883580  0.41944701  0.67802006  1
  O  O47  1  0.45353606  0.12937602  0.93894475  1
  O  O48  1  0.54646394  0.87062398  0.06105525  1
  O  O49  1  0.57116420  0.58055299  0.32197994  1
  O  O50  1  0.56369546  0.86941956  0.61876459  1
  O  O51  1  0.56597800  0.69135530  0.90330468  1
  O  O52  1  0.58018910  0.37338308  0.92847076  1
  O  O53  1  0.61284927  0.21436516  0.67576916  1
  O  O54  1  0.63452678  0.99254921  0.27421985  1
  O  O55  1  0.63368257  0.41844419  0.53921111  1
  O  O56  1  0.67919502  0.18328316  0.06115094  1
  O  O57  1  0.67078804  0.26251441  0.31526692  1
  O  O58  1  0.70298112  0.06489761  0.45698450  1
  O  O59  1  0.70788408  0.47815082  0.72557513  1
  O  O60  1  0.79211592  0.97815082  0.77442487  1
  O  O61  1  0.79701888  0.56489761  0.04301550  1
  O  O62  1  0.82921196  0.76251441  0.18473308  1
  O  O63  1  0.82080498  0.68328316  0.43884906  1
  O  O64  1  0.86547322  0.49254921  0.22578015  1
  O  O65  1  0.86631743  0.91844419  0.96078889  1
  O  O66  1  0.88715073  0.71436516  0.82423084  1
  O  O67  1  0.91981090  0.87338308  0.57152924  1
  O  O68  1  0.93402200  0.19135530  0.59669532  1
  O  O69  1  0.92883580  0.08055299  0.17802006  1
  O  O70  1  0.93630454  0.36941956  0.88123541  1
  O  O71  1  0.95353606  0.37062398  0.43894475  1
