# generated using pymatgen
data_Li2SiNiO4
_symmetry_space_group_name_H-M   'P 1'
_cell_length_a   6.34479190
_cell_length_b   10.73615718
_cell_length_c   4.99012878
_cell_angle_alpha   90.00000000
_cell_angle_beta   90.00000000
_cell_angle_gamma   90.00000000
_symmetry_Int_Tables_number   1
_chemical_formula_structural   Li2SiNiO4
_chemical_formula_sum   'Li8 Si4 Ni4 O16'
_cell_volume   339.92100106
_cell_formula_units_Z   4
loop_
 _symmetry_equiv_pos_site_id
 _symmetry_equiv_pos_as_xyz
  1  'x, y, z'
loop_
 _atom_site_type_symbol
 _atom_site_label
 _atom_site_symmetry_multiplicity
 _atom_site_fract_x
 _atom_site_fract_y
 _atom_site_fract_z
 _atom_site_occupancy
  Li  Li0  1  0.99419789  0.33323447  0.20249582  1
  Li  Li1  1  0.99419789  0.83323447  0.29750418  1
  Li  Li2  1  0.50580211  0.33323447  0.20249582  1
  Li  Li3  1  0.50580211  0.83323447  0.29750418  1
  Li  Li4  1  0.49419789  0.16676553  0.70249582  1
  Li  Li5  1  0.49419789  0.66676553  0.79750418  1
  Li  Li6  1  0.00580211  0.66676553  0.79750418  1
  Li  Li7  1  0.00580211  0.16676553  0.70249582  1
  Si  Si8  1  0.25000000  0.08220766  0.18890678  1
  Si  Si9  1  0.25000000  0.58220766  0.31109322  1
  Si  Si10  1  0.75000000  0.41779234  0.68890678  1
  Si  Si11  1  0.75000000  0.91779234  0.81109322  1
  Ni  Ni12  1  0.25000000  0.41452415  0.80206289  1
  Ni  Ni13  1  0.25000000  0.91452415  0.69793711  1
  Ni  Ni14  1  0.75000000  0.08547585  0.30206289  1
  Ni  Ni15  1  0.75000000  0.58547585  0.19793711  1
  O  O16  1  0.03759547  0.15675302  0.29561801  1
  O  O17  1  0.03759547  0.65675302  0.20438199  1
  O  O18  1  0.25000000  0.08305040  0.85661803  1
  O  O19  1  0.25000000  0.43617538  0.20600944  1
  O  O20  1  0.25000000  0.93617538  0.29399056  1
  O  O21  1  0.25000000  0.58305040  0.64338197  1
  O  O22  1  0.46240453  0.15675302  0.29561801  1
  O  O23  1  0.46240453  0.65675302  0.20438199  1
  O  O24  1  0.53759547  0.84324698  0.70438199  1
  O  O25  1  0.53759547  0.34324698  0.79561801  1
  O  O26  1  0.75000000  0.06382462  0.70600944  1
  O  O27  1  0.75000000  0.41694960  0.35661803  1
  O  O28  1  0.75000000  0.56382462  0.79399056  1
  O  O29  1  0.75000000  0.91694960  0.14338197  1
  O  O30  1  0.96240453  0.34324698  0.79561801  1
  O  O31  1  0.96240453  0.84324698  0.70438199  1
