# generated using pymatgen
data_LiCo2(PO4)2
_symmetry_space_group_name_H-M   'P 1'
_cell_length_a   10.20913279
_cell_length_b   13.73578227
_cell_length_c   5.09285671
_cell_angle_alpha   90.00000000
_cell_angle_beta   90.00000000
_cell_angle_gamma   90.00000000
_symmetry_Int_Tables_number   1
_chemical_formula_structural   LiCo2(PO4)2
_chemical_formula_sum   'Li4 Co8 P8 O32'
_cell_volume   714.17346177
_cell_formula_units_Z   4
loop_
 _symmetry_equiv_pos_site_id
 _symmetry_equiv_pos_as_xyz
  1  'x, y, z'
loop_
 _atom_site_type_symbol
 _atom_site_label
 _atom_site_symmetry_multiplicity
 _atom_site_fract_x
 _atom_site_fract_y
 _atom_site_fract_z
 _atom_site_occupancy
  Li  Li0  1  0.22080051  0.74974595  0.54950918  1
  Li  Li1  1  0.27919949  0.24974595  0.54950918  1
  Li  Li2  1  0.72080051  0.74974595  0.45049082  1
  Li  Li3  1  0.77919949  0.24974595  0.45049082  1
  Co  Co4  1  0.03506439  0.75279329  0.05903640  1
  Co  Co5  1  0.22159448  0.00072583  0.55394157  1
  Co  Co6  1  0.27840552  0.50072583  0.55394157  1
  Co  Co7  1  0.46493561  0.25279329  0.05903640  1
  Co  Co8  1  0.53506439  0.75279329  0.94096360  1
  Co  Co9  1  0.72159448  0.00072583  0.44605843  1
  Co  Co10  1  0.77840552  0.50072583  0.44605843  1
  Co  Co11  1  0.96493561  0.25279329  0.94096360  1
  P  P12  1  0.02900187  0.37646377  0.43848676  1
  P  P13  1  0.21690503  0.12808102  0.05075191  1
  P  P14  1  0.28309497  0.62808102  0.05075191  1
  P  P15  1  0.47099813  0.87646377  0.43848676  1
  P  P16  1  0.52900187  0.37646377  0.56151324  1
  P  P17  1  0.71690503  0.12808102  0.94924809  1
  P  P18  1  0.78309497  0.62808102  0.94924809  1
  P  P19  1  0.97099813  0.87646377  0.56151324  1
  O  O20  1  0.00165143  0.36110059  0.13829141  1
  O  O21  1  0.03711260  0.97061753  0.47505738  1
  O  O22  1  0.03554049  0.78475341  0.42256709  1
  O  O23  1  0.06857821  0.14547268  0.99110003  1
  O  O24  1  0.17773579  0.37606678  0.49196939  1
  O  O25  1  0.20821166  0.72000346  0.93883410  1
  O  O26  1  0.24035613  0.53362577  0.91864399  1
  O  O27  1  0.24329092  0.12547089  0.35087456  1
  O  O28  1  0.25670908  0.62547089  0.35087456  1
  O  O29  1  0.25964387  0.03362577  0.91864399  1
  O  O30  1  0.29178834  0.22000346  0.93883410  1
  O  O31  1  0.32226421  0.87606678  0.49196939  1
  O  O32  1  0.43142179  0.64547268  0.99110003  1
  O  O33  1  0.46445951  0.28475341  0.42256709  1
  O  O34  1  0.46288740  0.47061753  0.47505738  1
  O  O35  1  0.49834857  0.86110059  0.13829141  1
  O  O36  1  0.50165143  0.36110059  0.86170859  1
  O  O37  1  0.53711260  0.97061753  0.52494262  1
  O  O38  1  0.53554049  0.78475341  0.57743291  1
  O  O39  1  0.56857821  0.14547268  0.00889997  1
  O  O40  1  0.67773579  0.37606678  0.50803061  1
  O  O41  1  0.70821166  0.72000346  0.06116590  1
  O  O42  1  0.74035613  0.53362577  0.08135601  1
  O  O43  1  0.74329092  0.12547089  0.64912544  1
  O  O44  1  0.75670908  0.62547089  0.64912544  1
  O  O45  1  0.75964387  0.03362577  0.08135601  1
  O  O46  1  0.79178834  0.22000346  0.06116590  1
  O  O47  1  0.82226421  0.87606678  0.50803061  1
  O  O48  1  0.93142179  0.64547268  0.00889997  1
  O  O49  1  0.96445951  0.28475341  0.57743291  1
  O  O50  1  0.96288740  0.47061753  0.52494262  1
  O  O51  1  0.99834857  0.86110059  0.86170859  1
