# generated using pymatgen
data_Ni17(AsO4)12
_symmetry_space_group_name_H-M   'P 1'
_cell_length_a   9.74442662
_cell_length_b   10.47168497
_cell_length_c   9.74996469
_cell_angle_alpha   89.78309487
_cell_angle_beta   90.46619096
_cell_angle_gamma   117.72802151
_symmetry_Int_Tables_number   1
_chemical_formula_structural   Ni17(AsO4)12
_chemical_formula_sum   'Ni17 As12 O48'
_cell_volume   880.61552405
_cell_formula_units_Z   1
loop_
 _symmetry_equiv_pos_site_id
 _symmetry_equiv_pos_as_xyz
  1  'x, y, z'
loop_
 _atom_site_type_symbol
 _atom_site_label
 _atom_site_symmetry_multiplicity
 _atom_site_fract_x
 _atom_site_fract_y
 _atom_site_fract_z
 _atom_site_occupancy
  Ni  Ni0  1  0.77196800  0.54586941  0.00093856  1
  Ni  Ni1  1  0.62335465  0.75151368  0.00287488  1
  Ni  Ni2  1  0.62774656  0.25019556  0.24737099  1
  Ni  Ni3  1  0.77339065  0.04678030  0.75000000  1
  Ni  Ni4  1  0.27282859  0.04565819  0.25000000  1
  Ni  Ni5  1  0.72777114  0.95554329  0.25000000  1
  Ni  Ni6  1  0.22284435  0.45175748  0.00132863  1
  Ni  Ni7  1  0.72891214  0.45175748  0.49867137  1
  Ni  Ni8  1  0.62397892  0.24912442  0.75175012  1
  Ni  Ni9  1  0.12244800  0.25019556  0.25262901  1
  Ni  Ni10  1  0.62815903  0.75151368  0.49712512  1
  Ni  Ni11  1  0.51183989  0.52367878  0.75000000  1
  Ni  Ni12  1  0.27390140  0.54586941  0.49906144  1
  Ni  Ni13  1  0.12400446  0.74966999  0.49610747  1
  Ni  Ni14  1  0.12514550  0.24912442  0.74824988  1
  Ni  Ni15  1  0.22691706  0.95383412  0.75000000  1
  Ni  Ni16  1  0.12566553  0.74966999  0.00389253  1
  As  As17  1  0.82564462  0.24924076  0.04720157  1
  As  As18  1  0.92359615  0.24924076  0.45279843  1
  As  As19  1  0.92190496  0.75067920  0.29768159  1
  As  As20  1  0.49859369  0.49718837  0.25000000  1
  As  As21  1  0.00001295  0.00076340  0.00111222  1
  As  As22  1  0.50075045  0.00076340  0.49888778  1
  As  As23  1  0.83037933  0.75368300  0.70119456  1
  As  As24  1  0.32877424  0.75067920  0.20231841  1
  As  As25  1  0.32924732  0.24756346  0.54936094  1
  As  As26  1  0.41831614  0.24756346  0.95063906  1
  As  As27  1  0.42330367  0.75368300  0.79880544  1
  As  As28  1  0.00145187  0.50290374  0.75000000  1
  O  O29  1  0.91830313  0.11567578  0.34354676  1
  O  O30  1  0.78071443  0.38248211  0.10511255  1
  O  O31  1  0.69737365  0.11567578  0.15645324  1
  O  O32  1  0.93735151  0.70538116  0.13138038  1
  O  O33  1  0.82181284  0.91240600  0.07776370  1
  O  O34  1  0.93976496  0.20739283  0.62038463  1
  O  O35  1  0.44115427  0.21115675  0.11759529  1
  O  O36  1  0.77879577  0.29347389  0.41407495  1
  O  O37  1  0.61783171  0.58556255  0.11437756  1
  O  O38  1  0.91490657  0.61767528  0.40963483  1
  O  O39  1  0.96709869  0.08690534  0.86415201  1
  O  O40  1  0.59241164  0.41002451  0.32633110  1
  O  O41  1  0.46696600  0.09137786  0.36546778  1
  O  O42  1  0.77629408  0.79363675  0.33504413  1
  O  O43  1  0.51734267  0.79363675  0.16495587  1
  O  O44  1  0.61980565  0.08690534  0.63584799  1
  O  O45  1  0.82109801  0.41390318  0.67456940  1
  O  O46  1  0.12441186  0.09137786  0.13453222  1
  O  O47  1  0.31761288  0.41002451  0.17366890  1
  O  O48  1  0.20276771  0.61767528  0.09036517  1
  O  O49  1  0.68915852  0.60580767  0.60450205  1
  O  O50  1  0.46773185  0.58556255  0.38562244  1
  O  O51  1  0.96718260  0.58976434  0.88641586  1
  O  O52  1  0.76762787  0.20739283  0.87961537  1
  O  O53  1  0.01467712  0.29347389  0.08592505  1
  O  O54  1  0.51962811  0.29550900  0.58818164  1
  O  O55  1  0.27000249  0.21115675  0.38240471  1
  O  O56  1  0.59059217  0.91240600  0.42223630  1
  O  O57  1  0.78865841  0.88555349  0.63937046  1
  O  O58  1  0.28646544  0.88503975  0.14050705  1
  O  O59  1  0.74569688  0.69148533  0.86134816  1
  O  O60  1  0.26802965  0.70538116  0.36861962  1
  O  O61  1  0.58355422  0.39586539  0.87821830  1
  O  O62  1  0.41658252  0.11424477  0.84601257  1
  O  O63  1  0.10176768  0.38248211  0.39488745  1
  O  O64  1  0.31231017  0.39586539  0.62178170  1
  O  O65  1  0.19766326  0.11424477  0.65398743  1
  O  O66  1  0.44578845  0.69148533  0.63865184  1
  O  O67  1  0.09857331  0.88503975  0.35949295  1
  O  O68  1  0.59689608  0.88555349  0.86062954  1
  O  O69  1  0.32220472  0.90713617  0.57726501  1
  O  O70  1  0.27588090  0.29550900  0.91181836  1
  O  O71  1  0.12258174  0.58976434  0.61358414  1
  O  O72  1  0.41664915  0.60580767  0.89549795  1
  O  O73  1  0.09280517  0.41390318  0.82543060  1
  O  O74  1  0.27442165  0.78968882  0.83500852  1
  O  O75  1  0.01526817  0.78968882  0.66499148  1
  O  O76  1  0.08493145  0.90713617  0.92273499  1
