# generated using pymatgen
data_TmSeO3
_symmetry_space_group_name_H-M   'P 1'
_cell_length_a   5.91727163
_cell_length_b   12.41658617
_cell_length_c   8.73391669
_cell_angle_alpha   90.00000000
_cell_angle_beta   106.01474696
_cell_angle_gamma   90.00000000
_symmetry_Int_Tables_number   1
_chemical_formula_structural   TmSeO3
_chemical_formula_sum   'Tm8 Se8 O24'
_cell_volume   616.79710540
_cell_formula_units_Z   8
loop_
 _symmetry_equiv_pos_site_id
 _symmetry_equiv_pos_as_xyz
  1  'x, y, z'
loop_
 _atom_site_type_symbol
 _atom_site_label
 _atom_site_symmetry_multiplicity
 _atom_site_fract_x
 _atom_site_fract_y
 _atom_site_fract_z
 _atom_site_occupancy
  Tm  Tm0  1  0.24107596  0.44050029  0.91449302  1
  Tm  Tm1  1  0.24107596  0.05949971  0.41449302  1
  Tm  Tm2  1  0.36369920  0.75627647  0.85635005  1
  Tm  Tm3  1  0.36369920  0.74372353  0.35635005  1
  Tm  Tm4  1  0.63630080  0.25627647  0.64364995  1
  Tm  Tm5  1  0.63630080  0.24372353  0.14364995  1
  Tm  Tm6  1  0.75892404  0.94050029  0.58550698  1
  Tm  Tm7  1  0.75892404  0.55949971  0.08550698  1
  Se  Se8  1  0.04601562  0.16025036  0.00429990  1
  Se  Se9  1  0.04601562  0.33974964  0.50429990  1
  Se  Se10  1  0.37095155  0.01458769  0.82527817  1
  Se  Se11  1  0.37095155  0.48541231  0.32527817  1
  Se  Se12  1  0.62904845  0.51458769  0.67472183  1
  Se  Se13  1  0.62904845  0.98541231  0.17472183  1
  Se  Se14  1  0.95398438  0.66025036  0.49570010  1
  Se  Se15  1  0.95398438  0.83974964  0.99570010  1
  O  O16  1  0.98747376  0.82720054  0.80584713  1
  O  O17  1  0.98747376  0.67279946  0.30584713  1
  O  O18  1  0.13030980  0.01788661  0.64576548  1
  O  O19  1  0.21810891  0.72796443  0.58736177  1
  O  O20  1  0.25222016  0.24134670  0.50143563  1
  O  O21  1  0.13030980  0.48211339  0.14576548  1
  O  O22  1  0.40588640  0.59398937  0.91907838  1
  O  O23  1  0.21810891  0.77203557  0.08736177  1
  O  O24  1  0.25222016  0.25865330  0.00143563  1
  O  O25  1  0.44936009  0.40554874  0.71730964  1
  O  O26  1  0.40588640  0.90601063  0.41907838  1
  O  O27  1  0.55063991  0.90554874  0.78269036  1
  O  O28  1  0.44936009  0.09445126  0.21730964  1
  O  O29  1  0.59411360  0.09398937  0.58092162  1
  O  O30  1  0.55063991  0.59445126  0.28269036  1
  O  O31  1  0.74777984  0.74134670  0.99856437  1
  O  O32  1  0.78189109  0.22796443  0.91263823  1
  O  O33  1  0.59411360  0.40601063  0.08092162  1
  O  O34  1  0.86969020  0.51788661  0.85423452  1
  O  O35  1  0.74777984  0.75865330  0.49856437  1
  O  O36  1  0.78189109  0.27203557  0.41263823  1
  O  O37  1  0.86969020  0.98211339  0.35423452  1
  O  O38  1  0.01252624  0.32720054  0.69415287  1
  O  O39  1  0.01252624  0.17279946  0.19415287  1
