# generated using pymatgen
data_La2HfO5
_symmetry_space_group_name_H-M   'P 1'
_cell_length_a   11.33048900
_cell_length_b   11.85587019
_cell_length_c   3.97080628
_cell_angle_alpha   90.00000000
_cell_angle_beta   90.00000000
_cell_angle_gamma   90.00000000
_symmetry_Int_Tables_number   1
_chemical_formula_structural   La2HfO5
_chemical_formula_sum   'La8 Hf4 O20'
_cell_volume   533.40955275
_cell_formula_units_Z   4
loop_
 _symmetry_equiv_pos_site_id
 _symmetry_equiv_pos_as_xyz
  1  'x, y, z'
loop_
 _atom_site_type_symbol
 _atom_site_label
 _atom_site_symmetry_multiplicity
 _atom_site_fract_x
 _atom_site_fract_y
 _atom_site_fract_z
 _atom_site_occupancy
  La  La0  1  0.10184739  0.71767236  0.25000000  1
  La  La1  1  0.13166572  0.06346473  0.25000000  1
  La  La2  1  0.36833428  0.56346473  0.75000000  1
  La  La3  1  0.39815261  0.21767236  0.75000000  1
  La  La4  1  0.60184739  0.78232764  0.25000000  1
  La  La5  1  0.63166572  0.43653527  0.25000000  1
  La  La6  1  0.86833428  0.93653527  0.75000000  1
  La  La7  1  0.89815261  0.28232764  0.75000000  1
  Hf  Hf8  1  0.19055661  0.37596706  0.25000000  1
  Hf  Hf9  1  0.30944339  0.87596706  0.75000000  1
  Hf  Hf10  1  0.69055661  0.12403294  0.25000000  1
  Hf  Hf11  1  0.80944339  0.62403294  0.75000000  1
  O  O12  1  0.00595557  0.10135527  0.75000000  1
  O  O13  1  0.02620592  0.32917298  0.25000000  1
  O  O14  1  0.22295935  0.72679654  0.75000000  1
  O  O15  1  0.23113270  0.54307513  0.25000000  1
  O  O16  1  0.24571829  0.37990314  0.75000000  1
  O  O17  1  0.25428171  0.87990314  0.25000000  1
  O  O18  1  0.26886730  0.04307513  0.75000000  1
  O  O19  1  0.27704065  0.22679654  0.25000000  1
  O  O20  1  0.47379408  0.82917298  0.75000000  1
  O  O21  1  0.49404443  0.60135527  0.25000000  1
  O  O22  1  0.50595557  0.39864473  0.75000000  1
  O  O23  1  0.52620592  0.17082702  0.25000000  1
  O  O24  1  0.72295935  0.77320346  0.75000000  1
  O  O25  1  0.73113270  0.95692487  0.25000000  1
  O  O26  1  0.74571829  0.12009686  0.75000000  1
  O  O27  1  0.75428171  0.62009686  0.25000000  1
  O  O28  1  0.76886730  0.45692487  0.75000000  1
  O  O29  1  0.77704065  0.27320346  0.25000000  1
  O  O30  1  0.97379408  0.67082702  0.75000000  1
  O  O31  1  0.99404443  0.89864473  0.25000000  1
