# generated using pymatgen
data_Li4MnCo2O7
_symmetry_space_group_name_H-M   'P 1'
_cell_length_a   5.19497151
_cell_length_b   10.20778410
_cell_length_c   5.22535582
_cell_angle_alpha   104.82986180
_cell_angle_beta   67.36952058
_cell_angle_gamma   95.65199016
_symmetry_Int_Tables_number   1
_chemical_formula_structural   Li4MnCo2O7
_chemical_formula_sum   'Li8 Mn2 Co4 O14'
_cell_volume   247.24194862
_cell_formula_units_Z   2
loop_
 _symmetry_equiv_pos_site_id
 _symmetry_equiv_pos_as_xyz
  1  'x, y, z'
loop_
 _atom_site_type_symbol
 _atom_site_label
 _atom_site_symmetry_multiplicity
 _atom_site_fract_x
 _atom_site_fract_y
 _atom_site_fract_z
 _atom_site_occupancy
  Li  Li0  1  0.50000000  0.14612054  0.07306077  1
  Li  Li1  1  0.50000000  0.28796815  0.64398407  1
  Li  Li2  1  0.50000000  0.42857100  0.21428600  1
  Li  Li3  1  0.50000000  0.56917485  0.78458693  1
  Li  Li4  1  0.50000000  0.71102246  0.35551123  1
  Li  Li5  1  0.50000000  0.85695249  0.92847575  1
  Li  Li6  1  0.50000000  0.00019051  0.50009525  1
  Li  Li7  1  -0.00000000  0.42857100  0.71428600  1
  Mn  Mn8  1  0.00000000  0.00199690  0.00099845  1
  Mn  Mn9  1  1.00000000  0.85514610  0.42757255  1
  Co  Co10  1  0.00000000  0.14832559  0.57416330  1
  Co  Co11  1  0.00000000  0.28676219  0.14338109  1
  Co  Co12  1  1.00000000  0.57038081  0.28518991  1
  Co  Co13  1  1.00000000  0.70881741  0.85440870  1
  O  O14  1  0.23440130  0.15053513  0.85190948  1
  O  O15  1  0.20749700  0.27818485  0.38397166  1
  O  O16  1  0.23296799  0.42857100  -0.00007470  1
  O  O17  1  0.20749700  0.57895815  0.53435780  1
  O  O18  1  0.23440130  0.70660787  0.12994535  1
  O  O19  1  0.23200459  0.85703553  0.70666978  1
  O  O20  1  0.23200459  0.00010747  0.27820625  1
  O  O21  1  0.76559870  0.15053513  0.29862665  1
  O  O22  1  0.79250300  0.27818485  0.89421320  1
  O  O23  1  0.76703201  0.42857100  0.42864670  1
  O  O24  1  0.79250300  0.57895815  0.04459934  1
  O  O25  1  0.76559870  0.70660787  0.57666252  1
  O  O26  1  0.76799541  0.85703553  0.15036475  1
  O  O27  1  0.76799541  0.00010747  0.72190122  1
