# generated using pymatgen
data_Li2Cu2(SO4)3
_symmetry_space_group_name_H-M   'P 1'
_cell_length_a   7.91179354
_cell_length_b   7.91179354
_cell_length_c   9.24374068
_cell_angle_alpha   64.97664632
_cell_angle_beta   115.02335368
_cell_angle_gamma   116.04656902
_symmetry_Int_Tables_number   1
_chemical_formula_structural   Li2Cu2(SO4)3
_chemical_formula_sum   'Li4 Cu4 S6 O24'
_cell_volume   450.61509456
_cell_formula_units_Z   2
loop_
 _symmetry_equiv_pos_site_id
 _symmetry_equiv_pos_as_xyz
  1  'x, y, z'
loop_
 _atom_site_type_symbol
 _atom_site_label
 _atom_site_symmetry_multiplicity
 _atom_site_fract_x
 _atom_site_fract_y
 _atom_site_fract_z
 _atom_site_occupancy
  Li  Li0  1  0.32544617  0.85960081  0.54957686  1
  Li  Li1  1  0.14039919  0.67455383  0.04957686  1
  Li  Li2  1  0.85960081  0.32544617  0.95042314  1
  Li  Li3  1  0.67455383  0.14039919  0.45042314  1
  Cu  Cu4  1  0.63672821  0.86918528  0.97666732  1
  Cu  Cu5  1  0.13081472  0.36327179  0.47666732  1
  Cu  Cu6  1  0.86918528  0.63672821  0.52333268  1
  Cu  Cu7  1  0.36327179  0.13081472  0.02333268  1
  S  S8  1  0.24792415  0.54288378  0.82658560  1
  S  S9  1  0.45711622  0.75207585  0.32658560  1
  S  S10  1  0.95169547  0.95169547  0.75000000  1
  S  S11  1  0.04830453  0.04830453  0.25000000  1
  S  S12  1  0.54288378  0.24792415  0.67341440  1
  S  S13  1  0.75207585  0.45711622  0.17341440  1
  O  O14  1  0.14629846  0.96125469  0.88614651  1
  O  O15  1  0.03874531  0.85370154  0.38614651  1
  O  O16  1  0.13134170  0.49525382  0.93544762  1
  O  O17  1  0.39489613  0.74622942  0.81560600  1
  O  O18  1  0.12533384  0.55961023  0.64650234  1
  O  O19  1  0.50474618  0.86865830  0.43544762  1
  O  O20  1  0.79564769  0.91519338  0.81466489  1
  O  O21  1  0.34644004  0.39751654  0.87892949  1
  O  O22  1  0.25377058  0.60510387  0.31560600  1
  O  O23  1  0.44038977  0.87466616  0.14650234  1
  O  O24  1  0.08480662  0.20435231  0.31466489  1
  O  O25  1  0.39751654  0.34644004  0.62107051  1
  O  O26  1  0.60248346  0.65355996  0.37892849  1
  O  O27  1  0.91519338  0.79564769  0.68533511  1
  O  O28  1  0.55961023  0.12533384  0.85349766  1
  O  O29  1  0.74622942  0.39489613  0.68439400  1
  O  O30  1  0.65355996  0.60248346  0.12107151  1
  O  O31  1  0.20435231  0.08480662  0.18533511  1
  O  O32  1  0.49525382  0.13134170  0.56455238  1
  O  O33  1  0.87466616  0.44038977  0.35349766  1
  O  O34  1  0.60510387  0.25377058  0.18439400  1
  O  O35  1  0.86865830  0.50474618  0.06455238  1
  O  O36  1  0.96125469  0.14629846  0.61385349  1
  O  O37  1  0.85370154  0.03874531  0.11385349  1
