# generated using pymatgen
data_SrLi4La15(CoO8)4
_symmetry_space_group_name_H-M   'P 1'
_cell_length_a   8.79953240
_cell_length_b   10.69213131
_cell_length_c   8.79953240
_cell_angle_alpha   72.31465977
_cell_angle_beta   94.34710260
_cell_angle_gamma   72.31465977
_symmetry_Int_Tables_number   1
_chemical_formula_structural   SrLi4La15(CoO8)4
_chemical_formula_sum   'Sr1 Li4 La15 Co4 O32'
_cell_volume   738.50750887
_cell_formula_units_Z   1
loop_
 _symmetry_equiv_pos_site_id
 _symmetry_equiv_pos_as_xyz
  1  'x, y, z'
loop_
 _atom_site_type_symbol
 _atom_site_label
 _atom_site_symmetry_multiplicity
 _atom_site_fract_x
 _atom_site_fract_y
 _atom_site_fract_z
 _atom_site_occupancy
  Sr  Sr0  1  0.38987629  0.12500000  0.11012371  1
  Li  Li1  1  0.50062183  0.50063428  0.49876226  1
  Li  Li2  1  0.50058660  0.00015863  0.49688158  1
  Li  Li3  1  0.00123774  0.74936572  0.99937817  1
  Li  Li4  1  0.00311842  0.24984137  0.99941340  1
  La  La5  1  0.88745115  0.87305434  0.61188839  1
  La  La6  1  0.61195871  0.37789426  0.88683540  1
  La  La7  1  0.61316460  0.87210574  0.88804129  1
  La  La8  1  0.88811161  0.37694566  0.61254885  1
  La  La9  1  0.63425020  0.25017397  0.35890880  1
  La  La10  1  0.13995004  0.49751830  0.86378725  1
  La  La11  1  0.14109120  0.99982603  0.86574980  1
  La  La12  1  0.63621275  0.75248170  0.36004996  1
  La  La13  1  0.86147867  0.49967120  0.13907469  1
  La  La14  1  0.35891796  0.25129231  0.63543660  1
  La  La15  1  0.36092531  0.75032880  0.63852133  1
  La  La16  1  0.86456340  0.99870769  0.14108204  1
  La  La17  1  0.38760452  0.62500000  0.11239548  1
  La  La18  1  0.11280924  0.62500000  0.38719076  1
  La  La19  1  0.11716492  0.12500000  0.38283508  1
  Co  Co20  1  0.75029318  0.12500000  0.74970682  1
  Co  Co21  1  0.74980274  0.62500000  0.75019726  1
  Co  Co22  1  0.24906425  0.37463827  0.25004895  1
  Co  Co23  1  0.24995105  0.87536173  0.25093575  1
  O  O24  1  0.87118951  0.18673281  0.87080632  1
  O  O25  1  0.87205472  0.68656206  0.87210453  1
  O  O26  1  0.87210902  0.94263498  0.87057637  1
  O  O27  1  0.87117661  0.44099223  0.87251847  1
  O  O28  1  0.92969933  0.62500000  0.57030067  1
  O  O29  1  0.91133003  0.12500000  0.58866997  1
  O  O30  1  0.59504472  0.12500000  0.90495528  1
  O  O31  1  0.57148202  0.62500000  0.92851798  1
  O  O32  1  0.62942363  0.30736502  0.62789098  1
  O  O33  1  0.62919368  0.06326719  0.62881049  1
  O  O34  1  0.62789547  0.56343794  0.62794528  1
  O  O35  1  0.62748153  0.80900777  0.62882339  1
  O  O36  1  0.32038972  0.49872314  0.68196230  1
  O  O37  1  0.81803770  0.75127686  0.17961028  1
  O  O38  1  0.31612953  0.00137897  0.68100273  1
  O  O39  1  0.81899727  0.24862103  0.18387047  1
  O  O40  1  0.18066385  0.74957787  0.82008565  1
  O  O41  1  0.68895356  0.99603701  0.32560596  1
  O  O42  1  0.17439404  0.25396299  0.81104644  1
  O  O43  1  0.67991435  0.50042213  0.31933615  1
  O  O44  1  0.37115483  0.43673979  0.37261729  1
  O  O45  1  0.37139078  0.69125974  0.37254764  1
  O  O46  1  0.36938875  0.93587564  0.37619787  1
  O  O47  1  0.36907254  0.19149027  0.37626803  1
  O  O48  1  0.42982919  0.37952424  0.06965572  1
  O  O49  1  0.43034428  0.87047576  0.07017081  1
  O  O50  1  0.07178460  0.87586475  0.43110083  1
  O  O51  1  0.06889917  0.37413525  0.42821540  1
  O  O52  1  0.12380213  0.31412436  0.13061125  1
  O  O53  1  0.12745236  0.55874026  0.12860922  1
  O  O54  1  0.12738271  0.81326021  0.12884517  1
  O  O55  1  0.12373197  0.05850973  0.13092746  1
