# generated using pymatgen
data_MnCo3O8
_symmetry_space_group_name_H-M   'P 1'
_cell_length_a   2.85018799
_cell_length_b   2.85018799
_cell_length_c   19.58737756
_cell_angle_alpha   90.06509965
_cell_angle_beta   90.06509965
_cell_angle_gamma   60.48133508
_symmetry_Int_Tables_number   1
_chemical_formula_structural   MnCo3O8
_chemical_formula_sum   'Mn1 Co3 O8'
_cell_volume   138.46487961
_cell_formula_units_Z   1
loop_
 _symmetry_equiv_pos_site_id
 _symmetry_equiv_pos_as_xyz
  1  'x, y, z'
loop_
 _atom_site_type_symbol
 _atom_site_label
 _atom_site_symmetry_multiplicity
 _atom_site_fract_x
 _atom_site_fract_y
 _atom_site_fract_z
 _atom_site_occupancy
  Mn  Mn0  1  0.00000000  0.00000000  0.00000000  1
  Co  Co1  1  0.50001412  0.50001412  0.25000931  1
  Co  Co2  1  0.00000000  0.00000000  0.50000000  1
  Co  Co3  1  0.49998588  0.49998588  0.74999069  1
  O  O4  1  0.16686841  0.16686841  0.20249206  1
  O  O5  1  0.66646162  0.66646162  0.05030529  1
  O  O6  1  0.16686583  0.16686583  0.70247281  1
  O  O7  1  0.33316156  0.33316156  0.45243028  1
  O  O8  1  0.83313417  0.83313417  0.29752719  1
  O  O9  1  0.66683844  0.66683844  0.54756972  1
  O  O10  1  0.33353838  0.33353838  0.94969471  1
  O  O11  1  0.83313159  0.83313159  0.79750794  1
