# generated using pymatgen
data_Li7Ni9O16
_symmetry_space_group_name_H-M   'P 1'
_cell_length_a   4.99708650
_cell_length_b   5.74893237
_cell_length_c   10.47049390
_cell_angle_alpha   74.21813537
_cell_angle_beta   77.02791794
_cell_angle_gamma   73.59736800
_symmetry_Int_Tables_number   1
_chemical_formula_structural   Li7Ni9O16
_chemical_formula_sum   'Li7 Ni9 O16'
_cell_volume   274.10015759
_cell_formula_units_Z   1
loop_
 _symmetry_equiv_pos_site_id
 _symmetry_equiv_pos_as_xyz
  1  'x, y, z'
loop_
 _atom_site_type_symbol
 _atom_site_label
 _atom_site_symmetry_multiplicity
 _atom_site_fract_x
 _atom_site_fract_y
 _atom_site_fract_z
 _atom_site_occupancy
  Li  Li0  1  0.99439896  0.00039992  0.00184009  1
  Li  Li1  1  -0.00015272  0.12358784  0.24708556  1
  Li  Li2  1  0.00015272  0.25141216  0.50291444  1
  Li  Li3  1  0.00009606  0.62809634  0.24978509  1
  Li  Li4  1  0.00560104  0.37460008  0.74815991  1
  Li  Li5  1  -0.00009606  0.74690366  0.50021491  1
  Li  Li6  1  0.50000000  0.68750000  0.87500000  1
  Ni  Ni7  1  0.00148836  0.50406795  0.99667286  1
  Ni  Ni8  1  0.50505268  0.30948758  0.12444347  1
  Ni  Ni9  1  0.49494732  0.06551242  0.62555653  1
  Ni  Ni10  1  0.49923401  0.43812409  0.37535451  1
  Ni  Ni11  1  0.50000000  0.18750000  0.87500000  1
  Ni  Ni12  1  0.50064017  0.81187711  0.12158066  1
  Ni  Ni13  1  0.49935983  0.56312289  0.62841934  1
  Ni  Ni14  1  0.50076599  0.93687591  0.37464549  1
  Ni  Ni15  1  0.99851164  0.87093205  0.75332714  1
  O  O16  1  0.27124977  0.16610921  0.06438512  1
  O  O17  1  0.27116810  0.03693861  0.79573168  1
  O  O18  1  0.71166436  0.10442537  0.44473390  1
  O  O19  1  0.28833564  0.27057463  0.30526610  1
  O  O20  1  0.26663965  0.62592846  0.07302399  1
  O  O21  1  0.27057248  0.38692949  0.56543641  1
  O  O22  1  0.72875023  0.20889079  0.68561488  1
  O  O23  1  0.73290638  0.45860161  0.18236784  1
  O  O24  1  0.27631784  0.76968758  0.31798151  1
  O  O25  1  0.72368216  0.60531242  0.43201849  1
  O  O26  1  0.24509938  0.52976886  0.81257551  1
  O  O27  1  0.72883190  0.33806139  0.95426832  1
  O  O28  1  0.72942752  0.98807051  0.18456459  1
  O  O29  1  0.26709362  0.91639839  0.56763216  1
  O  O30  1  0.73336035  0.74907154  0.67697601  1
  O  O31  1  0.75490062  0.84523114  0.93742449  1
