# generated using pymatgen
data_Na6Sn2C4SO16
_symmetry_space_group_name_H-M   'P 1'
_cell_length_a   10.32383784
_cell_length_b   10.32383782
_cell_length_c   10.32383774
_cell_angle_alpha   90.00000364
_cell_angle_beta   60.00000288
_cell_angle_gamma   60.00000314
_symmetry_Int_Tables_number   1
_chemical_formula_structural   Na6Sn2C4SO16
_chemical_formula_sum   'Na12 Sn4 C8 S2 O32'
_cell_volume   778.05186103
_cell_formula_units_Z   2
loop_
 _symmetry_equiv_pos_site_id
 _symmetry_equiv_pos_as_xyz
  1  'x, y, z'
loop_
 _atom_site_type_symbol
 _atom_site_label
 _atom_site_symmetry_multiplicity
 _atom_site_fract_x
 _atom_site_fract_y
 _atom_site_fract_z
 _atom_site_occupancy
  Na  Na0  1  0.75000000  0.91750727  0.66750727  1
  Na  Na1  1  0.66498446  0.66750727  0.91750727  1
  Na  Na2  1  0.75000000  0.33249273  0.66750727  1
  Na  Na3  1  0.75000000  0.91750727  0.08249273  1
  Na  Na4  1  0.25000000  0.66750727  0.91750727  1
  Na  Na5  1  0.83501554  0.08249273  0.33249273  1
  Na  Na6  1  0.16498446  0.91750727  0.66750727  1
  Na  Na7  1  0.75000000  0.33249273  0.08249273  1
  Na  Na8  1  0.25000000  0.66750727  0.33249273  1
  Na  Na9  1  0.25000000  0.08249273  0.91750727  1
  Na  Na10  1  0.33501554  0.33249273  0.08249273  1
  Na  Na11  1  0.25000000  0.08249273  0.33249273  1
  Sn  Sn12  1  0.50000000  0.50000000  0.50000000  1
  Sn  Sn13  1  0.50000000  0.00000000  0.50000000  1
  Sn  Sn14  1  0.00000000  0.50000000  0.50000000  1
  Sn  Sn15  1  0.00000000  0.50000000  0.00000000  1
  C  C16  1  0.95777673  0.72888887  0.27111113  1
  C  C17  1  0.95777673  0.31333440  0.27111113  1
  C  C18  1  0.54222327  0.72888887  0.68666560  1
  C  C19  1  0.54222327  0.72888887  0.27111113  1
  C  C20  1  0.45777673  0.27111113  0.72888887  1
  C  C21  1  0.04222327  0.68666560  0.72888887  1
  C  C22  1  0.45777673  0.27111113  0.31333440  1
  C  C23  1  0.04222327  0.27111113  0.72888887  1
  S  S24  1  0.75000000  0.12500000  0.87500000  1
  S  S25  1  0.25000000  0.87500000  0.12500000  1
  O  O26  1  0.91629916  0.68688036  0.72813329  1
  O  O27  1  0.91629916  0.39682048  0.85556655  1
  O  O28  1  0.95874607  0.72813329  0.39682048  1
  O  O29  1  0.83131381  0.85556655  0.27186571  1
  O  O30  1  0.86839597  0.06580251  0.93419749  1
  O  O31  1  0.66868619  0.60317952  0.68688036  1
  O  O32  1  0.54125393  0.85556655  0.68688036  1
  O  O33  1  0.63160403  0.30259346  0.93419749  1
  O  O34  1  0.86839597  0.06580251  0.69740654  1
  O  O35  1  0.95874607  0.31311964  0.14443345  1
  O  O36  1  0.83131381  0.31311964  0.39682048  1
  O  O37  1  0.63160403  0.06580251  0.93419749  1
  O  O38  1  0.66868619  0.72813329  0.14443345  1
  O  O39  1  0.41629916  0.72813329  0.68688036  1
  O  O40  1  0.41629916  0.85556655  0.39682048  1
  O  O41  1  0.45874607  0.39682048  0.72813329  1
  O  O42  1  0.54125393  0.60317952  0.27186571  1
  O  O43  1  0.58370084  0.14443345  0.60317952  1
  O  O44  1  0.58370084  0.27186571  0.31311964  1
  O  O45  1  0.33131381  0.27186571  0.85556655  1
  O  O46  1  0.36839597  0.93419749  0.06580251  1
  O  O47  1  0.16868619  0.68688036  0.60317952  1
  O  O48  1  0.04125393  0.68688036  0.85556655  1
  O  O49  1  0.13160403  0.93419749  0.30259346  1
  O  O50  1  0.36839597  0.69740654  0.06580251  1
  O  O51  1  0.45874607  0.14443345  0.31311964  1
  O  O52  1  0.33131381  0.39682048  0.31311964  1
  O  O53  1  0.13160403  0.93419749  0.06580251  1
  O  O54  1  0.16868619  0.14443345  0.72813329  1
  O  O55  1  0.04125393  0.27186571  0.60317952  1
  O  O56  1  0.08370084  0.60317952  0.14443345  1
  O  O57  1  0.08370084  0.31311964  0.27186571  1
