# generated using pymatgen
data_Li4MnCo2O7
_symmetry_space_group_name_H-M   'P 1'
_cell_length_a   2.90340930
_cell_length_b   9.96175991
_cell_length_c   9.85175870
_cell_angle_alpha   114.82028780
_cell_angle_beta   90.00000000
_cell_angle_gamma   98.37942264
_symmetry_Int_Tables_number   1
_chemical_formula_structural   Li4MnCo2O7
_chemical_formula_sum   'Li8 Mn2 Co4 O14'
_cell_volume   255.26727129
_cell_formula_units_Z   2
loop_
 _symmetry_equiv_pos_site_id
 _symmetry_equiv_pos_as_xyz
  1  'x, y, z'
loop_
 _atom_site_type_symbol
 _atom_site_label
 _atom_site_symmetry_multiplicity
 _atom_site_fract_x
 _atom_site_fract_y
 _atom_site_fract_z
 _atom_site_occupancy
  Li  Li0  1  0.65845331  0.31690661  0.07402864  1
  Li  Li1  1  0.91297469  0.82595039  0.21168636  1
  Li  Li2  1  0.22196660  0.44393221  0.36392602  1
  Li  Li3  1  0.49453593  0.98907186  0.50585345  1
  Li  Li4  1  0.78571400  0.57142900  0.64285700  1
  Li  Li5  1  0.07689307  0.15378514  0.77986055  1
  Li  Li6  1  0.34946240  0.69892479  0.92178798  1
  Li  Li7  1  0.28571400  0.57142900  0.14285700  1
  Mn  Mn8  1  0.00027710  0.00055421  0.99839644  1
  Mn  Mn9  1  0.57115190  0.14230279  0.28731756  1
  Co  Co10  1  0.84850089  0.69700178  0.40974402  1
  Co  Co11  1  0.14374709  0.28749418  0.58085118  1
  Co  Co12  1  0.42768091  0.85536282  0.70486382  1
  Co  Co13  1  0.72292811  0.44585522  0.87596998  1
  O  O14  1  0.53313735  0.06627570  0.91184972  1
  O  O15  1  0.81717246  0.63434392  0.02346627  1
  O  O16  1  0.09828002  0.19656004  0.18282430  1
  O  O17  1  0.39137858  0.78275715  0.33093897  1
  O  O18  1  0.66669297  0.33338694  0.45448244  1
  O  O19  1  0.96255010  0.92509920  0.61292880  1
  O  O20  1  0.24476236  0.48952471  0.74630699  1
  O  O21  1  0.75425654  0.50851308  0.26224773  1
  O  O22  1  0.03829065  0.07658230  0.37386428  1
  O  O23  1  0.32666664  0.65333229  0.53940701  1
  O  O24  1  0.60887890  0.21775780  0.67278520  1
  O  O25  1  0.90473503  0.80947006  0.83123256  1
  O  O26  1  0.18004942  0.36009985  0.95477603  1
  O  O27  1  0.47314898  0.94629696  0.10288970  1
