# generated using pymatgen
data_CuReO4
_symmetry_space_group_name_H-M   'P 1'
_cell_length_a   10.14818057
_cell_length_b   7.02607974
_cell_length_c   8.61424976
_cell_angle_alpha   101.68001214
_cell_angle_beta   97.28525734
_cell_angle_gamma   106.51132518
_symmetry_Int_Tables_number   1
_chemical_formula_structural   CuReO4
_chemical_formula_sum   'Cu6 Re6 O24'
_cell_volume   565.46618301
_cell_formula_units_Z   6
loop_
 _symmetry_equiv_pos_site_id
 _symmetry_equiv_pos_as_xyz
  1  'x, y, z'
loop_
 _atom_site_type_symbol
 _atom_site_label
 _atom_site_symmetry_multiplicity
 _atom_site_fract_x
 _atom_site_fract_y
 _atom_site_fract_z
 _atom_site_occupancy
  Cu  Cu0  1  0.01894369  0.95830621  0.79596982  1
  Cu  Cu1  1  0.23251305  0.46595170  0.38822287  1
  Cu  Cu2  1  0.41160561  0.75001569  0.19508566  1
  Cu  Cu3  1  0.58839439  0.24998431  0.80491434  1
  Cu  Cu4  1  0.76748695  0.53404830  0.61177713  1
  Cu  Cu5  1  0.98105631  0.04169379  0.20403018  1
  Re  Re6  1  0.10762640  0.49886233  0.77721841  1
  Re  Re7  1  0.25302266  0.99614258  0.46968785  1
  Re  Re8  1  0.34555482  0.20003866  0.08769050  1
  Re  Re9  1  0.65444518  0.79996134  0.91230950  1
  Re  Re10  1  0.74697734  0.00385742  0.53031215  1
  Re  Re11  1  0.89237360  0.50113767  0.22278159  1
  O  O12  1  0.01121488  0.24373079  0.77026677  1
  O  O13  1  0.14138418  0.93791430  0.60579719  1
  O  O14  1  0.00969804  0.35480249  0.21607221  1
  O  O15  1  0.18252943  0.50292391  0.60209544  1
  O  O16  1  0.23930099  0.59518539  0.95150981  1
  O  O17  1  0.16806101  0.06803232  0.99268996  1
  O  O18  1  0.27316810  0.76283716  0.36150922  1
  O  O19  1  0.18548712  0.13942657  0.34610035  1
  O  O20  1  0.36289047  0.44103608  0.22202602  1
  O  O21  1  0.44280120  0.25042467  0.93675439  1
  O  O22  1  0.58697938  0.95555980  0.80889541  1
  O  O23  1  0.41684522  0.15571452  0.58137578  1
  O  O24  1  0.58315478  0.84428548  0.41862422  1
  O  O25  1  0.41302062  0.04444020  0.19110459  1
  O  O26  1  0.55719880  0.74957533  0.06324561  1
  O  O27  1  0.63710953  0.55896392  0.77797398  1
  O  O28  1  0.81451288  0.86057343  0.65389965  1
  O  O29  1  0.72683190  0.23716284  0.63849078  1
  O  O30  1  0.83193899  0.93196768  0.00731004  1
  O  O31  1  0.76069901  0.40481461  0.04849019  1
  O  O32  1  0.81747057  0.49707609  0.39790456  1
  O  O33  1  0.99030196  0.64519751  0.78392779  1
  O  O34  1  0.85861582  0.06208570  0.39420281  1
  O  O35  1  0.98878512  0.75626921  0.22973323  1
