# generated using pymatgen
data_Na3NiBPO7
_symmetry_space_group_name_H-M   'P 1'
_cell_length_a   8.88775237
_cell_length_b   6.75227749
_cell_length_c   5.16161169
_cell_angle_alpha   90.00000000
_cell_angle_beta   88.34624717
_cell_angle_gamma   90.00000000
_symmetry_Int_Tables_number   1
_chemical_formula_structural   Na3NiBPO7
_chemical_formula_sum   'Na6 Ni2 B2 P2 O14'
_cell_volume   309.63256196
_cell_formula_units_Z   2
loop_
 _symmetry_equiv_pos_site_id
 _symmetry_equiv_pos_as_xyz
  1  'x, y, z'
loop_
 _atom_site_type_symbol
 _atom_site_label
 _atom_site_symmetry_multiplicity
 _atom_site_fract_x
 _atom_site_fract_y
 _atom_site_fract_z
 _atom_site_occupancy
  Na  Na0  1  0.08419569  0.25000000  0.76490050  1
  Na  Na1  1  0.26805309  0.00696954  0.25312899  1
  Na  Na2  1  0.26805309  0.49303046  0.25312899  1
  Na  Na3  1  0.73194691  0.50696954  0.74687101  1
  Na  Na4  1  0.73194691  0.99303046  0.74687101  1
  Na  Na5  1  0.91580431  0.75000000  0.23509950  1
  Ni  Ni6  1  0.34290364  0.75000000  0.78196783  1
  Ni  Ni7  1  0.65709636  0.25000000  0.21803217  1
  B  B8  1  0.06915745  0.75000000  0.73277974  1
  B  B9  1  0.93084255  0.25000000  0.26722026  1
  P  P10  1  0.41892068  0.25000000  0.71742519  1
  P  P11  1  0.58107932  0.75000000  0.28257481  1
  O  O12  1  0.08060469  0.25000000  0.29383394  1
  O  O13  1  0.13981482  0.75000000  0.96872625  1
  O  O14  1  0.17433111  0.75000000  0.52799933  1
  O  O15  1  0.31985121  0.06598608  0.78076164  1
  O  O16  1  0.31985121  0.43401392  0.78076164  1
  O  O17  1  0.46072883  0.25000000  0.41942412  1
  O  O18  1  0.43354995  0.75000000  0.13168821  1
  O  O19  1  0.56645005  0.25000000  0.86831179  1
  O  O20  1  0.53927117  0.75000000  0.58057588  1
  O  O21  1  0.68014879  0.56598608  0.21923836  1
  O  O22  1  0.68014879  0.93401392  0.21923836  1
  O  O23  1  0.82566889  0.25000000  0.47200067  1
  O  O24  1  0.86018518  0.25000000  0.03127375  1
  O  O25  1  0.91939531  0.75000000  0.70616606  1
