# generated using pymatgen
data_Na3BiBAsO7
_symmetry_space_group_name_H-M   'P 1'
_cell_length_a   9.48213221
_cell_length_b   7.33367991
_cell_length_c   5.40328265
_cell_angle_alpha   90.00000000
_cell_angle_beta   91.04410211
_cell_angle_gamma   90.00000000
_symmetry_Int_Tables_number   1
_chemical_formula_structural   Na3BiBAsO7
_chemical_formula_sum   'Na6 Bi2 B2 As2 O14'
_cell_volume   375.67606775
_cell_formula_units_Z   2
loop_
 _symmetry_equiv_pos_site_id
 _symmetry_equiv_pos_as_xyz
  1  'x, y, z'
loop_
 _atom_site_type_symbol
 _atom_site_label
 _atom_site_symmetry_multiplicity
 _atom_site_fract_x
 _atom_site_fract_y
 _atom_site_fract_z
 _atom_site_occupancy
  Na  Na0  1  0.06615483  0.25000000  0.75804214  1
  Na  Na1  1  0.23562297  0.00997120  0.24525150  1
  Na  Na2  1  0.23562297  0.49002880  0.24525150  1
  Na  Na3  1  0.76437703  0.50997120  0.75474850  1
  Na  Na4  1  0.76437703  0.99002880  0.75474850  1
  Na  Na5  1  0.93384517  0.75000000  0.24195786  1
  Bi  Bi6  1  0.33814561  0.75000000  0.76824591  1
  Bi  Bi7  1  0.66185439  0.25000000  0.23175409  1
  B  B8  1  0.05332290  0.75000000  0.72972581  1
  B  B9  1  0.94667710  0.25000000  0.27027419  1
  As  As10  1  0.40276396  0.25000000  0.70331362  1
  As  As11  1  0.59723604  0.75000000  0.29668638  1
  O  O12  1  0.08830561  0.25000000  0.28750963  1
  O  O13  1  0.12904871  0.75000000  0.95992937  1
  O  O14  1  0.14052209  0.75000000  0.51929987  1
  O  O15  1  0.30686234  0.06712912  0.81558540  1
  O  O16  1  0.30686234  0.43287088  0.81558540  1
  O  O17  1  0.39951069  0.25000000  0.38703303  1
  O  O18  1  0.42010899  0.75000000  0.20747254  1
  O  O19  1  0.57989101  0.25000000  0.79252746  1
  O  O20  1  0.60048931  0.75000000  0.61296697  1
  O  O21  1  0.69313766  0.56712912  0.18441460  1
  O  O22  1  0.69313766  0.93287088  0.18441460  1
  O  O23  1  0.85947791  0.25000000  0.48070013  1
  O  O24  1  0.87095129  0.25000000  0.04007063  1
  O  O25  1  0.91169439  0.75000000  0.71249037  1
