# generated using pymatgen
data_Li4Co3Ni(PO4)4
_symmetry_space_group_name_H-M   'P 1'
_cell_length_a   4.74575706
_cell_length_b   10.23215507
_cell_length_c   5.96513937
_cell_angle_alpha   90.00000000
_cell_angle_beta   90.00000000
_cell_angle_gamma   90.03626374
_symmetry_Int_Tables_number   1
_chemical_formula_structural   Li4Co3Ni(PO4)4
_chemical_formula_sum   'Li4 Co3 Ni1 P4 O16'
_cell_volume   289.66306658
_cell_formula_units_Z   1
loop_
 _symmetry_equiv_pos_site_id
 _symmetry_equiv_pos_as_xyz
  1  'x, y, z'
loop_
 _atom_site_type_symbol
 _atom_site_label
 _atom_site_symmetry_multiplicity
 _atom_site_fract_x
 _atom_site_fract_y
 _atom_site_fract_z
 _atom_site_occupancy
  Li  Li0  1  0.00021185  0.00044422  0.99939762  1
  Li  Li1  1  0.00021185  0.00044422  0.50060238  1
  Li  Li2  1  0.50013655  0.49877768  0.50072749  1
  Li  Li3  1  0.50013655  0.49877768  0.99927251  1
  Co  Co4  1  0.02573071  0.72253249  0.75000000  1
  Co  Co5  1  0.47836422  0.22176917  0.75000000  1
  Co  Co6  1  0.52206723  0.77852736  0.25000000  1
  Ni  Ni7  1  0.98026619  0.27654334  0.25000000  1
  P  P8  1  0.08379634  0.59215846  0.25000000  1
  P  P9  1  0.41368685  0.09532957  0.25000000  1
  P  P10  1  0.58688567  0.90667394  0.75000000  1
  P  P11  1  0.91508516  0.40586338  0.75000000  1
  O  O12  1  0.20301132  0.45075112  0.25000000  1
  O  O13  1  0.22319816  0.66389452  0.04411159  1
  O  O14  1  0.22319816  0.66389452  0.45588841  1
  O  O15  1  0.23816804  0.40153304  0.75000000  1
  O  O16  1  0.26343232  0.90193751  0.75000000  1
  O  O17  1  0.27249606  0.16615230  0.04402751  1
  O  O18  1  0.27249606  0.16615230  0.45597249  1
  O  O19  1  0.29592559  0.95328431  0.25000000  1
  O  O20  1  0.70627975  0.04782251  0.75000000  1
  O  O21  1  0.72576011  0.83521161  0.54364172  1
  O  O22  1  0.72576011  0.83521161  0.95635828  1
  O  O23  1  0.73708494  0.10067547  0.25000000  1
  O  O24  1  0.76100351  0.59825393  0.25000000  1
  O  O25  1  0.77566174  0.33503629  0.54322105  1
  O  O26  1  0.77566174  0.33503629  0.95677895  1
  O  O27  1  0.79428323  0.54731118  0.75000000  1
