# generated using pymatgen
data_Li4Ni3SbO8
_symmetry_space_group_name_H-M   'P 1'
_cell_length_a   10.36877643
_cell_length_b   10.36815954
_cell_length_c   14.66244435
_cell_angle_alpha   19.45951700
_cell_angle_beta   19.45923442
_cell_angle_gamma   33.54420997
_symmetry_Int_Tables_number   1
_chemical_formula_structural   Li4Ni3SbO8
_chemical_formula_sum   'Li4 Ni3 Sb1 O8'
_cell_volume   151.43865322
_cell_formula_units_Z   1
loop_
 _symmetry_equiv_pos_site_id
 _symmetry_equiv_pos_as_xyz
  1  'x, y, z'
loop_
 _atom_site_type_symbol
 _atom_site_label
 _atom_site_symmetry_multiplicity
 _atom_site_fract_x
 _atom_site_fract_y
 _atom_site_fract_z
 _atom_site_occupancy
  Li  Li0  1  0.00000395  0.00002280  0.49997600  1
  Li  Li1  1  0.00004615  0.50001741  0.49994971  1
  Li  Li2  1  0.50003451  0.99993900  0.50001639  1
  Li  Li3  1  0.50002898  0.49991225  0.50003666  1
  Ni  Ni4  1  0.00016830  0.50055513  0.99948711  1
  Ni  Ni5  1  0.49948462  0.99971101  0.00059337  1
  Ni  Ni6  1  0.50011931  0.49995394  0.99997744  1
  Sb  Sb7  1  0.00011379  -0.00022267  0.00005446  1
  O  O8  1  0.99775920  0.99743814  0.26595865  1
  O  O9  1  0.00024222  0.52088568  0.24078097  1
  O  O10  1  0.52112598  0.00033528  0.24056405  1
  O  O11  1  0.00216575  0.00269227  0.73401584  1
  O  O12  1  0.47880324  0.47880879  0.28312722  1
  O  O13  1  0.99968001  0.47891783  0.75941964  1
  O  O14  1  0.47905604  0.99978968  0.75920170  1
  O  O15  1  0.52116895  0.52124548  0.71684077  1
