# generated using pymatgen
data_Pb(BrO3)2
_symmetry_space_group_name_H-M   'P 1'
_cell_length_a   16.51975778
_cell_length_b   5.71542283
_cell_length_c   6.31381333
_cell_angle_alpha   90.00063913
_cell_angle_beta   89.99434947
_cell_angle_gamma   90.00431214
_symmetry_Int_Tables_number   1
_chemical_formula_structural   Pb(BrO3)2
_chemical_formula_sum   'Pb4 Br8 O24'
_cell_volume   596.13383918
_cell_formula_units_Z   4
loop_
 _symmetry_equiv_pos_site_id
 _symmetry_equiv_pos_as_xyz
  1  'x, y, z'
loop_
 _atom_site_type_symbol
 _atom_site_label
 _atom_site_symmetry_multiplicity
 _atom_site_fract_x
 _atom_site_fract_y
 _atom_site_fract_z
 _atom_site_occupancy
  Pb  Pb0  1  0.00004609  0.25931068  0.24990829  1
  Pb  Pb1  1  0.99992267  0.74081925  0.75016385  1
  Pb  Pb2  1  0.50009293  0.24073449  0.74986181  1
  Pb  Pb3  1  0.49997584  0.75922873  0.25005415  1
  Br  Br4  1  0.15375310  0.26180994  0.71687213  1
  Br  Br5  1  0.15376770  0.73821246  0.21686961  1
  Br  Br6  1  0.34625563  0.23818014  0.21682091  1
  Br  Br7  1  0.34626043  0.76177269  0.71689193  1
  Br  Br8  1  0.65374906  0.23818801  0.28315040  1
  Br  Br9  1  0.65376734  0.76179603  0.78318736  1
  Br  Br10  1  0.84622538  0.26180058  0.78311778  1
  Br  Br11  1  0.84625134  0.73810817  0.28313242  1
  O  O12  1  0.06863233  0.60586330  0.10392762  1
  O  O13  1  0.06864354  0.39415045  0.60399550  1
  O  O14  1  0.10986950  0.89969121  0.41254014  1
  O  O15  1  0.10984613  0.10028171  0.91257490  1
  O  O16  1  0.20468297  0.52212233  0.33212387  1
  O  O17  1  0.20469684  0.47793669  0.83211209  1
  O  O18  1  0.29529191  0.97792235  0.83214965  1
  O  O19  1  0.29530737  0.02211456  0.33212927  1
  O  O20  1  0.39012683  0.39964671  0.41254789  1
  O  O21  1  0.39013611  0.60029308  0.91257273  1
  O  O22  1  0.43136442  0.10589940  0.10394180  1
  O  O23  1  0.43135459  0.89408395  0.60395928  1
  O  O24  1  0.56864726  0.10601443  0.39606072  1
  O  O25  1  0.56864695  0.89407516  0.89598478  1
  O  O26  1  0.60986739  0.39958160  0.08748054  1
  O  O27  1  0.60987211  0.60035076  0.58751332  1
  O  O28  1  0.70468350  0.97786232  0.66783688  1
  O  O29  1  0.70470285  0.02214721  0.16781508  1
  O  O30  1  0.79530160  0.52213425  0.16784832  1
  O  O31  1  0.79530717  0.47785566  0.66785312  1
  O  O32  1  0.89015757  0.10034470  0.58748955  1
  O  O33  1  0.89013880  0.89963131  0.08746717  1
  O  O34  1  0.93131804  0.39407058  0.89601049  1
  O  O35  1  0.93133669  0.60596513  0.39603463  1
