# generated using pymatgen
data_GdTa3O9
_symmetry_space_group_name_H-M   'P 1'
_cell_length_a   6.52489513
_cell_length_b   7.66748020
_cell_length_c   12.66065738
_cell_angle_alpha   90.00000000
_cell_angle_beta   90.00000000
_cell_angle_gamma   90.00000000
_symmetry_Int_Tables_number   1
_chemical_formula_structural   GdTa3O9
_chemical_formula_sum   'Gd4 Ta12 O36'
_cell_volume   633.40641177
_cell_formula_units_Z   4
loop_
 _symmetry_equiv_pos_site_id
 _symmetry_equiv_pos_as_xyz
  1  'x, y, z'
loop_
 _atom_site_type_symbol
 _atom_site_label
 _atom_site_symmetry_multiplicity
 _atom_site_fract_x
 _atom_site_fract_y
 _atom_site_fract_z
 _atom_site_occupancy
  Gd  Gd0  1  0.05452357  0.25000000  0.46639250  1
  Gd  Gd1  1  0.44547643  0.75000000  0.96639250  1
  Gd  Gd2  1  0.55452357  0.25000000  0.03360750  1
  Gd  Gd3  1  0.94547643  0.75000000  0.53360750  1
  Ta  Ta4  1  0.00000000  0.00000000  0.00000000  1
  Ta  Ta5  1  0.00000000  0.50000000  0.00000000  1
  Ta  Ta6  1  0.20994967  0.00253140  0.71383514  1
  Ta  Ta7  1  0.20994967  0.49746860  0.71383514  1
  Ta  Ta8  1  0.29005033  0.50253140  0.21383514  1
  Ta  Ta9  1  0.29005033  0.99746860  0.21383514  1
  Ta  Ta10  1  0.50000000  0.00000000  0.50000000  1
  Ta  Ta11  1  0.50000000  0.50000000  0.50000000  1
  Ta  Ta12  1  0.70994967  0.00253140  0.78616486  1
  Ta  Ta13  1  0.70994967  0.49746860  0.78616486  1
  Ta  Ta14  1  0.79005033  0.50253140  0.28616486  1
  Ta  Ta15  1  0.79005033  0.99746860  0.28616486  1
  O  O16  1  0.02038728  0.03901896  0.84355924  1
  O  O17  1  0.02038728  0.46098104  0.84355924  1
  O  O18  1  0.07365398  0.75000000  0.97686385  1
  O  O19  1  0.09845192  0.03059248  0.33256401  1
  O  O20  1  0.09845192  0.46940752  0.33256401  1
  O  O21  1  0.17523207  0.25000000  0.67407002  1
  O  O22  1  0.20318714  0.75000000  0.69793600  1
  O  O23  1  0.20878695  0.96721938  0.53845537  1
  O  O24  1  0.20878695  0.53278062  0.53845537  1
  O  O25  1  0.29121305  0.03278062  0.03845537  1
  O  O26  1  0.29121305  0.46721938  0.03845537  1
  O  O27  1  0.29681286  0.25000000  0.19793600  1
  O  O28  1  0.32476793  0.75000000  0.17407002  1
  O  O29  1  0.40154808  0.53059248  0.83256401  1
  O  O30  1  0.40154808  0.96940752  0.83256401  1
  O  O31  1  0.42634602  0.25000000  0.47686385  1
  O  O32  1  0.47961272  0.53901896  0.34355924  1
  O  O33  1  0.47961272  0.96098104  0.34355924  1
  O  O34  1  0.52038728  0.03901896  0.65644076  1
  O  O35  1  0.52038728  0.46098104  0.65644076  1
  O  O36  1  0.57365398  0.75000000  0.52313615  1
  O  O37  1  0.59845192  0.03059248  0.16743599  1
  O  O38  1  0.59845192  0.46940752  0.16743599  1
  O  O39  1  0.67523207  0.25000000  0.82592998  1
  O  O40  1  0.70318714  0.75000000  0.80206400  1
  O  O41  1  0.70878695  0.53278062  0.96154463  1
  O  O42  1  0.70878695  0.96721938  0.96154463  1
  O  O43  1  0.79121305  0.03278062  0.46154463  1
  O  O44  1  0.79121305  0.46721938  0.46154463  1
  O  O45  1  0.79681286  0.25000000  0.30206400  1
  O  O46  1  0.82476793  0.75000000  0.32592998  1
  O  O47  1  0.90154808  0.53059248  0.66743599  1
  O  O48  1  0.90154808  0.96940752  0.66743599  1
  O  O49  1  0.92634602  0.25000000  0.02313615  1
  O  O50  1  0.97961272  0.53901896  0.15644076  1
  O  O51  1  0.97961272  0.96098104  0.15644076  1
