# generated using pymatgen
data_Li9Mn12Cu3O32
_symmetry_space_group_name_H-M   'P 1'
_cell_length_a   8.27604384
_cell_length_b   8.26995539
_cell_length_c   8.31222678
_cell_angle_alpha   90.15522242
_cell_angle_beta   90.23172770
_cell_angle_gamma   90.19896554
_symmetry_Int_Tables_number   1
_chemical_formula_structural   Li9Mn12Cu3O32
_chemical_formula_sum   'Li9 Mn12 Cu3 O32'
_cell_volume   568.89949919
_cell_formula_units_Z   1
loop_
 _symmetry_equiv_pos_site_id
 _symmetry_equiv_pos_as_xyz
  1  'x, y, z'
loop_
 _atom_site_type_symbol
 _atom_site_label
 _atom_site_symmetry_multiplicity
 _atom_site_fract_x
 _atom_site_fract_y
 _atom_site_fract_z
 _atom_site_occupancy
  Li  Li0  1  0.00270826  0.00326865  0.00287628  1
  Li  Li1  1  0.12254479  0.87818194  0.37401589  1
  Li  Li2  1  0.24482734  0.24520249  0.24536474  1
  Li  Li3  1  0.25225986  0.75367190  0.74785040  1
  Li  Li4  1  0.37371278  0.12242424  0.87762909  1
  Li  Li5  1  0.62365456  0.62440029  0.62318804  1
  Li  Li6  1  0.74814102  0.25164106  0.75351328  1
  Li  Li7  1  0.75414248  0.74804495  0.25246898  1
  Li  Li8  1  0.87903430  0.37368027  0.12381517  1
  Mn  Mn9  1  0.12113856  0.12584765  0.62606043  1
  Mn  Mn10  1  0.12325278  0.37699405  0.87473985  1
  Mn  Mn11  1  0.12625593  0.62532685  0.12012809  1
  Mn  Mn12  1  0.37593978  0.37820550  0.62151838  1
  Mn  Mn13  1  0.37778468  0.62052568  0.37433698  1
  Mn  Mn14  1  0.37682857  0.87504902  0.12280144  1
  Mn  Mn15  1  0.62193400  0.37550259  0.37805146  1
  Mn  Mn16  1  0.62599057  0.12107717  0.12615010  1
  Mn  Mn17  1  0.62461915  0.87724733  0.87894460  1
  Mn  Mn18  1  0.87554059  0.12335632  0.37696528  1
  Mn  Mn19  1  0.87617554  0.87860953  0.62551004  1
  Mn  Mn20  1  0.87790763  0.62486106  0.87748156  1
  Cu  Cu21  1  0.49107445  0.99345681  0.50959859  1
  Cu  Cu22  1  0.51161547  0.49193285  0.99349487  1
  Cu  Cu23  1  0.99328835  0.51268744  0.49398101  1
  O  O24  1  0.10108557  0.12830793  0.39495124  1
  O  O25  1  0.10544618  0.89828033  0.62813223  1
  O  O26  1  0.11312536  0.61582333  0.88581080  1
  O  O27  1  0.12875130  0.39348898  0.09925812  1
  O  O28  1  0.12328846  0.15067200  0.85611472  1
  O  O29  1  0.13678329  0.36633474  0.63528539  1
  O  O30  1  0.14188359  0.61674470  0.35076634  1
  O  O31  1  0.15070185  0.85659656  0.12371259  1
  O  O32  1  0.35366806  0.14201975  0.62216891  1
  O  O33  1  0.36238436  0.38196809  0.85055041  1
  O  O34  1  0.36654356  0.63420747  0.13620969  1
  O  O35  1  0.38115393  0.85064119  0.36024740  1
  O  O36  1  0.37157606  0.60687897  0.59986838  1
  O  O37  1  0.38578102  0.38454341  0.38609195  1
  O  O38  1  0.39409110  0.10062496  0.12858184  1
  O  O39  1  0.39828345  0.87179084  0.89465751  1
  O  O40  1  0.60208432  0.37217079  0.60596318  1
  O  O41  1  0.60670489  0.60168708  0.37256868  1
  O  O42  1  0.61561562  0.88589936  0.11335762  1
  O  O43  1  0.62852172  0.10633416  0.89968942  1
  O  O44  1  0.61868136  0.35320751  0.14288779  1
  O  O45  1  0.63503691  0.13661871  0.36554580  1
  O  O46  1  0.63840216  0.87665241  0.64717549  1
  O  O47  1  0.64493061  0.63948199  0.87530100  1
  O  O48  1  0.85208860  0.36297018  0.37826112  1
  O  O49  1  0.85695894  0.12324515  0.15151384  1
  O  O50  1  0.86160730  0.86219545  0.86169274  1
  O  O51  1  0.87422965  0.64515896  0.64114318  1
  O  O52  1  0.87123398  0.89376432  0.39987643  1
  O  O53  1  0.88610063  0.11385671  0.61498119  1
  O  O54  1  0.89402593  0.39835250  0.87186324  1
  O  O55  1  0.89885879  0.62840883  0.10540822  1
