# generated using pymatgen
data_Lu2TiO5
_symmetry_space_group_name_H-M   'P 1'
_cell_length_a   7.38730348
_cell_length_b   3.56453169
_cell_length_c   15.25307738
_cell_angle_alpha   90.00000000
_cell_angle_beta   90.00000000
_cell_angle_gamma   90.00000000
_symmetry_Int_Tables_number   1
_chemical_formula_structural   Lu2TiO5
_chemical_formula_sum   'Lu8 Ti4 O20'
_cell_volume   401.64826413
_cell_formula_units_Z   4
loop_
 _symmetry_equiv_pos_site_id
 _symmetry_equiv_pos_as_xyz
  1  'x, y, z'
loop_
 _atom_site_type_symbol
 _atom_site_label
 _atom_site_symmetry_multiplicity
 _atom_site_fract_x
 _atom_site_fract_y
 _atom_site_fract_z
 _atom_site_occupancy
  Lu  Lu0  1  0.09796102  0.25000000  0.08466495  1
  Lu  Lu1  1  0.16632464  0.25000000  0.73751557  1
  Lu  Lu2  1  0.33367536  0.75000000  0.23751557  1
  Lu  Lu3  1  0.40203898  0.75000000  0.58466495  1
  Lu  Lu4  1  0.59796102  0.25000000  0.41533505  1
  Lu  Lu5  1  0.66632464  0.25000000  0.76248443  1
  Lu  Lu6  1  0.83367536  0.75000000  0.26248443  1
  Lu  Lu7  1  0.90203898  0.75000000  0.91533505  1
  Ti  Ti8  1  0.11294588  0.25000000  0.42273944  1
  Ti  Ti9  1  0.38705412  0.75000000  0.92273944  1
  Ti  Ti10  1  0.61294588  0.25000000  0.07726056  1
  Ti  Ti11  1  0.88705412  0.75000000  0.57726056  1
  O  O12  1  0.06545321  0.75000000  0.17497231  1
  O  O13  1  0.07344135  0.75000000  0.45312460  1
  O  O14  1  0.12609317  0.75000000  0.64872825  1
  O  O15  1  0.15493258  0.75000000  0.99569621  1
  O  O16  1  0.24487752  0.25000000  0.32048882  1
  O  O17  1  0.25512248  0.75000000  0.82048882  1
  O  O18  1  0.34506742  0.25000000  0.49569621  1
  O  O19  1  0.37390683  0.25000000  0.14872825  1
  O  O20  1  0.42655865  0.25000000  0.95312460  1
  O  O21  1  0.43454679  0.25000000  0.67497231  1
  O  O22  1  0.56545321  0.75000000  0.32502769  1
  O  O23  1  0.57344135  0.75000000  0.04687540  1
  O  O24  1  0.62609317  0.75000000  0.85127175  1
  O  O25  1  0.65493258  0.75000000  0.50430379  1
  O  O26  1  0.74487752  0.25000000  0.17951118  1
  O  O27  1  0.75512248  0.75000000  0.67951118  1
  O  O28  1  0.84506742  0.25000000  0.00430379  1
  O  O29  1  0.87390683  0.25000000  0.35127175  1
  O  O30  1  0.92655865  0.25000000  0.54687540  1
  O  O31  1  0.93454679  0.25000000  0.82502769  1
