# generated using pymatgen
data_LiMn2(PO4)2
_symmetry_space_group_name_H-M   'P 1'
_cell_length_a   6.71416983
_cell_length_b   12.34530472
_cell_length_c   10.91738938
_cell_angle_alpha   89.99999707
_cell_angle_beta   95.84457903
_cell_angle_gamma   89.99999936
_symmetry_Int_Tables_number   1
_chemical_formula_structural   LiMn2(PO4)2
_chemical_formula_sum   'Li6 Mn12 P12 O48'
_cell_volume   900.22172718
_cell_formula_units_Z   6
loop_
 _symmetry_equiv_pos_site_id
 _symmetry_equiv_pos_as_xyz
  1  'x, y, z'
loop_
 _atom_site_type_symbol
 _atom_site_label
 _atom_site_symmetry_multiplicity
 _atom_site_fract_x
 _atom_site_fract_y
 _atom_site_fract_z
 _atom_site_occupancy
  Li  Li0  1  0.50148128  0.99977995  0.49907163  1
  Li  Li1  1  0.50148128  0.50022005  0.99907163  1
  Li  Li2  1  0.25000000  0.48856862  0.50000000  1
  Li  Li3  1  0.25000000  0.01143138  0.00000000  1
  Li  Li4  1  0.99851872  0.99977995  0.50092837  1
  Li  Li5  1  0.99851872  0.50022005  0.00092837  1
  Mn  Mn6  1  0.91353748  0.84178249  0.77807155  1
  Mn  Mn7  1  0.91353748  0.65821751  0.27807155  1
  Mn  Mn8  1  0.75000000  0.23553013  0.50000000  1
  Mn  Mn9  1  0.75000000  0.26446987  1.00000000  1
  Mn  Mn10  1  0.58646252  0.65821751  0.72192845  1
  Mn  Mn11  1  0.58646252  0.84178249  0.22192845  1
  Mn  Mn12  1  0.42308120  0.15889500  0.77512238  1
  Mn  Mn13  1  0.42308120  0.34110500  0.27512238  1
  Mn  Mn14  1  0.25000000  0.76984660  0.50000000  1
  Mn  Mn15  1  0.25000000  0.73015340  0.00000000  1
  Mn  Mn16  1  0.07691880  0.34110500  0.72487762  1
  Mn  Mn17  1  0.07691880  0.15889500  0.22487762  1
  P  P18  1  0.89250109  0.10833975  0.76208288  1
  P  P19  1  0.89250109  0.39166025  0.26208288  1
  P  P20  1  0.75000000  0.79073984  0.50000000  1
  P  P21  1  0.75000000  0.70926016  0.00000000  1
  P  P22  1  0.60749891  0.39166025  0.73791712  1
  P  P23  1  0.60749891  0.10833975  0.23791712  1
  P  P24  1  0.39032718  0.89260522  0.76394035  1
  P  P25  1  0.39032718  0.60739478  0.26394035  1
  P  P26  1  0.25000000  0.20980689  0.50000000  1
  P  P27  1  0.25000000  0.29019311  1.00000000  1
  P  P28  1  0.10967282  0.60739478  0.73605965  1
  P  P29  1  0.10967282  0.89260522  0.23605965  1
  O  O30  1  0.95530493  0.00034731  0.82389199  1
  O  O31  1  0.95530493  0.49965269  0.32389199  1
  O  O32  1  0.91694479  0.78003491  0.95248592  1
  O  O33  1  0.91694479  0.71996509  0.45248592  1
  O  O34  1  0.91407485  0.67689302  0.72302343  1
  O  O35  1  0.91407485  0.82310698  0.22302343  1
  O  O36  1  0.85864022  0.87026891  0.59562793  1
  O  O37  1  0.85864022  0.62973109  0.09562793  1
  O  O38  1  0.81677130  0.09681866  0.62466482  1
  O  O39  1  0.81677130  0.40318134  0.12466482  1
  O  O40  1  0.76536109  0.33524502  0.66480684  1
  O  O41  1  0.76536109  0.16475498  0.16480684  1
  O  O42  1  0.73463891  0.16475498  0.83519316  1
  O  O43  1  0.73463891  0.33524502  0.33519316  1
  O  O44  1  0.68322870  0.40318134  0.87533518  1
  O  O45  1  0.68322870  0.09681866  0.37533518  1
  O  O46  1  0.64135978  0.62973109  0.90437207  1
  O  O47  1  0.64135978  0.87026891  0.40437207  1
  O  O48  1  0.58592515  0.82310698  0.77697657  1
  O  O49  1  0.58592515  0.67689302  0.27697657  1
  O  O50  1  0.58305521  0.71996509  0.54751408  1
  O  O51  1  0.58305521  0.78003491  0.04751408  1
  O  O52  1  0.54469507  0.49965269  0.67610801  1
  O  O53  1  0.54469507  0.00034731  0.17610801  1
  O  O54  1  0.42724283  0.00544843  0.82802940  1
  O  O55  1  0.42724283  0.49455157  0.32802940  1
  O  O56  1  0.41374607  0.21608403  0.95291324  1
  O  O57  1  0.41374607  0.28391597  0.45291324  1
  O  O58  1  0.41468911  0.31640545  0.72530740  1
  O  O59  1  0.41468911  0.18359455  0.22530740  1
  O  O60  1  0.35921987  0.13016934  0.59495321  1
  O  O61  1  0.35921987  0.36983066  0.09495321  1
  O  O62  1  0.31653315  0.90528432  0.62652321  1
  O  O63  1  0.31653315  0.59471568  0.12652321  1
  O  O64  1  0.26356323  0.66459479  0.66062410  1
  O  O65  1  0.26356323  0.83540521  0.16062410  1
  O  O66  1  0.23643677  0.83540521  0.83937590  1
  O  O67  1  0.23643677  0.66459479  0.33937590  1
  O  O68  1  0.18346685  0.59471568  0.87347679  1
  O  O69  1  0.18346685  0.90528432  0.37347679  1
  O  O70  1  0.14078013  0.36983066  0.90504679  1
  O  O71  1  0.14078013  0.13016934  0.40504679  1
  O  O72  1  0.08531089  0.18359455  0.77469260  1
  O  O73  1  0.08531089  0.31640545  0.27469260  1
  O  O74  1  0.08625393  0.28391597  0.54708676  1
  O  O75  1  0.08625393  0.21608403  0.04708676  1
  O  O76  1  0.07275717  0.49455157  0.67197060  1
  O  O77  1  0.07275717  0.00544843  0.17197060  1
