# generated using pymatgen
data_Li4MnCo2O7
_symmetry_space_group_name_H-M   'P 1'
_cell_length_a   2.98903284
_cell_length_b   13.80850052
_cell_length_c   6.49516157
_cell_angle_alpha   85.28565646
_cell_angle_beta   76.69721862
_cell_angle_gamma   96.21338715
_symmetry_Int_Tables_number   1
_chemical_formula_structural   Li4MnCo2O7
_chemical_formula_sum   'Li8 Mn2 Co4 O14'
_cell_volume   257.76202998
_cell_formula_units_Z   2
loop_
 _symmetry_equiv_pos_site_id
 _symmetry_equiv_pos_as_xyz
  1  'x, y, z'
loop_
 _atom_site_type_symbol
 _atom_site_label
 _atom_site_symmetry_multiplicity
 _atom_site_fract_x
 _atom_site_fract_y
 _atom_site_fract_z
 _atom_site_occupancy
  Li  Li0  1  0.35714300  0.07142900  0.35714300  1
  Li  Li1  1  0.07471859  0.22433685  0.07490067  1
  Li  Li2  1  0.79325135  0.37068990  0.78418621  1
  Li  Li3  1  0.63956741  0.91852015  0.63938533  1
  Li  Li4  1  0.92103365  0.77216710  0.93009879  1
  Li  Li5  1  0.49926283  0.50319569  0.50467002  1
  Li  Li6  1  0.21502317  0.63966131  0.20961598  1
  Li  Li7  1  0.85714300  0.57142900  0.85714300  1
  Mn  Mn8  1  0.99642078  0.99874773  0.00590617  1
  Mn  Mn9  1  0.71786522  0.14410927  0.70837983  1
  Co  Co10  1  0.44175636  0.29458007  0.41106634  1
  Co  Co11  1  0.15837018  0.44154147  0.12480111  1
  Co  Co12  1  0.55591582  0.70131553  0.58948489  1
  Co  Co13  1  0.27252864  0.84827693  0.30321866  1
  O  O14  1  0.54011166  0.09832408  0.01810076  1
  O  O15  1  0.24844969  0.23519552  0.73829715  1
  O  O16  1  0.96357367  0.38492329  0.45777494  1
  O  O17  1  0.83164636  0.96421297  0.30092025  1
  O  O18  1  0.11531005  0.82431291  0.59369181  1
  O  O19  1  0.67384550  0.52769724  0.18000625  1
  O  O20  1  0.40462071  0.68386738  0.87462696  1
  O  O21  1  0.17417434  0.04453392  0.69618524  1
  O  O22  1  0.88263964  0.17864403  0.41336575  1
  O  O23  1  0.59897495  0.31854409  0.12059319  1
  O  O24  1  0.46583631  0.90766148  0.97598885  1
  O  O25  1  0.75071133  0.75793371  0.25651006  1
  O  O26  1  0.30966529  0.45898962  0.83965904  1
  O  O27  1  0.04044050  0.61515976  0.53427975  1
