# generated using pymatgen
data_LiV(SO4)3
_symmetry_space_group_name_H-M   'P 1'
_cell_length_a   8.21689033
_cell_length_b   8.42888086
_cell_length_c   8.44348399
_cell_angle_alpha   108.70558429
_cell_angle_beta   106.38854703
_cell_angle_gamma   107.86920126
_symmetry_Int_Tables_number   1
_chemical_formula_structural   LiV(SO4)3
_chemical_formula_sum   'Li2 V2 S6 O24'
_cell_volume   477.90341313
_cell_formula_units_Z   2
loop_
 _symmetry_equiv_pos_site_id
 _symmetry_equiv_pos_as_xyz
  1  'x, y, z'
loop_
 _atom_site_type_symbol
 _atom_site_label
 _atom_site_symmetry_multiplicity
 _atom_site_fract_x
 _atom_site_fract_y
 _atom_site_fract_z
 _atom_site_occupancy
  Li  Li0  1  0.87455684  0.46518224  0.23476853  1
  Li  Li1  1  0.75120609  0.11955398  0.55884339  1
  V  V2  1  0.01223993  0.98376159  0.00080792  1
  V  V3  1  0.48895284  0.50473398  0.49871460  1
  S  S4  1  0.56668665  0.91705267  0.77627822  1
  S  S5  1  0.21220380  0.42519351  0.09145047  1
  S  S6  1  0.09061333  0.22091316  0.44081973  1
  S  S7  1  0.90210959  0.77656005  0.56295448  1
  S  S8  1  0.75153035  0.53689255  0.88612023  1
  S  S9  1  0.46684829  0.11363627  0.25113121  1
  O  O10  1  0.03069597  0.86489436  0.76699256  1
  O  O11  1  0.25424347  0.00030921  0.12413863  1
  O  O12  1  0.99684755  0.70832251  0.45619941  1
  O  O13  1  0.53054073  0.99340828  0.31346834  1
  O  O14  1  0.08460218  0.46881272  0.16673838  1
  O  O15  1  0.47940394  0.85884812  0.88496595  1
  O  O16  1  0.50551144  0.74345474  0.59411008  1
  O  O17  1  0.27355339  0.51684889  0.98949745  1
  O  O18  1  0.24074494  0.41151649  0.48772814  1
  O  O19  1  0.13775334  0.21507977  0.98500655  1
  O  O20  1  0.39658178  0.47528633  0.26217523  1
  O  O21  1  0.82168521  0.89526579  0.51830456  1
  O  O22  1  0.17025295  0.12013919  0.51903702  1
  O  O23  1  0.57589675  0.52649215  0.75357830  1
  O  O24  1  0.89113363  0.75306932  0.98508020  1
  O  O25  1  0.73985707  0.59574035  0.53050599  1
  O  O26  1  0.71427720  0.49782553  0.03016399  1
  O  O27  1  0.47366262  0.26148763  0.42377240  1
  O  O28  1  0.56625709  0.20742610  0.16795076  1
  O  O29  1  0.83839633  0.43838391  0.79332879  1
  O  O30  1  0.54379239  0.05753913  0.72334845  1
  O  O31  1  0.94079763  0.25551168  0.47961407  1
  O  O32  1  0.78445968  0.98107958  0.87045372  1
  O  O33  1  0.01139600  0.11826722  0.22417226  1
