# generated using pymatgen
data_Li5Cu6(P2O7)4
_symmetry_space_group_name_H-M   'P 1'
_cell_length_a   6.26491685
_cell_length_b   8.37397069
_cell_length_c   10.23645932
_cell_angle_alpha   104.42959099
_cell_angle_beta   90.97826372
_cell_angle_gamma   92.77743446
_symmetry_Int_Tables_number   1
_chemical_formula_structural   Li5Cu6(P2O7)4
_chemical_formula_sum   'Li5 Cu6 P8 O28'
_cell_volume   519.23989563
_cell_formula_units_Z   1
loop_
 _symmetry_equiv_pos_site_id
 _symmetry_equiv_pos_as_xyz
  1  'x, y, z'
loop_
 _atom_site_type_symbol
 _atom_site_label
 _atom_site_symmetry_multiplicity
 _atom_site_fract_x
 _atom_site_fract_y
 _atom_site_fract_z
 _atom_site_occupancy
  Li  Li0  1  0.01427054  0.15969867  0.61004041  1
  Li  Li1  1  0.09974340  0.61155816  0.12638550  1
  Li  Li2  1  0.50000000  0.50000000  0.50000000  1
  Li  Li3  1  0.90025660  0.38844184  0.87361450  1
  Li  Li4  1  0.98572946  0.84030133  0.38995959  1
  Cu  Cu5  1  0.00000000  0.50000000  0.50000000  1
  Cu  Cu6  1  0.30776404  0.88792303  0.64847366  1
  Cu  Cu7  1  0.35354799  0.88338826  0.05627723  1
  Cu  Cu8  1  0.50000000  0.50000000  0.00000000  1
  Cu  Cu9  1  0.64645201  0.11661174  0.94372277  1
  Cu  Cu10  1  0.69223596  0.11207697  0.35152634  1
  P  P11  1  0.15507407  0.20937014  0.02151171  1
  P  P12  1  0.18688465  0.18539035  0.31368246  1
  P  P13  1  0.26641660  0.53119418  0.73759811  1
  P  P14  1  0.46912898  0.76218118  0.31844337  1
  P  P15  1  0.53087102  0.23781882  0.68155663  1
  P  P16  1  0.73358340  0.46880582  0.26240189  1
  P  P17  1  0.81311535  0.81460965  0.68631754  1
  P  P18  1  0.84492593  0.79062986  0.97848829  1
  O  O19  1  0.04432194  0.83673161  0.07001333  1
  O  O20  1  0.01456864  0.08349633  0.36778866  1
  O  O21  1  0.06671832  0.41873716  0.72616766  1
  O  O22  1  0.08383116  0.20419668  0.17078719  1
  O  O23  1  0.22418216  0.38924893  0.02469204  1
  O  O24  1  0.22426049  0.35907450  0.40842666  1
  O  O25  1  0.24998437  0.64497892  0.63799109  1
  O  O26  1  0.29297105  0.80655261  0.41723734  1
  O  O27  1  0.34532134  0.62192090  0.87984086  1
  O  O28  1  0.32569358  0.12642400  0.65314871  1
  O  O29  1  0.33169940  0.08428519  0.97840239  1
  O  O30  1  0.39001660  0.72189661  0.16874539  1
  O  O31  1  0.39450100  0.09821469  0.27789110  1
  O  O32  1  0.45923650  0.41795907  0.66648811  1
  O  O33  1  0.54076350  0.58204093  0.33351189  1
  O  O34  1  0.60549900  0.90178531  0.72210890  1
  O  O35  1  0.60998340  0.27810339  0.83125461  1
  O  O36  1  0.66830060  0.91571481  0.02159761  1
  O  O37  1  0.67430642  0.87357600  0.34685129  1
  O  O38  1  0.65467866  0.37807910  0.12015914  1
  O  O39  1  0.70702895  0.19344739  0.58276266  1
  O  O40  1  0.75001563  0.35502108  0.36200891  1
  O  O41  1  0.77573951  0.64092550  0.59157334  1
  O  O42  1  0.77581784  0.61075107  0.97530796  1
  O  O43  1  0.91616884  0.79580332  0.82921281  1
  O  O44  1  0.93328168  0.58126284  0.27383234  1
  O  O45  1  0.98543136  0.91650367  0.63221134  1
  O  O46  1  0.95567806  0.16326839  0.92998667  1
