# generated using pymatgen
data_LiNbCoO4
_symmetry_space_group_name_H-M   'P 1'
_cell_length_a   6.09520704
_cell_length_b   6.09495739
_cell_length_c   8.66136045
_cell_angle_alpha   89.96978051
_cell_angle_beta   89.99450070
_cell_angle_gamma   89.86942624
_symmetry_Int_Tables_number   1
_chemical_formula_structural   LiNbCoO4
_chemical_formula_sum   'Li4 Nb4 Co4 O16'
_cell_volume   321.76889465
_cell_formula_units_Z   4
loop_
 _symmetry_equiv_pos_site_id
 _symmetry_equiv_pos_as_xyz
  1  'x, y, z'
loop_
 _atom_site_type_symbol
 _atom_site_label
 _atom_site_symmetry_multiplicity
 _atom_site_fract_x
 _atom_site_fract_y
 _atom_site_fract_z
 _atom_site_occupancy
  Li  Li0  1  0.00022230  0.23789194  0.00034430  1
  Li  Li1  1  0.00012644  0.76223876  0.49982618  1
  Li  Li2  1  0.23789064  0.99991981  0.25001055  1
  Li  Li3  1  0.76196811  0.99994264  0.74996239  1
  Nb  Nb4  1  0.25151997  0.25185378  0.62493150  1
  Nb  Nb5  1  0.25199920  0.74823284  0.87511448  1
  Nb  Nb6  1  0.74817110  0.25175447  0.37485558  1
  Nb  Nb7  1  0.74830014  0.74819219  0.12503442  1
  Co  Co8  1  0.24710762  0.50005408  0.25009275  1
  Co  Co9  1  0.49999596  0.24722545  0.00001684  1
  Co  Co10  1  0.50005990  0.75277256  0.49977998  1
  Co  Co11  1  0.75291435  0.50011326  0.75006766  1
  O  O12  1  0.00275152  0.25579111  0.25449667  1
  O  O13  1  0.00424828  0.74287463  0.24576585  1
  O  O14  1  0.25689242  0.00392573  0.99567499  1
  O  O15  1  0.25676815  0.99616301  0.50436496  1
  O  O16  1  0.25555651  0.49824714  0.00629962  1
  O  O17  1  0.25603772  0.50181491  0.49352682  1
  O  O18  1  0.49726257  0.25664636  0.24356703  1
  O  O19  1  0.49869535  0.74476190  0.25621182  1
  O  O20  1  0.50192766  0.25606500  0.75628212  1
  O  O21  1  0.50203738  0.74374819  0.74378848  1
  O  O22  1  0.74386545  0.50227889  0.50627373  1
  O  O23  1  0.74337653  0.49770079  0.99372931  1
  O  O24  1  0.74376876  0.00333910  0.00431282  1
  O  O25  1  0.74368912  0.99644829  0.49569941  1
  O  O26  1  0.99642403  0.25657942  0.74569285  1
  O  O27  1  0.99642281  0.74342374  0.75427689  1
