# generated using pymatgen
data_Gd2P4O13
_symmetry_space_group_name_H-M   'P 1'
_cell_length_a   6.85509731
_cell_length_b   6.93601989
_cell_length_c   13.13238955
_cell_angle_alpha   76.24407555
_cell_angle_beta   90.00000000
_cell_angle_gamma   60.38520158
_symmetry_Int_Tables_number   1
_chemical_formula_structural   Gd2P4O13
_chemical_formula_sum   'Gd4 P8 O26'
_cell_volume   522.13906440
_cell_formula_units_Z   2
loop_
 _symmetry_equiv_pos_site_id
 _symmetry_equiv_pos_as_xyz
  1  'x, y, z'
loop_
 _atom_site_type_symbol
 _atom_site_label
 _atom_site_symmetry_multiplicity
 _atom_site_fract_x
 _atom_site_fract_y
 _atom_site_fract_z
 _atom_site_occupancy
  Gd  Gd0  1  0.31179349  0.38096905  0.94928253  1
  Gd  Gd1  1  0.69276354  0.61903095  0.55071747  1
  Gd  Gd2  1  0.30723646  0.38096905  0.44928253  1
  Gd  Gd3  1  0.68820651  0.61903095  0.05071747  1
  P  P4  1  0.15649439  0.97839365  0.86504714  1
  P  P5  1  0.86511096  0.97839365  0.36504714  1
  P  P6  1  0.77369738  0.46536975  0.84102988  1
  P  P7  1  0.23906612  0.53463025  0.65897012  1
  P  P8  1  0.76093388  0.46536975  0.34102988  1
  P  P9  1  0.22630262  0.53463025  0.15897012  1
  P  P10  1  0.13488904  0.02160635  0.63495286  1
  P  P11  1  0.84350561  0.02160635  0.13495286  1
  O  O12  1  0.32091512  0.99315511  0.93726360  1
  O  O13  1  0.12205876  0.77693444  0.89594498  1
  O  O14  1  0.68592978  0.99315511  0.43726360  1
  O  O15  1  0.10140045  0.80518210  0.65381573  1
  O  O16  1  0.92508850  0.50982606  0.90643984  1
  O  O17  1  0.57649143  0.49949137  0.90451826  1
  O  O18  1  0.70604896  0.60034229  0.72597800  1
  O  O19  1  0.10100680  0.77693444  0.39594498  1
  O  O20  1  0.09341744  0.80518210  0.15381573  1
  O  O21  1  0.30639125  0.39965771  0.77402200  1
  O  O22  1  0.07598281  0.50050863  0.59548174  1
  O  O23  1  0.43491456  0.49017394  0.59356016  1
  O  O24  1  0.56508544  0.50982606  0.40643984  1
  O  O25  1  0.92401719  0.49949137  0.40451826  1
  O  O26  1  0.69360875  0.60034229  0.22597800  1
  O  O27  1  0.90658256  0.19481790  0.84618427  1
  O  O28  1  0.89899320  0.22306556  0.60405502  1
  O  O29  1  0.29395104  0.39965771  0.27402200  1
  O  O30  1  0.42350857  0.50050863  0.09548174  1
  O  O31  1  0.07491150  0.49017394  0.09356016  1
  O  O32  1  0.23953790  0.00000000  0.75000000  1
  O  O33  1  0.89859955  0.19481790  0.34618427  1
  O  O34  1  0.31407022  0.00684489  0.56273640  1
  O  O35  1  0.87794124  0.22306556  0.10405502  1
  O  O36  1  0.76046210  1.00000000  0.25000000  1
  O  O37  1  0.67908488  0.00684489  0.06273640  1
