# generated using pymatgen
data_Li6V3P8O29
_symmetry_space_group_name_H-M   'P 1'
_cell_length_a   9.81972604
_cell_length_b   9.81010021
_cell_length_c   13.92662888
_cell_angle_alpha   90.05465963
_cell_angle_beta   90.12706950
_cell_angle_gamma   60.06412506
_symmetry_Int_Tables_number   1
_chemical_formula_structural   Li6V3P8O29
_chemical_formula_sum   'Li12 V6 P16 O58'
_cell_volume   1162.59550353
_cell_formula_units_Z   2
loop_
 _symmetry_equiv_pos_site_id
 _symmetry_equiv_pos_as_xyz
  1  'x, y, z'
loop_
 _atom_site_type_symbol
 _atom_site_label
 _atom_site_symmetry_multiplicity
 _atom_site_fract_x
 _atom_site_fract_y
 _atom_site_fract_z
 _atom_site_occupancy
  Li  Li0  1  0.91008793  0.76648327  0.06024920  1
  Li  Li1  1  0.90618619  0.31958806  0.56167931  1
  Li  Li2  1  0.66385985  0.66710374  0.88442493  1
  Li  Li3  1  0.77141336  0.32617554  0.06029019  1
  Li  Li4  1  0.32816290  0.90677730  0.06127327  1
  Li  Li5  1  0.68978340  0.22312158  0.44169206  1
  Li  Li6  1  0.31729823  0.77223992  0.56277490  1
  Li  Li7  1  0.66692080  0.09873966  0.93777623  1
  Li  Li8  1  0.33489960  0.33516753  0.61421238  1
  Li  Li9  1  0.07920616  0.69681455  0.44004218  1
  Li  Li10  1  0.22400905  0.08841954  0.43951681  1
  Li  Li11  1  0.04146222  0.98598011  0.99236473  1
  V  V12  1  0.56653555  0.43403532  0.24859984  1
  V  V13  1  0.43062892  0.56444130  0.75410761  1
  V  V14  1  0.56785747  0.99785359  0.74523987  1
  V  V15  1  0.43340995  0.99963736  0.25035842  1
  V  V16  1  0.99902549  0.56715402  0.24848772  1
  V  V17  1  0.00415259  0.43299253  0.75471846  1
  P  P18  1  0.91048309  0.77601341  0.84291248  1
  P  P19  1  0.76918988  0.91428983  0.34044133  1
  P  P20  1  0.91265732  0.32123647  0.34350233  1
  P  P21  1  0.66659933  0.66689533  0.12520516  1
  P  P22  1  0.66643727  0.66143015  0.62850844  1
  P  P23  1  0.77366299  0.31694639  0.84217660  1
  P  P24  1  0.67731121  0.23105574  0.65662295  1
  P  P25  1  0.31678009  0.91005019  0.84469718  1
  P  P26  1  0.68319649  0.08681929  0.15574356  1
  P  P27  1  0.32092887  0.76548567  0.34382841  1
  P  P28  1  0.22469981  0.69067483  0.15829010  1
  P  P29  1  0.33240373  0.33448586  0.37148733  1
  P  P30  1  0.33773063  0.32856100  0.87326456  1
  P  P31  1  0.08892891  0.68072385  0.65641204  1
  P  P32  1  0.22926924  0.09129996  0.65893623  1
  P  P33  1  0.08507007  0.22456402  0.15854882  1
  O  O34  1  0.00109919  0.75533440  0.56678182  1
  O  O35  1  0.91421246  0.74716146  0.34074111  1
  O  O36  1  0.76876714  0.00553428  0.06469188  1
  O  O37  1  0.74454314  0.92285474  0.83862537  1
  O  O38  1  0.89236306  0.62723366  0.83154536  1
  O  O39  1  0.80987851  0.68025116  0.16368176  1
  O  O40  1  0.90027087  0.48157898  0.32171112  1
  O  O41  1  0.99602377  0.20633546  0.07663445  1
  O  O42  1  0.91792052  0.33684314  0.84029101  1
  O  O43  1  0.65520080  0.81466177  0.67478612  1
  O  O44  1  0.61758350  0.90468926  0.32136674  1
  O  O45  1  0.81998292  0.51801707  0.67147473  1
  O  O46  1  0.66717509  0.66601529  0.01671595  1
  O  O47  1  0.66310529  0.66119276  0.52187359  1
  O  O48  1  0.67994115  0.51025076  0.16384188  1
  O  O49  1  0.47906565  0.89952935  0.83437444  1
  O  O50  1  0.51074338  0.81063665  0.16329349  1
  O  O51  1  0.74808605  0.33720815  0.34200099  1
  O  O52  1  0.78443533  0.21536171  0.74884700  1
  O  O53  1  0.75665012  0.24797292  0.56895607  1
  O  O54  1  0.76963109  0.22878167  0.93028879  1
  O  O55  1  0.62467387  0.48197177  0.83239630  1
  O  O56  1  0.52087314  0.65592579  0.67148172  1
  O  O57  1  0.66245071  0.25509522  0.16127249  1
  O  O58  1  0.48159237  0.61836822  0.32130461  1
  O  O59  1  0.33606519  0.91470951  0.34236874  1
  O  O60  1  0.79550730  0.99266303  0.24444700  1
  O  O61  1  0.75808894  0.01015555  0.42569762  1
  O  O62  1  0.24779355  0.99559466  0.57005098  1
  O  O63  1  0.66052030  0.08450565  0.65755843  1
  O  O64  1  0.51124198  0.37584480  0.67105970  1
  O  O65  1  0.34014004  0.74429764  0.83747910  1
  O  O66  1  0.48527839  0.32894822  0.33217799  1
  O  O67  1  0.37968465  0.53553976  0.16694857  1
  O  O68  1  0.20744052  0.79904211  0.07740394  1
  O  O69  1  0.24988512  0.74927658  0.43557387  1
  O  O70  1  0.20378954  0.78624714  0.25785402  1
  O  O71  1  0.25269627  0.66796253  0.65969534  1
  O  O72  1  0.48498265  0.17910455  0.83000604  1
  O  O73  1  0.52580025  0.09437686  0.17044842  1
  O  O74  1  0.34076067  0.47437292  0.82743112  1
  O  O75  1  0.34545156  0.32643050  0.97960259  1
  O  O76  1  0.33272876  0.33595726  0.47976715  1
  O  O77  1  0.18504398  0.48718677  0.33215677  1
  O  O78  1  0.37077208  0.11861798  0.67332607  1
  O  O79  1  0.32621056  0.18589412  0.33459377  1
  O  O80  1  0.08250135  0.66150478  0.16029765  1
  O  O81  1  0.99980084  0.78614181  0.74946943  1
  O  O82  1  0.99245581  0.77973209  0.93299447  1
  O  O83  1  0.11377737  0.51272272  0.67416027  1
  O  O84  1  0.18579872  0.33591140  0.82902790  1
  O  O85  1  0.08505199  0.37984714  0.16725612  1
  O  O86  1  0.25633009  0.08233954  0.16207197  1
  O  O87  1  0.22758675  0.99127221  0.93385592  1
  O  O88  1  0.21335482  0.00356528  0.75137406  1
  O  O89  1  0.07823964  0.25307936  0.65706721  1
  O  O90  1  0.00021702  0.24927459  0.43558210  1
  O  O91  1  0.00911758  0.20410041  0.25772626  1
