# generated using pymatgen
data_Li3Ti(NiO2)4
_symmetry_space_group_name_H-M   'P 1'
_cell_length_a   5.89733177
_cell_length_b   5.89733148
_cell_length_c   5.92262908
_cell_angle_alpha   89.60203776
_cell_angle_beta   59.83292410
_cell_angle_gamma   59.84794823
_symmetry_Int_Tables_number   1
_chemical_formula_structural   Li3Ti(NiO2)4
_chemical_formula_sum   'Li3 Ti1 Ni4 O8'
_cell_volume   145.44990579
_cell_formula_units_Z   1
loop_
 _symmetry_equiv_pos_site_id
 _symmetry_equiv_pos_as_xyz
  1  'x, y, z'
loop_
 _atom_site_type_symbol
 _atom_site_label
 _atom_site_symmetry_multiplicity
 _atom_site_fract_x
 _atom_site_fract_y
 _atom_site_fract_z
 _atom_site_occupancy
  Li  Li0  1  0.00000000  0.00000000  0.50000000  1
  Li  Li1  1  0.50000000  0.00000000  0.50000000  1
  Li  Li2  1  0.50000000  0.50000000  0.50000000  1
  Ti  Ti3  1  0.50000000  0.50000000  0.00000000  1
  Ni  Ni4  1  0.00000000  0.50000000  0.50000000  1
  Ni  Ni5  1  0.00000000  0.00000000  0.00000000  1
  Ni  Ni6  1  0.50000000  0.00000000  0.00000000  1
  Ni  Ni7  1  0.00000000  0.50000000  0.00000000  1
  O  O8  1  0.48922022  0.26218869  0.77296848  1
  O  O9  1  0.97626611  0.26022212  0.76046493  1
  O  O10  1  0.49975719  0.73673104  0.76046493  1
  O  O11  1  0.98126800  0.74983648  0.76856949  1
  O  O12  1  0.01873200  0.25016352  0.23143051  1
  O  O13  1  0.50024281  0.26326896  0.23953507  1
  O  O14  1  0.02373389  0.73977788  0.23953507  1
  O  O15  1  0.51077978  0.73781131  0.22703152  1
