# generated using pymatgen
data_Mn5CoO12
_symmetry_space_group_name_H-M   'P 1'
_cell_length_a   5.03217443
_cell_length_b   5.03852950
_cell_length_c   9.62442701
_cell_angle_alpha   90.00205424
_cell_angle_beta   90.00411302
_cell_angle_gamma   60.04170763
_symmetry_Int_Tables_number   1
_chemical_formula_structural   Mn5CoO12
_chemical_formula_sum   'Mn5 Co1 O12'
_cell_volume   211.42063604
_cell_formula_units_Z   1
loop_
 _symmetry_equiv_pos_site_id
 _symmetry_equiv_pos_as_xyz
  1  'x, y, z'
loop_
 _atom_site_type_symbol
 _atom_site_label
 _atom_site_symmetry_multiplicity
 _atom_site_fract_x
 _atom_site_fract_y
 _atom_site_fract_z
 _atom_site_occupancy
  Mn  Mn0  1  0.16663595  0.66672811  0.50000000  1
  Mn  Mn1  1  0.66669708  0.66660585  1.00000000  1
  Mn  Mn2  1  0.33330292  0.33339415  0.00000000  1
  Mn  Mn3  1  0.83336405  0.33327189  0.50000000  1
  Mn  Mn4  1  0.50000000  0.00000000  0.50000000  1
  Co  Co5  1  0.00000000  0.00000000  0.00000000  1
  O  O6  1  0.00036176  0.67192613  0.09855358  1
  O  O7  1  0.32771212  0.67192613  0.90144642  1
  O  O8  1  0.16676918  0.33344082  0.39959950  1
  O  O9  1  0.50021000  0.66655918  0.39959950  1
  O  O10  1  0.49979000  0.33344082  0.60040050  1
  O  O11  1  0.16666947  1.00000000  0.60025682  1
  O  O12  1  0.83323082  0.66655918  0.60040050  1
  O  O13  1  0.67228788  0.32807387  0.09855358  1
  O  O14  1  0.32765104  1.00000000  0.09825224  1
  O  O15  1  0.99963824  0.32807387  0.90144642  1
  O  O16  1  0.67234896  0.00000000  0.90174776  1
  O  O17  1  0.83333053  0.00000000  0.39974318  1
