# generated using pymatgen
data_Li8Mn12Ni4O31
_symmetry_space_group_name_H-M   'P 1'
_cell_length_a   8.30962039
_cell_length_b   8.30185595
_cell_length_c   8.31159003
_cell_angle_alpha   89.69569385
_cell_angle_beta   89.42389492
_cell_angle_gamma   90.27382813
_symmetry_Int_Tables_number   1
_chemical_formula_structural   Li8Mn12Ni4O31
_chemical_formula_sum   'Li8 Mn12 Ni4 O31'
_cell_volume   573.33352807
_cell_formula_units_Z   1
loop_
 _symmetry_equiv_pos_site_id
 _symmetry_equiv_pos_as_xyz
  1  'x, y, z'
loop_
 _atom_site_type_symbol
 _atom_site_label
 _atom_site_symmetry_multiplicity
 _atom_site_fract_x
 _atom_site_fract_y
 _atom_site_fract_z
 _atom_site_occupancy
  Li  Li0  1  0.99979674  0.00290979  0.00733692  1
  Li  Li1  1  0.27386779  0.26928591  0.22072062  1
  Li  Li2  1  0.25421342  0.75197951  0.74642470  1
  Li  Li3  1  0.49416673  0.99658160  0.50423456  1
  Li  Li4  1  0.50420532  0.50014358  0.99484880  1
  Li  Li5  1  0.74985153  0.25197985  0.74977442  1
  Li  Li6  1  0.75306868  0.74818366  0.25161982  1
  Li  Li7  1  0.99441306  0.49827171  0.50062536  1
  Mn  Mn8  1  0.12691179  0.62524611  0.12176817  1
  Mn  Mn9  1  0.12532654  0.37765346  0.87500345  1
  Mn  Mn10  1  0.12552565  0.12388251  0.63896354  1
  Mn  Mn11  1  0.37730841  0.87142190  0.12479394  1
  Mn  Mn12  1  0.37547372  0.62080656  0.37230261  1
  Mn  Mn13  1  0.37196199  0.37436210  0.62349067  1
  Mn  Mn14  1  0.62896033  0.87621138  0.87728155  1
  Mn  Mn15  1  0.62175280  0.12315686  0.12745137  1
  Mn  Mn16  1  0.61960634  0.37120223  0.37368599  1
  Mn  Mn17  1  0.87900498  0.62857727  0.87488104  1
  Mn  Mn18  1  0.87749519  0.87697748  0.62656921  1
  Mn  Mn19  1  0.86080984  0.12216923  0.37705890  1
  Ni  Ni20  1  0.12481997  0.85818186  0.37790564  1
  Ni  Ni21  1  0.37509207  0.12589518  0.87654540  1
  Ni  Ni22  1  0.62562854  0.62500922  0.62452178  1
  Ni  Ni23  1  0.87256979  0.37490432  0.12466320  1
  O  O24  1  0.11141992  0.89441519  0.61667844  1
  O  O25  1  0.11407152  0.61606101  0.88674986  1
  O  O26  1  0.12868508  0.15329720  0.88353221  1
  O  O27  1  0.12315656  0.39484090  0.10458526  1
  O  O28  1  0.13673423  0.36114378  0.63814213  1
  O  O29  1  0.14188292  0.62043248  0.35218987  1
  O  O30  1  0.14706739  0.85838833  0.13094394  1
  O  O31  1  0.35480464  0.14244489  0.62752342  1
  O  O32  1  0.35822960  0.37674868  0.85202137  1
  O  O33  1  0.36320959  0.63612124  0.13602255  1
  O  O34  1  0.37594638  0.60699403  0.60109935  1
  O  O35  1  0.37090172  0.85123775  0.35805216  1
  O  O36  1  0.38347468  0.38639413  0.38656788  1
  O  O37  1  0.38969345  0.10016943  0.12292284  1
  O  O38  1  0.39891973  0.87474318  0.89299658  1
  O  O39  1  0.60138099  0.37621371  0.60623091  1
  O  O40  1  0.60653360  0.60247139  0.37473317  1
  O  O41  1  0.61220409  0.88643331  0.11350517  1
  O  O42  1  0.62265146  0.35302150  0.14091563  1
  O  O43  1  0.62434084  0.10729321  0.89639151  1
  O  O44  1  0.61311683  0.13956887  0.35947093  1
  O  O45  1  0.64549788  0.87491976  0.64682517  1
  O  O46  1  0.64956397  0.64384467  0.87391221  1
  O  O47  1  0.84970612  0.35595551  0.37350207  1
  O  O48  1  0.85300204  0.12572869  0.14675511  1
  O  O49  1  0.86548854  0.86509866  0.86188480  1
  O  O50  1  0.88472065  0.89092618  0.39527095  1
  O  O51  1  0.87500859  0.64782768  0.64272311  1
  O  O52  1  0.89337435  0.11277738  0.60902115  1
  O  O53  1  0.89306278  0.39912534  0.87651424  1
  O  O54  1  0.89808062  0.62492964  0.10721235  1
