# generated using pymatgen
data_ScMn2O5
_symmetry_space_group_name_H-M   'P 1'
_cell_length_a   7.10703781
_cell_length_b   8.30825654
_cell_length_c   5.72056422
_cell_angle_alpha   90.00000000
_cell_angle_beta   90.00000000
_cell_angle_gamma   90.00000000
_symmetry_Int_Tables_number   1
_chemical_formula_structural   ScMn2O5
_chemical_formula_sum   'Sc4 Mn8 O20'
_cell_volume   337.78268960
_cell_formula_units_Z   4
loop_
 _symmetry_equiv_pos_site_id
 _symmetry_equiv_pos_as_xyz
  1  'x, y, z'
loop_
 _atom_site_type_symbol
 _atom_site_label
 _atom_site_symmetry_multiplicity
 _atom_site_fract_x
 _atom_site_fract_y
 _atom_site_fract_z
 _atom_site_occupancy
  Sc  Sc0  1  0.14049362  0.16650555  0.00000000  1
  Sc  Sc1  1  0.35950638  0.66650555  0.00000000  1
  Sc  Sc2  1  0.64049362  0.33349445  0.00000000  1
  Sc  Sc3  1  0.85950638  0.83349445  0.00000000  1
  Mn  Mn4  1  0.00000000  0.50000000  0.25052491  1
  Mn  Mn5  1  0.00000000  0.50000000  0.74947509  1
  Mn  Mn6  1  0.08619829  0.84516538  0.50000000  1
  Mn  Mn7  1  0.41380171  0.34516638  0.50000000  1
  Mn  Mn8  1  0.50000000  0.00000000  0.25052491  1
  Mn  Mn9  1  0.50000000  0.00000000  0.74947509  1
  Mn  Mn10  1  0.58619829  0.65483462  0.50000000  1
  Mn  Mn11  1  0.91380171  0.15483362  0.50000000  1
  O  O12  1  0.00000000  0.00000000  0.26053012  1
  O  O13  1  0.00000000  0.00000000  0.73946988  1
  O  O14  1  0.12135799  0.70500005  0.23340068  1
  O  O15  1  0.12135799  0.70500005  0.76659932  1
  O  O16  1  0.14782902  0.42195620  0.50000000  1
  O  O17  1  0.16672173  0.43331571  0.00000000  1
  O  O18  1  0.33327827  0.93331571  0.00000000  1
  O  O19  1  0.35217098  0.92195620  0.50000000  1
  O  O20  1  0.37864201  0.20500005  0.23340068  1
  O  O21  1  0.37864201  0.20500005  0.76659932  1
  O  O22  1  0.50000000  0.50000000  0.26053012  1
  O  O23  1  0.50000000  0.50000000  0.73946988  1
  O  O24  1  0.62135799  0.79499995  0.23340068  1
  O  O25  1  0.62135799  0.79499995  0.76659932  1
  O  O26  1  0.64782902  0.07804380  0.50000000  1
  O  O27  1  0.66672173  0.06668429  0.00000000  1
  O  O28  1  0.83327827  0.56668429  0.00000000  1
  O  O29  1  0.85217098  0.57804380  0.50000000  1
  O  O30  1  0.87864201  0.29499995  0.23340068  1
  O  O31  1  0.87864201  0.29499995  0.76659932  1
