# generated using pymatgen
data_Li6V3P8O29
_symmetry_space_group_name_H-M   'P 1'
_cell_length_a   9.83501143
_cell_length_b   9.83383553
_cell_length_c   14.02305751
_cell_angle_alpha   89.16735170
_cell_angle_beta   89.13411199
_cell_angle_gamma   59.50361204
_symmetry_Int_Tables_number   1
_chemical_formula_structural   Li6V3P8O29
_chemical_formula_sum   'Li12 V6 P16 O58'
_cell_volume   1168.45950108
_cell_formula_units_Z   2
loop_
 _symmetry_equiv_pos_site_id
 _symmetry_equiv_pos_as_xyz
  1  'x, y, z'
loop_
 _atom_site_type_symbol
 _atom_site_label
 _atom_site_symmetry_multiplicity
 _atom_site_fract_x
 _atom_site_fract_y
 _atom_site_fract_z
 _atom_site_occupancy
  Li  Li0  1  0.89860656  0.75936841  0.06341384  1
  Li  Li1  1  0.75913877  0.89807469  0.56312655  1
  Li  Li2  1  0.89738638  0.33395510  0.55694126  1
  Li  Li3  1  0.76575699  0.33334452  0.06070413  1
  Li  Li4  1  0.33567474  0.89781520  0.05644475  1
  Li  Li5  1  0.33445376  0.76573187  0.56018181  1
  Li  Li6  1  0.34055717  0.34727884  0.60764869  1
  Li  Li7  1  0.34553400  0.34248366  0.10705070  1
  Li  Li8  1  0.23035431  0.08977460  0.43639282  1
  Li  Li9  1  0.08820157  0.23169331  0.93616275  1
  Li  Li10  1  0.98170254  0.96673252  0.99622783  1
  Li  Li11  1  0.96477742  0.98195539  0.49720680  1
  V  V12  1  0.56330497  0.43563443  0.25408626  1
  V  V13  1  0.43609039  0.56378443  0.75450834  1
  V  V14  1  0.56840495  0.99910703  0.75203952  1
  V  V15  1  0.43837740  0.99759609  0.24851686  1
  V  V16  1  0.99914080  0.56868402  0.25224512  1
  V  V17  1  0.99791082  0.43827282  0.74812806  1
  P  P18  1  0.91540455  0.77018882  0.84493283  1
  P  P19  1  0.77104591  0.91516320  0.34474951  1
  P  P20  1  0.91278994  0.31210501  0.34045273  1
  P  P21  1  0.66902071  0.66249244  0.12968776  1
  P  P22  1  0.66304116  0.66799245  0.62941780  1
  P  P23  1  0.77447173  0.30907206  0.84653361  1
  P  P24  1  0.69607371  0.21819421  0.66188431  1
  P  P25  1  0.31079676  0.91465192  0.84085919  1
  P  P26  1  0.69576007  0.08794307  0.16008343  1
  P  P27  1  0.30973329  0.77427482  0.34603960  1
  P  P28  1  0.21878613  0.69618766  0.16140569  1
  P  P29  1  0.32981775  0.33300249  0.36836261  1
  P  P30  1  0.33326467  0.33012791  0.86778752  1
  P  P31  1  0.08824140  0.69618550  0.66019302  1
  P  P32  1  0.22958803  0.09365201  0.65688318  1
  P  P33  1  0.09369964  0.22936266  0.15705011  1
  O  O34  1  0.98599822  0.80351364  0.58228699  1
  O  O35  1  0.91001980  0.74550970  0.33212037  1
  O  O36  1  0.80317523  0.98620266  0.08193292  1
  O  O37  1  0.74626641  0.90814175  0.83163679  1
  O  O38  1  0.91841455  0.61278761  0.82932131  1
  O  O39  1  0.81505476  0.66734911  0.16774297  1
  O  O40  1  0.90999950  0.46815840  0.32514648  1
  O  O41  1  0.00270388  0.23691427  0.06935747  1
  O  O42  1  0.91971538  0.33115016  0.83270719  1
  O  O43  1  0.66887506  0.81379895  0.66733533  1
  O  O44  1  0.61424058  0.91747438  0.32905955  1
  O  O45  1  0.81360415  0.51464006  0.66741090  1
  O  O46  1  0.66961149  0.65722997  0.02320834  1
  O  O47  1  0.65345969  0.66911368  0.52315434  1
  O  O48  1  0.66998991  0.51361460  0.17430529  1
  O  O49  1  0.46541727  0.91539460  0.82764674  1
  O  O50  1  0.51609787  0.81194086  0.16909700  1
  O  O51  1  0.74852330  0.33427108  0.33705372  1
  O  O52  1  0.78588160  0.19494532  0.76160180  1
  O  O53  1  0.80576023  0.20421447  0.58196360  1
  O  O54  1  0.79097946  0.22527195  0.93976434  1
  O  O55  1  0.61990505  0.46741521  0.83406151  1
  O  O56  1  0.51540966  0.66922054  0.67609844  1
  O  O57  1  0.66491260  0.25776615  0.15560134  1
  O  O58  1  0.46848673  0.62036099  0.33255654  1
  O  O59  1  0.33129782  0.92002161  0.33304762  1
  O  O60  1  0.78647456  0.01783008  0.26037859  1
  O  O61  1  0.78006103  0.98119484  0.43831951  1
  O  O62  1  0.23730081  0.00249265  0.56926196  1
  O  O63  1  0.66359100  0.07931827  0.65841122  1
  O  O64  1  0.53389066  0.37388796  0.66641578  1
  O  O65  1  0.33597585  0.74918346  0.83725809  1
  O  O66  1  0.47870995  0.33057886  0.32252312  1
  O  O67  1  0.37367221  0.53344910  0.16644096  1
  O  O68  1  0.20677801  0.80470864  0.08125919  1
  O  O69  1  0.22692716  0.78898048  0.43931481  1
  O  O70  1  0.19549274  0.78681327  0.26090602  1
  O  O71  1  0.25790385  0.66610947  0.65570932  1
  O  O72  1  0.48375573  0.18799144  0.82539372  1
  O  O73  1  0.53251445  0.09869853  0.16774306  1
  O  O74  1  0.32978274  0.47941431  0.82198676  1
  O  O75  1  0.33044641  0.33191727  0.97470515  1
  O  O76  1  0.33137971  0.32987098  0.47523749  1
  O  O77  1  0.18737861  0.48291670  0.32626242  1
  O  O78  1  0.37781327  0.10775222  0.67015623  1
  O  O79  1  0.32571768  0.18515049  0.32998000  1
  O  O80  1  0.07906325  0.66492936  0.15840618  1
  O  O81  1  0.01818839  0.78585762  0.76066687  1
  O  O82  1  0.98138342  0.77973403  0.93850584  1
  O  O83  1  0.09957040  0.53244567  0.66756800  1
  O  O84  1  0.18573221  0.32511499  0.82974567  1
  O  O85  1  0.10762458  0.37775591  0.17011706  1
  O  O86  1  0.26357053  0.08366127  0.15410356  1
  O  O87  1  0.22200578  0.00088650  0.93030409  1
  O  O88  1  0.20244732  0.01142885  0.74918517  1
  O  O89  1  0.08405921  0.26343588  0.65368050  1
  O  O90  1  -0.00042810  0.22579832  0.43020860  1
  O  O91  1  0.01078639  0.20281673  0.24918417  1
