# generated using pymatgen
data_Na2LiFePCO7
_symmetry_space_group_name_H-M   'P 1'
_cell_length_a   8.91014833
_cell_length_b   6.61533118
_cell_length_c   10.30112107
_cell_angle_alpha   90.00000000
_cell_angle_beta   88.38739505
_cell_angle_gamma   90.00000000
_symmetry_Int_Tables_number   1
_chemical_formula_structural   Na2LiFePCO7
_chemical_formula_sum   'Na8 Li4 Fe4 P4 C4 O28'
_cell_volume   606.94449855
_cell_formula_units_Z   4
loop_
 _symmetry_equiv_pos_site_id
 _symmetry_equiv_pos_as_xyz
  1  'x, y, z'
loop_
 _atom_site_type_symbol
 _atom_site_label
 _atom_site_symmetry_multiplicity
 _atom_site_fract_x
 _atom_site_fract_y
 _atom_site_fract_z
 _atom_site_occupancy
  Na  Na0  1  0.08335352  0.25117150  0.88016034  1
  Na  Na1  1  0.08335352  0.24882850  0.38016034  1
  Na  Na2  1  0.26172507  0.99940369  0.62652765  1
  Na  Na3  1  0.26172507  0.50059631  0.12652765  1
  Na  Na4  1  0.73901443  0.50218252  0.87412746  1
  Na  Na5  1  0.73795808  0.99935541  0.87467749  1
  Na  Na6  1  0.73795808  0.50064459  0.37467749  1
  Na  Na7  1  0.73901443  0.99781748  0.37412746  1
  Li  Li8  1  0.27333945  0.49054153  0.62259322  1
  Li  Li9  1  0.27333945  0.00945847  0.12259322  1
  Li  Li10  1  0.91575462  0.74209952  0.62553996  1
  Li  Li11  1  0.91575462  0.75790048  0.12553996  1
  Fe  Fe12  1  0.34894658  0.75221920  0.89180102  1
  Fe  Fe13  1  0.34894658  0.74778080  0.39180102  1
  Fe  Fe14  1  0.64837281  0.24893582  0.60950268  1
  Fe  Fe15  1  0.64837281  0.25106418  0.10950268  1
  P  P16  1  0.41126265  0.25527930  0.85295113  1
  P  P17  1  0.41126265  0.24472070  0.35295113  1
  P  P18  1  0.58709628  0.74407240  0.64999412  1
  P  P19  1  0.58709628  0.75592760  0.14999412  1
  C  C20  1  0.05325676  0.74810152  0.86089176  1
  C  C21  1  0.05325676  0.75189848  0.36089176  1
  C  C22  1  0.94678836  0.25844047  0.63437951  1
  C  C23  1  0.94678836  0.24155953  0.13437951  1
  O  O24  1  0.09098919  0.27678983  0.63975950  1
  O  O25  1  0.09098919  0.22321017  0.13975950  1
  O  O26  1  0.09447730  0.74998330  0.98115023  1
  O  O27  1  0.09447730  0.75001670  0.48115023  1
  O  O28  1  0.15440983  0.74423866  0.76625184  1
  O  O29  1  0.15440983  0.75576134  0.26625184  1
  O  O30  1  0.31576395  0.06582263  0.89316220  1
  O  O31  1  0.31653603  0.44179155  0.89797487  1
  O  O32  1  0.31653603  0.05820845  0.39797487  1
  O  O33  1  0.31576395  0.43417737  0.39316220  1
  O  O34  1  0.43075048  0.26407024  0.70150037  1
  O  O35  1  0.43364585  0.72883257  0.58439343  1
  O  O36  1  0.43075048  0.23592976  0.20150037  1
  O  O37  1  0.43364585  0.77116743  0.08439343  1
  O  O38  1  0.56533890  0.25105334  0.91654302  1
  O  O39  1  0.56184178  0.74861456  0.80005967  1
  O  O40  1  0.56533890  0.24894666  0.41654302  1
  O  O41  1  0.56184178  0.75138544  0.30005967  1
  O  O42  1  0.69252826  0.56209941  0.61301896  1
  O  O43  1  0.67965189  0.93497544  0.60741022  1
  O  O44  1  0.67965189  0.56502456  0.10741022  1
  O  O45  1  0.69252826  0.93790059  0.11301896  1
  O  O46  1  0.86335049  0.24794053  0.74064435  1
  O  O47  1  0.86335049  0.25205947  0.24064435  1
  O  O48  1  0.88098249  0.24919466  0.52323072  1
  O  O49  1  0.88098249  0.25080534  0.02323072  1
  O  O50  1  0.91286396  0.75059687  0.83175529  1
  O  O51  1  0.91286396  0.74940313  0.33175529  1
