# generated using pymatgen
data_La4(B2O5)3
_symmetry_space_group_name_H-M   'P 1'
_cell_length_a   4.53172329
_cell_length_b   6.52669526
_cell_length_c   19.83799667
_cell_angle_alpha   82.93915780
_cell_angle_beta   90.00000000
_cell_angle_gamma   69.68578727
_symmetry_Int_Tables_number   1
_chemical_formula_structural   La4(B2O5)3
_chemical_formula_sum   'La8 B12 O30'
_cell_volume   545.51020566
_cell_formula_units_Z   2
loop_
 _symmetry_equiv_pos_site_id
 _symmetry_equiv_pos_as_xyz
  1  'x, y, z'
loop_
 _atom_site_type_symbol
 _atom_site_label
 _atom_site_symmetry_multiplicity
 _atom_site_fract_x
 _atom_site_fract_y
 _atom_site_fract_z
 _atom_site_occupancy
  La  La0  1  0.35646727  0.71864913  0.80421388  1
  La  La1  1  0.33857391  0.74875914  0.59459754  1
  La  La2  1  0.92488460  0.71864913  0.30421388  1
  La  La3  1  0.91266695  0.74875914  0.09459754  1
  La  La4  1  0.08733305  0.25124086  0.90540246  1
  La  La5  1  0.07511540  0.28135087  0.69578612  1
  La  La6  1  0.66142609  0.25124086  0.40540246  1
  La  La7  1  0.64353273  0.28135087  0.19578612  1
  B  B8  1  0.81075705  0.79738350  0.91174762  1
  B  B9  1  0.78691726  0.87472585  0.69458058  1
  B  B10  1  0.37072484  0.65628135  0.97338904  1
  B  B11  1  0.39185945  0.79738350  0.41174762  1
  B  B12  1  0.33835689  0.87472585  0.19458058  1
  B  B13  1  0.97299382  0.65628135  0.47338904  1
  B  B14  1  0.02700618  0.34371865  0.52661096  1
  B  B15  1  0.66164311  0.12527415  0.80541942  1
  B  B16  1  0.60814055  0.20261650  0.58825238  1
  B  B17  1  0.62927516  0.34371865  0.02661096  1
  B  B18  1  0.21308274  0.12527415  0.30541942  1
  B  B19  1  0.18924295  0.20261650  0.08825238  1
  O  O20  1  0.82298436  0.98602390  0.62388104  1
  O  O21  1  0.48042244  0.81995480  0.93380276  1
  O  O22  1  0.46795564  0.87591651  0.69656431  1
  O  O23  1  0.02524621  0.74306636  0.97339137  1
  O  O24  1  0.19099174  0.98602390  0.12388104  1
  O  O25  1  0.69962276  0.81995480  0.43380276  1
  O  O26  1  0.91293137  0.63458432  0.86447043  1
  O  O27  1  0.65612786  0.87591651  0.19656431  1
  O  O28  1  0.23168743  0.74306636  0.47339137  1
  O  O29  1  0.03177967  0.65608688  0.70227973  1
  O  O30  1  0.92461831  0.57808494  0.54686963  1
  O  O31  1  0.50270325  0.42191506  0.95313037  1
  O  O32  1  0.45248431  0.63458432  0.36447043  1
  O  O33  1  0.31213245  0.65608688  0.20227973  1
  O  O34  1  0.68786755  0.34391312  0.79772027  1
  O  O35  1  0.54751569  0.36541568  0.63552957  1
  O  O36  1  0.49729675  0.57808494  0.04686963  1
  O  O37  1  0.07538169  0.42191506  0.45313037  1
  O  O38  1  0.96822033  0.34391312  0.29772027  1
  O  O39  1  0.76831257  0.25693364  0.52660863  1
  O  O40  1  0.34387214  0.12408349  0.80343569  1
  O  O41  1  0.08706863  0.36541568  0.13552957  1
  O  O42  1  0.30037724  0.18004520  0.56619724  1
  O  O43  1  0.80900826  0.01397610  0.87611896  1
  O  O44  1  0.85306121  0.00000000  0.75000000  1
  O  O45  1  0.97475379  0.25693364  0.02660863  1
  O  O46  1  0.53204436  0.12408349  0.30343569  1
  O  O47  1  0.51957756  0.18004520  0.06619724  1
  O  O48  1  0.17701564  0.01397610  0.37611896  1
  O  O49  1  0.14693879  0.00000000  0.25000000  1
