# generated using pymatgen
data_Li6V3P8O29
_symmetry_space_group_name_H-M   'P 1'
_cell_length_a   9.83837473
_cell_length_b   9.81656474
_cell_length_c   14.03662729
_cell_angle_alpha   89.54656676
_cell_angle_beta   90.11139512
_cell_angle_gamma   59.86689120
_symmetry_Int_Tables_number   1
_chemical_formula_structural   Li6V3P8O29
_chemical_formula_sum   'Li12 V6 P16 O58'
_cell_volume   1172.38013278
_cell_formula_units_Z   2
loop_
 _symmetry_equiv_pos_site_id
 _symmetry_equiv_pos_as_xyz
  1  'x, y, z'
loop_
 _atom_site_type_symbol
 _atom_site_label
 _atom_site_symmetry_multiplicity
 _atom_site_fract_x
 _atom_site_fract_y
 _atom_site_fract_z
 _atom_site_occupancy
  Li  Li0  1  0.89636035  0.75934371  0.06219713  1
  Li  Li1  1  0.76514700  0.90169515  0.56116341  1
  Li  Li2  1  0.90500602  0.32948625  0.55725434  1
  Li  Li3  1  0.76584858  0.32766657  0.05693519  1
  Li  Li4  1  0.33193072  0.90177229  0.06060937  1
  Li  Li5  1  0.68299360  0.23047533  0.43776322  1
  Li  Li6  1  0.34375230  0.75783998  0.56205926  1
  Li  Li7  1  0.32418458  0.33923331  0.60799617  1
  Li  Li8  1  0.33688365  0.33942403  0.10833739  1
  Li  Li9  1  0.08655895  0.22971597  0.93924457  1
  Li  Li10  1  0.98043748  0.96901807  0.99719695  1
  Li  Li11  1  0.05064563  0.96922003  0.49855112  1
  V  V12  1  0.56076376  0.44113572  0.24788843  1
  V  V13  1  0.43288776  0.56500178  0.75736502  1
  V  V14  1  0.56647171  0.99897354  0.74952609  1
  V  V15  1  0.43872743  0.99856911  0.24972545  1
  V  V16  1  0.00171667  0.56488565  0.25600769  1
  V  V17  1  0.99831455  0.44025625  0.74752496  1
  P  P18  1  0.91349093  0.77269465  0.84346532  1
  P  P19  1  0.77257461  0.91568606  0.34399534  1
  P  P20  1  0.91454667  0.30953943  0.34303868  1
  P  P21  1  0.66977860  0.66608000  0.12940730  1
  P  P22  1  0.66354453  0.66527152  0.62996140  1
  P  P23  1  0.77715190  0.30833257  0.84302641  1
  P  P24  1  0.68028150  0.22956979  0.65877828  1
  P  P25  1  0.31313689  0.91573103  0.84480407  1
  P  P26  1  0.69254984  0.08815227  0.15886245  1
  P  P27  1  0.31308922  0.77393376  0.34457890  1
  P  P28  1  0.21418036  0.69743425  0.16132912  1
  P  P29  1  0.33760538  0.32963656  0.36795939  1
  P  P30  1  0.33298181  0.33068298  0.86829520  1
  P  P31  1  0.08813417  0.69751899  0.66077575  1
  P  P32  1  0.22061432  0.08717746  0.65930321  1
  P  P33  1  0.09092027  0.22807298  0.15943433  1
  O  O34  1  0.99044181  0.80387012  0.58096356  1
  O  O35  1  0.91460311  0.75109912  0.33712887  1
  O  O36  1  0.79972159  0.98831183  0.08137373  1
  O  O37  1  0.74569897  0.91431978  0.82606393  1
  O  O38  1  0.91136336  0.61850257  0.82971785  1
  O  O39  1  0.81642325  0.66660731  0.17396090  1
  O  O40  1  0.91213905  0.46692031  0.33185545  1
  O  O41  1  0.99748262  0.23761644  0.07159145  1
  O  O42  1  0.92021263  0.33300204  0.83561749  1
  O  O43  1  0.66881104  0.81354266  0.66436463  1
  O  O44  1  0.62003272  0.91039927  0.32749121  1
  O  O45  1  0.81582604  0.51451410  0.67232586  1
  O  O46  1  0.67895138  0.65881832  0.02359766  1
  O  O47  1  0.66334467  0.65426727  0.52422817  1
  O  O48  1  0.66817368  0.51626573  0.17113617  1
  O  O49  1  0.46813656  0.91304789  0.82727510  1
  O  O50  1  0.51714867  0.81533647  0.16564995  1
  O  O51  1  0.74717718  0.33345822  0.33449262  1
  O  O52  1  0.78936050  0.20372412  0.75039446  1
  O  O53  1  0.76393205  0.23819571  0.57076330  1
  O  O54  1  0.79079032  0.21860153  0.93299848  1
  O  O55  1  0.62238061  0.46627216  0.83229250  1
  O  O56  1  0.51733408  0.66531221  0.67494844  1
  O  O57  1  0.65762739  0.26056896  0.15297315  1
  O  O58  1  0.46750577  0.61473826  0.33090520  1
  O  O59  1  0.34081691  0.91181110  0.32834743  1
  O  O60  1  0.78418593  0.02107748  0.25904311  1
  O  O61  1  0.76830001  0.99841141  0.43532950  1
  O  O62  1  0.21472888  0.98721685  0.58118765  1
  O  O63  1  0.65808024  0.08423109  0.65475076  1
  O  O64  1  0.51668686  0.37754727  0.67185218  1
  O  O65  1  0.33680962  0.75039933  0.83849038  1
  O  O66  1  0.48743532  0.32809410  0.32691278  1
  O  O67  1  0.36804347  0.53216672  0.16826594  1
  O  O68  1  0.20743419  0.80085349  0.08028481  1
  O  O69  1  0.23577213  0.78450429  0.43811599  1
  O  O70  1  0.19556304  0.78685824  0.26016457  1
  O  O71  1  0.25772098  0.66577789  0.65867115  1
  O  O72  1  0.47783691  0.19065205  0.82308208  1
  O  O73  1  0.53101955  0.09622025  0.16530270  1
  O  O74  1  0.32864311  0.48295271  0.82727652  1
  O  O75  1  0.32735434  0.32925385  0.97460345  1
  O  O76  1  0.34409734  0.32559818  0.47435995  1
  O  O77  1  0.18916939  0.48041110  0.32714803  1
  O  O78  1  0.37551481  0.09392883  0.66662763  1
  O  O79  1  0.33543210  0.18600277  0.32281813  1
  O  O80  1  0.07552146  0.66641838  0.15885490  1
  O  O81  1  0.01855708  0.78610565  0.76079995  1
  O  O82  1  0.97662802  0.78501088  0.93790017  1
  O  O83  1  0.09670717  0.53375343  0.66679533  1
  O  O84  1  0.18298990  0.33152656  0.82591605  1
  O  O85  1  0.10692520  0.37627826  0.17232174  1
  O  O86  1  0.25783785  0.08310972  0.15554116  1
  O  O87  1  0.23125443  0.99849495  0.93550963  1
  O  O88  1  0.19592111  0.02048422  0.75898835  1
  O  O89  1  0.08327760  0.25934805  0.65268570  1
  O  O90  1  0.98920000  0.22144875  0.43385789  1
  O  O91  1  0.00850829  0.20347169  0.25162736  1
