# generated using pymatgen
data_Li4MnCo2O7
_symmetry_space_group_name_H-M   'P 1'
_cell_length_a   3.02558502
_cell_length_b   10.68971737
_cell_length_c   8.03757082
_cell_angle_alpha   78.47325512
_cell_angle_beta   89.09889936
_cell_angle_gamma   86.75076187
_symmetry_Int_Tables_number   1
_chemical_formula_structural   Li4MnCo2O7
_chemical_formula_sum   'Li8 Mn2 Co4 O14'
_cell_volume   254.30136584
_cell_formula_units_Z   2
loop_
 _symmetry_equiv_pos_site_id
 _symmetry_equiv_pos_as_xyz
  1  'x, y, z'
loop_
 _atom_site_type_symbol
 _atom_site_label
 _atom_site_symmetry_multiplicity
 _atom_site_fract_x
 _atom_site_fract_y
 _atom_site_fract_z
 _atom_site_occupancy
  Li  Li0  1  0.85564333  0.28911679  0.93140031  1
  Li  Li1  1  0.14480234  0.71313203  0.07019381  1
  Li  Li2  1  0.42593804  0.14493706  0.21683180  1
  Li  Li3  1  0.28646440  0.42837400  0.64300960  1
  Li  Li4  1  0.57259395  0.85680381  0.78609346  1
  Li  Li5  1  0.71461122  0.56708751  0.35259599  1
  Li  Li6  1  0.99855601  0.00067809  0.49965916  1
  Li  Li7  1  0.28543682  0.42804722  0.14316706  1
  Mn  Mn8  1  0.00049039  0.00096100  0.99924335  1
  Mn  Mn9  1  0.14468130  0.71329548  0.57322197  1
  Co  Co10  1  0.57093920  0.85686887  0.28569324  1
  Co  Co11  1  0.85270078  0.29195500  0.41738020  1
  Co  Co12  1  0.42639482  0.14469354  0.71073886  1
  Co  Co13  1  0.72129322  0.56408688  0.87008521  1
  O  O14  1  0.40880748  0.14131422  0.95292068  1
  O  O15  1  0.70750077  0.57358870  0.08365911  1
  O  O16  1  0.97991603  0.99208427  0.24468757  1
  O  O17  1  0.83916592  0.27688338  0.66034345  1
  O  O18  1  0.12277223  0.70637766  0.81603049  1
  O  O19  1  0.27015783  0.41788836  0.39693100  1
  O  O20  1  0.55217540  0.85328505  0.52544546  1
  O  O21  1  0.29983329  0.43890088  0.88983601  1
  O  O22  1  0.59042199  0.86199642  0.04574900  1
  O  O23  1  0.86426750  0.28177017  0.20375489  1
  O  O24  1  0.73134690  0.57554768  0.62564001  1
  O  O25  1  0.02049416  0.00745808  0.75460252  1
  O  O26  1  0.16441368  0.72006014  0.32735207  1
  O  O27  1  0.44818099  0.15280771  0.47373373  1
