# generated using pymatgen
data_Sc6N2O5
_symmetry_space_group_name_H-M   'P 1'
_cell_length_a   5.46561549
_cell_length_b   5.47295985
_cell_length_c   5.46964116
_cell_angle_alpha   80.20089782
_cell_angle_beta   99.69275968
_cell_angle_gamma   80.15902733
_symmetry_Int_Tables_number   1
_chemical_formula_structural   Sc6N2O5
_chemical_formula_sum   'Sc6 N2 O5'
_cell_volume   155.53483182
_cell_formula_units_Z   1
loop_
 _symmetry_equiv_pos_site_id
 _symmetry_equiv_pos_as_xyz
  1  'x, y, z'
loop_
 _atom_site_type_symbol
 _atom_site_label
 _atom_site_symmetry_multiplicity
 _atom_site_fract_x
 _atom_site_fract_y
 _atom_site_fract_z
 _atom_site_occupancy
  Sc  Sc0  1  0.15422397  0.72376931  0.57403740  1
  Sc  Sc1  1  0.71808091  0.56838535  0.85246044  1
  Sc  Sc2  1  0.43382616  0.14006818  0.72601093  1
  Sc  Sc3  1  0.56312180  0.85118537  0.27058663  1
  Sc  Sc4  1  0.27848437  0.44374934  0.14191695  1
  Sc  Sc5  1  0.85229837  0.27658328  0.43569034  1
  N  N6  1  0.37514962  0.77640334  0.92220260  1
  N  N7  1  0.50161300  0.49913724  0.49942434  1
  O  O8  1  0.07607208  0.37590314  0.77215548  1
  O  O9  1  0.77638617  0.92424492  0.62212850  1
  O  O10  1  0.22229197  0.07945474  0.37701737  1
  O  O11  1  0.92196695  0.61950014  0.22601244  1
  O  O12  1  0.62648262  0.22161566  0.08035759  1
