# generated using pymatgen
data_Li6V3P8O29
_symmetry_space_group_name_H-M   'P 1'
_cell_length_a   9.80824935
_cell_length_b   9.83369835
_cell_length_c   14.01527655
_cell_angle_alpha   90.50510407
_cell_angle_beta   90.66705672
_cell_angle_gamma   60.04228381
_symmetry_Int_Tables_number   1
_chemical_formula_structural   Li6V3P8O29
_chemical_formula_sum   'Li12 V6 P16 O58'
_cell_volume   1171.09878023
_cell_formula_units_Z   2
loop_
 _symmetry_equiv_pos_site_id
 _symmetry_equiv_pos_as_xyz
  1  'x, y, z'
loop_
 _atom_site_type_symbol
 _atom_site_label
 _atom_site_symmetry_multiplicity
 _atom_site_fract_x
 _atom_site_fract_y
 _atom_site_fract_z
 _atom_site_occupancy
  Li  Li0  1  0.76596373  0.90720963  0.55399069  1
  Li  Li1  1  0.90859616  0.33153577  0.55684204  1
  Li  Li2  1  0.67660069  0.66849648  0.89019404  1
  Li  Li3  1  0.77158365  0.31344631  0.06588520  1
  Li  Li4  1  0.32020348  0.90610271  0.06844210  1
  Li  Li5  1  0.66248366  0.23810995  0.43496620  1
  Li  Li6  1  0.33380598  0.76524097  0.55629539  1
  Li  Li7  1  0.69833832  0.08070435  0.94390248  1
  Li  Li8  1  0.22647677  0.68147835  0.94549527  1
  Li  Li9  1  0.10122203  0.66544961  0.43462747  1
  Li  Li10  1  0.09271676  0.22153493  0.94584981  1
  Li  Li11  1  0.04206353  0.01037891  0.48197955  1
  V  V12  1  0.56370190  0.43191207  0.24893521  1
  V  V13  1  0.43211037  0.56823233  0.74714633  1
  V  V14  1  0.56235217  0.00049283  0.74744737  1
  V  V15  1  0.42983723  0.00501218  0.25441893  1
  V  V16  1  0.99866061  0.56620084  0.24909037  1
  V  V17  1  0.00007495  0.43637779  0.75035550  1
  P  P18  1  0.91255273  0.77421309  0.84001158  1
  P  P19  1  0.77484341  0.91535517  0.34190002  1
  P  P20  1  0.91295868  0.31368873  0.34299842  1
  P  P21  1  0.66455890  0.66420819  0.13029299  1
  P  P22  1  0.66708029  0.66683264  0.62816248  1
  P  P23  1  0.76896549  0.32295837  0.84394946  1
  P  P24  1  0.68554332  0.22976597  0.65807555  1
  P  P25  1  0.32131376  0.90928197  0.84429249  1
  P  P26  1  0.68048941  0.08498754  0.15764009  1
  P  P27  1  0.31521550  0.77361929  0.34009023  1
  P  P28  1  0.22600205  0.68154981  0.15837509  1
  P  P29  1  0.33266951  0.33606527  0.37148034  1
  P  P30  1  0.33395319  0.33362921  0.87007338  1
  P  P31  1  0.08316035  0.68507526  0.65470511  1
  P  P32  1  0.22070021  0.08301252  0.65859489  1
  P  P33  1  0.08687986  0.23050777  0.16089299  1
  O  O34  1  0.00001452  0.76694412  0.56356144  1
  O  O35  1  0.91963096  0.74970689  0.34215141  1
  O  O36  1  0.75396970  0.00186155  0.06727038  1
  O  O37  1  0.74635177  0.92184855  0.84128491  1
  O  O38  1  0.88811764  0.62919329  0.82514974  1
  O  O39  1  0.81249675  0.66145267  0.17774046  1
  O  O40  1  0.91646972  0.46665522  0.33596999  1
  O  O41  1  0.99700036  0.24137509  0.07039877  1
  O  O42  1  0.92048828  0.33383439  0.84616655  1
  O  O43  1  0.67587637  0.81271957  0.67087867  1
  O  O44  1  0.62135112  0.91165610  0.33187278  1
  O  O45  1  0.81205627  0.51286377  0.67127601  1
  O  O46  1  0.67154043  0.65964457  0.02281682  1
  O  O47  1  0.67252138  0.66611948  0.52204011  1
  O  O48  1  0.66962119  0.51062547  0.16580308  1
  O  O49  1  0.48880146  0.88416788  0.82568564  1
  O  O50  1  0.51384179  0.81335259  0.16641818  1
  O  O51  1  0.74157328  0.34219986  0.33702530  1
  O  O52  1  0.78916476  0.21193682  0.75240830  1
  O  O53  1  0.76856656  0.23652093  0.56993004  1
  O  O54  1  0.74982206  0.24785525  0.93181897  1
  O  O55  1  0.62827199  0.48942367  0.82417910  1
  O  O56  1  0.51063146  0.67756026  0.66534370  1
  O  O57  1  0.66077381  0.25197810  0.15973228  1
  O  O58  1  0.46844279  0.61852456  0.33266677  1
  O  O59  1  0.34294118  0.91468194  0.33598544  1
  O  O60  1  0.79317446  0.99968675  0.24858349  1
  O  O61  1  0.77900578  0.00510829  0.43001591  1
  O  O62  1  0.20664795  0.98868692  0.57841345  1
  O  O63  1  0.66203088  0.08628298  0.65646059  1
  O  O64  1  0.52743938  0.38490286  0.67389770  1
  O  O65  1  0.33505636  0.74458880  0.84049146  1
  O  O66  1  0.48802764  0.32279842  0.33071309  1
  O  O67  1  0.37941835  0.52267726  0.17732743  1
  O  O68  1  0.24487392  0.75620508  0.06987825  1
  O  O69  1  0.22052850  0.78689043  0.42891597  1
  O  O70  1  0.20596330  0.79400602  0.24874778  1
  O  O71  1  0.24981189  0.66628595  0.65886245  1
  O  O72  1  0.47882947  0.18224720  0.82352500  1
  O  O73  1  0.52094451  0.09413414  0.17818122  1
  O  O74  1  0.33395606  0.48116287  0.83087324  1
  O  O75  1  0.33702219  0.32299200  0.97569062  1
  O  O76  1  0.33443297  0.34471910  0.47796887  1
  O  O77  1  0.18598204  0.49177439  0.33004302  1
  O  O78  1  0.38010408  0.07865910  0.66515961  1
  O  O79  1  0.32073946  0.19578938  0.32819845  1
  O  O80  1  0.08444780  0.65873624  0.15889092  1
  O  O81  1  0.98932691  0.79659614  0.74318021  1
  O  O82  1  0.01256893  0.75960128  0.92335356  1
  O  O83  1  0.08962496  0.52693823  0.66941029  1
  O  O84  1  0.18153608  0.33510256  0.82743326  1
  O  O85  1  0.10293979  0.37607141  0.17688078  1
  O  O86  1  0.25046492  0.08039219  0.16092365  1
  O  O87  1  0.25180169  0.99441939  0.93617195  1
  O  O88  1  0.20551836  0.00771408  0.75892995  1
  O  O89  1  0.08035931  0.25161062  0.65927192  1
  O  O90  1  0.98727953  0.22053186  0.43245329  1
  O  O91  1  0.99699129  0.20754665  0.25001075  1
