# generated using pymatgen
data_Li6V3P8O29
_symmetry_space_group_name_H-M   'P 1'
_cell_length_a   9.82060732
_cell_length_b   9.81570272
_cell_length_c   13.94560174
_cell_angle_alpha   90.05016576
_cell_angle_beta   89.99996578
_cell_angle_gamma   59.81177246
_symmetry_Int_Tables_number   1
_chemical_formula_structural   Li6V3P8O29
_chemical_formula_sum   'Li12 V6 P16 O58'
_cell_volume   1161.98508259
_cell_formula_units_Z   2
loop_
 _symmetry_equiv_pos_site_id
 _symmetry_equiv_pos_as_xyz
  1  'x, y, z'
loop_
 _atom_site_type_symbol
 _atom_site_label
 _atom_site_symmetry_multiplicity
 _atom_site_fract_x
 _atom_site_fract_y
 _atom_site_fract_z
 _atom_site_occupancy
  Li  Li0  1  0.90373833  0.77446389  0.05741499  1
  Li  Li1  1  0.76712097  0.89614505  0.56327324  1
  Li  Li2  1  0.90232994  0.33234731  0.56163766  1
  Li  Li3  1  0.77566302  0.30882870  0.05757022  1
  Li  Li4  1  0.31757171  0.90726193  0.05775845  1
  Li  Li5  1  0.66702863  0.23491173  0.44230023  1
  Li  Li6  1  0.33727402  0.75890973  0.56161807  1
  Li  Li7  1  0.21980524  0.68896595  0.93763112  1
  Li  Li8  1  0.33967700  0.32887693  0.11141249  1
  Li  Li9  1  0.23860512  0.09473630  0.44091299  1
  Li  Li10  1  0.08214943  0.22485961  0.93779898  1
  Li  Li11  1  0.01448192  0.95454917  0.49971783  1
  V  V12  1  0.56499894  0.43557728  0.25190406  1
  V  V13  1  0.43418748  0.56649995  0.75191299  1
  V  V14  1  0.56886837  0.00040227  0.75170046  1
  V  V15  1  0.43701907  0.00127217  0.24866446  1
  V  V16  1  0.00032017  0.56943157  0.25475296  1
  V  V17  1  0.99803632  0.43974753  0.74690951  1
  P  P18  1  0.90998205  0.77031610  0.84264337  1
  P  P19  1  0.77076344  0.91617600  0.34361995  1
  P  P20  1  0.91551256  0.31307339  0.34313855  1
  P  P21  1  0.66634669  0.66624051  0.12949540  1
  P  P22  1  0.66674418  0.66741363  0.62762040  1
  P  P23  1  0.77056619  0.31773371  0.84224950  1
  P  P24  1  0.68565146  0.22728402  0.65822307  1
  P  P25  1  0.32126817  0.91157333  0.84194637  1
  P  P26  1  0.68507392  0.08891157  0.15775154  1
  P  P27  1  0.31225712  0.77559777  0.34444847  1
  P  P28  1  0.22835212  0.68025090  0.15985380  1
  P  P29  1  0.33624960  0.33179947  0.37044395  1
  P  P30  1  0.32925642  0.33607285  0.87062286  1
  P  P31  1  0.08555319  0.69404622  0.65974533  1
  P  P32  1  0.22942717  0.08485684  0.65770897  1
  P  P33  1  0.08908910  0.23269024  0.15716900  1
  O  O34  1  0.99448467  0.80201257  0.57833008  1
  O  O35  1  0.91296661  0.74729909  0.33663577  1
  O  O36  1  0.76835700  0.98735071  0.07441701  1
  O  O37  1  0.74455663  0.91733354  0.83644138  1
  O  O38  1  0.89671292  0.62324977  0.82348412  1
  O  O39  1  0.81411554  0.66709174  0.16926918  1
  O  O40  1  0.90940459  0.47066630  0.32828120  1
  O  O41  1  0.99389834  0.25105836  0.06854550  1
  O  O42  1  0.91664946  0.33679038  0.83904997  1
  O  O43  1  0.67934395  0.81134160  0.66591843  1
  O  O44  1  0.61666042  0.91364312  0.33220037  1
  O  O45  1  0.81363799  0.51020419  0.66981752  1
  O  O46  1  0.66000894  0.66191681  0.02281702  1
  O  O47  1  0.67500286  0.65940969  0.52015500  1
  O  O48  1  0.66153668  0.51969377  0.17490298  1
  O  O49  1  0.48214235  0.89412008  0.82290625  1
  O  O50  1  0.51549922  0.81861000  0.17066617  1
  O  O51  1  0.75050969  0.33153972  0.34313470  1
  O  O52  1  0.79204081  0.20653404  0.75116451  1
  O  O53  1  0.77716091  0.22427446  0.56929383  1
  O  O54  1  0.75538280  0.24733554  0.93302550  1
  O  O55  1  0.61892777  0.47916495  0.82011216  1
  O  O56  1  0.51235661  0.67821983  0.66690496  1
  O  O57  1  0.66728282  0.25433570  0.15556233  1
  O  O58  1  0.46863134  0.61904795  0.33306346  1
  O  O59  1  0.33539213  0.91945750  0.33747464  1
  O  O60  1  0.78599730  0.01187312  0.25530923  1
  O  O61  1  0.77830067  0.99634791  0.43484541  1
  O  O62  1  0.22883128  0.99443452  0.56929731  1
  O  O63  1  0.66507767  0.08122024  0.65821126  1
  O  O64  1  0.52860869  0.38015990  0.67014390  1
  O  O65  1  0.33284359  0.74840920  0.84323374  1
  O  O66  1  0.49335188  0.32134348  0.32997342  1
  O  O67  1  0.37195382  0.51190157  0.17560686  1
  O  O68  1  0.24696775  0.75490464  0.07014443  1
  O  O69  1  0.22313026  0.78728299  0.43469393  1
  O  O70  1  0.20701924  0.78907134  0.25096321  1
  O  O71  1  0.25729436  0.66236670  0.66085567  1
  O  O72  1  0.47504888  0.19316030  0.82617427  1
  O  O73  1  0.51605118  0.11390458  0.17347440  1
  O  O74  1  0.32252468  0.49212362  0.83598466  1
  O  O75  1  0.32066896  0.33487678  0.97843483  1
  O  O76  1  0.34475327  0.31867465  0.47713450  1
  O  O77  1  0.19537349  0.48198793  0.32684370  1
  O  O78  1  0.38519799  0.08420509  0.67074842  1
  O  O79  1  0.32887794  0.18525041  0.32680478  1
  O  O80  1  0.07765970  0.66747335  0.15776251  1
  O  O81  1  0.01087074  0.78957317  0.75819534  1
  O  O82  1  0.99694985  0.75597385  0.93425599  1
  O  O83  1  0.08412458  0.53871123  0.66528359  1
  O  O84  1  0.17849301  0.33702812  0.82824094  1
  O  O85  1  0.10909231  0.37773108  0.17531991  1
  O  O86  1  0.25381612  0.08424971  0.15302086  1
  O  O87  1  0.24153039  0.00378864  0.93162172  1
  O  O88  1  0.20748003  0.00128040  0.75150734  1
  O  O89  1  0.08640513  0.25254222  0.65603239  1
  O  O90  1  0.00598592  0.22473930  0.43171935  1
  O  O91  1  0.00384721  0.20786696  0.24896185  1
