# generated using pymatgen
data_VOF2
_symmetry_space_group_name_H-M   'P 1'
_cell_length_a   5.19584145
_cell_length_b   13.38898076
_cell_length_c   5.23758403
_cell_angle_alpha   88.76302865
_cell_angle_beta   119.71682135
_cell_angle_gamma   90.66216119
_symmetry_Int_Tables_number   1
_chemical_formula_structural   VOF2
_chemical_formula_sum   'V6 O6 F12'
_cell_volume   316.37037711
_cell_formula_units_Z   6
loop_
 _symmetry_equiv_pos_site_id
 _symmetry_equiv_pos_as_xyz
  1  'x, y, z'
loop_
 _atom_site_type_symbol
 _atom_site_label
 _atom_site_symmetry_multiplicity
 _atom_site_fract_x
 _atom_site_fract_y
 _atom_site_fract_z
 _atom_site_occupancy
  V  V0  1  0.00000000  0.50000000  0.00000000  1
  V  V1  1  0.00000000  0.00000000  0.00000000  1
  V  V2  1  0.62064705  0.83316982  0.34946522  1
  V  V3  1  0.30137990  0.66302905  0.66706447  1
  V  V4  1  0.69862010  0.33697095  0.33293553  1
  V  V5  1  0.37935295  0.16683018  0.65053478  1
  O  O6  1  0.33600898  0.91381096  0.24744401  1
  O  O7  1  0.08770260  0.58764623  0.74781979  1
  O  O8  1  0.43269671  0.24729517  0.43012994  1
  O  O9  1  0.56730329  0.75270483  0.56987006  1
  O  O10  1  0.91229740  0.41235377  0.25218021  1
  O  O11  1  0.66399102  0.08618904  0.75255599  1
  F  F12  1  0.97813097  0.75232042  0.39843002  1
  F  F13  1  0.40082679  0.75531476  0.99617077  1
  F  F14  1  0.33357007  0.41118071  0.06955635  1
  F  F15  1  0.08588489  0.08593913  0.35265926  1
  F  F16  1  0.26380686  0.58334313  0.33841079  1
  F  F17  1  0.59917321  0.24468524  0.00382923  1
  F  F18  1  0.02186903  0.24767958  0.60156998  1
  F  F19  1  0.74443433  0.91326128  0.07962135  1
  F  F20  1  0.25556567  0.08673872  0.92037865  1
  F  F21  1  0.73619314  0.41665687  0.66158921  1
  F  F22  1  0.91411511  0.91406087  0.64734074  1
  F  F23  1  0.66642993  0.58881929  0.93044365  1
