# generated using pymatgen
data_LiFeSiO4
_symmetry_space_group_name_H-M   'P 1'
_cell_length_a   5.10050671
_cell_length_b   5.21770804
_cell_length_c   6.77523491
_cell_angle_alpha   90.00000000
_cell_angle_beta   89.78908001
_cell_angle_gamma   90.00000000
_symmetry_Int_Tables_number   1
_chemical_formula_structural   LiFeSiO4
_chemical_formula_sum   'Li2 Fe2 Si2 O8'
_cell_volume   180.30779923
_cell_formula_units_Z   2
loop_
 _symmetry_equiv_pos_site_id
 _symmetry_equiv_pos_as_xyz
  1  'x, y, z'
loop_
 _atom_site_type_symbol
 _atom_site_label
 _atom_site_symmetry_multiplicity
 _atom_site_fract_x
 _atom_site_fract_y
 _atom_site_fract_z
 _atom_site_occupancy
  Li  Li0  1  0.23768529  0.68195051  0.24995928  1
  Li  Li1  1  0.73768529  0.31804949  0.74995928  1
  Fe  Fe2  1  0.73693551  0.31765322  0.25178954  1
  Fe  Fe3  1  0.23693551  0.68234678  0.75178954  1
  Si  Si4  1  0.23460035  0.18869792  0.00002169  1
  Si  Si5  1  0.73460035  0.81130208  0.50002169  1
  O  O6  1  0.91581447  0.23878204  0.01355597  1
  O  O7  1  0.41581447  0.76121796  0.51355597  1
  O  O8  1  0.29459998  0.88093361  0.98444225  1
  O  O9  1  0.79459998  0.11906639  0.48444225  1
  O  O10  1  0.37196373  0.31580239  0.19672202  1
  O  O11  1  0.84888067  0.65918729  0.30468925  1
  O  O12  1  0.34888067  0.34081271  0.80468925  1
  O  O13  1  0.87196373  0.68419761  0.69672202  1
