# generated using pymatgen
data_Li3Co2(PO4)3
_symmetry_space_group_name_H-M   'P 1'
_cell_length_a   8.71296231
_cell_length_b   12.07007666
_cell_length_c   8.71419220
_cell_angle_alpha   90.00000000
_cell_angle_beta   90.00000000
_cell_angle_gamma   90.92744078
_symmetry_Int_Tables_number   1
_chemical_formula_structural   Li3Co2(PO4)3
_chemical_formula_sum   'Li12 Co8 P12 O48'
_cell_volume   916.31775087
_cell_formula_units_Z   4
loop_
 _symmetry_equiv_pos_site_id
 _symmetry_equiv_pos_as_xyz
  1  'x, y, z'
loop_
 _atom_site_type_symbol
 _atom_site_label
 _atom_site_symmetry_multiplicity
 _atom_site_fract_x
 _atom_site_fract_y
 _atom_site_fract_z
 _atom_site_occupancy
  Li  Li0  1  0.05878374  0.70979493  0.06243485  1
  Li  Li1  1  0.20980159  0.17925889  0.77512282  1
  Li  Li2  1  0.20515957  0.81791929  0.73158643  1
  Li  Li3  1  0.29484043  0.68208071  0.23158643  1
  Li  Li4  1  0.29019841  0.32074111  0.27512282  1
  Li  Li5  1  0.44121626  0.79020507  0.56243485  1
  Li  Li6  1  0.55878374  0.20979493  0.43756515  1
  Li  Li7  1  0.70980159  0.67925889  0.72487718  1
  Li  Li8  1  0.70515957  0.31791929  0.76841357  1
  Li  Li9  1  0.79484043  0.18208071  0.26841357  1
  Li  Li10  1  0.79019841  0.82074111  0.22487718  1
  Li  Li11  1  0.94121626  0.29020507  0.93756515  1
  Co  Co12  1  0.23913029  0.60316209  0.54210324  1
  Co  Co13  1  0.26086971  0.89683791  0.04210324  1
  Co  Co14  1  0.24446720  0.10878359  0.45978640  1
  Co  Co15  1  0.25553280  0.39121641  0.95978640  1
  Co  Co16  1  0.74446720  0.60878359  0.04021360  1
  Co  Co17  1  0.75553280  0.89121641  0.54021360  1
  Co  Co18  1  0.73913029  0.10316209  0.95789676  1
  Co  Co19  1  0.76086971  0.39683791  0.45789676  1
  P  P20  1  0.04300415  0.49975591  0.24526539  1
  P  P21  1  0.10573170  0.85083471  0.39169213  1
  P  P22  1  0.10731357  0.14776187  0.10693893  1
  P  P23  1  0.39268643  0.35223813  0.60693893  1
  P  P24  1  0.39426830  0.64916529  0.89169213  1
  P  P25  1  0.45699585  0.00024409  0.74526539  1
  P  P26  1  0.54300415  0.99975591  0.25473461  1
  P  P27  1  0.60573170  0.35083471  0.10830787  1
  P  P28  1  0.60731357  0.64776187  0.39306107  1
  P  P29  1  0.89268643  0.85223813  0.89306107  1
  P  P30  1  0.89426830  0.14916529  0.60830787  1
  P  P31  1  0.95699585  0.50024409  0.75473461  1
  O  O32  1  0.04561651  0.42912221  0.87067527  1
  O  O33  1  0.06112250  0.58162188  0.66550927  1
  O  O34  1  0.07052490  0.85294388  0.89144238  1
  O  O35  1  0.06838881  0.16783787  0.59248023  1
  O  O36  1  0.13197769  0.58459958  0.34744502  1
  O  O37  1  0.14771173  0.97445438  0.41830566  1
  O  O38  1  0.15061975  0.81565303  0.22539890  1
  O  O39  1  0.15156416  0.23519583  0.98059470  1
  O  O40  1  0.16778902  0.42929904  0.16629473  1
  O  O41  1  0.17048346  0.18322881  0.26399941  1
  O  O42  1  0.17180457  0.03611634  0.05607938  1
  O  O43  1  0.20063955  0.78388584  0.51081200  1
  O  O44  1  0.29936045  0.71611416  0.01081200  1
  O  O45  1  0.32819543  0.46388366  0.55607938  1
  O  O46  1  0.32951654  0.31677119  0.76399941  1
  O  O47  1  0.33221098  0.07070096  0.66629473  1
  O  O48  1  0.34843584  0.26480417  0.48059470  1
  O  O49  1  0.34938025  0.68434697  0.72539890  1
  O  O50  1  0.35228827  0.52554562  0.91830566  1
  O  O51  1  0.36802231  0.91540042  0.84744502  1
  O  O52  1  0.42947510  0.64705612  0.39144238  1
  O  O53  1  0.43161119  0.33216213  0.09248023  1
  O  O54  1  0.43887750  0.91837812  0.16550927  1
  O  O55  1  0.45438349  0.07087779  0.37067527  1
  O  O56  1  0.54561651  0.92912221  0.62932473  1
  O  O57  1  0.56112250  0.08162188  0.83449073  1
  O  O58  1  0.56838881  0.66783787  0.90751977  1
  O  O59  1  0.57052490  0.35294388  0.60855762  1
  O  O60  1  0.63197769  0.08459958  0.15255498  1
  O  O61  1  0.64771173  0.47445438  0.08169434  1
  O  O62  1  0.65061975  0.31565303  0.27460110  1
  O  O63  1  0.65156416  0.73519583  0.51940530  1
  O  O64  1  0.66778902  0.92929904  0.33370527  1
  O  O65  1  0.67048346  0.68322881  0.23600059  1
  O  O66  1  0.67180457  0.53611634  0.44392062  1
  O  O67  1  0.70063955  0.28388584  0.98918800  1
  O  O68  1  0.79936045  0.21611416  0.48918800  1
  O  O69  1  0.82819543  0.96388366  0.94392062  1
  O  O70  1  0.82951654  0.81677119  0.73600059  1
  O  O71  1  0.83221098  0.57070096  0.83370527  1
  O  O72  1  0.84843584  0.76480417  0.01940530  1
  O  O73  1  0.84938025  0.18434697  0.77460110  1
  O  O74  1  0.85228827  0.02554562  0.58169434  1
  O  O75  1  0.86802231  0.41540042  0.65255498  1
  O  O76  1  0.93161119  0.83216213  0.40751977  1
  O  O77  1  0.92947510  0.14705612  0.10855762  1
  O  O78  1  0.93887750  0.41837812  0.33449073  1
  O  O79  1  0.95438349  0.57087779  0.12932473  1
