# generated using pymatgen
data_InH11S2O13
_symmetry_space_group_name_H-M   'P 1'
_cell_length_a   10.53276039
_cell_length_b   10.89719611
_cell_length_c   9.28217819
_cell_angle_alpha   90.00000000
_cell_angle_beta   99.51334272
_cell_angle_gamma   90.00000000
_symmetry_Int_Tables_number   1
_chemical_formula_structural   InH11S2O13
_chemical_formula_sum   'In4 H44 S8 O52'
_cell_volume   1050.73362204
_cell_formula_units_Z   4
loop_
 _symmetry_equiv_pos_site_id
 _symmetry_equiv_pos_as_xyz
  1  'x, y, z'
loop_
 _atom_site_type_symbol
 _atom_site_label
 _atom_site_symmetry_multiplicity
 _atom_site_fract_x
 _atom_site_fract_y
 _atom_site_fract_z
 _atom_site_occupancy
  In  In0  1  0.20880460  0.36267897  0.59351539  1
  In  In1  1  0.20880460  0.13732103  0.09351539  1
  In  In2  1  0.79119540  0.86267897  0.90648461  1
  In  In3  1  0.79119540  0.63732103  0.40648461  1
  H  H4  1  0.08849240  0.32276159  0.89545064  1
  H  H5  1  0.09507122  0.13024842  0.56428460  1
  H  H6  1  0.08849240  0.17723841  0.39545064  1
  H  H7  1  0.14449237  0.69042895  0.59279204  1
  H  H8  1  0.24899947  0.79002718  0.96246093  1
  H  H9  1  0.09507122  0.36975158  0.06428460  1
  H  H10  1  0.14449237  0.80957105  0.09279204  1
  H  H11  1  0.22286769  0.82272947  0.58152595  1
  H  H12  1  0.24899947  0.70997282  0.46246093  1
  H  H13  1  0.32363435  0.51971303  0.82231497  1
  H  H14  1  0.34305666  0.91830204  0.84337816  1
  H  H15  1  0.34639565  0.02345717  0.57487379  1
  H  H16  1  0.22286769  0.67727053  0.08152595  1
  H  H17  1  0.39310575  0.78603195  0.82453471  1
  H  H18  1  0.32363435  0.98028697  0.32231497  1
  H  H19  1  0.40947282  0.52748805  0.69660092  1
  H  H20  1  0.34305666  0.58169796  0.34337816  1
  H  H21  1  0.41831338  0.90349841  0.54744636  1
  H  H22  1  0.34639565  0.47654283  0.07487379  1
  H  H23  1  0.39310575  0.71396805  0.32453471  1
  H  H24  1  0.40947282  0.97251195  0.19660092  1
  H  H25  1  0.41831338  0.59650159  0.04744636  1
  H  H26  1  0.58168662  0.40349841  0.95255364  1
  H  H27  1  0.59052718  0.02748805  0.80339908  1
  H  H28  1  0.60689425  0.28603195  0.67546529  1
  H  H29  1  0.65360435  0.52345717  0.92512621  1
  H  H30  1  0.58168662  0.09650159  0.45255364  1
  H  H31  1  0.65694334  0.41830204  0.65662184  1
  H  H32  1  0.59052718  0.47251195  0.30339908  1
  H  H33  1  0.67636565  0.01971303  0.67768503  1
  H  H34  1  0.60689425  0.21396805  0.17546529  1
  H  H35  1  0.77713231  0.32272947  0.91847405  1
  H  H36  1  0.65360435  0.97654283  0.42512621  1
  H  H37  1  0.65694334  0.08169796  0.15662184  1
  H  H38  1  0.67636565  0.48028697  0.17768503  1
  H  H39  1  0.75100053  0.29002718  0.53753907  1
  H  H40  1  0.77713231  0.17727053  0.41847405  1
  H  H41  1  0.85550763  0.19042895  0.90720796  1
  H  H42  1  0.90492878  0.63024842  0.93571540  1
  H  H43  1  0.75100053  0.20997282  0.03753907  1
  H  H44  1  0.85550763  0.30957105  0.40720796  1
  H  H45  1  0.91150760  0.82276159  0.60454936  1
  H  H46  1  0.90492878  0.86975158  0.43571540  1
  H  H47  1  0.91150760  0.67723841  0.10454936  1
  S  S48  1  0.02564229  0.01920687  0.79176417  1
  S  S49  1  0.02564229  0.48079313  0.29176417  1
  S  S50  1  0.39839416  0.19097425  0.85312488  1
  S  S51  1  0.39839416  0.30902575  0.35312488  1
  S  S52  1  0.60160584  0.69097425  0.64687512  1
  S  S53  1  0.60160584  0.80902575  0.14687512  1
  S  S54  1  0.97435771  0.51920687  0.70823583  1
  S  S55  1  0.97435771  0.98079313  0.20823583  1
  O  O56  1  0.05275834  0.62882522  0.69912184  1
  O  O57  1  0.05685157  0.40317517  0.71776783  1
  O  O58  1  0.12624359  0.00546686  0.92848718  1
  O  O59  1  0.08956644  0.01635024  0.66287957  1
  O  O60  1  0.05275834  0.87117478  0.19912184  1
  O  O61  1  0.10885273  0.20197022  0.49909277  1
  O  O62  1  0.05685157  0.09682483  0.21776783  1
  O  O63  1  0.12624359  0.49453314  0.42848718  1
  O  O64  1  0.08956644  0.48364976  0.16287957  1
  O  O65  1  0.18719449  0.74845410  0.52992791  1
  O  O66  1  0.10885273  0.29802978  0.99909277  1
  O  O67  1  0.27031067  0.23767390  0.77864645  1
  O  O68  1  0.34562323  0.54338641  0.00436578  1
  O  O69  1  0.31910097  0.83116218  0.84906146  1
  O  O70  1  0.18719449  0.75154590  0.02992791  1
  O  O71  1  0.31927891  0.51648796  0.71293495  1
  O  O72  1  0.27031067  0.26232610  0.27864645  1
  O  O73  1  0.34562323  0.95661359  0.50436578  1
  O  O74  1  0.31910097  0.66883782  0.34906146  1
  O  O75  1  0.42450694  0.06906986  0.79042873  1
  O  O76  1  0.31927891  0.98351204  0.21293495  1
  O  O77  1  0.38689784  0.32595008  0.51250825  1
  O  O78  1  0.50268540  0.27785333  0.84275482  1
  O  O79  1  0.42450694  0.43093014  0.29042873  1
  O  O80  1  0.38689784  0.17404992  0.01250825  1
  O  O81  1  0.49731460  0.77785333  0.65724518  1
  O  O82  1  0.50268540  0.22214667  0.34275482  1
  O  O83  1  0.61310216  0.82595008  0.98749175  1
  O  O84  1  0.57549306  0.56906986  0.70957127  1
  O  O85  1  0.49731460  0.72214667  0.15724518  1
  O  O86  1  0.61310216  0.67404992  0.48749175  1
  O  O87  1  0.68072109  0.01648796  0.78706505  1
  O  O88  1  0.57549306  0.93093014  0.20957127  1
  O  O89  1  0.68089903  0.33116218  0.65093854  1
  O  O90  1  0.65437677  0.04338641  0.49563422  1
  O  O91  1  0.72968933  0.73767390  0.72135355  1
  O  O92  1  0.68072109  0.48351204  0.28706505  1
  O  O93  1  0.81280551  0.24845410  0.97007209  1
  O  O94  1  0.68089903  0.16883782  0.15093854  1
  O  O95  1  0.65437677  0.45661359  0.99563422  1
  O  O96  1  0.72968933  0.76232610  0.22135355  1
  O  O97  1  0.89114727  0.70197022  0.00090723  1
  O  O98  1  0.81280551  0.25154590  0.47007209  1
  O  O99  1  0.91043356  0.51635024  0.83712043  1
  O  O100  1  0.87375641  0.50546686  0.57151282  1
  O  O101  1  0.94314843  0.90317517  0.78223217  1
  O  O102  1  0.89114727  0.79802978  0.50090723  1
  O  O103  1  0.94724166  0.12882522  0.80087816  1
  O  O104  1  0.91043356  0.98364976  0.33712043  1
  O  O105  1  0.87375641  0.99453314  0.07151282  1
  O  O106  1  0.94314843  0.59682483  0.28223217  1
  O  O107  1  0.94724166  0.37117478  0.30087816  1
