# generated using pymatgen
data_Li6V3P8O29
_symmetry_space_group_name_H-M   'P 1'
_cell_length_a   9.80396364
_cell_length_b   9.82868408
_cell_length_c   13.89981708
_cell_angle_alpha   89.73856253
_cell_angle_beta   89.71375496
_cell_angle_gamma   60.15153509
_symmetry_Int_Tables_number   1
_chemical_formula_structural   Li6V3P8O29
_chemical_formula_sum   'Li12 V6 P16 O58'
_cell_volume   1161.69267533
_cell_formula_units_Z   2
loop_
 _symmetry_equiv_pos_site_id
 _symmetry_equiv_pos_as_xyz
  1  'x, y, z'
loop_
 _atom_site_type_symbol
 _atom_site_label
 _atom_site_symmetry_multiplicity
 _atom_site_fract_x
 _atom_site_fract_y
 _atom_site_fract_z
 _atom_site_occupancy
  Li  Li0  1  0.90481740  0.76716631  0.05907503  1
  Li  Li1  1  0.77184246  0.91192861  0.56172688  1
  Li  Li2  1  0.90493964  0.32197516  0.55947492  1
  Li  Li3  1  0.66588501  0.66628800  0.88271972  1
  Li  Li4  1  0.76781012  0.32609749  0.05994240  1
  Li  Li5  1  0.32735948  0.90514848  0.05900131  1
  Li  Li6  1  0.32359134  0.77138297  0.56120023  1
  Li  Li7  1  0.33912787  0.33186583  0.61692726  1
  Li  Li8  1  0.33657285  0.33249890  0.11367788  1
  Li  Li9  1  0.08871849  0.68516272  0.43980677  1
  Li  Li10  1  0.22534105  0.09104349  0.44001204  1
  Li  Li11  1  0.99779443  0.00149085  0.99118394  1
  V  V12  1  0.56698353  0.43189259  0.25281229  1
  V  V13  1  0.43440583  0.56301474  0.75299094  1
  V  V14  1  0.56604965  0.00266323  0.75333385  1
  V  V15  1  0.43388343  0.99810187  0.25072510  1
  V  V16  1  0.99753569  0.56845764  0.25065215  1
  V  V17  1  0.00130803  0.43252240  0.75346533  1
  P  P18  1  0.90980624  0.77438104  0.84386713  1
  P  P19  1  0.76786198  0.91527979  0.34394379  1
  P  P20  1  0.91329982  0.31631994  0.34306372  1
  P  P21  1  0.66436376  0.66658603  0.12594495  1
  P  P22  1  0.66711243  0.66786787  0.62754594  1
  P  P23  1  0.77382560  0.31431573  0.84477480  1
  P  P24  1  0.68425827  0.22945750  0.65729395  1
  P  P25  1  0.31573894  0.90881121  0.84381205  1
  P  P26  1  0.68902909  0.08702105  0.15666412  1
  P  P27  1  0.31986843  0.76645910  0.34316491  1
  P  P28  1  0.22622680  0.68677509  0.15775920  1
  P  P29  1  0.33069207  0.33499422  0.37336835  1
  P  P30  1  0.33275282  0.33268586  0.87326508  1
  P  P31  1  0.08980005  0.68024762  0.65771325  1
  P  P32  1  0.23013751  0.08964667  0.65792458  1
  P  P33  1  0.08880409  0.22533176  0.15749935  1
  O  O34  1  0.99614770  0.75815878  0.56861802  1
  O  O35  1  0.91514490  0.74841106  0.33921140  1
  O  O36  1  0.78729051  0.99064464  0.07376619  1
  O  O37  1  0.74476431  0.91724537  0.83807213  1
  O  O38  1  0.89304446  0.62532435  0.83071652  1
  O  O39  1  0.81082467  0.67298268  0.16392686  1
  O  O40  1  0.90851343  0.47508592  0.32066291  1
  O  O41  1  0.99637854  0.21948332  0.07409325  1
  O  O42  1  0.91719909  0.33739112  0.83771214  1
  O  O43  1  0.66209406  0.81954159  0.67016554  1
  O  O44  1  0.61678362  0.90511657  0.31989443  1
  O  O45  1  0.81886194  0.52093585  0.67003580  1
  O  O46  1  0.66552925  0.66306876  0.01744258  1
  O  O47  1  0.66779576  0.66879555  0.52040945  1
  O  O48  1  0.66843818  0.51383126  0.16621118  1
  O  O49  1  0.48131620  0.89339158  0.83053671  1
  O  O50  1  0.51088401  0.81248237  0.16355864  1
  O  O51  1  0.74848302  0.34062566  0.34000349  1
  O  O52  1  0.78266807  0.20900292  0.75491918  1
  O  O53  1  0.77010316  0.24202788  0.57283267  1
  O  O54  1  0.77473029  0.23262965  0.93629047  1
  O  O55  1  0.62512790  0.48061791  0.83131588  1
  O  O56  1  0.51965528  0.66257204  0.66971608  1
  O  O57  1  0.66703045  0.25359788  0.15693330  1
  O  O58  1  0.48142928  0.62237169  0.32434049  1
  O  O59  1  0.33105616  0.91838640  0.34127528  1
  O  O60  1  0.78740180  0.00705829  0.25453966  1
  O  O61  1  0.75447414  0.99422177  0.43649261  1
  O  O62  1  0.24591022  0.99618094  0.56862299  1
  O  O63  1  0.66578681  0.08209969  0.65704752  1
  O  O64  1  0.51634282  0.37448237  0.67138623  1
  O  O65  1  0.33830655  0.74352506  0.83742943  1
  O  O66  1  0.47764683  0.33585544  0.32656042  1
  O  O67  1  0.37454594  0.52288473  0.16724261  1
  O  O68  1  0.21904854  0.78629076  0.07411715  1
  O  O69  1  0.24444791  0.75379139  0.43488791  1
  O  O70  1  0.20559864  0.78555320  0.25498711  1
  O  O71  1  0.25346859  0.66614216  0.65606821  1
  O  O72  1  0.47739187  0.18282041  0.82949979  1
  O  O73  1  0.52342373  0.10421588  0.16888777  1
  O  O74  1  0.33966511  0.47654605  0.82917619  1
  O  O75  1  0.33269653  0.33247742  0.98028224  1
  O  O76  1  0.33096532  0.33612407  0.48126626  1
  O  O77  1  0.18332661  0.48896176  0.33533106  1
  O  O78  1  0.37494437  0.11130412  0.67175968  1
  O  O79  1  0.32724889  0.18655713  0.33533379  1
  O  O80  1  0.08144763  0.66062665  0.15964932  1
  O  O81  1  0.00280477  0.78547318  0.75037987  1
  O  O82  1  0.99358648  0.77397238  0.93376177  1
  O  O83  1  0.11170975  0.51416212  0.67222953  1
  O  O84  1  0.18250314  0.33890340  0.82950840  1
  O  O85  1  0.10679798  0.37215294  0.16865914  1
  O  O86  1  0.25888680  0.08056536  0.15958701  1
  O  O87  1  0.23141223  0.99221487  0.93397395  1
  O  O88  1  0.21200140  0.00202187  0.75068815  1
  O  O89  1  0.08083340  0.25274361  0.65640901  1
  O  O90  1  0.00348787  0.24630180  0.43423174  1
  O  O91  1  0.00993784  0.20380666  0.25475365  1
