# generated using pymatgen
data_Li2ZnCr3(SO4)6
_symmetry_space_group_name_H-M   'P 1'
_cell_length_a   9.12063905
_cell_length_b   8.95551432
_cell_length_c   9.02794771
_cell_angle_alpha   55.89920380
_cell_angle_beta   55.25932131
_cell_angle_gamma   55.24056514
_symmetry_Int_Tables_number   1
_chemical_formula_structural   Li2ZnCr3(SO4)6
_chemical_formula_sum   'Li2 Zn1 Cr3 S6 O24'
_cell_volume   466.48184414
_cell_formula_units_Z   1
loop_
 _symmetry_equiv_pos_site_id
 _symmetry_equiv_pos_as_xyz
  1  'x, y, z'
loop_
 _atom_site_type_symbol
 _atom_site_label
 _atom_site_symmetry_multiplicity
 _atom_site_fract_x
 _atom_site_fract_y
 _atom_site_fract_z
 _atom_site_occupancy
  Li  Li0  1  0.17975375  0.42476065  0.76672693  1
  Li  Li1  1  0.76489412  0.18335051  0.42599640  1
  Zn  Zn2  1  0.17379543  0.13887214  0.16069748  1
  Cr  Cr3  1  0.35918745  0.35772486  0.34407342  1
  Cr  Cr4  1  0.64224840  0.64386524  0.64778816  1
  Cr  Cr5  1  0.84601298  0.84935232  0.85265259  1
  S  S6  1  0.03474663  0.74624553  0.46688070  1
  S  S7  1  0.54648194  0.94966773  0.25796970  1
  S  S8  1  0.25036848  0.55136841  0.94550994  1
  S  S9  1  0.75723456  0.46452523  0.03343170  1
  S  S10  1  0.46275256  0.03641978  0.75469440  1
  S  S11  1  0.94954247  0.24973551  0.54915957  1
  O  O12  1  0.00052077  0.95368838  0.34776237  1
  O  O13  1  0.02456476  0.70581095  0.66016638  1
  O  O14  1  0.36005054  0.96074865  0.29654216  1
  O  O15  1  0.04751078  0.68698340  0.97028727  1
  O  O16  1  0.49193617  0.89907789  0.69065646  1
  O  O17  1  0.22960053  0.62149851  0.37859292  1
  O  O18  1  0.67538850  0.97567035  0.05211279  1
  O  O19  1  0.38082505  0.63761568  0.75219405  1
  O  O20  1  0.29068186  0.51792398  0.09815422  1
  O  O21  1  0.09969380  0.29246141  0.51602385  1
  O  O22  1  0.63964615  0.75535252  0.38264704  1
  O  O23  1  0.27859024  0.36598153  0.95010897  1
  O  O24  1  0.71792678  0.65654252  0.02257752  1
  O  O25  1  0.37592826  0.23737796  0.63295305  1
  O  O26  1  0.89002235  0.69379946  0.49874847  1
  O  O27  1  0.69107608  0.49297401  0.89967439  1
  O  O28  1  0.64530116  0.36807844  0.23342871  1
  O  O29  1  0.34235145  0.00040049  0.95895148  1
  O  O30  1  0.75357963  0.38067790  0.63665451  1
  O  O31  1  0.52339540  0.10231698  0.29748043  1
  O  O32  1  0.96452249  0.34046632  0.99080287  1
  O  O33  1  0.65732054  0.02363653  0.71049786  1
  O  O34  1  0.95684870  0.27503405  0.36531013  1
  O  O35  1  0.97129723  0.04609419  0.68319114  1
