# generated using pymatgen
data_Er2GeO5
_symmetry_space_group_name_H-M   'P 1'
_cell_length_a   9.23742111
_cell_length_b   7.00448626
_cell_length_c   6.73355498
_cell_angle_alpha   90.00000000
_cell_angle_beta   75.49144433
_cell_angle_gamma   90.00000000
_symmetry_Int_Tables_number   1
_chemical_formula_structural   Er2GeO5
_chemical_formula_sum   'Er8 Ge4 O20'
_cell_volume   421.78997674
_cell_formula_units_Z   4
loop_
 _symmetry_equiv_pos_site_id
 _symmetry_equiv_pos_as_xyz
  1  'x, y, z'
loop_
 _atom_site_type_symbol
 _atom_site_label
 _atom_site_symmetry_multiplicity
 _atom_site_fract_x
 _atom_site_fract_y
 _atom_site_fract_z
 _atom_site_occupancy
  Er  Er0  1  0.13561443  0.36397763  0.54219832  1
  Er  Er1  1  0.13561443  0.13602237  0.04219832  1
  Er  Er2  1  0.47227176  0.37227696  0.72912207  1
  Er  Er3  1  0.52772824  0.87227696  0.77087793  1
  Er  Er4  1  0.47227176  0.12772304  0.22912207  1
  Er  Er5  1  0.52772824  0.62772304  0.27087793  1
  Er  Er6  1  0.86438557  0.86397763  0.95780168  1
  Er  Er7  1  0.86438557  0.63602237  0.45780168  1
  Ge  Ge8  1  0.19810917  0.90713093  0.52621095  1
  Ge  Ge9  1  0.19810917  0.59286907  0.02621095  1
  Ge  Ge10  1  0.80189083  0.40713093  0.97378905  1
  Ge  Ge11  1  0.80189083  0.09286907  0.47378905  1
  O  O12  1  0.10811590  0.80180480  0.98986716  1
  O  O13  1  0.10650182  0.06527385  0.72155786  1
  O  O14  1  0.21678614  0.41311607  0.82646537  1
  O  O15  1  0.10811590  0.69819520  0.48986716  1
  O  O16  1  0.39470063  0.63749226  0.99119354  1
  O  O17  1  0.38963126  0.11470129  0.93056903  1
  O  O18  1  0.10650182  0.43472615  0.22155786  1
  O  O19  1  0.21678614  0.08688393  0.32646537  1
  O  O20  1  0.39470063  0.86250774  0.49119354  1
  O  O21  1  0.38963126  0.38529871  0.43056903  1
  O  O22  1  0.61036874  0.61470129  0.56943097  1
  O  O23  1  0.60529937  0.13749226  0.50880646  1
  O  O24  1  0.78321386  0.91311607  0.67353463  1
  O  O25  1  0.89349818  0.56527385  0.77844214  1
  O  O26  1  0.61036874  0.88529871  0.06943097  1
  O  O27  1  0.60529937  0.36250774  0.00880646  1
  O  O28  1  0.89188410  0.30180480  0.51013284  1
  O  O29  1  0.78321386  0.58688393  0.17353463  1
  O  O30  1  0.89349818  0.93472615  0.27844214  1
  O  O31  1  0.89188410  0.19819520  0.01013284  1
