# generated using pymatgen
data_Li6V3P8O29
_symmetry_space_group_name_H-M   'P 1'
_cell_length_a   9.78940744
_cell_length_b   9.80183183
_cell_length_c   13.96457948
_cell_angle_alpha   90.33880711
_cell_angle_beta   90.43878798
_cell_angle_gamma   60.24224392
_symmetry_Int_Tables_number   1
_chemical_formula_structural   Li6V3P8O29
_chemical_formula_sum   'Li12 V6 P16 O58'
_cell_volume   1163.22325123
_cell_formula_units_Z   2
loop_
 _symmetry_equiv_pos_site_id
 _symmetry_equiv_pos_as_xyz
  1  'x, y, z'
loop_
 _atom_site_type_symbol
 _atom_site_label
 _atom_site_symmetry_multiplicity
 _atom_site_fract_x
 _atom_site_fract_y
 _atom_site_fract_z
 _atom_site_occupancy
  Li  Li0  1  0.90203867  0.33374115  0.55845437  1
  Li  Li1  1  0.67181361  0.67051826  0.88947281  1
  Li  Li2  1  0.77512709  0.30860035  0.06342375  1
  Li  Li3  1  0.30998742  0.91263239  0.06327909  1
  Li  Li4  1  0.66136050  0.23426390  0.43794216  1
  Li  Li5  1  0.33186690  0.76316519  0.55915477  1
  Li  Li6  1  0.68597614  0.08823034  0.93859553  1
  Li  Li7  1  0.22310010  0.68326142  0.94525643  1
  Li  Li8  1  0.09695007  0.66369140  0.43684637  1
  Li  Li9  1  0.23463864  0.09789551  0.43917937  1
  Li  Li10  1  0.09230311  0.22467736  0.94364674  1
  Li  Li11  1  0.96850530  0.97946448  0.50055734  1
  V  V12  1  0.56611474  0.43322780  0.25061267  1
  V  V13  1  0.43540735  0.56620692  0.75088136  1
  V  V14  1  0.57126077  0.99865570  0.74523737  1
  V  V15  1  0.43770910  0.00138690  0.25158968  1
  V  V16  1  0.99954539  0.56900430  0.24722131  1
  V  V17  1  0.00160372  0.43689451  0.74813890  1
  P  P18  1  0.91239509  0.77329352  0.83798997  1
  P  P19  1  0.77997700  0.91622441  0.33866200  1
  P  P20  1  0.91375456  0.31653686  0.34186709  1
  P  P21  1  0.66390626  0.66828137  0.13009618  1
  P  P22  1  0.66751301  0.66356397  0.62993145  1
  P  P23  1  0.77202633  0.32128839  0.84333769  1
  P  P24  1  0.68497601  0.22963270  0.65848881  1
  P  P25  1  0.32200719  0.91053121  0.84334049  1
  P  P26  1  0.68146047  0.08709218  0.15441024  1
  P  P27  1  0.31461723  0.77379420  0.34320804  1
  P  P28  1  0.23078103  0.67926728  0.15974080  1
  P  P29  1  0.33313838  0.33281576  0.37242998  1
  P  P30  1  0.33568685  0.33252927  0.87021646  1
  P  P31  1  0.08490795  0.68955447  0.65303950  1
  P  P32  1  0.22781280  0.08460980  0.65762451  1
  P  P33  1  0.08818163  0.23083414  0.15873180  1
  O  O34  1  0.01185499  0.77404590  0.56100524  1
  O  O35  1  0.92141111  0.74664612  0.33978810  1
  O  O36  1  0.75036623  0.00900902  0.06202851  1
  O  O37  1  0.74517676  0.92090685  0.84037148  1
  O  O38  1  0.88833112  0.62783876  0.82441550  1
  O  O39  1  0.80915917  0.67108352  0.17358283  1
  O  O40  1  0.91412176  0.47175880  0.33028466  1
  O  O41  1  0.99606642  0.24578880  0.06860784  1
  O  O42  1  0.92371629  0.33171746  0.84581448  1
  O  O43  1  0.67782825  0.80408011  0.67340993  1
  O  O44  1  0.62275427  0.91635260  0.33260635  1
  O  O45  1  0.81382042  0.50684566  0.67108103  1
  O  O46  1  0.65866135  0.66926036  0.02267300  1
  O  O47  1  0.66343803  0.65394782  0.52353323  1
  O  O48  1  0.66810204  0.51509276  0.16738690  1
  O  O49  1  0.48743893  0.89016058  0.82572337  1
  O  O50  1  0.51133482  0.81698605  0.17029693  1
  O  O51  1  0.74386856  0.34268318  0.34120134  1
  O  O52  1  0.79136207  0.21152581  0.75186808  1
  O  O53  1  0.77671697  0.22204619  0.56978160  1
  O  O54  1  0.74895132  0.24821051  0.93168902  1
  O  O55  1  0.63110019  0.48896139  0.82511803  1
  O  O56  1  0.51214287  0.67270281  0.67252269  1
  O  O57  1  0.66564555  0.25350744  0.16192141  1
  O  O58  1  0.47099734  0.62139766  0.33035227  1
  O  O59  1  0.33543958  0.91914448  0.34342317  1
  O  O60  1  0.79982585  0.99057215  0.24062725  1
  O  O61  1  0.79315052  0.01045877  0.41994581  1
  O  O62  1  0.22874758  0.99522363  0.56870395  1
  O  O63  1  0.65837747  0.08746231  0.66224431  1
  O  O64  1  0.52940255  0.38440630  0.66828513  1
  O  O65  1  0.33704012  0.74638195  0.84684189  1
  O  O66  1  0.48916940  0.32102860  0.33416931  1
  O  O67  1  0.38096691  0.51906175  0.17920776  1
  O  O68  1  0.24700622  0.75411127  0.07050677  1
  O  O69  1  0.22305297  0.77498799  0.43082951  1
  O  O70  1  0.20825531  0.79308752  0.24919847  1
  O  O71  1  0.25221896  0.66702387  0.66251960  1
  O  O72  1  0.48416160  0.18560143  0.83025103  1
  O  O73  1  0.51984499  0.10207071  0.17623259  1
  O  O74  1  0.33740818  0.48273115  0.82913270  1
  O  O75  1  0.32595509  0.33770335  0.97657722  1
  O  O76  1  0.33242324  0.32563651  0.47936980  1
  O  O77  1  0.18935786  0.48809579  0.33284090  1
  O  O78  1  0.38080657  0.08911877  0.67272807  1
  O  O79  1  0.32248544  0.18728114  0.32946434  1
  O  O80  1  0.08699705  0.65618687  0.16036734  1
  O  O81  1  0.98579442  0.79970643  0.74129333  1
  O  O82  1  0.01130188  0.76034360  0.92186720  1
  O  O83  1  0.08602262  0.53272937  0.66563590  1
  O  O84  1  0.18355842  0.33727461  0.82450122  1
  O  O85  1  0.10416873  0.37650542  0.17841378  1
  O  O86  1  0.24997660  0.08096223  0.15888169  1
  O  O87  1  0.24552755  0.00495981  0.93205080  1
  O  O88  1  0.21139217  0.99654059  0.75143514  1
  O  O89  1  0.08254730  0.25002796  0.65767861  1
  O  O90  1  0.99970894  0.22577664  0.43067660  1
  O  O91  1  0.99529959  0.21037945  0.24847993  1
