# generated using pymatgen
data_V2(OF)3
_symmetry_space_group_name_H-M   'P 1'
_cell_length_a   5.19544674
_cell_length_b   9.25417364
_cell_length_c   5.25158345
_cell_angle_alpha   104.86637609
_cell_angle_beta   119.36517327
_cell_angle_gamma   73.74078341
_symmetry_Int_Tables_number   1
_chemical_formula_structural   V2(OF)3
_chemical_formula_sum   'V4 O6 F6'
_cell_volume   209.09293089
_cell_formula_units_Z   2
loop_
 _symmetry_equiv_pos_site_id
 _symmetry_equiv_pos_as_xyz
  1  'x, y, z'
loop_
 _atom_site_type_symbol
 _atom_site_label
 _atom_site_symmetry_multiplicity
 _atom_site_fract_x
 _atom_site_fract_y
 _atom_site_fract_z
 _atom_site_occupancy
  V  V0  1  0.95335881  0.00169726  0.98308930  1
  V  V1  1  0.72276447  0.76140487  0.24771510  1
  V  V2  1  0.54541763  0.50110284  0.51338278  1
  V  V3  1  0.24717892  0.26222976  0.72852405  1
  O  O4  1  0.39357650  0.87478795  0.19980904  1
  O  O5  1  0.82584526  0.87518166  0.05515617  1
  O  O6  1  0.29375639  0.37704926  0.56040246  1
  O  O7  1  0.70222498  0.61648318  0.45103135  1
  O  O8  1  0.63127137  0.12185875  0.80894285  1
  O  O9  1  0.85267282  0.37211512  0.68813541  1
  F  F10  1  0.12755028  0.62078950  0.30103984  1
  F  F11  1  0.04264139  0.12019866  0.37311967  1
  F  F12  1  0.44842153  0.37407262  0.13173948  1
  F  F13  1  0.20169568  0.12132879  0.95617679  1
  F  F14  1  0.54104664  0.62279910  0.86907294  1
  F  F15  1  0.97057733  0.87689865  0.63266378  1
