# generated using pymatgen
data_Li4MnCo2O7
_symmetry_space_group_name_H-M   'P 1'
_cell_length_a   3.02850781
_cell_length_b   10.69749885
_cell_length_c   8.03693453
_cell_angle_alpha   78.55604283
_cell_angle_beta   89.11707835
_cell_angle_gamma   86.88218628
_symmetry_Int_Tables_number   1
_chemical_formula_structural   Li4MnCo2O7
_chemical_formula_sum   'Li8 Mn2 Co4 O14'
_cell_volume   254.81919707
_cell_formula_units_Z   2
loop_
 _symmetry_equiv_pos_site_id
 _symmetry_equiv_pos_as_xyz
  1  'x, y, z'
loop_
 _atom_site_type_symbol
 _atom_site_label
 _atom_site_symmetry_multiplicity
 _atom_site_fract_x
 _atom_site_fract_y
 _atom_site_fract_z
 _atom_site_occupancy
  Li  Li0  1  0.85549469  0.29039232  0.93273698  1
  Li  Li1  1  0.14539951  0.71278634  0.07064827  1
  Li  Li2  1  0.42661215  0.14436259  0.21703004  1
  Li  Li3  1  0.28481240  0.42958983  0.64275432  1
  Li  Li4  1  0.57342010  0.85521205  0.78458733  1
  Li  Li5  1  0.71431468  0.56885899  0.35442664  1
  Li  Li6  1  0.99927226  0.99889579  0.49812432  1
  Li  Li7  1  0.28599373  0.42924044  0.14196910  1
  Mn  Mn8  1  0.00082921  0.99816391  0.00310495  1
  Mn  Mn9  1  0.42575131  0.14538474  0.71011301  1
  Co  Co10  1  0.57243412  0.85456131  0.28867451  1
  Co  Co11  1  0.85051776  0.29360424  0.41521449  1
  Co  Co12  1  0.14234673  0.71368834  0.57345070  1
  Co  Co13  1  0.71787008  0.56598135  0.86766662  1
  O  O14  1  0.40563093  0.14056403  0.95671082  1
  O  O15  1  0.70854773  0.57463563  0.08218557  1
  O  O16  1  0.97890857  0.99083145  0.24661329  1
  O  O17  1  0.84089148  0.28220219  0.65902924  1
  O  O18  1  0.12394247  0.70519599  0.81137202  1
  O  O19  1  0.27236778  0.41863134  0.39536767  1
  O  O20  1  0.55148402  0.84858892  0.52690297  1
  O  O21  1  0.30280035  0.43977576  0.88873448  1
  O  O22  1  0.58881413  0.86023148  0.04753455  1
  O  O23  1  0.86532024  0.28307475  0.20203796  1
  O  O24  1  0.73334819  0.58043567  0.62448599  1
  O  O25  1  0.02215887  0.00340896  0.75723542  1
  O  O26  1  0.16220645  0.72005280  0.33265337  1
  O  O27  1  0.44851005  0.15164879  0.46863538  1
