# generated using pymatgen
data_Li6V3P8O29
_symmetry_space_group_name_H-M   'P 1'
_cell_length_a   9.81362247
_cell_length_b   9.81027107
_cell_length_c   13.97345083
_cell_angle_alpha   90.27601143
_cell_angle_beta   90.42271231
_cell_angle_gamma   59.91517334
_symmetry_Int_Tables_number   1
_chemical_formula_structural   Li6V3P8O29
_chemical_formula_sum   'Li12 V6 P16 O58'
_cell_volume   1164.02047050
_cell_formula_units_Z   2
loop_
 _symmetry_equiv_pos_site_id
 _symmetry_equiv_pos_as_xyz
  1  'x, y, z'
loop_
 _atom_site_type_symbol
 _atom_site_label
 _atom_site_symmetry_multiplicity
 _atom_site_fract_x
 _atom_site_fract_y
 _atom_site_fract_z
 _atom_site_occupancy
  Li  Li0  1  0.76388215  0.90438748  0.55780431  1
  Li  Li1  1  0.67845299  0.66668370  0.88913388  1
  Li  Li2  1  0.77617927  0.30811205  0.06235195  1
  Li  Li3  1  0.30985279  0.91042316  0.06258780  1
  Li  Li4  1  0.66528022  0.23934383  0.43790953  1
  Li  Li5  1  0.33052693  0.76556375  0.55916429  1
  Li  Li6  1  0.69332814  0.08362717  0.94286754  1
  Li  Li7  1  0.22626218  0.67971203  0.94550836  1
  Li  Li8  1  0.09818470  0.66667313  0.43686239  1
  Li  Li9  1  0.23595590  0.10163880  0.43940660  1
  Li  Li10  1  0.09421279  0.22672188  0.93943922  1
  Li  Li11  1  0.98775992  0.04671663  0.50112757  1
  V  V12  1  0.56683045  0.43347818  0.25085157  1
  V  V13  1  0.43479818  0.56419439  0.74769797  1
  V  V14  1  0.56426531  0.00034400  0.75091468  1
  V  V15  1  0.43536752  0.00151746  0.25033302  1
  V  V16  1  0.00095495  0.56441269  0.24875814  1
  V  V17  1  0.99633793  0.43695264  0.74594289  1
  P  P18  1  0.91308822  0.77307674  0.84205360  1
  P  P19  1  0.77449668  0.91341265  0.34078081  1
  P  P20  1  0.91754104  0.30834971  0.33980076  1
  P  P21  1  0.66481893  0.66724349  0.13027651  1
  P  P22  1  0.66480272  0.67026578  0.62841283  1
  P  P23  1  0.77126517  0.31927210  0.84079243  1
  P  P24  1  0.68800426  0.22530515  0.65520797  1
  P  P25  1  0.32223759  0.90584414  0.84227851  1
  P  P26  1  0.68043535  0.08874295  0.15773670  1
  P  P27  1  0.31399946  0.77446027  0.34392278  1
  P  P28  1  0.22889896  0.67957099  0.16111629  1
  P  P29  1  0.33601113  0.33155638  0.37221518  1
  P  P30  1  0.33036529  0.33505100  0.87058410  1
  P  P31  1  0.08295864  0.68651505  0.65524026  1
  P  P32  1  0.22591709  0.08601640  0.65824110  1
  P  P33  1  0.08699173  0.23099342  0.15515443  1
  O  O34  1  0.99782500  0.77128019  0.56454618  1
  O  O35  1  0.91973707  0.74645146  0.34116593  1
  O  O36  1  0.75337448  0.00522451  0.06691741  1
  O  O37  1  0.74637582  0.92102133  0.84413388  1
  O  O38  1  0.89068063  0.62750351  0.82835267  1
  O  O39  1  0.81048241  0.66735325  0.17496348  1
  O  O40  1  0.92362298  0.46123972  0.33380397  1
  O  O41  1  0.99843158  0.24637494  0.06334167  1
  O  O42  1  0.92075422  0.33241301  0.84393713  1
  O  O43  1  0.67359409  0.81566747  0.67181847  1
  O  O44  1  0.62059343  0.90899607  0.33033863  1
  O  O45  1  0.80865403  0.52080733  0.67524637  1
  O  O46  1  0.65902087  0.67021798  0.02258974  1
  O  O47  1  0.66616336  0.67568078  0.52230361  1
  O  O48  1  0.66823341  0.51454244  0.16671773  1
  O  O49  1  0.48991850  0.88126407  0.82609270  1
  O  O50  1  0.51181881  0.81695478  0.16995647  1
  O  O51  1  0.74483013  0.34233182  0.34115227  1
  O  O52  1  0.79248357  0.20986669  0.74940263  1
  O  O53  1  0.77526667  0.21609596  0.56556892  1
  O  O54  1  0.74998347  0.24609311  0.92961440  1
  O  O55  1  0.62872960  0.48748953  0.82244903  1
  O  O56  1  0.50954515  0.67756256  0.66687915  1
  O  O57  1  0.66673057  0.25380421  0.16170982  1
  O  O58  1  0.47081515  0.62202593  0.33099303  1
  O  O59  1  0.33353852  0.92032146  0.34358510  1
  O  O60  1  0.79453325  0.99837957  0.24826102  1
  O  O61  1  0.77561816  0.00279317  0.42967690  1
  O  O62  1  0.22033959  0.99954671  0.56892974  1
  O  O63  1  0.66130435  0.08362018  0.66020738  1
  O  O64  1  0.53178982  0.38309577  0.66777628  1
  O  O65  1  0.33596307  0.74205257  0.84398175  1
  O  O66  1  0.49128701  0.32041143  0.33418569  1
  O  O67  1  0.38162447  0.51966867  0.17994494  1
  O  O68  1  0.24545733  0.75373850  0.07110735  1
  O  O69  1  0.22405868  0.77516076  0.43219942  1
  O  O70  1  0.20689041  0.79368198  0.25031544  1
  O  O71  1  0.24877827  0.66818678  0.65886509  1
  O  O72  1  0.47908864  0.18342769  0.82799940  1
  O  O73  1  0.51819292  0.10524936  0.17742085  1
  O  O74  1  0.33493629  0.48210557  0.82877468  1
  O  O75  1  0.33153938  0.33219193  0.97682821  1
  O  O76  1  0.33684908  0.32320581  0.47911731  1
  O  O77  1  0.19086943  0.48718709  0.33301906  1
  O  O78  1  0.38320338  0.08377898  0.66842475  1
  O  O79  1  0.32497999  0.18628718  0.32919650  1
  O  O80  1  0.08680804  0.65593616  0.16217401  1
  O  O81  1  0.98813981  0.79668163  0.74423947  1
  O  O82  1  0.01301766  0.76188824  0.92492029  1
  O  O83  1  0.09112471  0.52701721  0.66811332  1
  O  O84  1  0.18028825  0.33708462  0.82779260  1
  O  O85  1  0.10589688  0.37411575  0.17678188  1
  O  O86  1  0.24882696  0.07955368  0.15731114  1
  O  O87  1  0.24704471  -0.00015108  0.93109495  1
  O  O88  1  0.21336802  0.99282767  0.75087453  1
  O  O89  1  0.08491176  0.25107546  0.66309426  1
  O  O90  1  0.00929290  0.19948561  0.42069412  1
  O  O91  1  0.98718667  0.21350509  0.24067033  1
