# generated using pymatgen
data_Li8Mn7Cr(PO4)12
_symmetry_space_group_name_H-M   'P 1'
_cell_length_a   8.56337525
_cell_length_b   8.79869658
_cell_length_c   11.97180972
_cell_angle_alpha   89.77181484
_cell_angle_beta   89.91714725
_cell_angle_gamma   89.96656359
_symmetry_Int_Tables_number   1
_chemical_formula_structural   Li8Mn7Cr(PO4)12
_chemical_formula_sum   'Li8 Mn7 Cr1 P12 O48'
_cell_volume   902.02619920
_cell_formula_units_Z   1
loop_
 _symmetry_equiv_pos_site_id
 _symmetry_equiv_pos_as_xyz
  1  'x, y, z'
loop_
 _atom_site_type_symbol
 _atom_site_label
 _atom_site_symmetry_multiplicity
 _atom_site_fract_x
 _atom_site_fract_y
 _atom_site_fract_z
 _atom_site_occupancy
  Li  Li0  1  0.21589307  0.72190173  0.18078436  1
  Li  Li1  1  0.21527392  0.77752665  0.81998828  1
  Li  Li2  1  0.28482132  0.22220323  0.31856914  1
  Li  Li3  1  0.28411532  0.27959934  0.68108529  1
  Li  Li4  1  0.71675288  0.72136489  0.32035402  1
  Li  Li5  1  0.71636552  0.77718172  0.68067822  1
  Li  Li6  1  0.78385670  0.22255171  0.18083863  1
  Li  Li7  1  0.78387959  0.27850156  0.81930462  1
  Mn  Mn8  1  0.24659566  0.96262260  0.61293733  1
  Mn  Mn9  1  0.24870412  0.53559137  0.38598103  1
  Mn  Mn10  1  0.25121484  0.03653085  0.11340490  1
  Mn  Mn11  1  0.25050796  0.46460303  0.88617944  1
  Mn  Mn12  1  0.74802115  0.53616660  0.11471735  1
  Mn  Mn13  1  0.74826295  0.96334260  0.88664025  1
  Mn  Mn14  1  0.75137381  0.03663139  0.38564424  1
  Cr  Cr15  1  0.75179162  0.46383907  0.61613377  1
  P  P16  1  0.03636617  0.24741030  0.50015738  1
  P  P17  1  0.46400965  0.75046808  0.99983637  1
  P  P18  1  0.53511317  0.24986871  -0.00000936  1
  P  P19  1  0.96465684  0.74895243  0.50057790  1
  P  P20  1  0.10558228  0.39400134  0.14716940  1
  P  P21  1  0.10565661  0.10595738  0.85203385  1
  P  P22  1  0.39346965  0.60814422  0.64583897  1
  P  P23  1  0.39404910  0.89401549  0.35304827  1
  P  P24  1  0.60569669  0.10567619  0.64630688  1
  P  P25  1  0.60538140  0.39418803  0.35264939  1
  P  P26  1  0.89403301  0.60569164  0.85526799  1
  P  P27  1  0.89407391  0.89448785  0.14713523  1
  O  O28  1  0.05922281  0.64219259  0.42514577  1
  O  O29  1  0.05884550  0.85796685  0.57587495  1
  O  O30  1  0.07524788  0.89732694  0.15707769  1
  O  O31  1  0.07466340  0.60477811  0.84401525  1
  O  O32  1  0.14513460  0.15784409  0.58351365  1
  O  O33  1  0.14691813  0.33379980  0.41889172  1
  O  O34  1  0.15595677  0.43808105  0.02895254  1
  O  O35  1  0.15565878  0.06104367  0.97042736  1
  O  O36  1  0.15899067  0.23294393  0.18059068  1
  O  O37  1  0.15812924  0.26577141  0.81824504  1
  O  O38  1  0.17789824  0.51558714  0.22669827  1
  O  O39  1  0.17865831  0.98327336  0.77309847  1
  O  O40  1  0.32153752  0.01579434  0.27407484  1
  O  O41  1  0.32029091  0.48824571  0.72623782  1
  O  O42  1  0.33746058  0.77105544  0.67803412  1
  O  O43  1  0.34075433  0.73298428  0.31985345  1
  O  O44  1  0.34427700  0.56289216  0.52782241  1
  O  O45  1  0.34477404  0.93801736  0.47225407  1
  O  O46  1  0.35736279  0.83654782  0.08331480  1
  O  O47  1  0.35789689  0.66643716  0.91709159  1
  O  O48  1  0.42394641  0.10265003  0.65647764  1
  O  O49  1  0.42442074  0.39684992  0.34128221  1
  O  O50  1  0.44165582  0.14133168  0.07528768  1
  O  O51  1  0.44224540  0.35748797  0.92442743  1
  O  O52  1  0.55704486  0.64305557  0.07595393  1
  O  O53  1  0.55834594  0.85865221  0.92381256  1
  O  O54  1  0.57314485  0.60611571  0.65694557  1
  O  O55  1  0.57454211  0.89590972  0.34306911  1
  O  O56  1  0.64378009  0.33591545  0.08159102  1
  O  O57  1  0.64407545  0.16194256  0.91725541  1
  O  O58  1  0.65594052  0.06118077  0.52842039  1
  O  O59  1  0.65632839  0.43777046  0.46965338  1
  O  O60  1  0.65738748  0.23333471  0.31879901  1
  O  O61  1  0.65855339  0.26720394  0.67894512  1
  O  O62  1  0.67843392  0.51563786  0.27219063  1
  O  O63  1  0.67794527  0.98456268  0.72681724  1
  O  O64  1  0.82171082  0.01592009  0.22642936  1
  O  O65  1  0.82300025  0.48515205  0.77617437  1
  O  O66  1  0.84149038  0.73355685  0.18098632  1
  O  O67  1  0.84021257  0.76806662  0.82053411  1
  O  O68  1  0.84525658  0.56505429  0.97427317  1
  O  O69  1  0.84421751  0.93877793  0.02833147  1
  O  O70  1  0.85552165  0.66165753  0.58172862  1
  O  O71  1  0.85769968  0.83623502  0.41871812  1
  O  O72  1  0.92458930  0.10314028  0.84185108  1
  O  O73  1  0.92530872  0.39543241  0.15793431  1
  O  O74  1  0.94450163  0.14026679  0.42428965  1
  O  O75  1  0.94350699  0.35553270  0.57335344  1
