# generated using pymatgen
data_Li3MnCo3O8
_symmetry_space_group_name_H-M   'P 1'
_cell_length_a   5.83455136
_cell_length_b   5.67716484
_cell_length_c   5.67716522
_cell_angle_alpha   59.99999710
_cell_angle_beta   60.88837892
_cell_angle_gamma   89.99999790
_symmetry_Int_Tables_number   1
_chemical_formula_structural   Li3MnCo3O8
_chemical_formula_sum   'Li3 Mn1 Co3 O8'
_cell_volume   134.72818229
_cell_formula_units_Z   1
loop_
 _symmetry_equiv_pos_site_id
 _symmetry_equiv_pos_as_xyz
  1  'x, y, z'
loop_
 _atom_site_type_symbol
 _atom_site_label
 _atom_site_symmetry_multiplicity
 _atom_site_fract_x
 _atom_site_fract_y
 _atom_site_fract_z
 _atom_site_occupancy
  Li  Li0  1  0.50000000  0.00000000  0.00000000  1
  Li  Li1  1  0.50000000  0.00000000  0.50000000  1
  Li  Li2  1  0.50000000  0.50000000  0.50000000  1
  Mn  Mn3  1  0.00000000  0.00000000  0.00000000  1
  Co  Co4  1  0.00000000  0.00000000  0.50000000  1
  Co  Co5  1  0.00000000  0.50000000  0.00000000  1
  Co  Co6  1  0.00000000  0.50000000  0.50000000  1
  O  O7  1  0.21321489  0.23560067  0.02238577  1
  O  O8  1  0.21321489  0.23560067  0.52879767  1
  O  O9  1  0.21321489  0.74201356  0.02238577  1
  O  O10  1  0.21328685  0.73776195  0.52447510  1
  O  O11  1  0.78671315  0.26223805  0.47552490  1
  O  O12  1  0.78678511  0.25798644  0.97761423  1
  O  O13  1  0.78678511  0.76439933  0.47120233  1
  O  O14  1  0.78678511  0.76439933  0.97761423  1
