# generated using pymatgen
data_Li2Fe3F8
_symmetry_space_group_name_H-M   'P 1'
_cell_length_a   5.34810697
_cell_length_b   5.69076133
_cell_length_c   6.94381919
_cell_angle_alpha   54.87837732
_cell_angle_beta   68.03550150
_cell_angle_gamma   62.66812411
_symmetry_Int_Tables_number   1
_chemical_formula_structural   Li2Fe3F8
_chemical_formula_sum   'Li2 Fe3 F8'
_cell_volume   151.79344682
_cell_formula_units_Z   1
loop_
 _symmetry_equiv_pos_site_id
 _symmetry_equiv_pos_as_xyz
  1  'x, y, z'
loop_
 _atom_site_type_symbol
 _atom_site_label
 _atom_site_symmetry_multiplicity
 _atom_site_fract_x
 _atom_site_fract_y
 _atom_site_fract_z
 _atom_site_occupancy
  Li  Li0  1  0.44709782  0.33339208  0.75627504  1
  Li  Li1  1  0.55290218  0.66660792  0.24372496  1
  Fe  Fe2  1  -0.00000000  0.00000000  -0.00000000  1
  Fe  Fe3  1  0.23510478  0.17006354  0.36010495  1
  Fe  Fe4  1  0.76489522  0.82993646  0.63989505  1
  F  F5  1  0.21820673  0.17252549  0.06148401  1
  F  F6  1  0.21516673  0.72817189  0.54286916  1
  F  F7  1  0.31453075  0.08105366  0.68303149  1
  F  F8  1  0.28176178  0.58055325  0.18517727  1
  F  F9  1  0.71823822  0.41944675  0.81482273  1
  F  F10  1  0.68546925  0.91894634  0.31696851  1
  F  F11  1  0.78483327  0.27182811  0.45713084  1
  F  F12  1  0.78179327  0.82747451  0.93851599  1
