# generated using pymatgen
data_Na2NiPCO7
_symmetry_space_group_name_H-M   'P 1'
_cell_length_a   10.10938050
_cell_length_b   10.35833801
_cell_length_c   8.49061926
_cell_angle_alpha   108.58873586
_cell_angle_beta   72.61374436
_cell_angle_gamma   60.96234120
_symmetry_Int_Tables_number   1
_chemical_formula_structural   Na2NiPCO7
_chemical_formula_sum   'Na8 Ni4 P4 C4 O28'
_cell_volume   616.65091708
_cell_formula_units_Z   4
loop_
 _symmetry_equiv_pos_site_id
 _symmetry_equiv_pos_as_xyz
  1  'x, y, z'
loop_
 _atom_site_type_symbol
 _atom_site_label
 _atom_site_symmetry_multiplicity
 _atom_site_fract_x
 _atom_site_fract_y
 _atom_site_fract_z
 _atom_site_occupancy
  Na  Na0  1  0.74941543  0.98678320  0.48593601  1
  Na  Na1  1  0.99360395  0.75324513  0.00783671  1
  Na  Na2  1  0.74547501  0.51999506  0.51033254  1
  Na  Na3  1  0.50305818  0.75993185  0.98894598  1
  Na  Na4  1  0.76598081  0.30973631  0.76942794  1
  Na  Na5  1  0.25636935  0.48134946  0.46513292  1
  Na  Na6  1  0.01940376  0.23836405  0.98998029  1
  Na  Na7  1  0.25661536  0.00008657  0.51161500  1
  Ni  Ni8  1  0.83495015  0.81703462  0.75522196  1
  Ni  Ni9  1  0.65982259  0.68827622  0.24665976  1
  Ni  Ni10  1  0.33945557  0.31261274  0.75943862  1
  Ni  Ni11  1  0.16032391  0.19011411  0.25128791  1
  P  P12  1  0.47409606  0.94811983  0.75284074  1
  P  P13  1  0.97734375  0.44334489  0.74907610  1
  P  P14  1  0.02264113  0.55826866  0.24984354  1
  P  P15  1  0.52648939  0.05138107  0.24903572  1
  C  C16  1  0.94525672  0.98278592  0.74918250  1
  C  C17  1  0.55561449  0.52095173  0.25225810  1
  C  C18  1  0.45022353  0.47734810  0.74427572  1
  C  C19  1  0.05308181  0.02223222  0.25129815  1
  O  O20  1  0.99408330  0.94019139  0.25478473  1
  O  O21  1  0.70237172  0.96589039  0.06123484  1
  O  O22  1  0.98327596  0.58843582  0.74623904  1
  O  O23  1  0.84995726  0.68927957  0.25499701  1
  O  O24  1  0.64329078  0.81541187  0.75021648  1
  O  O25  1  0.51907426  0.90441663  0.25115593  1
  O  O26  1  0.48651621  0.83865809  0.56715177  1
  O  O27  1  0.79956541  0.52124240  0.93279567  1
  O  O28  1  0.98295818  0.33540628  0.56709294  1
  O  O29  1  0.19823578  0.97545840  0.25240429  1
  O  O30  1  0.70351509  0.47634113  0.24749240  1
  O  O31  1  0.47435630  0.66229626  0.24782399  1
  O  O32  1  0.97347109  0.16524333  0.25017544  1
  O  O33  1  0.50823780  0.56190467  0.74743818  1
  O  O34  1  0.50264130  0.43526562  0.25561205  1
  O  O35  1  0.02139052  0.84273999  0.75497624  1
  O  O36  1  0.53385613  0.33293690  0.74203739  1
  O  O37  1  0.30463094  0.52421864  0.74507153  1
  O  O38  1  0.80371060  0.03091743  0.74295295  1
  O  O39  1  0.00893361  0.66569870  0.43729514  1
  O  O40  1  0.18652336  0.48940822  0.06336719  1
  O  O41  1  0.51800498  0.15546982  0.43281110  1
  O  O42  1  0.48073519  0.09146316  0.74460606  1
  O  O43  1  0.35300919  0.18346734  0.26028498  1
  O  O44  1  0.14312508  0.31187737  0.75077804  1
  O  O45  1  0.02130204  0.40845183  0.24930198  1
  O  O46  1  0.30149509  0.02677080  0.93990720  1
  O  O47  1  0.00332990  0.06811020  0.75052623  1
