# generated using pymatgen
data_Na5Ni2P2(CO7)2
_symmetry_space_group_name_H-M   'P 1'
_cell_length_a   10.18118135
_cell_length_b   10.44120725
_cell_length_c   8.40690116
_cell_angle_alpha   108.76071396
_cell_angle_beta   72.24667389
_cell_angle_gamma   60.76527281
_symmetry_Int_Tables_number   1
_chemical_formula_structural   Na5Ni2P2(CO7)2
_chemical_formula_sum   'Na10 Ni4 P4 C4 O28'
_cell_volume   612.20642733
_cell_formula_units_Z   2
loop_
 _symmetry_equiv_pos_site_id
 _symmetry_equiv_pos_as_xyz
  1  'x, y, z'
loop_
 _atom_site_type_symbol
 _atom_site_label
 _atom_site_symmetry_multiplicity
 _atom_site_fract_x
 _atom_site_fract_y
 _atom_site_fract_z
 _atom_site_occupancy
  Na  Na0  1  0.75699927  0.97389193  0.48809331  1
  Na  Na1  1  0.99275941  0.73771834  0.01226123  1
  Na  Na2  1  0.52026488  0.75079039  0.97668513  1
  Na  Na3  1  0.28821643  0.79653700  0.74040148  1
  Na  Na4  1  0.77632259  0.30921905  0.74066328  1
  Na  Na5  1  0.71975981  0.20134614  0.25982990  1
  Na  Na6  1  0.48047606  0.25219698  0.01145375  1
  Na  Na7  1  0.24058685  0.49143800  0.48730957  1
  Na  Na8  1  0.01371541  0.25682677  0.99367904  1
  Na  Na9  1  0.25056128  0.01399689  0.50417346  1
  Ni  Ni10  1  0.83922492  0.81427869  0.75209361  1
  Ni  Ni11  1  0.66019169  0.68435440  0.25470219  1
  Ni  Ni12  1  0.34117855  0.31187586  0.74854855  1
  Ni  Ni13  1  0.15263031  0.19219004  0.25466224  1
  P  P14  1  0.47582743  0.94591437  0.75117289  1
  P  P15  1  0.97886493  0.44103908  0.75010023  1
  P  P16  1  0.02208526  0.55399991  0.25300145  1
  P  P17  1  0.52481921  0.05685292  0.24874751  1
  C  C18  1  0.94867788  0.98744285  0.75025930  1
  C  C19  1  0.55408791  0.51302950  0.24906277  1
  C  C20  1  0.44367295  0.48803392  0.75456260  1
  C  C21  1  0.05292595  0.01250237  0.24567940  1
  O  O22  1  0.99134906  0.93212556  0.24909355  1
  O  O23  1  0.70357515  0.97867022  0.06350142  1
  O  O24  1  0.97825996  0.58806674  0.75059543  1
  O  O25  1  0.85410174  0.68446436  0.25088236  1
  O  O26  1  0.63654818  0.82312316  0.75741186  1
  O  O27  1  0.52438971  0.90659537  0.24675198  1
  O  O28  1  0.48405188  0.83851240  0.55982444  1
  O  O29  1  0.79744496  0.52125694  0.94139821  1
  O  O30  1  0.99474082  0.32349270  0.56522365  1
  O  O31  1  0.19625054  0.96452098  0.24673729  1
  O  O32  1  0.70178777  0.45844795  0.24476866  1
  O  O33  1  0.47319833  0.65862399  0.25502974  1
  O  O34  1  0.96974179  0.15322906  0.24289061  1
  O  O35  1  0.50021945  0.57314062  0.76150900  1
  O  O36  1  0.49490486  0.42991645  0.24956516  1
  O  O37  1  0.03204672  0.84461815  0.74996955  1
  O  O38  1  0.52897164  0.34116279  0.74867740  1
  O  O39  1  0.30152606  0.53680199  0.74691248  1
  O  O40  1  0.80269390  0.04118146  0.75085338  1
  O  O41  1  0.00776427  0.66544270  0.44061089  1
  O  O42  1  0.19602297  0.47855210  0.06446988  1
  O  O43  1  0.51757050  0.16222624  0.43485775  1
  O  O44  1  0.47789812  0.09190159  0.74949857  1
  O  O45  1  0.35936310  0.18568051  0.25001964  1
  O  O46  1  0.14230366  0.31439428  0.75567819  1
  O  O47  1  0.02383107  0.40637375  0.24898464  1
  O  O48  1  0.29668841  0.02191543  0.93325749  1
  O  O49  1  0.00602344  0.07329712  0.75403490  1
