# generated using pymatgen
data_Li2Ti3MnO8
_symmetry_space_group_name_H-M   'P 1'
_cell_length_a   8.56237405
_cell_length_b   8.56246176
_cell_length_c   8.56276990
_cell_angle_alpha   89.99983961
_cell_angle_beta   90.00020288
_cell_angle_gamma   89.99989414
_symmetry_Int_Tables_number   1
_chemical_formula_structural   Li2Ti3MnO8
_chemical_formula_sum   'Li8 Ti12 Mn4 O32'
_cell_volume   627.77947845
_cell_formula_units_Z   4
loop_
 _symmetry_equiv_pos_site_id
 _symmetry_equiv_pos_as_xyz
  1  'x, y, z'
loop_
 _atom_site_type_symbol
 _atom_site_label
 _atom_site_symmetry_multiplicity
 _atom_site_fract_x
 _atom_site_fract_y
 _atom_site_fract_z
 _atom_site_occupancy
  Li  Li0  1  0.00138277  0.00137952  0.00139830  1
  Li  Li1  1  0.24863524  0.24865784  0.24863856  1
  Li  Li2  1  0.25135368  0.75137189  0.74865050  1
  Li  Li3  1  0.49862270  0.99864479  0.50139114  1
  Li  Li4  1  0.50136372  0.49865480  0.99862663  1
  Li  Li5  1  0.74864048  0.25136950  0.75137475  1
  Li  Li6  1  0.75136168  0.74865682  0.25137385  1
  Li  Li7  1  0.99861925  0.50137397  0.49862252  1
  Ti  Ti8  1  0.12214850  0.12790673  0.62498678  1
  Ti  Ti9  1  0.12492037  0.37786058  0.87213658  1
  Ti  Ti10  1  0.12784700  0.62494239  0.12212936  1
  Ti  Ti11  1  0.37207282  0.37511726  0.62214066  1
  Ti  Ti12  1  0.37504160  0.62211880  0.37205639  1
  Ti  Ti13  1  0.37785344  0.87212016  0.12491876  1
  Ti  Ti14  1  0.62210610  0.37206083  0.37505185  1
  Ti  Ti15  1  0.62494406  0.12208181  0.12792532  1
  Ti  Ti16  1  0.62788247  0.87502794  0.87784929  1
  Ti  Ti17  1  0.87215178  0.12492471  0.37789028  1
  Ti  Ti18  1  0.87504483  0.87788251  0.62789609  1
  Ti  Ti19  1  0.87785915  0.62791326  0.87504789  1
  Mn  Mn20  1  0.12523780  0.87490263  0.37501598  1
  Mn  Mn21  1  0.37519325  0.12517074  0.87491772  1
  Mn  Mn22  1  0.62503032  0.62491188  0.62480228  1
  Mn  Mn23  1  0.87480478  0.37485406  0.12507883  1
  O  O24  1  0.09738812  0.12987062  0.39282908  1
  O  O25  1  0.10719046  0.90263217  0.62988594  1
  O  O26  1  0.11465795  0.61469178  0.88538575  1
  O  O27  1  0.12012970  0.15265377  0.85716864  1
  O  O28  1  0.12982302  0.39282420  0.09737889  1
  O  O29  1  0.13530104  0.36471620  0.63533762  1
  O  O30  1  0.14285484  0.62010201  0.34737600  1
  O  O31  1  0.15263649  0.85715409  0.12014432  1
  O  O32  1  0.34735084  0.14287028  0.62013194  1
  O  O33  1  0.35714553  0.37993495  0.84737432  1
  O  O34  1  0.36469231  0.63530494  0.13533876  1
  O  O35  1  0.37012958  0.60719269  0.59737538  1
  O  O36  1  0.37993583  0.84734620  0.35716364  1
  O  O37  1  0.38532412  0.38534212  0.38538689  1
  O  O38  1  0.39281176  0.09737975  0.12986996  1
  O  O39  1  0.40260726  0.87016357  0.89283432  1
  O  O40  1  0.59737547  0.37011634  0.60718784  1
  O  O41  1  0.60717924  0.59737182  0.37009686  1
  O  O42  1  0.61466240  0.88533904  0.11463790  1
  O  O43  1  0.62005042  0.34734632  0.14286418  1
  O  O44  1  0.62989659  0.10720303  0.90263978  1
  O  O45  1  0.63529297  0.13530971  0.36467784  1
  O  O46  1  0.64284696  0.87989201  0.65263690  1
  O  O47  1  0.65263459  0.64287106  0.87983938  1
  O  O48  1  0.84733487  0.35715480  0.37989021  1
  O  O49  1  0.85714029  0.12008873  0.15264057  1
  O  O50  1  0.86469366  0.86471173  0.86468457  1
  O  O51  1  0.87017372  0.89282889  0.40263350  1
  O  O52  1  0.87988916  0.65265527  0.64284573  1
  O  O53  1  0.88533362  0.11468367  0.61462809  1
  O  O54  1  0.89280295  0.40262664  0.87014384  1
  O  O55  1  0.90259947  0.62985520  0.10719103  1
