# generated using pymatgen
data_NbFe3Ni2(PO4)6
_symmetry_space_group_name_H-M   'P 1'
_cell_length_a   8.52372729
_cell_length_b   8.52372686
_cell_length_c   8.52372759
_cell_angle_alpha   61.01512702
_cell_angle_beta   61.01512772
_cell_angle_gamma   61.01512851
_symmetry_Int_Tables_number   1
_chemical_formula_structural   NbFe3Ni2(PO4)6
_chemical_formula_sum   'Nb1 Fe3 Ni2 P6 O24'
_cell_volume   447.91047978
_cell_formula_units_Z   1
loop_
 _symmetry_equiv_pos_site_id
 _symmetry_equiv_pos_as_xyz
  1  'x, y, z'
loop_
 _atom_site_type_symbol
 _atom_site_label
 _atom_site_symmetry_multiplicity
 _atom_site_fract_x
 _atom_site_fract_y
 _atom_site_fract_z
 _atom_site_occupancy
  Nb  Nb0  1  0.85725046  0.85725046  0.85725046  1
  Fe  Fe1  1  0.14640546  0.14640546  0.14640546  1
  Fe  Fe2  1  0.35613813  0.35613813  0.35613813  1
  Fe  Fe3  1  0.64382947  0.64382947  0.64382947  1
  Ni  Ni4  1  0.00597854  0.00597854  0.00597854  1
  Ni  Ni5  1  0.50085289  0.50085289  0.50085289  1
  P  P6  1  0.04838717  0.74694456  0.44696617  1
  P  P7  1  0.44696617  0.04838717  0.74694456  1
  P  P8  1  0.74694456  0.44696617  0.04838717  1
  P  P9  1  0.25630958  0.54048941  0.95387863  1
  P  P10  1  0.54048941  0.95387863  0.25630958  1
  P  P11  1  0.95387863  0.25630958  0.54048941  1
  O  O12  1  0.11127563  0.31759106  0.50538661  1
  O  O13  1  0.31759106  0.50538661  0.11127563  1
  O  O14  1  0.06160611  0.90939165  0.25521022  1
  O  O15  1  0.50538661  0.11127563  0.31759106  1
  O  O16  1  0.99417038  0.81957578  0.61200983  1
  O  O17  1  0.24380989  0.59211222  0.44388602  1
  O  O18  1  0.25521022  0.06160611  0.90939165  1
  O  O19  1  0.44388602  0.24380989  0.59211222  1
  O  O20  1  0.18038927  0.39061538  0.99642391  1
  O  O21  1  0.59211222  0.44388602  0.24380989  1
  O  O22  1  0.09300248  0.74245036  0.93726643  1
  O  O23  1  0.39061538  0.99642391  0.18038927  1
  O  O24  1  0.61200983  0.99417038  0.81957578  1
  O  O25  1  0.90939165  0.25521022  0.06160611  1
  O  O26  1  0.41018965  0.55869675  0.75559351  1
  O  O27  1  0.81957578  0.61200983  0.99417038  1
  O  O28  1  0.55869675  0.75559351  0.41018965  1
  O  O29  1  0.74245036  0.93726643  0.09300248  1
  O  O30  1  0.75559351  0.41018965  0.55869675  1
  O  O31  1  0.99642391  0.18038927  0.39061538  1
  O  O32  1  0.49510502  0.89014059  0.68066977  1
  O  O33  1  0.93726643  0.09300248  0.74245036  1
  O  O34  1  0.68066977  0.49510502  0.89014059  1
  O  O35  1  0.89014059  0.68066977  0.49510502  1
