# generated using pymatgen
data_Li4V5Cr3O16
_symmetry_space_group_name_H-M   'P 1'
_cell_length_a   5.87824070
_cell_length_b   5.96487151
_cell_length_c   9.57075359
_cell_angle_alpha   90.06149781
_cell_angle_beta   89.19925709
_cell_angle_gamma   120.48538255
_symmetry_Int_Tables_number   1
_chemical_formula_structural   Li4V5Cr3O16
_chemical_formula_sum   'Li4 V5 Cr3 O16'
_cell_volume   289.15268356
_cell_formula_units_Z   1
loop_
 _symmetry_equiv_pos_site_id
 _symmetry_equiv_pos_as_xyz
  1  'x, y, z'
loop_
 _atom_site_type_symbol
 _atom_site_label
 _atom_site_symmetry_multiplicity
 _atom_site_fract_x
 _atom_site_fract_y
 _atom_site_fract_z
 _atom_site_occupancy
  Li  Li0  1  0.33532248  0.66820793  0.89609771  1
  Li  Li1  1  -0.00069501  0.00024093  0.99798200  1
  Li  Li2  1  0.99770699  0.99717941  0.49378874  1
  Li  Li3  1  0.66972371  0.33532415  0.39153764  1
  V  V4  1  0.82646464  0.66112817  0.71513816  1
  V  V5  1  0.32644393  0.66398030  0.48591380  1
  V  V6  1  0.65311224  0.82789497  0.21733976  1
  V  V7  1  0.66935708  0.33527247  0.99238751  1
  V  V8  1  0.82864103  0.16521796  0.71490611  1
  Cr  Cr9  1  0.16783978  0.82623303  0.21246572  1
  Cr  Cr10  1  0.16786101  0.34130054  0.21280316  1
  Cr  Cr11  1  0.33889902  0.16912233  0.71346303  1
  O  O12  1  0.14879015  0.82671692  0.60401958  1
  O  O13  1  0.03858990  0.51968856  0.33653215  1
  O  O14  1  0.35355599  0.67593621  0.10329679  1
  O  O15  1  0.98940135  0.99463508  0.30589315  1
  O  O16  1  0.99406486  0.99605910  0.81271081  1
  O  O17  1  0.14770144  0.32090379  0.60493358  1
  O  O18  1  0.48641421  0.96341350  0.34007153  1
  O  O19  1  0.48617410  0.52478660  0.34083065  1
  O  O20  1  0.34628580  0.17239032  0.09099404  1
  O  O21  1  0.66733205  0.83276402  0.60772640  1
  O  O22  1  0.52743185  0.48707364  0.83946486  1
  O  O23  1  0.52881819  0.04141075  0.83846332  1
  O  O24  1  0.67920840  0.34010689  0.60367892  1
  O  O25  1  0.83418166  0.66530693  0.09539989  1
  O  O26  1  0.95698203  0.47909284  0.84423141  1
  O  O27  1  0.83439111  0.16891367  0.09576960  1
