# generated using pymatgen
data_Li4MnCo2O7
_symmetry_space_group_name_H-M   'P 1'
_cell_length_a   3.02403359
_cell_length_b   6.00469650
_cell_length_c   14.23537306
_cell_angle_alpha   82.76293108
_cell_angle_beta   95.69710276
_cell_angle_gamma   95.12888425
_symmetry_Int_Tables_number   1
_chemical_formula_structural   Li4MnCo2O7
_chemical_formula_sum   'Li8 Mn2 Co4 O14'
_cell_volume   254.39046474
_cell_formula_units_Z   2
loop_
 _symmetry_equiv_pos_site_id
 _symmetry_equiv_pos_as_xyz
  1  'x, y, z'
loop_
 _atom_site_type_symbol
 _atom_site_label
 _atom_site_symmetry_multiplicity
 _atom_site_fract_x
 _atom_site_fract_y
 _atom_site_fract_z
 _atom_site_occupancy
  Li  Li0  1  0.00023098  0.49965238  0.00034657  1
  Li  Li1  1  0.57129977  0.21423919  0.14251642  1
  Li  Li2  1  0.14461175  0.92846189  0.28662006  1
  Li  Li3  1  0.42610832  0.78442467  0.85502027  1
  Li  Li4  1  0.85429868  0.06637701  0.71262136  1
  Li  Li5  1  0.28468520  0.35752341  0.57104761  1
  Li  Li6  1  0.71914287  0.64856702  0.43233298  1
  Li  Li7  1  0.28574062  0.85621813  0.57186974  1
  Mn  Mn8  1  0.99995537  0.00131586  0.99910594  1
  Mn  Mn9  1  0.14440754  0.42797819  0.28745674  1
  Co  Co10  1  0.57111574  0.71391107  0.14287362  1
  Co  Co11  1  0.72249363  0.12846101  0.43508698  1
  Co  Co12  1  0.85181565  0.58314571  0.70861324  1
  Co  Co13  1  0.42723565  0.28823721  0.85471008  1
  O  O14  1  0.47236389  0.24758994  0.99218711  1
  O  O15  1  0.04442531  0.95335609  0.13848917  1
  O  O16  1  0.61813157  0.67251523  0.27933077  1
  O  O17  1  0.89856486  0.52469371  0.84548214  1
  O  O18  1  0.33570030  0.80127803  0.71450312  1
  O  O19  1  0.77446026  0.11383756  0.55816028  1
  O  O20  1  0.18924271  0.38176545  0.42506896  1
  O  O21  1  0.52683163  0.75515356  0.00587827  1
  O  O22  1  0.09909106  0.47383778  0.14809105  1
  O  O23  1  0.67005155  0.18367106  0.29704087  1
  O  O24  1  0.95304606  0.04934574  0.86034146  1
  O  O25  1  0.38418346  0.33440467  0.72056273  1
  O  O26  1  0.79574120  0.59866734  0.58556691  1
  O  O27  1  0.23502437  0.91137110  0.42907554  1
