# generated using pymatgen
data_Li2Mn3SnO8
_symmetry_space_group_name_H-M   'P 1'
_cell_length_a   8.70900899
_cell_length_b   8.34767992
_cell_length_c   8.74354007
_cell_angle_alpha   89.99856534
_cell_angle_beta   90.00108630
_cell_angle_gamma   89.99126375
_symmetry_Int_Tables_number   1
_chemical_formula_structural   Li2Mn3SnO8
_chemical_formula_sum   'Li8 Mn12 Sn4 O32'
_cell_volume   635.65552573
_cell_formula_units_Z   4
loop_
 _symmetry_equiv_pos_site_id
 _symmetry_equiv_pos_as_xyz
  1  'x, y, z'
loop_
 _atom_site_type_symbol
 _atom_site_label
 _atom_site_symmetry_multiplicity
 _atom_site_fract_x
 _atom_site_fract_y
 _atom_site_fract_z
 _atom_site_occupancy
  Li  Li0  1  0.00120658  0.00015665  0.00380405  1
  Li  Li1  1  0.24635571  0.24979310  0.24870185  1
  Li  Li2  1  0.25368871  0.75026820  0.74873019  1
  Li  Li3  1  0.49883300  0.99975629  0.50379076  1
  Li  Li4  1  0.50120709  0.49965116  0.99608212  1
  Li  Li5  1  0.74620233  0.25038321  0.75134971  1
  Li  Li6  1  0.75370816  0.74978662  0.25128724  1
  Li  Li7  1  0.99890042  0.50026173  0.49628164  1
  Mn  Mn8  1  0.12288106  0.13325315  0.62333820  1
  Mn  Mn9  1  0.12610822  0.38329321  0.87295232  1
  Mn  Mn10  1  0.12859103  0.62487310  0.12167342  1
  Mn  Mn11  1  0.37157746  0.37530149  0.62172145  1
  Mn  Mn12  1  0.37394414  0.61665857  0.37296738  1
  Mn  Mn13  1  0.37727497  0.86662224  0.12327306  1
  Mn  Mn14  1  0.62276183  0.36671305  0.37669025  1
  Mn  Mn15  1  0.62628198  0.11649119  0.12702969  1
  Mn  Mn16  1  0.62836851  0.87509976  0.87836354  1
  Mn  Mn17  1  0.87159362  0.12483974  0.37840868  1
  Mn  Mn18  1  0.87388133  0.88348213  0.62702238  1
  Mn  Mn19  1  0.87694201  0.63320701  0.87658329  1
  Sn  Sn20  1  0.12543117  0.87499332  0.37564418  1
  Sn  Sn21  1  0.37477807  0.12489859  0.87527447  1
  Sn  Sn22  1  0.62506251  0.62472203  0.62447974  1
  Sn  Sn23  1  0.87438086  0.37533205  0.12451047  1
  O  O24  1  0.09696492  0.12209433  0.37809131  1
  O  O25  1  0.12060832  0.89938115  0.61510001  1
  O  O26  1  0.11489041  0.61553409  0.89535243  1
  O  O27  1  0.13429517  0.14998760  0.87096922  1
  O  O28  1  0.11843765  0.39305586  0.10984763  1
  O  O29  1  0.14495458  0.36570355  0.63426431  1
  O  O30  1  0.12910872  0.62756485  0.34665774  1
  O  O31  1  0.14087149  0.85691962  0.13193302  1
  O  O32  1  0.35907869  0.14300492  0.63182726  1
  O  O33  1  0.37127738  0.37228027  0.84660726  1
  O  O34  1  0.35503907  0.63440542  0.13399858  1
  O  O35  1  0.38152080  0.60692649  0.61020278  1
  O  O36  1  0.36581921  0.85005847  0.37096222  1
  O  O37  1  0.38508190  0.38454329  0.39543207  1
  O  O38  1  0.37960800  0.10057381  0.11507380  1
  O  O39  1  0.40303311  0.87792556  0.87807130  1
  O  O40  1  0.59686914  0.37813124  0.62227878  1
  O  O41  1  0.62035645  0.60067532  0.38490060  1
  O  O42  1  0.61516945  0.88446961  0.10463607  1
  O  O43  1  0.63434967  0.35001225  0.12863188  1
  O  O44  1  0.61841327  0.10677663  0.89000478  1
  O  O45  1  0.64491788  0.13445158  0.36570885  1
  O  O46  1  0.62870355  0.87232608  0.65336814  1
  O  O47  1  0.64099461  0.64299243  0.86821161  1
  O  O48  1  0.85884757  0.35712880  0.36814368  1
  O  O49  1  0.87118112  0.12777946  0.15344704  1
  O  O50  1  0.85500226  0.86555394  0.86567545  1
  O  O51  1  0.88166921  0.89312734  0.39012633  1
  O  O52  1  0.86557830  0.64991437  0.62881773  1
  O  O53  1  0.88500749  0.11550480  0.60471124  1
  O  O54  1  0.87925728  0.39947373  0.88487928  1
  O  O55  1  0.90313060  0.62202458  0.12225052  1
