# generated using pymatgen
data_LiMnP4(H2O7)2
_symmetry_space_group_name_H-M   'P 1'
_cell_length_a   5.03887122
_cell_length_b   7.27133568
_cell_length_c   7.88317527
_cell_angle_alpha   83.63815275
_cell_angle_beta   81.02069375
_cell_angle_gamma   73.26167441
_symmetry_Int_Tables_number   1
_chemical_formula_structural   LiMnP4(H2O7)2
_chemical_formula_sum   'Li1 Mn1 P4 H4 O14'
_cell_volume   272.54359411
_cell_formula_units_Z   1
loop_
 _symmetry_equiv_pos_site_id
 _symmetry_equiv_pos_as_xyz
  1  'x, y, z'
loop_
 _atom_site_type_symbol
 _atom_site_label
 _atom_site_symmetry_multiplicity
 _atom_site_fract_x
 _atom_site_fract_y
 _atom_site_fract_z
 _atom_site_occupancy
  Li  Li0  1  0.00000000  0.00000000  0.00000000  1
  Mn  Mn1  1  0.00000000  0.50000000  0.00000000  1
  P  P2  1  0.32368618  0.21598018  0.30871189  1
  P  P3  1  0.40256901  0.61235683  0.22882659  1
  P  P4  1  0.59743099  0.38764317  0.77117341  1
  P  P5  1  0.67631382  0.78401982  0.69128811  1
  H  H6  1  0.09830989  0.79021633  0.42748524  1
  H  H7  1  0.69737315  0.99567267  0.37656738  1
  H  H8  1  0.30262685  0.00432733  0.62343262  1
  H  H9  1  0.90169011  0.20978367  0.57251476  1
  O  O10  1  0.17579863  0.23809769  0.15194444  1
  O  O11  1  0.18374317  0.15253216  0.48084387  1
  O  O12  1  0.23684928  0.65486596  0.07490404  1
  O  O13  1  0.28498469  0.40840198  0.81479233  1
  O  O14  1  0.35480252  0.42544917  0.34097114  1
  O  O15  1  0.29358313  0.77449498  0.35422624  1
  O  O16  1  0.63246752  0.08422783  0.27104954  1
  O  O17  1  0.36753248  0.91577217  0.72895046  1
  O  O18  1  0.70641687  0.22550502  0.64577376  1
  O  O19  1  0.64519748  0.57455083  0.65902886  1
  O  O20  1  0.71501531  0.59159802  0.18520767  1
  O  O21  1  0.76315072  0.34513404  0.92509596  1
  O  O22  1  0.81625683  0.84746784  0.51915613  1
  O  O23  1  0.82420137  0.76190231  0.84805556  1
