# generated using pymatgen
data_Sb2(SO4)3
_symmetry_space_group_name_H-M   'P 1'
_cell_length_a   9.07261311
_cell_length_b   9.23258612
_cell_length_c   25.45404564
_cell_angle_alpha   90.00000000
_cell_angle_beta   90.00000000
_cell_angle_gamma   90.00000000
_symmetry_Int_Tables_number   1
_chemical_formula_structural   Sb2(SO4)3
_chemical_formula_sum   'Sb16 S24 O96'
_cell_volume   2132.12458133
_cell_formula_units_Z   8
loop_
 _symmetry_equiv_pos_site_id
 _symmetry_equiv_pos_as_xyz
  1  'x, y, z'
loop_
 _atom_site_type_symbol
 _atom_site_label
 _atom_site_symmetry_multiplicity
 _atom_site_fract_x
 _atom_site_fract_y
 _atom_site_fract_z
 _atom_site_occupancy
  Sb  Sb0  1  0.00380382  0.38071642  0.06335148  1
  Sb  Sb1  1  0.00380382  0.11928358  0.56335148  1
  Sb  Sb2  1  0.99098255  0.80403773  0.17960164  1
  Sb  Sb3  1  0.99098255  0.69596227  0.67960164  1
  Sb  Sb4  1  0.50901745  0.30403773  0.17960164  1
  Sb  Sb5  1  0.50901745  0.19596227  0.67960164  1
  Sb  Sb6  1  0.49619618  0.61928358  0.56335148  1
  Sb  Sb7  1  0.49619618  0.88071642  0.06335148  1
  Sb  Sb8  1  0.50380382  0.38071642  0.43664852  1
  Sb  Sb9  1  0.50380382  0.11928358  0.93664852  1
  Sb  Sb10  1  0.49098255  0.69596227  0.82039836  1
  Sb  Sb11  1  0.49098255  0.80403773  0.32039836  1
  Sb  Sb12  1  0.00901745  0.30403773  0.32039836  1
  Sb  Sb13  1  0.00901745  0.19596227  0.82039836  1
  Sb  Sb14  1  0.99619618  0.88071642  0.43664852  1
  Sb  Sb15  1  0.99619618  0.61928358  0.93664852  1
  S  S16  1  0.14408937  0.94488674  0.29715567  1
  S  S17  1  0.14408937  0.55511326  0.79715567  1
  S  S18  1  0.14887044  0.26367692  0.44973852  1
  S  S19  1  0.14887044  0.23632308  0.94973852  1
  S  S20  1  0.19047201  0.08759093  0.11632620  1
  S  S21  1  0.19047201  0.41240907  0.61632620  1
  S  S22  1  0.30952799  0.58759093  0.11632620  1
  S  S23  1  0.30952799  0.91240907  0.61632620  1
  S  S24  1  0.35112956  0.76367692  0.44973852  1
  S  S25  1  0.35112956  0.73632308  0.94973852  1
  S  S26  1  0.35591063  0.44488674  0.29715567  1
  S  S27  1  0.35591063  0.05511326  0.79715567  1
  S  S28  1  0.64408937  0.55511326  0.70284433  1
  S  S29  1  0.64408937  0.94488674  0.20284433  1
  S  S30  1  0.64887044  0.26367692  0.05026148  1
  S  S31  1  0.64887044  0.23632308  0.55026148  1
  S  S32  1  0.69047201  0.08759093  0.38367380  1
  S  S33  1  0.69047201  0.41240907  0.88367380  1
  S  S34  1  0.80952799  0.58759093  0.38367380  1
  S  S35  1  0.80952799  0.91240907  0.88367380  1
  S  S36  1  0.85112956  0.76367692  0.05026148  1
  S  S37  1  0.85112956  0.73632308  0.55026148  1
  S  S38  1  0.85591063  0.44488674  0.20284433  1
  S  S39  1  0.85591063  0.05511326  0.70284433  1
  O  O40  1  0.07164061  0.39679151  0.45989359  1
  O  O41  1  0.07164061  0.10320849  0.95989359  1
  O  O42  1  0.09385994  0.09030622  0.27990665  1
  O  O43  1  0.09385994  0.40969378  0.77990665  1
  O  O44  1  0.08528443  0.13642962  0.48299349  1
  O  O45  1  0.08528443  0.36357038  0.98299349  1
  O  O46  1  0.08998110  0.90596817  0.34976558  1
  O  O47  1  0.08998110  0.59403183  0.84976558  1
  O  O48  1  0.08914222  0.17876890  0.08180159  1
  O  O49  1  0.08914222  0.32123110  0.58180159  1
  O  O50  1  0.09348564  0.83179695  0.25890488  1
  O  O51  1  0.09348564  0.66820305  0.75890488  1
  O  O52  1  0.09473105  0.01556018  0.15618365  1
  O  O53  1  0.09473105  0.48443982  0.65618365  1
  O  O54  1  0.13941938  0.21262980  0.39408426  1
  O  O55  1  0.13941938  0.28737020  0.89408426  1
  O  O56  1  0.18892130  0.44733385  0.29688039  1
  O  O57  1  0.18892130  0.05266615  0.79688039  1
  O  O58  1  0.20225545  0.68047240  0.14344818  1
  O  O59  1  0.20225545  0.81952760  0.64344818  1
  O  O60  1  0.19025764  0.76656411  0.46579110  1
  O  O61  1  0.19025764  0.73343589  0.96579110  1
  O  O62  1  0.24007958  0.01894998  0.58095727  1
  O  O63  1  0.24007958  0.48105002  0.08095727  1
  O  O64  1  0.25992042  0.51894998  0.58095727  1
  O  O65  1  0.25992042  0.98105002  0.08095727  1
  O  O66  1  0.30974236  0.23343589  0.96579110  1
  O  O67  1  0.30974236  0.26656411  0.46579110  1
  O  O68  1  0.29774455  0.18047240  0.14344818  1
  O  O69  1  0.29774455  0.31952760  0.64344818  1
  O  O70  1  0.31107870  0.94733385  0.29688039  1
  O  O71  1  0.31107870  0.55266615  0.79688039  1
  O  O72  1  0.36058062  0.71262980  0.39408426  1
  O  O73  1  0.36058062  0.78737020  0.89408426  1
  O  O74  1  0.40526895  0.98443982  0.65618365  1
  O  O75  1  0.40526895  0.51556018  0.15618365  1
  O  O76  1  0.40651436  0.33179695  0.25890488  1
  O  O77  1  0.40651436  0.16820305  0.75890488  1
  O  O78  1  0.41085778  0.67876890  0.08180159  1
  O  O79  1  0.41085778  0.82123110  0.58180159  1
  O  O80  1  0.41001890  0.09403183  0.84976558  1
  O  O81  1  0.41001890  0.40596817  0.34976558  1
  O  O82  1  0.41471557  0.86357038  0.98299349  1
  O  O83  1  0.41471557  0.63642962  0.48299349  1
  O  O84  1  0.40614006  0.59030622  0.27990665  1
  O  O85  1  0.40614006  0.90969378  0.77990665  1
  O  O86  1  0.42835939  0.60320849  0.95989359  1
  O  O87  1  0.42835939  0.89679151  0.45989359  1
  O  O88  1  0.57164061  0.39679151  0.04010641  1
  O  O89  1  0.57164061  0.10320849  0.54010641  1
  O  O90  1  0.59385994  0.09030622  0.22009335  1
  O  O91  1  0.59385994  0.40969378  0.72009335  1
  O  O92  1  0.58528443  0.13642962  0.01700651  1
  O  O93  1  0.58528443  0.36357038  0.51700651  1
  O  O94  1  0.58998110  0.59403183  0.65023442  1
  O  O95  1  0.58998110  0.90596817  0.15023442  1
  O  O96  1  0.58914222  0.17876890  0.41819841  1
  O  O97  1  0.58914222  0.32123110  0.91819841  1
  O  O98  1  0.59348664  0.83179695  0.24109512  1
  O  O99  1  0.59348664  0.66820305  0.74109512  1
  O  O100  1  0.59473105  0.01556018  0.34381635  1
  O  O101  1  0.59473105  0.48443982  0.84381635  1
  O  O102  1  0.63941938  0.21262980  0.10591574  1
  O  O103  1  0.63941938  0.28737020  0.60591574  1
  O  O104  1  0.68892130  0.44733385  0.20311961  1
  O  O105  1  0.68892130  0.05266615  0.70311961  1
  O  O106  1  0.70225545  0.68047240  0.35655182  1
  O  O107  1  0.70225545  0.81952760  0.85655182  1
  O  O108  1  0.69025764  0.76656411  0.03420890  1
  O  O109  1  0.69025764  0.73343589  0.53420890  1
  O  O110  1  0.74007958  0.48105002  0.41904273  1
  O  O111  1  0.74007958  0.01894998  0.91904273  1
  O  O112  1  0.75992042  0.98105002  0.41904273  1
  O  O113  1  0.75992042  0.51894998  0.91904273  1
  O  O114  1  0.80974236  0.26656411  0.03420890  1
  O  O115  1  0.80974236  0.23343589  0.53420890  1
  O  O116  1  0.79774455  0.18047240  0.35655182  1
  O  O117  1  0.79774455  0.31952760  0.85655182  1
  O  O118  1  0.81107870  0.55266615  0.70311961  1
  O  O119  1  0.81107870  0.94733385  0.20311961  1
  O  O120  1  0.86058062  0.71262980  0.10591574  1
  O  O121  1  0.86058062  0.78737020  0.60591574  1
  O  O122  1  0.90526895  0.51556018  0.34381635  1
  O  O123  1  0.90526895  0.98443982  0.84381635  1
  O  O124  1  0.90651336  0.33179695  0.24109512  1
  O  O125  1  0.90651336  0.16820305  0.74109512  1
  O  O126  1  0.91085778  0.67876890  0.41819841  1
  O  O127  1  0.91085778  0.82123110  0.91819841  1
  O  O128  1  0.91001890  0.40596817  0.15023442  1
  O  O129  1  0.91001890  0.09403183  0.65023442  1
  O  O130  1  0.91471557  0.63642962  0.01700651  1
  O  O131  1  0.91471557  0.86357038  0.51700651  1
  O  O132  1  0.90614006  0.59030622  0.22009335  1
  O  O133  1  0.90614006  0.90969378  0.72009335  1
  O  O134  1  0.92835939  0.60320849  0.54010641  1
  O  O135  1  0.92835939  0.89679151  0.04010641  1
