# generated using pymatgen
data_Li2TiV3O8
_symmetry_space_group_name_H-M   'P 1'
_cell_length_a   5.94526675
_cell_length_b   5.89865398
_cell_length_c   9.57359560
_cell_angle_alpha   89.90241865
_cell_angle_beta   90.04840546
_cell_angle_gamma   119.74098240
_symmetry_Int_Tables_number   1
_chemical_formula_structural   Li2TiV3O8
_chemical_formula_sum   'Li4 Ti2 V6 O16'
_cell_volume   291.51235230
_cell_formula_units_Z   2
loop_
 _symmetry_equiv_pos_site_id
 _symmetry_equiv_pos_as_xyz
  1  'x, y, z'
loop_
 _atom_site_type_symbol
 _atom_site_label
 _atom_site_symmetry_multiplicity
 _atom_site_fract_x
 _atom_site_fract_y
 _atom_site_fract_z
 _atom_site_occupancy
  Li  Li0  1  0.33569290  0.66359535  0.89302724  1
  Li  Li1  1  0.00365372  0.00726843  0.99508180  1
  Li  Li2  1  0.99634628  0.00361471  0.49508180  1
  Li  Li3  1  0.66430710  0.32790245  0.39302724  1
  Ti  Ti4  1  0.33922987  0.67122128  0.49554242  1
  Ti  Ti5  1  0.66077013  0.33199141  0.99554242  1
  V  V6  1  0.16985052  0.82630994  0.21387358  1
  V  V7  1  0.65844203  0.82869552  0.21335074  1
  V  V8  1  0.34155797  0.17025449  0.71335074  1
  V  V9  1  0.82760447  0.17937491  0.71994049  1
  V  V10  1  0.17239553  0.35177044  0.21994049  1
  V  V11  1  0.83014948  0.65645942  0.71387358  1
  O  O12  1  0.16625477  0.83367569  0.59551299  1
  O  O13  1  0.03599619  0.51175319  0.34441708  1
  O  O14  1  0.32211251  0.64548447  0.10129619  1
  O  O15  1  0.01092624  0.01724633  0.30694992  1
  O  O16  1  0.98907376  0.00632010  0.80694992  1
  O  O17  1  0.16922366  0.33956359  0.59662745  1
  O  O18  1  0.47601507  0.95642160  0.34155929  1
  O  O19  1  0.47482229  0.51326520  0.34307217  1
  O  O20  1  0.33917616  0.17077469  0.09366963  1
  O  O21  1  0.66082384  0.83159853  0.59366963  1
  O  O22  1  0.52398493  0.48040653  0.84155929  1
  O  O23  1  0.52517771  0.03844291  0.84307217  1
  O  O24  1  0.67788749  0.32337197  0.60129619  1
  O  O25  1  0.83374523  0.66742093  0.09551299  1
  O  O26  1  0.96400381  0.47575700  0.84441708  1
  O  O27  1  0.83077634  0.17033992  0.09662745  1
