# generated using pymatgen
data_Li4MnCo2O7
_symmetry_space_group_name_H-M   'P 1'
_cell_length_a   2.98264519
_cell_length_b   5.96135091
_cell_length_c   14.31714775
_cell_angle_alpha   82.98939647
_cell_angle_beta   95.37946746
_cell_angle_gamma   93.99837689
_symmetry_Int_Tables_number   1
_chemical_formula_structural   Li4MnCo2O7
_chemical_formula_sum   'Li8 Mn2 Co4 O14'
_cell_volume   251.11334498
_cell_formula_units_Z   2
loop_
 _symmetry_equiv_pos_site_id
 _symmetry_equiv_pos_as_xyz
  1  'x, y, z'
loop_
 _atom_site_type_symbol
 _atom_site_label
 _atom_site_symmetry_multiplicity
 _atom_site_fract_x
 _atom_site_fract_y
 _atom_site_fract_z
 _atom_site_occupancy
  Li  Li0  1  0.99940724  0.49968924  0.99681131  1
  Li  Li1  1  0.57040219  0.21681478  0.14570570  1
  Li  Li2  1  0.14906804  0.93835675  0.29410888  1
  Li  Li3  1  0.42851378  0.78468341  0.85412550  1
  Li  Li4  1  0.85472270  0.07237918  0.71243326  1
  Li  Li5  1  0.28200925  0.35125014  0.56585844  1
  Li  Li6  1  0.72426964  0.62809171  0.43145232  1
  Li  Li7  1  0.70080541  0.15575531  0.43128219  1
  Mn  Mn8  1  0.99940302  0.00440538  0.99869233  1
  Mn  Mn9  1  0.58328039  0.70659425  0.14475629  1
  Co  Co10  1  0.14991264  0.41863875  0.29177027  1
  Co  Co11  1  0.27657982  0.86720549  0.56509767  1
  Co  Co12  1  0.85679635  0.57183119  0.71136914  1
  Co  Co13  1  0.42474698  0.29087199  0.85436493  1
  O  O14  1  0.46444732  0.24993422  0.99190855  1
  O  O15  1  0.04418346  0.95631124  0.14039683  1
  O  O16  1  0.66150784  0.64409133  0.28382707  1
  O  O17  1  0.89443027  0.52956372  0.84759390  1
  O  O18  1  0.32233309  0.81023541  0.70188890  1
  O  O19  1  0.75316744  0.08717737  0.57191355  1
  O  O20  1  0.20276889  0.39802642  0.41773522  1
  O  O21  1  0.53789147  0.75422272  0.00546302  1
  O  O22  1  0.11013414  0.46705111  0.15299115  1
  O  O23  1  0.62840274  0.21254778  0.28841015  1
  O  O24  1  0.95893138  0.04795122  0.86011978  1
  O  O25  1  0.38670620  0.33399090  0.72015370  1
  O  O26  1  0.81365899  0.61786489  0.57768970  1
  O  O27  1  0.22151933  0.88446410  0.44208024  1
