# generated using pymatgen
data_Li6MnV3(PO4)6
_symmetry_space_group_name_H-M   'P 1'
_cell_length_a   8.55458040
_cell_length_b   12.10025078
_cell_length_c   8.76227590
_cell_angle_alpha   89.50681334
_cell_angle_beta   90.06381006
_cell_angle_gamma   91.08161978
_symmetry_Int_Tables_number   1
_chemical_formula_structural   Li6MnV3(PO4)6
_chemical_formula_sum   'Li12 Mn2 V6 P12 O48'
_cell_volume   906.81006533
_cell_formula_units_Z   2
loop_
 _symmetry_equiv_pos_site_id
 _symmetry_equiv_pos_as_xyz
  1  'x, y, z'
loop_
 _atom_site_type_symbol
 _atom_site_label
 _atom_site_symmetry_multiplicity
 _atom_site_fract_x
 _atom_site_fract_y
 _atom_site_fract_z
 _atom_site_occupancy
  Li  Li0  1  0.06482081  0.34736968  0.51470263  1
  Li  Li1  1  0.08022762  0.69051558  0.08671157  1
  Li  Li2  1  0.18027633  0.17717656  0.77998206  1
  Li  Li3  1  0.31959844  0.32115981  0.27910346  1
  Li  Li4  1  0.42032729  0.80948135  0.58626242  1
  Li  Li5  1  0.43469850  0.15383206  0.01226455  1
  Li  Li6  1  0.56489977  0.84616359  0.98552264  1
  Li  Li7  1  0.57961003  0.19073555  0.41425306  1
  Li  Li8  1  0.68080105  0.67866270  0.72083519  1
  Li  Li9  1  0.82068219  0.82210215  0.21850177  1
  Li  Li10  1  0.92076530  0.30889463  0.91484194  1
  Li  Li11  1  0.93496002  0.65329542  0.48554271  1
  Mn  Mn12  1  0.24476030  0.10878572  0.46389376  1
  Mn  Mn13  1  0.75290692  0.10549981  0.97050590  1
  V  V14  1  0.24415883  0.89484311  0.02706788  1
  V  V15  1  0.25495952  0.60531096  0.52814094  1
  V  V16  1  0.25498109  0.39081374  0.96592785  1
  V  V17  1  0.74487180  0.60958372  0.03475833  1
  V  V18  1  0.74496082  0.39476319  0.47229401  1
  V  V19  1  0.75638066  0.89151147  0.53424177  1
  P  P20  1  0.03942506  0.49027942  0.24873239  1
  P  P21  1  0.11489727  0.84861095  0.38281478  1
  P  P22  1  0.11405051  0.14570050  0.11180322  1
  P  P23  1  0.38590577  0.65160846  0.88343701  1
  P  P24  1  0.38574830  0.35273849  0.61004495  1
  P  P25  1  0.45834362  0.00916787  0.74682882  1
  P  P26  1  0.54441416  0.98970959  0.24895303  1
  P  P27  1  0.61441037  0.64691321  0.39003355  1
  P  P28  1  0.61363539  0.35050849  0.11736617  1
  P  P29  1  0.88488723  0.85174782  0.88944729  1
  P  P30  1  0.88382406  0.15280506  0.62008940  1
  P  P31  1  0.95971980  0.50958674  0.75159967  1
  O  O32  1  0.05235013  0.89702001  0.89131485  1
  O  O33  1  0.05132672  0.44500771  0.87188203  1
  O  O34  1  0.05550076  0.60001965  0.66496759  1
  O  O35  1  0.05470030  0.19292649  0.58475447  1
  O  O36  1  0.09887825  0.58181301  0.35902274  1
  O  O37  1  0.12673459  0.83033406  0.20634353  1
  O  O38  1  0.13835262  0.97100861  0.41861390  1
  O  O39  1  0.12764679  0.24576646  0.99514728  1
  O  O40  1  0.17421735  0.18726847  0.27043435  1
  O  O41  1  0.18378289  0.43363297  0.17730508  1
  O  O42  1  0.22979804  0.77508154  0.47196436  1
  O  O43  1  0.23583257  0.06255060  0.05009458  1
  O  O44  1  0.26581895  0.43896780  0.54978219  1
  O  O45  1  0.27082658  0.72350045  0.97204547  1
  O  O46  1  0.31064429  0.06395209  0.67481352  1
  O  O47  1  0.32872319  0.31301836  0.76940960  1
  O  O48  1  0.36035932  0.52972364  0.92227599  1
  O  O49  1  0.37125758  0.25419808  0.49282872  1
  O  O50  1  0.37649961  0.66904632  0.70642336  1
  O  O51  1  0.39953245  0.91732012  0.85936088  1
  O  O52  1  0.44678583  0.90064177  0.16455717  1
  O  O53  1  0.44129959  0.31219791  0.07940133  1
  O  O54  1  0.44645209  0.60335889  0.39016853  1
  O  O55  1  0.45606937  0.05602361  0.36751921  1
  O  O56  1  0.55017425  0.94514556  0.62787833  1
  O  O57  1  0.55329763  0.39634131  0.60862934  1
  O  O58  1  0.55881643  0.68840980  0.92114397  1
  O  O59  1  0.55162734  0.10125903  0.83045876  1
  O  O60  1  0.60457070  0.08234756  0.13537050  1
  O  O61  1  0.62321264  0.33235303  0.29452304  1
  O  O62  1  0.62891791  0.74526622  0.50630053  1
  O  O63  1  0.63590407  0.47296599  0.07985658  1
  O  O64  1  0.67237232  0.68711620  0.23113293  1
  O  O65  1  0.68800562  0.93221224  0.32110910  1
  O  O66  1  0.72994405  0.28107172  0.02790671  1
  O  O67  1  0.73446168  0.56102501  0.45086069  1
  O  O68  1  0.76258857  0.93301783  0.95112898  1
  O  O69  1  0.76694185  0.22480235  0.53111678  1
  O  O70  1  0.81524804  0.56590237  0.82305059  1
  O  O71  1  0.83052765  0.81234705  0.72939685  1
  O  O72  1  0.87525308  0.75117797  0.00551951  1
  O  O73  1  0.85973973  0.03142046  0.58001050  1
  O  O74  1  0.87495398  0.16678863  0.79891288  1
  O  O75  1  0.90001107  0.41846605  0.64078130  1
  O  O76  1  0.94218140  0.81158193  0.42058672  1
  O  O77  1  0.94377661  0.39987891  0.33548400  1
  O  O78  1  0.94798834  0.55409142  0.12766108  1
  O  O79  1  0.94718830  0.10075637  0.11424687  1
