# generated using pymatgen
data_Li7Mn8(BO3)8
_symmetry_space_group_name_H-M   'P 1'
_cell_length_a   5.29524706
_cell_length_b   9.03900282
_cell_length_c   11.57748875
_cell_angle_alpha   67.25677786
_cell_angle_beta   79.08010982
_cell_angle_gamma   90.09522233
_symmetry_Int_Tables_number   1
_chemical_formula_structural   Li7Mn8(BO3)8
_chemical_formula_sum   'Li7 Mn8 B8 O24'
_cell_volume   500.08264506
_cell_formula_units_Z   1
loop_
 _symmetry_equiv_pos_site_id
 _symmetry_equiv_pos_as_xyz
  1  'x, y, z'
loop_
 _atom_site_type_symbol
 _atom_site_label
 _atom_site_symmetry_multiplicity
 _atom_site_fract_x
 _atom_site_fract_y
 _atom_site_fract_z
 _atom_site_occupancy
  Li  Li0  1  0.08392827  0.93364106  0.16080611  1
  Li  Li1  1  0.14125553  0.28338582  0.42162256  1
  Li  Li2  1  0.58015742  0.43413510  0.16260347  1
  Li  Li3  1  0.38267546  0.55123725  0.90370721  1
  Li  Li4  1  0.63275434  0.78957662  0.42261615  1
  Li  Li5  1  0.81911517  0.64211097  0.66649787  1
  Li  Li6  1  0.87207740  0.04172105  0.91967371  1
  Mn  Mn7  1  0.09868150  0.27935314  0.12571895  1
  Mn  Mn8  1  0.14352348  0.63961300  0.38698985  1
  Mn  Mn9  1  0.33262269  0.87067520  0.62884391  1
  Mn  Mn10  1  0.59323479  0.77212739  0.13538000  1
  Mn  Mn11  1  0.38361801  0.22572415  0.86997442  1
  Mn  Mn12  1  0.65085304  0.15170685  0.37681975  1
  Mn  Mn13  1  0.85320039  0.32949151  0.63585239  1
  Mn  Mn14  1  0.89345706  0.71944708  0.88398985  1
  B  B15  1  0.11067761  0.61268721  0.12315393  1
  B  B16  1  0.13756615  0.98743951  0.37704529  1
  B  B17  1  0.35668154  0.52455178  0.62675613  1
  B  B18  1  0.60167507  0.11089848  0.12454961  1
  B  B19  1  0.38992197  0.89464341  0.87364681  1
  B  B20  1  0.64735719  0.48356764  0.37616458  1
  B  B21  1  0.86914597  0.00297549  0.62040619  1
  B  B22  1  0.88781414  0.38925953  0.87473636  1
  O  O23  1  0.00852838  0.86691008  0.36162947  1
  O  O24  1  0.05794736  0.14293732  0.33758066  1
  O  O25  1  0.19003027  0.71949311  0.17179108  1
  O  O26  1  0.01639425  0.13320591  0.60769001  1
  O  O27  1  0.27302903  0.50364390  0.09909305  1
  O  O28  1  0.10945596  0.53469818  0.59655481  1
  O  O29  1  0.35941360  0.11797769  0.09345521  1
  O  O30  1  0.12117853  0.38260713  0.91541324  1
  O  O31  1  0.35921779  0.95815443  0.43257949  1
  O  O32  1  0.22945848  0.00621248  0.88641471  1
  O  O33  1  0.50546185  0.37046201  0.35580939  1
  O  O34  1  0.31196748  0.78531486  0.82094427  1
  O  O35  1  0.55887444  0.63764774  0.34802319  1
  O  O36  1  0.46156424  0.37817524  0.66949538  1
  O  O37  1  0.49477056  0.66455783  0.61045190  1
  O  O38  1  0.68827516  0.22318323  0.16782341  1
  O  O39  1  0.75763497  0.99268431  0.11288747  1
  O  O40  1  0.63587923  0.01933512  0.58059340  1
  O  O41  1  0.86542697  0.61872794  0.09239763  1
  O  O42  1  0.62370639  0.87601743  0.91376022  1
  O  O43  1  0.87807593  0.44724282  0.41831646  1
  O  O44  1  0.74671248  0.52163572  0.85994743  1
  O  O45  1  0.79916762  0.26366320  0.84685645  1
  O  O46  1  0.95354584  0.84634106  0.66596761  1
