# generated using pymatgen
data_Li2MnVP2(O4F)2
_symmetry_space_group_name_H-M   'P 1'
_cell_length_a   7.98124402
_cell_length_b   6.91230228
_cell_length_c   7.48778393
_cell_angle_alpha   61.91614932
_cell_angle_beta   88.63281938
_cell_angle_gamma   91.62928520
_symmetry_Int_Tables_number   1
_chemical_formula_structural   Li2MnVP2(O4F)2
_chemical_formula_sum   'Li4 Mn2 V2 P4 O16 F4'
_cell_volume   363.98186867
_cell_formula_units_Z   2
loop_
 _symmetry_equiv_pos_site_id
 _symmetry_equiv_pos_as_xyz
  1  'x, y, z'
loop_
 _atom_site_type_symbol
 _atom_site_label
 _atom_site_symmetry_multiplicity
 _atom_site_fract_x
 _atom_site_fract_y
 _atom_site_fract_z
 _atom_site_occupancy
  Li  Li0  1  0.17408039  0.55635343  0.18771453  1
  Li  Li1  1  0.67454330  0.05797771  0.18824471  1
  Li  Li2  1  0.32545670  0.94202229  0.81175529  1
  Li  Li3  1  0.82591961  0.44364657  0.81228547  1
  Mn  Mn4  1  0.50000000  0.50000000  0.00000000  1
  Mn  Mn5  1  0.50000000  0.50000000  0.50000000  1
  V  V6  1  0.00000000  0.00000000  0.00000000  1
  V  V7  1  0.00000000  0.00000000  0.50000000  1
  P  P8  1  0.16261116  0.52058697  0.76128471  1
  P  P9  1  0.65974553  0.01675931  0.76441300  1
  P  P10  1  0.34025447  0.98324069  0.23558700  1
  P  P11  1  0.83738884  0.47941303  0.23871529  1
  O  O12  1  0.23282594  0.02028250  0.38750900  1
  O  O13  1  0.44115881  0.19654587  0.08152330  1
  O  O14  1  0.06048818  0.30842342  0.91280961  1
  O  O15  1  0.01785530  0.67456820  0.65439027  1
  O  O16  1  0.27189009  0.48077013  0.61147364  1
  O  O17  1  0.51743717  0.17634327  0.66157007  1
  O  O18  1  0.23219089  0.89854229  0.11189078  1
  O  O19  1  0.73224153  0.39191045  0.11637864  1
  O  O20  1  0.26775847  0.60808955  0.88362136  1
  O  O21  1  0.76780911  0.10145771  0.88810922  1
  O  O22  1  0.48256283  0.82365673  0.33842993  1
  O  O23  1  0.72810991  0.51922987  0.38852636  1
  O  O24  1  0.98214470  0.32543180  0.34560973  1
  O  O25  1  0.93951182  0.69157658  0.08719039  1
  O  O26  1  0.55884119  0.80345413  0.91847670  1
  O  O27  1  0.76717406  0.97971750  0.61249100  1
  F  F28  1  0.10032680  0.02793637  0.73786061  1
  F  F29  1  0.39058329  0.46676233  0.26296594  1
  F  F30  1  0.60941671  0.53323767  0.73703406  1
  F  F31  1  0.89967320  0.97206363  0.26213939  1
