# generated using pymatgen
data_Ni2(SO4)3
_symmetry_space_group_name_H-M   'P 1'
_cell_length_a   8.39650383
_cell_length_b   11.93028433
_cell_length_c   8.71855077
_cell_angle_alpha   90.00000000
_cell_angle_beta   90.00000000
_cell_angle_gamma   90.80412864
_symmetry_Int_Tables_number   1
_chemical_formula_structural   Ni2(SO4)3
_chemical_formula_sum   'Ni8 S12 O48'
_cell_volume   873.27456625
_cell_formula_units_Z   4
loop_
 _symmetry_equiv_pos_site_id
 _symmetry_equiv_pos_as_xyz
  1  'x, y, z'
loop_
 _atom_site_type_symbol
 _atom_site_label
 _atom_site_symmetry_multiplicity
 _atom_site_fract_x
 _atom_site_fract_y
 _atom_site_fract_z
 _atom_site_occupancy
  Ni  Ni0  1  0.24742626  0.88595869  0.02752217  1
  Ni  Ni1  1  0.25257374  0.61404131  0.52752217  1
  Ni  Ni2  1  0.25279434  0.38348917  0.97002968  1
  Ni  Ni3  1  0.24720566  0.11651083  0.47002968  1
  Ni  Ni4  1  0.75279434  0.88348917  0.52997032  1
  Ni  Ni5  1  0.74720566  0.61651083  0.02997032  1
  Ni  Ni6  1  0.74742626  0.38595869  0.47247783  1
  Ni  Ni7  1  0.75257374  0.11404131  0.97247783  1
  S  S8  1  0.04398543  0.49283505  0.24782457  1
  S  S9  1  0.10703148  0.84986241  0.38373027  1
  S  S10  1  0.11037750  0.14659291  0.11081328  1
  S  S11  1  0.39296852  0.65013759  0.88373027  1
  S  S12  1  0.38962250  0.35340709  0.61081328  1
  S  S13  1  0.45601457  0.00716495  0.74782457  1
  S  S14  1  0.54398543  0.99283505  0.25217543  1
  S  S15  1  0.61037750  0.64659291  0.38918672  1
  S  S16  1  0.60703148  0.34986241  0.11626973  1
  S  S17  1  0.88962250  0.85340709  0.88918672  1
  S  S18  1  0.89296852  0.15013759  0.61626973  1
  S  S19  1  0.95601457  0.50716495  0.75217543  1
  O  O20  1  0.05154646  0.45014911  0.86879102  1
  O  O21  1  0.05491637  0.90036857  0.88362866  1
  O  O22  1  0.05148975  0.59834307  0.67810051  1
  O  O23  1  0.05506979  0.18947676  0.57348188  1
  O  O24  1  0.08735731  0.57766152  0.36577655  1
  O  O25  1  0.12497083  0.82695801  0.21585488  1
  O  O26  1  0.13289621  0.96795546  0.41808510  1
  O  O27  1  0.12035855  0.24109190  0.00211915  1
  O  O28  1  0.15693924  0.18376562  0.26653349  1
  O  O29  1  0.18900341  0.44396860  0.18101468  1
  O  O30  1  0.22762748  0.78025407  0.46328715  1
  O  O31  1  0.27237252  0.71974593  0.96328715  1
  O  O32  1  0.22104718  0.05642286  0.06323348  1
  O  O33  1  0.27895282  0.44357714  0.56323348  1
  O  O34  1  0.31099659  0.05603140  0.68101468  1
  O  O35  1  0.34306076  0.31623438  0.76653349  1
  O  O36  1  0.36710379  0.53204454  0.91808510  1
  O  O37  1  0.37964145  0.25890810  0.50211915  1
  O  O38  1  0.37502917  0.67304199  0.71585488  1
  O  O39  1  0.41264269  0.92233848  0.86577655  1
  O  O40  1  0.44851025  0.90165693  0.17810051  1
  O  O41  1  0.44508363  0.59963143  0.38362866  1
  O  O42  1  0.44493021  0.31052324  0.07348188  1
  O  O43  1  0.44845354  0.04985089  0.36879102  1
  O  O44  1  0.55154646  0.95014911  0.63120898  1
  O  O45  1  0.55506979  0.68947676  0.92651812  1
  O  O46  1  0.55491637  0.40036857  0.61637134  1
  O  O47  1  0.55148975  0.09834307  0.82189949  1
  O  O48  1  0.58735731  0.07766152  0.13422345  1
  O  O49  1  0.62497083  0.32695801  0.28414512  1
  O  O50  1  0.62035855  0.74109190  0.49788085  1
  O  O51  1  0.63289621  0.46795546  0.08191490  1
  O  O52  1  0.65693924  0.68376562  0.23346651  1
  O  O53  1  0.68900341  0.94396860  0.31898532  1
  O  O54  1  0.72104718  0.55642286  0.43676652  1
  O  O55  1  0.77895282  0.94357714  0.93676652  1
  O  O56  1  0.72762748  0.28025407  0.03671285  1
  O  O57  1  0.77237252  0.21974593  0.53671285  1
  O  O58  1  0.81099659  0.55603140  0.81898532  1
  O  O59  1  0.84306076  0.81623438  0.73346651  1
  O  O60  1  0.87964145  0.75890810  0.99788085  1
  O  O61  1  0.86710379  0.03204454  0.58191490  1
  O  O62  1  0.87502917  0.17304199  0.78414512  1
  O  O63  1  0.91264269  0.42233848  0.63422345  1
  O  O64  1  0.94493021  0.81052324  0.42651812  1
  O  O65  1  0.94851025  0.40165693  0.32189949  1
  O  O66  1  0.94508363  0.09963143  0.11637134  1
  O  O67  1  0.94845354  0.54985089  0.13120898  1
