# generated using pymatgen
data_V3(O2F)2
_symmetry_space_group_name_H-M   'P 1'
_cell_length_a   4.71327395
_cell_length_b   4.70797337
_cell_length_c   9.03428121
_cell_angle_alpha   90.00589095
_cell_angle_beta   90.00464939
_cell_angle_gamma   90.00137929
_symmetry_Int_Tables_number   1
_chemical_formula_structural   V3(O2F)2
_chemical_formula_sum   'V6 O8 F4'
_cell_volume   200.47041138
_cell_formula_units_Z   2
loop_
 _symmetry_equiv_pos_site_id
 _symmetry_equiv_pos_as_xyz
  1  'x, y, z'
loop_
 _atom_site_type_symbol
 _atom_site_label
 _atom_site_symmetry_multiplicity
 _atom_site_fract_x
 _atom_site_fract_y
 _atom_site_fract_z
 _atom_site_occupancy
  V  V0  1  0.03646286  0.01226529  0.01278844  1
  V  V1  1  0.03617135  0.01223072  0.32078163  1
  V  V2  1  0.00227481  0.97987490  0.66670840  1
  V  V3  1  0.49773693  0.47993913  0.16669935  1
  V  V4  1  0.46388056  0.51221335  0.82086578  1
  V  V5  1  0.46345312  0.51224181  0.51286429  1
  O  O6  1  0.22032085  0.79232594  0.16644955  1
  O  O7  1  0.19010043  0.80296465  0.49503279  1
  O  O8  1  0.18962127  0.80339177  0.83848127  1
  O  O9  1  0.30992758  0.30302739  0.99508311  1
  O  O10  1  0.31037997  0.30339134  0.33852196  1
  O  O11  1  0.27966725  0.29228601  0.66630293  1
  O  O12  1  0.69054064  0.69811246  0.66626545  1
  O  O13  1  0.80945964  0.19815613  0.16641611  1
  F  F14  1  0.70305002  0.69945700  0.99641940  1
  F  F15  1  0.70304491  0.69936469  0.33697931  1
  F  F16  1  0.79694598  0.19936391  0.83695286  1
  F  F17  1  0.79696182  0.19939152  0.49639137  1
