# generated using pymatgen
data_LiMnF4
_symmetry_space_group_name_H-M   'P 1'
_cell_length_a   10.18370464
_cell_length_b   5.89833680
_cell_length_c   4.63883600
_cell_angle_alpha   89.99989256
_cell_angle_beta   89.99902045
_cell_angle_gamma   89.99903542
_symmetry_Int_Tables_number   1
_chemical_formula_structural   LiMnF4
_chemical_formula_sum   'Li4 Mn4 F16'
_cell_volume   278.64059012
_cell_formula_units_Z   4
loop_
 _symmetry_equiv_pos_site_id
 _symmetry_equiv_pos_as_xyz
  1  'x, y, z'
loop_
 _atom_site_type_symbol
 _atom_site_label
 _atom_site_symmetry_multiplicity
 _atom_site_fract_x
 _atom_site_fract_y
 _atom_site_fract_z
 _atom_site_occupancy
  Li  Li0  1  0.00000521  0.99999428  0.50003020  1
  Li  Li1  1  0.00000557  0.49999970  0.50003036  1
  Li  Li2  1  0.49999964  0.00000482  0.00001397  1
  Li  Li3  1  0.50000116  0.49999068  0.00001360  1
  Mn  Mn4  1  0.24029094  0.24999772  0.03387989  1
  Mn  Mn5  1  0.25967525  0.75000686  0.53386134  1
  Mn  Mn6  1  0.74033504  0.25000630  0.46612230  1
  Mn  Mn7  1  0.75970251  0.75000754  0.96610092  1
  F  F8  1  0.08969803  0.24999767  0.25601866  1
  F  F9  1  0.17041528  0.00168262  0.76791226  1
  F  F10  1  0.17041304  0.49829573  0.76792249  1
  F  F11  1  0.10233904  0.74999797  0.33022128  1
  F  F12  1  0.39764638  0.24999938  0.83026046  1
  F  F13  1  0.32956222  0.50169281  0.26793078  1
  F  F14  1  0.32956088  0.99832314  0.26790671  1
  F  F15  1  0.41026663  0.74999775  0.75598834  1
  F  F16  1  0.58972564  0.24999748  0.24399317  1
  F  F17  1  0.67046186  0.00169151  0.73207642  1
  F  F18  1  0.67046378  0.49830437  0.73207911  1
  F  F19  1  0.60231981  0.75000131  0.16974941  1
  F  F20  1  0.89769015  0.24999782  0.66977147  1
  F  F21  1  0.82956654  0.50170855  0.23205863  1
  F  F22  1  0.82956604  0.99829941  0.23207211  1
  F  F23  1  0.91028937  0.75000460  0.74398609  1
