# generated using pymatgen
data_V3(O2F)2
_symmetry_space_group_name_H-M   'P 1'
_cell_length_a   7.11070834
_cell_length_b   5.61788214
_cell_length_c   5.61748266
_cell_angle_alpha   76.08437380
_cell_angle_beta   73.53311598
_cell_angle_gamma   73.50294684
_symmetry_Int_Tables_number   1
_chemical_formula_structural   V3(O2F)2
_chemical_formula_sum   'V6 O8 F4'
_cell_volume   203.19156337
_cell_formula_units_Z   2
loop_
 _symmetry_equiv_pos_site_id
 _symmetry_equiv_pos_as_xyz
  1  'x, y, z'
loop_
 _atom_site_type_symbol
 _atom_site_label
 _atom_site_symmetry_multiplicity
 _atom_site_fract_x
 _atom_site_fract_y
 _atom_site_fract_z
 _atom_site_occupancy
  V  V0  1  0.83333499  0.66666416  0.66667200  1
  V  V1  1  0.66736610  0.37604844  0.28929078  1
  V  V2  1  0.33333556  0.66667498  0.66666005  1
  V  V3  1  0.16298158  0.34017542  0.33434764  1
  V  V4  1  0.50368126  0.99315593  0.99899089  1
  V  V5  1  0.99930600  0.95729342  0.04403158  1
  O  O6  1  0.96087521  0.23052339  0.23350307  1
  O  O7  1  0.63410460  0.56204405  0.55859132  1
  O  O8  1  0.29473117  0.90107700  0.90431626  1
  O  O9  1  0.70579155  0.10280754  0.09983036  1
  O  O10  1  0.03256012  0.77128899  0.77474130  1
  O  O11  1  0.37193378  0.43225338  0.42901865  1
  O  O12  1  0.66632354  0.63484534  0.02938328  1
  O  O13  1  0.00034306  0.69848754  0.30395052  1
  F  F14  1  0.66401902  0.03192714  0.63311008  1
  F  F15  1  0.33556007  0.36037598  0.96989551  1
  F  F16  1  0.00264336  0.30140532  0.70022371  1
  F  F17  1  0.33110803  0.97295297  0.36344401  1
