# generated using pymatgen
data_VP4
_symmetry_space_group_name_H-M   'P 1'
_cell_length_a   5.26480918
_cell_length_b   5.84911804
_cell_length_c   6.09746933
_cell_angle_alpha   81.28100557
_cell_angle_beta   64.42318125
_cell_angle_gamma   69.44378395
_symmetry_Int_Tables_number   1
_chemical_formula_structural   VP4
_chemical_formula_sum   'V2 P8'
_cell_volume   158.58450628
_cell_formula_units_Z   2
loop_
 _symmetry_equiv_pos_site_id
 _symmetry_equiv_pos_as_xyz
  1  'x, y, z'
loop_
 _atom_site_type_symbol
 _atom_site_label
 _atom_site_symmetry_multiplicity
 _atom_site_fract_x
 _atom_site_fract_y
 _atom_site_fract_z
 _atom_site_occupancy
  P  P0  1  0.49633492  0.31021360  0.55553927  1
  P  P1  1  0.94812580  0.18978640  0.55553927  1
  P  P2  1  0.18459753  0.32333916  0.18021172  1
  P  P3  1  0.63519075  0.17666084  0.18021172  1
  P  P4  1  0.81540247  0.67666084  0.81978828  1
  P  P5  1  0.36480925  0.82333916  0.81978828  1
  P  P6  1  0.05187420  0.81021360  0.44446073  1
  P  P7  1  0.50366508  0.68978640  0.44446073  1
  V  V8  1  0.06223173  0.25000000  0.87553653  1
  V  V9  1  0.93776827  0.75000000  0.12446347  1
