# generated using pymatgen
data_LiVP2(HO4)2
_symmetry_space_group_name_H-M   'P 1'
_cell_length_a   9.50690255
_cell_length_b   9.50690255
_cell_length_c   8.85238187
_cell_angle_alpha   73.08860331
_cell_angle_beta   106.91139669
_cell_angle_gamma   64.76266286
_symmetry_Int_Tables_number   1
_chemical_formula_structural   LiVP2(HO4)2
_chemical_formula_sum   'Li4 V4 P8 H8 O32'
_cell_volume   607.65438704
_cell_formula_units_Z   4
loop_
 _symmetry_equiv_pos_site_id
 _symmetry_equiv_pos_as_xyz
  1  'x, y, z'
loop_
 _atom_site_type_symbol
 _atom_site_label
 _atom_site_symmetry_multiplicity
 _atom_site_fract_x
 _atom_site_fract_y
 _atom_site_fract_z
 _atom_site_occupancy
  Li  Li0  1  0.21637373  0.13172361  0.64555623  1
  Li  Li1  1  0.78849204  0.59733331  0.69107533  1
  Li  Li2  1  0.86827639  0.78362627  0.14555623  1
  Li  Li3  1  0.40266669  0.21150796  0.19107533  1
  V  V4  1  0.58410962  0.63628600  0.95964822  1
  V  V5  1  0.36371400  0.41589038  0.45964822  1
  V  V6  1  0.85741610  0.86318115  0.49239207  1
  V  V7  1  0.13681885  0.14258390  0.99239207  1
  P  P8  1  0.15238215  0.84220606  0.84477218  1
  P  P9  1  0.58029487  0.96478091  0.68139377  1
  P  P10  1  0.15779394  0.84761785  0.34477218  1
  P  P11  1  0.18369274  0.43353385  0.74492702  1
  P  P12  1  0.03521909  0.41970513  0.18139377  1
  P  P13  1  0.56646615  0.81630726  0.24492702  1
  P  P14  1  0.69491323  0.34748873  0.81503476  1
  P  P15  1  0.65251127  0.30508677  0.31503476  1
  H  H16  1  0.33091985  0.50997351  0.90662059  1
  H  H17  1  0.34907637  0.78028080  0.60293902  1
  H  H18  1  0.49002649  0.66908015  0.40662059  1
  H  H19  1  0.21971920  0.65092363  0.10293902  1
  H  H20  1  0.68261547  0.08743782  0.80907483  1
  H  H21  1  0.87583739  0.14061992  0.58384036  1
  H  H22  1  0.91256218  0.31738453  0.30907483  1
  H  H23  1  0.85938008  0.12416261  0.08384036  1
  O  O24  1  0.16311172  0.99643016  0.85466336  1
  O  O25  1  0.11159099  0.75583833  0.99412370  1
  O  O26  1  0.99198370  0.91964307  0.66344015  1
  O  O27  1  -0.00163277  0.60005213  0.67172176  1
  O  O28  1  0.32618295  0.69393445  0.87060148  1
  O  O29  1  0.00356984  0.83688828  0.35466336  1
  O  O30  1  0.24416167  0.88840901  0.49412370  1
  O  O31  1  0.70433375  0.96757359  0.84884227  1
  O  O32  1  0.08035693  0.00801630  0.16344015  1
  O  O33  1  0.49527530  0.87587532  0.75604848  1
  O  O34  1  0.32007208  0.40536338  0.92529034  1
  O  O35  1  0.17898075  0.26741191  0.79853332  1
  O  O36  1  0.24956440  0.44941837  0.60886742  1
  O  O37  1  0.39994787  0.00163277  0.17172176  1
  O  O38  1  0.69600773  0.85911422  0.61383578  1
  O  O39  1  0.30606555  0.67381705  0.37060148  1
  O  O40  1  0.58089886  0.53629624  0.78721821  1
  O  O41  1  0.03242641  0.29566625  0.34884227  1
  O  O42  1  0.12412468  0.50472470  0.25604848  1
  O  O43  1  0.59463662  0.67992792  0.42529034  1
  O  O44  1  0.73152784  0.20039253  0.99105577  1
  O  O45  1  0.73258809  0.82101925  0.29853332  1
  O  O46  1  0.59804962  0.32062505  0.66598166  1
  O  O47  1  0.55058163  0.75043560  0.10886742  1
  O  O48  1  0.14088578  0.30399227  0.11383578  1
  O  O49  1  0.43284945  0.15766229  0.53609836  1
  O  O50  1  0.46370376  0.41910114  0.28721821  1
  O  O51  1  0.87188601  0.32013921  0.82929554  1
  O  O52  1  0.79960747  0.26847216  0.49105577  1
  O  O53  1  0.67937495  0.40195038  0.16598166  1
  O  O54  1  0.84233771  0.56715055  0.03609836  1
  O  O55  1  0.67986079  0.12811399  0.32929554  1
