# generated using pymatgen
data_La2WO6
_symmetry_space_group_name_H-M   'P 1'
_cell_length_a   16.78811929
_cell_length_b   11.21715220
_cell_length_c   5.80745277
_cell_angle_alpha   90.00000000
_cell_angle_beta   90.00000000
_cell_angle_gamma   90.00000000
_symmetry_Int_Tables_number   1
_chemical_formula_structural   La2WO6
_chemical_formula_sum   'La16 W8 O48'
_cell_volume   1093.62982508
_cell_formula_units_Z   8
loop_
 _symmetry_equiv_pos_site_id
 _symmetry_equiv_pos_as_xyz
  1  'x, y, z'
loop_
 _atom_site_type_symbol
 _atom_site_label
 _atom_site_symmetry_multiplicity
 _atom_site_fract_x
 _atom_site_fract_y
 _atom_site_fract_z
 _atom_site_occupancy
  La  La0  1  0.06207596  0.36165303  0.10029882  1
  La  La1  1  0.06207596  0.13834697  0.60029882  1
  La  La2  1  0.23328572  0.13926808  0.06338415  1
  La  La3  1  0.23328572  0.36073092  0.56338415  1
  La  La4  1  0.26671428  0.63926908  0.06338415  1
  La  La5  1  0.26671428  0.86073092  0.56338415  1
  La  La6  1  0.43792404  0.63834697  0.60029882  1
  La  La7  1  0.43792404  0.86165303  0.10029882  1
  La  La8  1  0.56207596  0.13834697  0.89970118  1
  La  La9  1  0.56207596  0.36165303  0.39970118  1
  La  La10  1  0.73328572  0.13926808  0.43661585  1
  La  La11  1  0.73328572  0.36073092  0.93661585  1
  La  La12  1  0.76671428  0.63926908  0.43661585  1
  La  La13  1  0.76671428  0.86073092  0.93661585  1
  La  La14  1  0.93792404  0.63834697  0.89970118  1
  La  La15  1  0.93792404  0.86165303  0.39970118  1
  W  W16  1  0.12044560  0.62655719  0.60772792  1
  W  W17  1  0.12044560  0.87344281  0.10772792  1
  W  W18  1  0.37955440  0.12655719  0.60772792  1
  W  W19  1  0.37955440  0.37344281  0.10772792  1
  W  W20  1  0.62044560  0.62655719  0.89227208  1
  W  W21  1  0.62044560  0.87344281  0.39227208  1
  W  W22  1  0.87955440  0.12655719  0.89227208  1
  W  W23  1  0.87955440  0.37344281  0.39227208  1
  O  O24  1  0.02355677  0.78849542  0.08011955  1
  O  O25  1  0.02355677  0.71150458  0.58011955  1
  O  O26  1  0.07767419  0.54688199  0.86971393  1
  O  O27  1  0.07767419  0.95311801  0.36971393  1
  O  O28  1  0.10846035  0.00128648  0.90984871  1
  O  O29  1  0.10846035  0.49871352  0.40984871  1
  O  O30  1  0.14805985  0.23477416  0.32887035  1
  O  O31  1  0.14805985  0.26522584  0.82887035  1
  O  O32  1  0.16551348  0.73439516  0.34840094  1
  O  O33  1  0.16551348  0.76560484  0.84840094  1
  O  O34  1  0.22994993  0.92786294  0.16990163  1
  O  O35  1  0.22994993  0.57213706  0.66990163  1
  O  O36  1  0.27005007  0.07213706  0.66990163  1
  O  O37  1  0.27005007  0.42786294  0.16990163  1
  O  O38  1  0.33448652  0.23439516  0.34840094  1
  O  O39  1  0.33448652  0.26560484  0.84840094  1
  O  O40  1  0.35194015  0.73477416  0.32887035  1
  O  O41  1  0.35194015  0.76522584  0.82887035  1
  O  O42  1  0.39153965  0.50128648  0.90984871  1
  O  O43  1  0.39153965  0.99871352  0.40984871  1
  O  O44  1  0.42232581  0.04688199  0.86971393  1
  O  O45  1  0.42232581  0.45311801  0.36971393  1
  O  O46  1  0.47644323  0.21150458  0.58011955  1
  O  O47  1  0.47644323  0.28849542  0.08011955  1
  O  O48  1  0.52355677  0.71150458  0.91988045  1
  O  O49  1  0.52355677  0.78849542  0.41988045  1
  O  O50  1  0.57767419  0.54688199  0.63028607  1
  O  O51  1  0.57767419  0.95311801  0.13028607  1
  O  O52  1  0.60846035  0.00128648  0.59015129  1
  O  O53  1  0.60846035  0.49871352  0.09015129  1
  O  O54  1  0.64805985  0.23477416  0.17112965  1
  O  O55  1  0.64805985  0.26522584  0.67112965  1
  O  O56  1  0.66551348  0.73439516  0.15159906  1
  O  O57  1  0.66551348  0.76560484  0.65159906  1
  O  O58  1  0.72994993  0.57213706  0.83009837  1
  O  O59  1  0.72994993  0.92786294  0.33009837  1
  O  O60  1  0.77005007  0.07213706  0.83009837  1
  O  O61  1  0.77005007  0.42786294  0.33009837  1
  O  O62  1  0.83448652  0.23439516  0.15159906  1
  O  O63  1  0.83448652  0.26560484  0.65159906  1
  O  O64  1  0.85194015  0.73477416  0.17112965  1
  O  O65  1  0.85194015  0.76522584  0.67112965  1
  O  O66  1  0.89153965  0.50128648  0.59015129  1
  O  O67  1  0.89153965  0.99871352  0.09015129  1
  O  O68  1  0.92232581  0.04688199  0.63028607  1
  O  O69  1  0.92232581  0.45311801  0.13028607  1
  O  O70  1  0.97644323  0.21150458  0.91988045  1
  O  O71  1  0.97644323  0.28849542  0.41988045  1
