# generated using pymatgen
data_LiNb(TeO4)3
_symmetry_space_group_name_H-M   'P 1'
_cell_length_a   5.23559351
_cell_length_b   4.96850659
_cell_length_c   8.67605336
_cell_angle_alpha   90.00000000
_cell_angle_beta   90.00000000
_cell_angle_gamma   89.64484169
_symmetry_Int_Tables_number   1
_chemical_formula_structural   LiNb(TeO4)3
_chemical_formula_sum   'Li1 Nb1 Te3 O12'
_cell_volume   225.68654173
_cell_formula_units_Z   1
loop_
 _symmetry_equiv_pos_site_id
 _symmetry_equiv_pos_as_xyz
  1  'x, y, z'
loop_
 _atom_site_type_symbol
 _atom_site_label
 _atom_site_symmetry_multiplicity
 _atom_site_fract_x
 _atom_site_fract_y
 _atom_site_fract_z
 _atom_site_occupancy
  Li  Li0  1  0.00000000  0.00000000  0.72384505  1
  Nb  Nb1  1  0.00000000  0.00000000  0.10974997  1
  Te  Te2  1  0.00000000  0.50000000  0.41681282  1
  Te  Te3  1  0.50000000  0.00000000  0.91956184  1
  Te  Te4  1  0.50000000  0.50000000  0.60587333  1
  O  O5  1  0.12207705  0.25779435  0.26247137  1
  O  O6  1  0.18290708  0.28476209  0.58195476  1
  O  O7  1  0.18471180  0.19512485  0.91857637  1
  O  O8  1  0.31392758  0.70841934  0.44289045  1
  O  O9  1  0.31902545  0.78821083  0.07286925  1
  O  O10  1  0.35656210  0.75748826  0.75140729  1
  O  O11  1  0.64343790  0.24251174  0.75140729  1
  O  O12  1  0.68097455  0.21178917  0.07286925  1
  O  O13  1  0.68607242  0.29158066  0.44289045  1
  O  O14  1  0.81528820  0.80487515  0.91857637  1
  O  O15  1  0.81709292  0.71523791  0.58195476  1
  O  O16  1  0.87792295  0.74220565  0.26247137  1
