# generated using pymatgen
data_Co6OF11
_symmetry_space_group_name_H-M   'P 1'
_cell_length_a   10.64369870
_cell_length_b   6.60903422
_cell_length_c   3.21342096
_cell_angle_alpha   90.25159557
_cell_angle_beta   90.09281089
_cell_angle_gamma   72.01392845
_symmetry_Int_Tables_number   1
_chemical_formula_structural   Co6OF11
_chemical_formula_sum   'Co6 O1 F11'
_cell_volume   214.99809234
_cell_formula_units_Z   1
loop_
 _symmetry_equiv_pos_site_id
 _symmetry_equiv_pos_as_xyz
  1  'x, y, z'
loop_
 _atom_site_type_symbol
 _atom_site_label
 _atom_site_symmetry_multiplicity
 _atom_site_fract_x
 _atom_site_fract_y
 _atom_site_fract_z
 _atom_site_occupancy
  Co  Co0  1  0.00089119  0.01849125  0.00418834  1
  Co  Co1  1  0.00049561  0.47871831  0.50179710  1
  Co  Co2  1  0.33348577  0.33591397  0.99702668  1
  Co  Co3  1  0.66645491  0.16529189  0.49781935  1
  Co  Co4  1  0.33531691  0.83396203  0.49971907  1
  Co  Co5  1  0.66791310  0.66531527  -0.00008041  1
  O  O6  1  0.00044590  0.29256306  0.00185383  1
  F  F7  1  0.00020343  0.70937340  0.99372023  1
  F  F8  1  0.33415651  0.03030779  0.00029583  1
  F  F9  1  0.20337234  0.40289102  0.49745374  1
  F  F10  1  0.46460485  0.26984395  0.49673603  1
  F  F11  1  0.13150759  0.93163706  0.50331390  1
  F  F12  1  0.33678248  0.63882788  0.99840276  1
  F  F13  1  0.66778918  0.36021436  0.99903305  1
  F  F14  1  0.87031709  0.06016542  0.50147303  1
  F  F15  1  0.53702728  0.73230188  0.49941528  1
  F  F16  1  0.79772772  0.60089855  0.50045927  1
  F  F17  1  0.66499314  0.97153994  0.99698091  1
