# generated using pymatgen
data_Li4MnCo2O7
_symmetry_space_group_name_H-M   'P 1'
_cell_length_a   2.91364709
_cell_length_b   10.67374591
_cell_length_c   8.44569788
_cell_angle_alpha   78.51719143
_cell_angle_beta   90.00000000
_cell_angle_gamma   82.15540708
_symmetry_Int_Tables_number   1
_chemical_formula_structural   Li4MnCo2O7
_chemical_formula_sum   'Li8 Mn2 Co4 O14'
_cell_volume   254.89134241
_cell_formula_units_Z   2
loop_
 _symmetry_equiv_pos_site_id
 _symmetry_equiv_pos_as_xyz
  1  'x, y, z'
loop_
 _atom_site_type_symbol
 _atom_site_label
 _atom_site_symmetry_multiplicity
 _atom_site_fract_x
 _atom_site_fract_y
 _atom_site_fract_z
 _atom_site_occupancy
  Li  Li0  1  0.42372562  0.15254777  0.22543416  1
  Li  Li1  1  0.28999343  0.42001213  0.63744776  1
  Li  Li2  1  0.14678852  0.70642296  0.07184280  1
  Li  Li3  1  0.99814869  0.00370262  0.50468739  1
  Li  Li4  1  0.85502405  0.28995190  0.92647927  1
  Li  Li5  1  0.71629668  0.56740763  0.35246852  1
  Li  Li6  1  0.57135951  0.85728197  0.78424465  1
  Li  Li7  1  0.85724353  0.28551295  0.42286393  1
  Mn  Mn8  1  0.99784125  0.00431750  0.99167220  1
  Mn  Mn9  1  0.57286491  0.85427117  0.28626292  1
  Co  Co10  1  0.71445823  0.57108454  0.86729524  1
  Co  Co11  1  0.42308411  0.15383077  0.68351220  1
  Co  Co12  1  0.28817788  0.42364324  0.15621938  1
  Co  Co13  1  0.14446056  0.71107888  0.57917038  1
  O  O14  1  0.43629804  0.12740391  0.97216296  1
  O  O15  1  0.28453456  0.43093087  0.36089400  1
  O  O16  1  0.14950986  0.70098129  0.82760079  1
  O  O17  1  0.00717769  0.98564562  0.23786731  1
  O  O18  1  0.85898874  0.28202152  0.68232767  1
  O  O19  1  0.71800583  0.56398734  0.10539258  1
  O  O20  1  0.58083440  0.83833120  0.54498522  1
  O  O21  1  0.43183138  0.13633725  0.47577751  1
  O  O22  1  0.28127417  0.43745265  0.91696615  1
  O  O23  1  0.13648619  0.72702862  0.31589337  1
  O  O24  1  0.99378266  0.01243367  0.76502121  1
  O  O25  1  0.85167954  0.29663991  0.17228459  1
  O  O26  1  0.70884678  0.58230643  0.61238931  1
  O  O27  1  0.56128316  0.87743368  0.02083652  1
