# generated using pymatgen
data_Li3V2P4(HO8)2
_symmetry_space_group_name_H-M   'P 1'
_cell_length_a   9.74204082
_cell_length_b   8.08329728
_cell_length_c   7.88482369
_cell_angle_alpha   89.87279732
_cell_angle_beta   68.10213583
_cell_angle_gamma   90.68507536
_symmetry_Int_Tables_number   1
_chemical_formula_structural   Li3V2P4(HO8)2
_chemical_formula_sum   'Li6 V4 P8 H4 O32'
_cell_volume   576.05775646
_cell_formula_units_Z   2
loop_
 _symmetry_equiv_pos_site_id
 _symmetry_equiv_pos_as_xyz
  1  'x, y, z'
loop_
 _atom_site_type_symbol
 _atom_site_label
 _atom_site_symmetry_multiplicity
 _atom_site_fract_x
 _atom_site_fract_y
 _atom_site_fract_z
 _atom_site_occupancy
  Li  Li0  1  0.27830727  0.63375389  0.34296599  1
  Li  Li1  1  0.23000695  0.36624197  0.65557238  1
  Li  Li2  1  0.27161060  0.86829455  0.85084405  1
  Li  Li3  1  0.72185312  0.13392435  0.14891813  1
  Li  Li4  1  0.77622682  0.63449358  0.34222901  1
  Li  Li5  1  0.72792667  0.36828250  0.65618799  1
  V  V6  1  0.24703247  0.49430142  0.00489859  1
  V  V7  1  0.25109409  0.00229834  0.48923523  1
  V  V8  1  0.75005436  0.50533751  0.00027864  1
  V  V9  1  0.75191173  0.99851634  0.50216654  1
  P  P10  1  0.06881220  0.84937396  0.23143963  1
  P  P11  1  0.06644080  0.65489707  0.73716950  1
  P  P12  1  0.43326554  0.34795605  0.26952137  1
  P  P13  1  0.56878089  0.85220489  0.23157811  1
  P  P14  1  0.43316247  0.15135726  0.76237307  1
  P  P15  1  0.56559691  0.65714632  0.73646037  1
  P  P16  1  0.93186044  0.34830181  0.26838819  1
  P  P17  1  0.93312625  0.15329777  0.76149975  1
  H  H18  1  0.00981938  0.51006318  0.51052315  1
  H  H19  1  0.50925770  0.50950809  0.51085692  1
  H  H20  1  0.49048113  0.00970682  0.98855612  1
  H  H21  1  0.99010711  0.00832292  0.98706106  1
  O  O22  1  0.09124028  0.93848468  0.05303634  1
  O  O23  1  0.09607139  0.32864866  0.14790451  1
  O  O24  1  0.14807031  0.68236192  0.19428229  1
  O  O25  1  0.13954910  0.95009727  0.35269997  1
  O  O26  1  0.09563895  0.56028228  0.55152024  1
  O  O27  1  0.10072749  0.17342147  0.64620510  1
  O  O28  1  0.14824970  0.82344341  0.68528014  1
  O  O29  1  0.14300115  0.54550192  0.83572639  1
  O  O30  1  0.35985825  0.45216350  0.16290213  1
  O  O31  1  0.36099270  0.17392041  0.32060044  1
  O  O32  1  0.40059322  0.82928971  0.35681929  1
  O  O33  1  0.40582083  0.44435435  0.44800216  1
  O  O34  1  0.35776737  0.04678043  0.65232688  1
  O  O35  1  0.35606010  0.31807795  0.80770835  1
  O  O36  1  0.59184142  0.95568169  0.06261538  1
  O  O37  1  0.59947355  0.32803464  0.14974376  1
  O  O38  1  0.39914797  0.67435669  0.85026910  1
  O  O39  1  0.40684909  0.04770323  0.93774476  1
  O  O40  1  0.64390848  0.68333002  0.19412097  1
  O  O41  1  0.64288907  0.95353900  0.34943441  1
  O  O42  1  0.59499406  0.55795273  0.55349003  1
  O  O43  1  0.60090275  0.17306828  0.64482416  1
  O  O44  1  0.64085829  0.82676310  0.67905312  1
  O  O45  1  0.63955924  0.54887800  0.83760445  1
  O  O46  1  0.85669637  0.45531387  0.16375315  1
  O  O47  1  0.85167279  0.17619998  0.31273980  1
  O  O48  1  0.90119768  0.82837475  0.35542182  1
  O  O49  1  0.90484071  0.44076919  0.44905525  1
  O  O50  1  0.86260678  0.05154312  0.64508061  1
  O  O51  1  0.85172111  0.31770873  0.80918409  1
  O  O52  1  0.90202969  0.67190029  0.85122256  1
  O  O53  1  0.90685720  0.06212813  0.94536852  1
