# generated using pymatgen
data_YTa3O9
_symmetry_space_group_name_H-M   'P 1'
_cell_length_a   6.47977221
_cell_length_b   7.65623671
_cell_length_c   12.61622206
_cell_angle_alpha   90.00000000
_cell_angle_beta   90.00000000
_cell_angle_gamma   90.00000000
_symmetry_Int_Tables_number   1
_chemical_formula_structural   YTa3O9
_chemical_formula_sum   'Y4 Ta12 O36'
_cell_volume   625.89922758
_cell_formula_units_Z   4
loop_
 _symmetry_equiv_pos_site_id
 _symmetry_equiv_pos_as_xyz
  1  'x, y, z'
loop_
 _atom_site_type_symbol
 _atom_site_label
 _atom_site_symmetry_multiplicity
 _atom_site_fract_x
 _atom_site_fract_y
 _atom_site_fract_z
 _atom_site_occupancy
  Y  Y0  1  0.05768108  0.25000000  0.46444365  1
  Y  Y1  1  0.44231892  0.75000000  0.96444365  1
  Y  Y2  1  0.55768108  0.25000000  0.03555635  1
  Y  Y3  1  0.94231892  0.75000000  0.53555635  1
  Ta  Ta4  1  0.00000000  0.00000000  0.00000000  1
  Ta  Ta5  1  0.00000000  0.50000000  0.00000000  1
  Ta  Ta6  1  0.20263985  0.00278907  0.71261037  1
  Ta  Ta7  1  0.20263985  0.49721093  0.71261037  1
  Ta  Ta8  1  0.29736015  0.50278907  0.21261037  1
  Ta  Ta9  1  0.29736015  0.99721093  0.21261037  1
  Ta  Ta10  1  0.50000000  0.00000000  0.50000000  1
  Ta  Ta11  1  0.50000000  0.50000000  0.50000000  1
  Ta  Ta12  1  0.70263985  0.00278907  0.78738963  1
  Ta  Ta13  1  0.70263985  0.49721093  0.78738963  1
  Ta  Ta14  1  0.79736015  0.50278907  0.28738963  1
  Ta  Ta15  1  0.79736015  0.99721093  0.28738963  1
  O  O16  1  0.01408405  0.04321628  0.84300128  1
  O  O17  1  0.01408405  0.45678372  0.84300128  1
  O  O18  1  0.07402679  0.75000000  0.97344775  1
  O  O19  1  0.10603741  0.03559631  0.33159223  1
  O  O20  1  0.10603741  0.46440369  0.33159223  1
  O  O21  1  0.16214782  0.25000000  0.67103695  1
  O  O22  1  0.19957672  0.75000000  0.69376646  1
  O  O23  1  0.20454112  0.53119092  0.53637233  1
  O  O24  1  0.20454112  0.96880908  0.53637233  1
  O  O25  1  0.29545888  0.03119092  0.03637233  1
  O  O26  1  0.29545888  0.46880908  0.03637233  1
  O  O27  1  0.30042328  0.25000000  0.19376646  1
  O  O28  1  0.33785218  0.75000000  0.17103695  1
  O  O29  1  0.39396259  0.53559631  0.83159223  1
  O  O30  1  0.39396259  0.96440369  0.83159223  1
  O  O31  1  0.42597321  0.25000000  0.47344775  1
  O  O32  1  0.48591595  0.54321628  0.34300128  1
  O  O33  1  0.48591595  0.95678372  0.34300128  1
  O  O34  1  0.51408405  0.04321628  0.65699872  1
  O  O35  1  0.51408405  0.45678372  0.65699872  1
  O  O36  1  0.57402679  0.75000000  0.52655225  1
  O  O37  1  0.60603741  0.03559631  0.16840777  1
  O  O38  1  0.60603741  0.46440369  0.16840777  1
  O  O39  1  0.66214782  0.25000000  0.82896305  1
  O  O40  1  0.69957672  0.75000000  0.80623354  1
  O  O41  1  0.70454112  0.53119092  0.96362767  1
  O  O42  1  0.70454112  0.96880908  0.96362767  1
  O  O43  1  0.79545888  0.03119092  0.46362767  1
  O  O44  1  0.79545888  0.46880908  0.46362767  1
  O  O45  1  0.80042328  0.25000000  0.30623354  1
  O  O46  1  0.83785218  0.75000000  0.32896305  1
  O  O47  1  0.89396259  0.53559631  0.66840777  1
  O  O48  1  0.89396259  0.96440369  0.66840777  1
  O  O49  1  0.92597321  0.25000000  0.02655225  1
  O  O50  1  0.98591595  0.54321628  0.15699872  1
  O  O51  1  0.98591595  0.95678372  0.15699872  1
