# generated using pymatgen
data_Na2Ti4O9
_symmetry_space_group_name_H-M   'P 1'
_cell_length_a   11.75543726
_cell_length_b   11.13426558
_cell_length_c   8.87144883
_cell_angle_alpha   74.58792797
_cell_angle_beta   82.64717936
_cell_angle_gamma   75.93888886
_symmetry_Int_Tables_number   1
_chemical_formula_structural   Na2Ti4O9
_chemical_formula_sum   'Na12 Ti24 O54'
_cell_volume   1083.37134899
_cell_formula_units_Z   6
loop_
 _symmetry_equiv_pos_site_id
 _symmetry_equiv_pos_as_xyz
  1  'x, y, z'
loop_
 _atom_site_type_symbol
 _atom_site_label
 _atom_site_symmetry_multiplicity
 _atom_site_fract_x
 _atom_site_fract_y
 _atom_site_fract_z
 _atom_site_occupancy
  Na  Na0  1  0.14709484  0.70287803  0.05094269  1
  Na  Na1  1  0.14121080  0.69396702  0.43095243  1
  Na  Na2  1  0.27619940  0.39578072  0.15593907  1
  Na  Na3  1  0.27343662  0.39697181  0.48790712  1
  Na  Na4  1  0.27455916  0.40532686  0.81914401  1
  Na  Na5  1  0.28653064  0.90003418  0.47837926  1
  Na  Na6  1  0.71482209  0.09988399  0.83780778  1
  Na  Na7  1  0.72305861  0.60196975  0.17804157  1
  Na  Na8  1  0.72497046  0.59426000  0.51493793  1
  Na  Na9  1  0.72709772  0.60229699  0.84512958  1
  Na  Na10  1  0.85201469  0.29300627  0.28934279  1
  Na  Na11  1  0.85817328  0.30506485  0.90485351  1
  Ti  Ti12  1  0.12451826  0.18653057  0.08296868  1
  Ti  Ti13  1  0.12339596  0.18970734  0.41633818  1
  Ti  Ti14  1  0.00941036  0.50868015  0.82758517  1
  Ti  Ti15  1  0.00339097  0.99573218  0.00021756  1
  Ti  Ti16  1  0.12428510  0.18796120  0.75132572  1
  Ti  Ti17  1  0.42995891  0.11791276  0.05519156  1
  Ti  Ti18  1  0.43754678  0.12604647  0.38442801  1
  Ti  Ti19  1  0.42968221  0.11778039  0.72245790  1
  Ti  Ti20  1  0.44144802  0.62523059  0.21892280  1
  Ti  Ti21  1  0.44634310  0.62393415  0.55164559  1
  Ti  Ti22  1  0.55690938  0.37625483  0.11387907  1
  Ti  Ti23  1  0.44080044  0.62877713  0.88215623  1
  Ti  Ti24  1  0.55806668  0.37353515  0.45061225  1
  Ti  Ti25  1  0.55269162  0.37730847  0.78179449  1
  Ti  Ti26  1  0.57042994  0.88187887  0.27796437  1
  Ti  Ti27  1  0.57032180  0.88268109  0.61069944  1
  Ti  Ti28  1  0.56326028  0.87433400  0.94893591  1
  Ti  Ti29  1  0.99706804  0.00311650  0.33236787  1
  Ti  Ti30  1  0.00137903  0.99882341  0.66681343  1
  Ti  Ti31  1  0.87544150  0.81242103  0.25063257  1
  Ti  Ti32  1  0.87599429  0.81271731  0.58196395  1
  Ti  Ti33  1  0.99947949  0.49870864  0.16610843  1
  Ti  Ti34  1  0.99099747  0.49134124  0.50348609  1
  Ti  Ti35  1  0.87691767  0.80887371  0.91793741  1
  O  O36  1  0.05933157  0.30409649  0.22259807  1
  O  O37  1  0.06099614  0.30450257  0.55537268  1
  O  O38  1  0.15042756  0.05922940  0.28990029  1
  O  O39  1  0.06197548  0.30498789  0.88763387  1
  O  O40  1  0.14956012  0.06014809  0.61993525  1
  O  O41  1  0.14859746  0.06192175  0.95443581  1
  O  O42  1  0.10640335  0.51525500  0.31064207  1
  O  O43  1  0.04429534  0.87381324  0.20049580  1
  O  O44  1  0.10954379  0.51082671  0.64294920  1
  O  O45  1  0.04623881  0.87723636  0.53144808  1
  O  O46  1  0.11158097  0.51248472  0.97976615  1
  O  O47  1  0.27345922  0.21892757  0.04741601  1
  O  O48  1  0.04411221  0.87618833  0.86895425  1
  O  O49  1  0.27436061  0.21599489  0.38201849  1
  O  O50  1  0.27334947  0.21942041  0.71537270  1
  O  O51  1  0.40839041  0.00942314  0.26390792  1
  O  O52  1  0.40848807  0.00984373  0.59308672  1
  O  O53  1  0.40659873  0.00853554  0.92916350  1
  O  O54  1  0.34313044  0.67473507  0.05232216  1
  O  O55  1  0.34279876  0.68110754  0.38512272  1
  O  O56  1  0.48175435  0.22252754  0.17726969  1
  O  O57  1  0.43010497  0.44751021  0.27977254  1
  O  O58  1  0.34610371  0.68274364  0.71215147  1
  O  O59  1  0.48181395  0.22228250  0.51294970  1
  O  O60  1  0.42959111  0.44731617  0.61358682  1
  O  O61  1  0.48615215  0.21692115  0.84668891  1
  O  O62  1  0.42975101  0.44848092  0.94407177  1
  O  O63  1  0.56799971  0.55403692  0.05284812  1
  O  O64  1  0.51810128  0.77785219  0.15519783  1
  O  O65  1  0.56890224  0.55320427  0.38853074  1
  O  O66  1  0.51406746  0.78347820  0.48599179  1
  O  O67  1  0.65562296  0.32796498  0.28016579  1
  O  O68  1  0.56945320  0.55398447  0.71950888  1
  O  O69  1  0.51804091  0.77883585  0.81937915  1
  O  O70  1  0.65330424  0.31947554  0.62009623  1
  O  O71  1  0.65593470  0.32089918  0.94784054  1
  O  O72  1  0.59217738  0.99030011  0.06849567  1
  O  O73  1  0.59383165  0.99162992  0.40304696  1
  O  O74  1  0.59221051  0.99085000  0.73926989  1
  O  O75  1  0.72659199  0.78003684  0.28583639  1
  O  O76  1  0.72684204  0.78164231  0.61796644  1
  O  O77  1  0.72600782  0.78278186  0.95126139  1
  O  O78  1  0.95618993  0.12531290  0.13368386  1
  O  O79  1  0.89297671  0.48437047  0.02421531  1
  O  O80  1  0.95734454  0.12222431  0.46536090  1
  O  O81  1  0.88807549  0.48613247  0.35508714  1
  O  O82  1  0.95415638  0.12135206  0.80227290  1
  O  O83  1  0.89134326  0.48868256  0.69130961  1
  O  O84  1  0.85030164  0.93953666  0.04327265  1
  O  O85  1  0.85148623  0.93801765  0.37872822  1
  O  O86  1  0.94053848  0.69483117  0.11150157  1
  O  O87  1  0.85161568  0.93946006  0.71362128  1
  O  O88  1  0.93786508  0.69464385  0.44602012  1
  O  O89  1  0.93968809  0.69510695  0.77784163  1
