# generated using pymatgen
data_MnFe3Ni2(PO4)6
_symmetry_space_group_name_H-M   'P 1'
_cell_length_a   8.46756320
_cell_length_b   8.46756340
_cell_length_c   8.46756300
_cell_angle_alpha   60.94572887
_cell_angle_beta   60.94573703
_cell_angle_gamma   60.94573192
_symmetry_Int_Tables_number   1
_chemical_formula_structural   MnFe3Ni2(PO4)6
_chemical_formula_sum   'Mn1 Fe3 Ni2 P6 O24'
_cell_volume   438.44796887
_cell_formula_units_Z   1
loop_
 _symmetry_equiv_pos_site_id
 _symmetry_equiv_pos_as_xyz
  1  'x, y, z'
loop_
 _atom_site_type_symbol
 _atom_site_label
 _atom_site_symmetry_multiplicity
 _atom_site_fract_x
 _atom_site_fract_y
 _atom_site_fract_z
 _atom_site_occupancy
  Mn  Mn0  1  0.85760601  0.85760601  0.85760601  1
  Fe  Fe1  1  0.14396537  0.14396537  0.14396537  1
  Fe  Fe2  1  0.35551436  0.35551436  0.35551436  1
  Fe  Fe3  1  0.64321389  0.64321389  0.64321389  1
  Ni  Ni4  1  0.00125947  0.00125947  0.00125947  1
  Ni  Ni5  1  0.50002140  0.50002140  0.50002140  1
  P  P6  1  0.04346469  0.74914787  0.45915472  1
  P  P7  1  0.45915472  0.04346469  0.74914787  1
  P  P8  1  0.74914787  0.45915472  0.04346469  1
  P  P9  1  0.24810832  0.54534119  0.95264450  1
  P  P10  1  0.54534119  0.95264450  0.24810832  1
  P  P11  1  0.95264450  0.24810832  0.54534119  1
  O  O12  1  0.11072980  0.31046709  0.51167518  1
  O  O13  1  0.31046709  0.51167518  0.11072980  1
  O  O14  1  0.05678843  0.90976952  0.26030588  1
  O  O15  1  0.51167518  0.11072980  0.31046709  1
  O  O16  1  0.00484764  0.81383272  0.62009455  1
  O  O17  1  0.24374876  0.59147991  0.44345114  1
  O  O18  1  0.26030588  0.05678843  0.90976952  1
  O  O19  1  0.44345114  0.24374876  0.59147991  1
  O  O20  1  0.18110908  0.38926916  0.99242932  1
  O  O21  1  0.59147991  0.44345114  0.24374876  1
  O  O22  1  0.08348999  0.74658679  0.94026345  1
  O  O23  1  0.38926916  0.99242932  0.18110908  1
  O  O24  1  0.62009455  0.00484764  0.81383272  1
  O  O25  1  0.90976952  0.26030588  0.05678843  1
  O  O26  1  0.40540789  0.56421844  0.75322826  1
  O  O27  1  0.81383272  0.62009455  0.00484764  1
  O  O28  1  0.56421844  0.75322826  0.40540789  1
  O  O29  1  0.74658679  0.94026345  0.08348999  1
  O  O30  1  0.75322826  0.40540789  0.56421844  1
  O  O31  1  0.99242932  0.18110908  0.38926916  1
  O  O32  1  0.49774181  0.88879193  0.68083249  1
  O  O33  1  0.94026345  0.08348999  0.74658679  1
  O  O34  1  0.68083249  0.49774181  0.88879193  1
  O  O35  1  0.88879193  0.68083249  0.49774181  1
