# generated using pymatgen
data_EuInAu2
_symmetry_space_group_name_H-M   'P 1'
_cell_length_a   5.05039433
_cell_length_b   5.05043910
_cell_length_c   5.05092934
_cell_angle_alpha   60.02531122
_cell_angle_beta   60.02307309
_cell_angle_gamma   60.02609451
_symmetry_Int_Tables_number   1
_chemical_formula_structural   EuInAu2
_chemical_formula_sum   'Eu1 In1 Au2'
_cell_volume   91.14966319
_cell_formula_units_Z   1
loop_
 _symmetry_equiv_pos_site_id
 _symmetry_equiv_pos_as_xyz
  1  'x, y, z'
loop_
 _atom_site_type_symbol
 _atom_site_label
 _atom_site_symmetry_multiplicity
 _atom_site_fract_x
 _atom_site_fract_y
 _atom_site_fract_z
 _atom_site_occupancy
  Eu  Eu0  1  0.24999990  0.24999971  0.25000324  1
  In  In1  1  0.75000044  0.75000053  0.74999621  1
  Au  Au2  1  0.50042602  0.50046234  0.50025895  1
  Au  Au3  1  0.99957364  0.99953742  0.99974160  1
