# generated using pymatgen
data_CsSi
_symmetry_space_group_name_H-M   'P 1'
_cell_length_a   12.36411829
_cell_length_b   12.36411829
_cell_length_c   12.36411829
_cell_angle_alpha   124.69543991
_cell_angle_beta   124.69543991
_cell_angle_gamma   82.04309819
_symmetry_Int_Tables_number   1
_chemical_formula_structural   CsSi
_chemical_formula_sum   'Cs16 Si16'
_cell_volume   1228.62334008
_cell_formula_units_Z   16
loop_
 _symmetry_equiv_pos_site_id
 _symmetry_equiv_pos_as_xyz
  1  'x, y, z'
loop_
 _atom_site_type_symbol
 _atom_site_label
 _atom_site_symmetry_multiplicity
 _atom_site_fract_x
 _atom_site_fract_y
 _atom_site_fract_z
 _atom_site_occupancy
  Cs  Cs0  1  0.39052567  0.75000000  0.14052567  1
  Cs  Cs1  1  0.10947433  0.25000000  0.35947433  1
  Cs  Cs2  1  0.75000000  0.10947333  0.35947333  1
  Cs  Cs3  1  0.25000000  0.39052667  0.14052667  1
  Cs  Cs4  1  0.75000000  0.60947233  0.85947333  1
  Cs  Cs5  1  0.25000000  0.89052767  0.64052767  1
  Cs  Cs6  1  0.89052667  0.75000000  0.64052667  1
  Cs  Cs7  1  0.60947333  0.25000000  0.85947333  1
  Cs  Cs8  1  0.49588066  0.24588066  0.49176132  1
  Cs  Cs9  1  0.25411834  0.00411934  0.00823768  1
  Cs  Cs10  1  0.00411834  0.49588166  0.75000000  1
  Cs  Cs11  1  0.24588066  0.25411934  0.75000000  1
  Cs  Cs12  1  0.50411834  0.75411934  0.50823768  1
  Cs  Cs13  1  0.74588066  0.99588166  0.99176232  1
  Cs  Cs14  1  0.99588066  0.50411934  0.25000000  1
  Cs  Cs15  1  0.75411834  0.74588066  0.24999900  1
  Si  Si16  1  0.58098504  0.47767092  0.21698321  1
  Si  Si17  1  0.76068771  0.36400183  0.28301579  1
  Si  Si18  1  0.91901496  0.13599817  0.89668688  1
  Si  Si19  1  0.73931329  0.02232908  0.60331412  1
  Si  Si20  1  0.02232908  0.91901496  0.28301579  1
  Si  Si21  1  0.13599817  0.73931229  0.21698321  1
  Si  Si22  1  0.36400283  0.58098504  0.60331412  1
  Si  Si23  1  0.47767192  0.76068771  0.89668588  1
  Si  Si24  1  0.41901496  0.52232808  0.78301579  1
  Si  Si25  1  0.23931229  0.63599917  0.71698421  1
  Si  Si26  1  0.08098504  0.86400083  0.10331412  1
  Si  Si27  1  0.26068771  0.97767192  0.39668688  1
  Si  Si28  1  0.97767092  0.08098504  0.71698221  1
  Si  Si29  1  0.86400183  0.26068871  0.78301679  1
  Si  Si30  1  0.63599817  0.41901596  0.39668688  1
  Si  Si31  1  0.52233008  0.23931129  0.10331412  1
