# generated using pymatgen
data_LiMnVO4
_symmetry_space_group_name_H-M   'P 1'
_cell_length_a   6.02101886
_cell_length_b   6.02101886
_cell_length_c   6.02101886
_cell_angle_alpha   61.33213628
_cell_angle_beta   88.98389138
_cell_angle_gamma   120.16785936
_symmetry_Int_Tables_number   1
_chemical_formula_structural   LiMnVO4
_chemical_formula_sum   'Li2 Mn2 V2 O8'
_cell_volume   155.64481545
_cell_formula_units_Z   2
loop_
 _symmetry_equiv_pos_site_id
 _symmetry_equiv_pos_as_xyz
  1  'x, y, z'
loop_
 _atom_site_type_symbol
 _atom_site_label
 _atom_site_symmetry_multiplicity
 _atom_site_fract_x
 _atom_site_fract_y
 _atom_site_fract_z
 _atom_site_occupancy
  Li  Li0  1  0.50000000  0.00000000  0.50000000  1
  Li  Li1  1  0.00000000  0.50000000  0.50000000  1
  Mn  Mn2  1  0.50000000  0.00000000  0.00000000  1
  Mn  Mn3  1  0.50000000  0.50000000  0.50000000  1
  V  V4  1  0.12473880  0.25000000  0.12526120  1
  V  V5  1  0.87526120  0.75000000  0.87473880  1
  O  O6  1  0.76004587  0.00721942  0.24717354  1
  O  O7  1  0.75698951  0.51677738  0.22623311  1
  O  O8  1  0.24301049  0.01677738  0.24021213  1
  O  O9  1  0.24560704  0.49278058  0.24717354  1
  O  O10  1  0.75439296  0.50721942  0.75282646  1
  O  O11  1  0.75698951  0.98322262  0.75978787  1
  O  O12  1  0.24301049  0.48322262  0.77376689  1
  O  O13  1  0.23995413  0.99278058  0.75282646  1
