# generated using pymatgen
data_Na3(CoO2)5
_symmetry_space_group_name_H-M   'P 1'
_cell_length_a   5.75279283
_cell_length_b   7.54604774
_cell_length_c   4.90219336
_cell_angle_alpha   71.04541118
_cell_angle_beta   73.27684644
_cell_angle_gamma   84.63697804
_symmetry_Int_Tables_number   1
_chemical_formula_structural   Na3(CoO2)5
_chemical_formula_sum   'Na3 Co5 O10'
_cell_volume   192.75670581
_cell_formula_units_Z   1
loop_
 _symmetry_equiv_pos_site_id
 _symmetry_equiv_pos_as_xyz
  1  'x, y, z'
loop_
 _atom_site_type_symbol
 _atom_site_label
 _atom_site_symmetry_multiplicity
 _atom_site_fract_x
 _atom_site_fract_y
 _atom_site_fract_z
 _atom_site_occupancy
  Na  Na0  1  0.49560171  0.19837793  0.56905944  1
  Na  Na1  1  0.49560171  0.40162207  0.96743737  1
  Na  Na2  1  0.49408349  0.80000000  0.76555376  1
  Co  Co3  1  0.99609344  0.99926026  0.00207679  1
  Co  Co4  1  0.00616792  0.19981430  0.39766057  1
  Co  Co5  1  0.99609344  0.60073974  0.20133705  1
  Co  Co6  1  0.00616792  0.40018570  0.79747488  1
  Co  Co7  1  0.00972588  0.80000000  0.59767188  1
  O  O8  1  0.18068960  0.20058388  0.00308032  1
  O  O9  1  0.18282309  0.00000330  0.60825108  1
  O  O10  1  0.82411361  0.99847749  0.40113286  1
  O  O11  1  0.18068960  0.39941612  0.40366320  1
  O  O12  1  0.82500925  0.39555123  0.19215499  1
  O  O13  1  0.17390390  0.80000000  0.20641249  1
  O  O14  1  0.82500925  0.20444877  0.78770522  1
  O  O15  1  0.18282309  0.59999670  0.80825438  1
  O  O16  1  0.82411361  0.60152151  0.59961035  1
  O  O17  1  0.82528648  0.80000000  0.98346237  1
