# generated using pymatgen
data_Li4FeCo3(PO4)4
_symmetry_space_group_name_H-M   'P 1'
_cell_length_a   4.76369629
_cell_length_b   10.32723881
_cell_length_c   6.00885897
_cell_angle_alpha   90.00000000
_cell_angle_beta   90.00000000
_cell_angle_gamma   89.97834386
_symmetry_Int_Tables_number   1
_chemical_formula_structural   Li4FeCo3(PO4)4
_chemical_formula_sum   'Li4 Fe1 Co3 P4 O16'
_cell_volume   295.61077862
_cell_formula_units_Z   1
loop_
 _symmetry_equiv_pos_site_id
 _symmetry_equiv_pos_as_xyz
  1  'x, y, z'
loop_
 _atom_site_type_symbol
 _atom_site_label
 _atom_site_symmetry_multiplicity
 _atom_site_fract_x
 _atom_site_fract_y
 _atom_site_fract_z
 _atom_site_occupancy
  Li  Li0  1  0.00097056  0.99892998  0.99977654  1
  Li  Li1  1  0.00097056  0.99892998  0.50022346  1
  Li  Li2  1  0.49968382  0.50088468  0.50062066  1
  Li  Li3  1  0.49968382  0.50088468  0.99937934  1
  Fe  Fe4  1  0.97286533  0.28024521  0.25000000  1
  Co  Co5  1  0.02173754  0.71944508  0.75000000  1
  Co  Co6  1  0.47838541  0.21878350  0.75000000  1
  Co  Co7  1  0.52191898  0.78036281  0.25000000  1
  P  P8  1  0.08400758  0.59541586  0.25000000  1
  P  P9  1  0.41533504  0.09473209  0.25000000  1
  P  P10  1  0.58390258  0.90469657  0.75000000  1
  P  P11  1  0.91604614  0.40578530  0.75000000  1
  O  O12  1  0.20683763  0.45617452  0.25000000  1
  O  O13  1  0.22142727  0.66647882  0.04494549  1
  O  O14  1  0.22142727  0.66647882  0.45505451  1
  O  O15  1  0.23908154  0.40187557  0.75000000  1
  O  O16  1  0.26186613  0.90168821  0.75000000  1
  O  O17  1  0.27941991  0.16535824  0.04397446  1
  O  O18  1  0.27941991  0.16535824  0.45602554  1
  O  O19  1  0.29476781  0.95469867  0.25000000  1
  O  O20  1  0.70526169  0.04502166  0.75000000  1
  O  O21  1  0.72197372  0.83366244  0.54545562  1
  O  O22  1  0.72197372  0.83366244  0.95454438  1
  O  O23  1  0.73710354  0.09751595  0.25000000  1
  O  O24  1  0.76145965  0.59836154  0.25000000  1
  O  O25  1  0.77826576  0.33440298  0.54684281  1
  O  O26  1  0.77826576  0.33440298  0.95315719  1
  O  O27  1  0.79594234  0.54576218  0.75000000  1
