# generated using pymatgen
data_Li4MnCo2O7
_symmetry_space_group_name_H-M   'P 1'
_cell_length_a   2.90840768
_cell_length_b   9.91015225
_cell_length_c   9.80847673
_cell_angle_alpha   113.21291929
_cell_angle_beta   90.00000000
_cell_angle_gamma   98.43798218
_symmetry_Int_Tables_number   1
_chemical_formula_structural   Li4MnCo2O7
_chemical_formula_sum   'Li8 Mn2 Co4 O14'
_cell_volume   256.48809705
_cell_formula_units_Z   2
loop_
 _symmetry_equiv_pos_site_id
 _symmetry_equiv_pos_as_xyz
  1  'x, y, z'
loop_
 _atom_site_type_symbol
 _atom_site_label
 _atom_site_symmetry_multiplicity
 _atom_site_fract_x
 _atom_site_fract_y
 _atom_site_fract_z
 _atom_site_occupancy
  Li  Li0  1  0.65770806  0.31541612  0.09493634  1
  Li  Li1  1  0.92167046  0.84334192  0.20887773  1
  Li  Li2  1  0.21537575  0.43075050  0.36032990  1
  Li  Li3  1  0.49905635  0.99811270  0.48842174  1
  Li  Li4  1  0.78154470  0.56309041  0.64277406  1
  Li  Li5  1  0.07766862  0.15533624  0.78654253  1
  Li  Li6  1  0.35238465  0.70476930  0.93062984  1
  Li  Li7  1  0.28797810  0.57595720  0.14603030  1
  Mn  Mn8  1  0.00046085  0.00092170  0.99830314  1
  Mn  Mn9  1  0.42413242  0.84826583  0.70332759  1
  Co  Co10  1  0.57558020  0.15115940  0.29030473  1
  Co  Co11  1  0.84880988  0.69761976  0.40381231  1
  Co  Co12  1  0.14145367  0.28290735  0.57883199  1
  Co  Co13  1  0.72359757  0.44719413  0.88127988  1
  O  O14  1  0.52217413  0.04434925  0.88260532  1
  O  O15  1  0.81731842  0.63463583  0.02465893  1
  O  O16  1  0.10591775  0.21183550  0.18433722  1
  O  O17  1  0.39251993  0.78503985  0.33056129  1
  O  O18  1  0.67441879  0.34883859  0.47288674  1
  O  O19  1  0.95828841  0.91657583  0.61591793  1
  O  O20  1  0.24230081  0.48460163  0.75807231  1
  O  O21  1  0.75604699  0.51209397  0.26536521  1
  O  O22  1  0.04129840  0.08259781  0.38633977  1
  O  O23  1  0.33052523  0.66104947  0.53919665  1
  O  O24  1  0.60800775  0.21601551  0.67203038  1
  O  O25  1  0.89275139  0.78550279  0.79971489  1
  O  O26  1  0.18143552  0.36287203  0.95744438  1
  O  O27  1  0.46957520  0.93914939  0.09646689  1
