# generated using pymatgen
data_Li8CoNi9O20
_symmetry_space_group_name_H-M   'P 1'
_cell_length_a   2.84018042
_cell_length_b   11.65338742
_cell_length_c   21.14847922
_cell_angle_alpha   83.05194270
_cell_angle_beta   90.00000000
_cell_angle_gamma   90.00000000
_symmetry_Int_Tables_number   1
_chemical_formula_structural   Li8CoNi9O20
_chemical_formula_sum   'Li16 Co2 Ni18 O40'
_cell_volume   694.82610713
_cell_formula_units_Z   2
loop_
 _symmetry_equiv_pos_site_id
 _symmetry_equiv_pos_as_xyz
  1  'x, y, z'
loop_
 _atom_site_type_symbol
 _atom_site_label
 _atom_site_symmetry_multiplicity
 _atom_site_fract_x
 _atom_site_fract_y
 _atom_site_fract_z
 _atom_site_occupancy
  Li  Li0  1  0.00000000  0.46099883  0.20822047  1
  Li  Li1  1  0.00000000  0.06318351  0.80897363  1
  Li  Li2  1  0.00000000  0.56000359  0.80918501  1
  Li  Li3  1  0.00000000  0.34771932  0.59941778  1
  Li  Li4  1  0.00000000  0.85217634  0.59971493  1
  Li  Li5  1  0.00000000  0.64279865  0.39336197  1
  Li  Li6  1  0.00000000  0.94854372  0.20042628  1
  Li  Li7  1  0.00000000  0.24064690  0.99020146  1
  Li  Li8  1  0.00000000  0.73978464  0.99434898  1
  Li  Li9  1  0.50000000  0.95090211  0.69856731  1
  Li  Li10  1  0.50000000  0.45159638  0.70283742  1
  Li  Li11  1  0.50000000  0.75128106  0.50006865  1
  Li  Li12  1  0.50000000  0.05847337  0.30806837  1
  Li  Li13  1  0.50000000  0.85033610  0.09968520  1
  Li  Li14  1  0.50000000  0.34922070  0.10098577  1
  Li  Li15  1  0.50000000  0.23982623  0.49060319  1
  Co  Co16  1  0.00000000  0.09780087  0.60108161  1
  Co  Co17  1  0.50000000  0.59964545  0.09943185  1
  Ni  Ni18  1  0.00000000  0.79678158  0.80388492  1
  Ni  Ni19  1  0.00000000  0.50033279  0.99778124  1
  Ni  Ni20  1  0.00000000  0.29900464  0.80100844  1
  Ni  Ni21  1  0.00000000  0.60270458  0.59820332  1
  Ni  Ni22  1  0.00000000  0.89746920  0.39953529  1
  Ni  Ni23  1  0.00000000  0.20073380  0.20021162  1
  Ni  Ni24  1  0.00000000  0.00348557  0.99808437  1
  Ni  Ni25  1  0.00000000  0.40294505  0.39906944  1
  Ni  Ni26  1  0.00000000  0.69882809  0.20121988  1
  Ni  Ni27  1  0.50000000  0.99893448  0.49983247  1
  Ni  Ni28  1  0.50000000  0.29679081  0.30134234  1
  Ni  Ni29  1  0.50000000  0.39740790  0.90034259  1
  Ni  Ni30  1  0.50000000  0.70172965  0.69981393  1
  Ni  Ni31  1  0.50000000  0.50007890  0.49958423  1
  Ni  Ni32  1  0.50000000  0.80300130  0.29924879  1
  Ni  Ni33  1  0.50000000  0.09526913  0.10193335  1
  Ni  Ni34  1  0.50000000  0.90018810  0.90058895  1
  Ni  Ni35  1  0.50000000  0.20289423  0.69698728  1
  O  O36  1  0.00000000  0.61477695  0.49786455  1
  O  O37  1  0.00000000  0.38641758  0.50119993  1
  O  O38  1  0.00000000  0.88201837  0.49856926  1
  O  O39  1  0.00000000  0.91200305  0.29965890  1
  O  O40  1  0.00000000  0.97662675  0.10085792  1
  O  O41  1  0.00000000  0.50424998  0.90119445  1
  O  O42  1  0.00000000  0.00639128  0.89970121  1
  O  O43  1  0.00000000  0.79383813  0.90200911  1
  O  O44  1  0.00000000  0.08494398  0.69309329  1
  O  O45  1  0.00000000  0.11207823  0.51111590  1
  O  O46  1  0.00000000  0.40533978  0.30127102  1
  O  O47  1  0.00000000  0.18751260  0.29145026  1
  O  O48  1  0.00000000  0.69689393  0.29943041  1
  O  O49  1  0.00000000  0.48871483  0.09909329  1
  O  O50  1  0.00000000  0.71166081  0.09928294  1
  O  O51  1  0.00000000  0.29193693  0.89876176  1
  O  O52  1  0.00000000  0.32154168  0.69788150  1
  O  O53  1  0.00000000  0.81507190  0.70051830  1
  O  O54  1  0.00000000  0.58848963  0.69841473  1
  O  O55  1  0.00000000  0.21394217  0.10894308  1
  O  O56  1  0.50000000  0.38107642  0.99133493  1
  O  O57  1  0.50000000  0.41506135  0.80961036  1
  O  O58  1  0.50000000  0.49036028  0.59208983  1
  O  O59  1  0.50000000  0.11141134  0.00555375  1
  O  O60  1  0.50000000  0.89116884  0.99117333  1
  O  O61  1  0.50000000  0.90947906  0.80987392  1
  O  O62  1  0.50000000  0.68913420  0.79642639  1
  O  O63  1  0.50000000  0.18619393  0.78781512  1
  O  O64  1  0.50000000  0.98714371  0.60043340  1
  O  O65  1  0.50000000  0.21058713  0.60476918  1
  O  O66  1  0.50000000  0.00488280  0.40155411  1
  O  O67  1  0.50000000  0.51217402  0.40882836  1
  O  O68  1  0.50000000  0.29506964  0.39829054  1
  O  O69  1  0.50000000  0.58430147  0.18805001  1
  O  O70  1  0.50000000  0.61474118  0.01100653  1
  O  O71  1  0.50000000  0.71421297  0.59936204  1
  O  O72  1  0.50000000  0.78630199  0.39110691  1
  O  O73  1  0.50000000  0.81859777  0.20917077  1
  O  O74  1  0.50000000  0.30952608  0.19937710  1
  O  O75  1  0.50000000  0.09041370  0.20215631  1
