# generated using pymatgen
data_VOF2
_symmetry_space_group_name_H-M   'P 1'
_cell_length_a   5.23707128
_cell_length_b   5.42163973
_cell_length_c   12.80873244
_cell_angle_alpha   92.04733069
_cell_angle_beta   91.29079644
_cell_angle_gamma   60.59341839
_symmetry_Int_Tables_number   1
_chemical_formula_structural   VOF2
_chemical_formula_sum   'V6 O6 F12'
_cell_volume   316.61937903
_cell_formula_units_Z   6
loop_
 _symmetry_equiv_pos_site_id
 _symmetry_equiv_pos_as_xyz
  1  'x, y, z'
loop_
 _atom_site_type_symbol
 _atom_site_label
 _atom_site_symmetry_multiplicity
 _atom_site_fract_x
 _atom_site_fract_y
 _atom_site_fract_z
 _atom_site_occupancy
  V  V0  1  0.61319912  0.72231411  0.66915554  1
  V  V1  1  0.69629906  0.64320720  0.17167107  1
  V  V2  1  0.33333300  0.33333300  0.83333300  1
  V  V3  1  0.33333300  0.33333300  0.33333300  1
  V  V4  1  0.97036694  0.02345980  0.49499593  1
  V  V5  1  0.05346688  0.94435189  0.99751146  1
  O  O6  1  0.94047838  0.52997565  0.27074635  1
  O  O7  1  0.72618862  0.13669035  0.39592065  1
  O  O8  1  0.38528736  0.80273593  0.05418096  1
  O  O9  1  0.28137864  0.86393007  0.61248604  1
  O  O10  1  0.57846158  0.99393970  0.74879524  1
  O  O11  1  0.08820542  0.67272730  0.91787176  1
  F  F12  1  0.86611423  0.86927253  0.11068151  1
  F  F13  1  0.80055277  0.79739447  0.55598549  1
  F  F14  1  0.93029871  0.32662372  0.07670024  1
  F  F15  1  0.73636729  0.34004328  0.58996676  1
  F  F16  1  0.54319238  0.53428077  0.77897100  1
  F  F17  1  0.61719124  0.18595169  0.94793085  1
  F  F18  1  0.48050783  0.45462303  0.21496909  1
  F  F19  1  0.25802433  0.67690214  0.41541198  1
  F  F20  1  0.40864167  0.98976386  0.25125502  1
  F  F21  1  0.18615817  0.21204397  0.45169791  1
  F  F22  1  0.04947576  0.48071531  0.71873515  1
  F  F23  1  0.12347362  0.13238623  0.88769600  1
