# generated using pymatgen
data_Li4MnCo2O7
_symmetry_space_group_name_H-M   'P 1'
_cell_length_a   2.87788876
_cell_length_b   5.86427201
_cell_length_c   15.02160519
_cell_angle_alpha   84.26858512
_cell_angle_beta   84.50311653
_cell_angle_gamma   89.99999498
_symmetry_Int_Tables_number   1
_chemical_formula_structural   Li4MnCo2O7
_chemical_formula_sum   'Li8 Mn2 Co4 O14'
_cell_volume   251.07643171
_cell_formula_units_Z   2
loop_
 _symmetry_equiv_pos_site_id
 _symmetry_equiv_pos_as_xyz
  1  'x, y, z'
loop_
 _atom_site_type_symbol
 _atom_site_label
 _atom_site_symmetry_multiplicity
 _atom_site_fract_x
 _atom_site_fract_y
 _atom_site_fract_z
 _atom_site_occupancy
  Li  Li0  1  0.43139279  0.21661331  0.13721341  1
  Li  Li1  1  0.28352193  0.64192450  0.43295514  1
  Li  Li2  1  0.14000792  0.07464788  0.71998416  1
  Li  Li3  1  0.85639666  0.92871942  0.28720669  1
  Li  Li4  1  0.71159048  0.35996835  0.57682004  1
  Li  Li5  1  0.57155219  0.79299948  0.85689662  1
  Li  Li6  1  0.00586797  0.49775538  0.98826406  1
  Li  Li7  1  0.57156778  0.27962339  0.85686543  1
  Mn  Mn8  1  0.00437609  0.00687152  0.99124782  1
  Mn  Mn9  1  0.85691203  0.42822956  0.28617594  1
  Co  Co10  1  0.71278761  0.84452784  0.57442579  1
  Co  Co11  1  0.43136528  0.71696292  0.13726843  1
  Co  Co12  1  0.28202635  0.14037420  0.43594629  1
  Co  Co13  1  0.13443493  0.56005733  0.73113015  1
  O  O14  1  0.49962749  0.22351650  0.00074502  1
  O  O15  1  0.35868325  0.65761452  0.28263350  1
  O  O16  1  0.21461803  0.08906395  0.57076395  1
  O  O17  1  0.93316096  0.94029466  0.13367909  1
  O  O18  1  0.78621942  0.38194726  0.42756016  1
  O  O19  1  0.64400260  0.79651994  0.71199381  1
  O  O20  1  0.07445214  0.53990712  0.85109672  1
  O  O21  1  0.35774610  0.20072574  0.28450880  1
  O  O22  1  0.21445252  0.62532704  0.57109595  1
  O  O23  1  0.06521636  0.03370191  0.86956628  1
  O  O24  1  0.78490021  0.90502998  0.43019957  1
  O  O25  1  0.64275659  0.34551550  0.71448681  1
  O  O26  1  0.50073054  0.77731323  -0.00146108  1
  O  O27  1  0.92963378  0.49424757  0.14073144  1
