# generated using pymatgen
data_V6O13
_symmetry_space_group_name_H-M   'P 1'
_cell_length_a   3.74469974
_cell_length_b   10.29319503
_cell_length_c   12.17483677
_cell_angle_alpha   100.89671980
_cell_angle_beta   90.00021508
_cell_angle_gamma   89.99996402
_symmetry_Int_Tables_number   1
_chemical_formula_structural   V6O13
_chemical_formula_sum   'V12 O26'
_cell_volume   460.81686432
_cell_formula_units_Z   2
loop_
 _symmetry_equiv_pos_site_id
 _symmetry_equiv_pos_as_xyz
  1  'x, y, z'
loop_
 _atom_site_type_symbol
 _atom_site_label
 _atom_site_symmetry_multiplicity
 _atom_site_fract_x
 _atom_site_fract_y
 _atom_site_fract_z
 _atom_site_occupancy
  V  V0  1  0.99657591  0.36526540  0.71382668  1
  V  V1  1  0.00355207  0.63456619  0.28582545  1
  V  V2  1  0.50355181  0.36544219  0.21417517  1
  V  V3  1  0.49658157  0.63473507  0.78617940  1
  V  V4  1  0.00305658  0.36390920  0.41276652  1
  V  V5  1  0.50305597  0.63608344  0.08723672  1
  V  V6  1  0.99715993  0.63603024  0.58685087  1
  V  V7  1  0.49716898  0.36396970  0.91315183  1
  V  V8  1  0.00772076  0.99744848  0.35278639  1
  V  V9  1  0.99060225  0.00194606  0.65007969  1
  V  V10  1  0.50770734  0.00255857  0.14724496  1
  V  V11  1  0.49061626  0.99805010  0.84991367  1
  O  O12  1  0.49450397  0.19791936  0.88704341  1
  O  O13  1  0.00563938  0.19813172  0.38562971  1
  O  O14  1  0.99449740  0.80208208  0.61295861  1
  O  O15  1  0.50563825  0.80187283  0.11436870  1
  O  O16  1  0.99303572  0.19833993  0.67619796  1
  O  O17  1  0.00717287  0.80169396  0.32232540  1
  O  O18  1  0.50717113  0.19829848  0.17767269  1
  O  O19  1  0.49304421  0.80165963  0.82380210  1
  O  O20  1  0.99969399  0.40887752  0.55963890  1
  O  O21  1  0.50040115  0.40885565  0.06008783  1
  O  O22  1  0.49969447  0.59111872  0.94036322  1
  O  O23  1  0.00039946  0.59114414  0.43991140  1
  O  O24  1  0.99684001  0.38423846  0.88025577  1
  O  O25  1  0.50329777  0.38505883  0.38027932  1
  O  O26  1  0.49683812  0.61576317  0.61974597  1
  O  O27  1  0.00329723  0.61494392  0.11971856  1
  O  O28  1  0.99656809  0.58936677  0.74619401  1
  O  O29  1  0.49656710  0.41062925  0.75380641  1
  O  O30  1  0.50355914  0.58909305  0.24626595  1
  O  O31  1  0.00355932  0.41090401  0.25373062  1
  O  O32  1  0.00109154  0.00024089  0.49551751  1
  O  O33  1  0.50109309  0.99976089  0.00445542  1
  O  O34  1  0.50677047  0.99950758  0.31635354  1
  O  O35  1  0.99275931  0.00040554  0.82107096  1
  O  O36  1  0.49275074  0.99959624  0.67892638  1
  O  O37  1  0.00676763  0.00049472  0.18364332  1
