# generated using pymatgen
data_Tm2S2O
_symmetry_space_group_name_H-M   'P 1'
_cell_length_a   6.79789576
_cell_length_b   6.79725219
_cell_length_c   8.18507813
_cell_angle_alpha   90.00000000
_cell_angle_beta   99.51247901
_cell_angle_gamma   90.00000000
_symmetry_Int_Tables_number   1
_chemical_formula_structural   Tm2S2O
_chemical_formula_sum   'Tm8 S8 O4'
_cell_volume   373.00750271
_cell_formula_units_Z   4
loop_
 _symmetry_equiv_pos_site_id
 _symmetry_equiv_pos_as_xyz
  1  'x, y, z'
loop_
 _atom_site_type_symbol
 _atom_site_label
 _atom_site_symmetry_multiplicity
 _atom_site_fract_x
 _atom_site_fract_y
 _atom_site_fract_z
 _atom_site_occupancy
  O  O0  1  0.14999039  0.58698349  0.61671468  1
  O  O1  1  0.35000961  0.08698349  0.38328532  1
  O  O2  1  0.85000961  0.41301651  0.38328532  1
  O  O3  1  0.64999039  0.91301651  0.61671468  1
  S  S4  1  0.46951015  0.77742036  0.92529505  1
  S  S5  1  0.03048985  0.27742036  0.07470495  1
  S  S6  1  0.53048985  0.22257964  0.07470495  1
  S  S7  1  0.96951015  0.72257964  0.92529505  1
  S  S8  1  0.91898312  0.86904766  0.31843658  1
  S  S9  1  0.58101688  0.36904766  0.68156342  1
  S  S10  1  0.08101688  0.13095234  0.68156342  1
  S  S11  1  0.41898312  0.63095234  0.31843658  1
  Tm  Tm12  1  0.75079256  0.05333407  0.86111258  1
  Tm  Tm13  1  0.74920744  0.55333407  0.13888742  1
  Tm  Tm14  1  0.24920744  0.94666593  0.13888742  1
  Tm  Tm15  1  0.25079256  0.44666593  0.86111258  1
  Tm  Tm16  1  0.67555912  0.14600762  0.42506437  1
  Tm  Tm17  1  0.82444088  0.64600762  0.57493563  1
  Tm  Tm18  1  0.32444088  0.85399238  0.57493563  1
  Tm  Tm19  1  0.17555912  0.35399238  0.42506437  1
