# generated using pymatgen
data_Co3TeO8
_symmetry_space_group_name_H-M   'P 1'
_cell_length_a   5.69465915
_cell_length_b   5.69293131
_cell_length_c   9.03816063
_cell_angle_alpha   89.97380913
_cell_angle_beta   90.01309058
_cell_angle_gamma   119.98996704
_symmetry_Int_Tables_number   1
_chemical_formula_structural   Co3TeO8
_chemical_formula_sum   'Co6 Te2 O16'
_cell_volume   253.78048218
_cell_formula_units_Z   2
loop_
 _symmetry_equiv_pos_site_id
 _symmetry_equiv_pos_as_xyz
  1  'x, y, z'
loop_
 _atom_site_type_symbol
 _atom_site_label
 _atom_site_symmetry_multiplicity
 _atom_site_fract_x
 _atom_site_fract_y
 _atom_site_fract_z
 _atom_site_occupancy
  Co  Co0  1  0.17052083  0.82947716  0.21622995  1
  Co  Co1  1  0.17058730  0.34113075  0.21637246  1
  Co  Co2  1  0.65881034  0.82938384  0.21630568  1
  Co  Co3  1  0.34118966  0.17057450  0.71630568  1
  Co  Co4  1  0.82947917  0.65895632  0.71622995  1
  Co  Co5  1  0.82941270  0.17054445  0.71637246  1
  Te  Te6  1  0.33340863  0.66682554  0.49296683  1
  Te  Te7  1  0.66659137  0.33341791  0.99296683  1
  O  O8  1  0.16081327  0.83925809  0.59533091  1
  O  O9  1  0.03241659  0.51612883  0.33811861  1
  O  O10  1  0.33342546  0.66674917  0.11298442  1
  O  O11  1  0.99992154  0.99991071  0.30262708  1
  O  O12  1  0.00007846  -0.00001083  0.80262708  1
  O  O13  1  0.16065629  0.32145293  0.59538024  1
  O  O14  1  0.48376757  0.96762051  0.33801868  1
  O  O15  1  0.48369772  0.51606578  0.33820056  1
  O  O16  1  0.32164370  0.16092883  0.09532458  1
  O  O17  1  0.67835630  0.83928513  0.59532458  1
  O  O18  1  0.51623243  0.48385293  0.83801868  1
  O  O19  1  0.51630228  0.03236807  0.83820056  1
  O  O20  1  0.66657454  0.33332371  0.61298442  1
  O  O21  1  0.83918673  0.67844581  0.09532991  1
  O  O22  1  0.96758341  0.48371224  0.83811861  1
  O  O23  1  0.83934371  0.16079664  0.09538024  1
