# generated using pymatgen
data_V2Cu3Pb(ClO4)2
_symmetry_space_group_name_H-M   'P 1'
_cell_length_a   8.62839988
_cell_length_b   8.62839988
_cell_length_c   8.62839988
_cell_angle_alpha   116.26498912
_cell_angle_beta   98.71334817
_cell_angle_gamma   113.95290400
_symmetry_Int_Tables_number   1
_chemical_formula_structural   V2Cu3Pb(ClO4)2
_chemical_formula_sum   'V4 Cu6 Pb2 Cl4 O16'
_cell_volume   481.55493552
_cell_formula_units_Z   2
loop_
 _symmetry_equiv_pos_site_id
 _symmetry_equiv_pos_as_xyz
  1  'x, y, z'
loop_
 _atom_site_type_symbol
 _atom_site_label
 _atom_site_symmetry_multiplicity
 _atom_site_fract_x
 _atom_site_fract_y
 _atom_site_fract_z
 _atom_site_occupancy
  V  V0  1  0.04713855  0.25000000  0.79713955  1
  V  V1  1  0.45286145  0.25000000  0.20286045  1
  V  V2  1  0.95286045  0.75000000  0.20286045  1
  V  V3  1  0.54713955  0.75000000  0.79713955  1
  Cu  Cu4  1  0.50000000  0.50000000  -0.00000000  1
  Cu  Cu5  1  -0.00000000  0.00000000  -0.00000000  1
  Cu  Cu6  1  0.67232467  0.24931898  0.92164366  1
  Cu  Cu7  1  0.32767533  0.75068102  0.07835734  1
  Cu  Cu8  1  0.82767533  0.74931798  0.57699431  1
  Cu  Cu9  1  0.17232367  0.25068102  0.42300569  1
  Pb  Pb10  1  0.75000000  0.25000000  0.50000000  1
  Pb  Pb11  1  0.25000000  0.75000000  0.50000000  1
  Cl  Cl12  1  0.41281224  0.18235561  0.59516785  1
  Cl  Cl13  1  0.58718776  0.81764439  0.40483315  1
  Cl  Cl14  1  0.08718776  0.68235561  0.76954337  1
  Cl  Cl15  1  0.91281224  0.31764439  0.23045763  1
  O  O16  1  0.52475346  0.73294999  0.99146733  1
  O  O17  1  0.74148167  0.53328614  0.00853267  1
  O  O18  1  0.97524554  0.96671286  0.20819653  1
  O  O19  1  0.75851733  0.76704901  0.79180347  1
  O  O20  1  0.47524554  0.26704901  0.00853267  1
  O  O21  1  0.25851733  0.46671386  0.99146733  1
  O  O22  1  0.02475446  0.03328714  0.79180347  1
  O  O23  1  0.24148267  0.23294999  0.20819653  1
  O  O24  1  0.45261934  0.04143086  0.18197974  1
  O  O25  1  0.85945012  0.27063861  0.81801926  1
  O  O26  1  0.04737966  0.22936139  0.58881051  1
  O  O27  1  0.64054888  0.45856914  0.41118849  1
  O  O28  1  0.54737966  0.95856914  0.81801926  1
  O  O29  1  0.14054988  0.72936039  0.18198074  1
  O  O30  1  0.95261934  0.77063961  0.41118849  1
  O  O31  1  0.35944912  0.54143086  0.58881051  1
