# generated using pymatgen
data_Sm2Cu2O5
_symmetry_space_group_name_H-M   'P 1'
_cell_length_a   5.26263687
_cell_length_b   5.57120408
_cell_length_c   8.70138937
_cell_angle_alpha   108.67096945
_cell_angle_beta   107.60193618
_cell_angle_gamma   90.00000000
_symmetry_Int_Tables_number   1
_chemical_formula_structural   Sm2Cu2O5
_chemical_formula_sum   'Sm4 Cu4 O10'
_cell_volume   229.04819090
_cell_formula_units_Z   2
loop_
 _symmetry_equiv_pos_site_id
 _symmetry_equiv_pos_as_xyz
  1  'x, y, z'
loop_
 _atom_site_type_symbol
 _atom_site_label
 _atom_site_symmetry_multiplicity
 _atom_site_fract_x
 _atom_site_fract_y
 _atom_site_fract_z
 _atom_site_occupancy
  Sm  Sm0  1  0.61555699  0.13077109  0.22738650  1
  Sm  Sm1  1  0.38817049  0.86922891  0.77261350  1
  Sm  Sm2  1  0.11555699  0.59661542  0.22738650  1
  Sm  Sm3  1  0.88817049  0.40338458  0.77261350  1
  Cu  Cu4  1  0.01187715  0.00000000  0.00000000  1
  Cu  Cu5  1  0.51187715  0.50000000  0.00000000  1
  Cu  Cu6  1  0.22884679  0.21590832  0.50000000  1
  Cu  Cu7  1  0.72884679  0.78409168  0.50000000  1
  O  O8  1  0.23738475  0.23811143  0.96378393  1
  O  O9  1  0.27360082  0.76188857  0.03621607  1
  O  O10  1  0.73738475  0.22567250  0.96378393  1
  O  O11  1  0.77360082  0.77432750  0.03621607  1
  O  O12  1  0.17649599  0.20965710  0.26943821  1
  O  O13  1  0.90705778  0.79034290  0.73056179  1
  O  O14  1  0.67649599  0.55978111  0.26943821  1
  O  O15  1  0.40705778  0.44021889  0.73056179  1
  O  O16  1  0.82500924  0.16226671  0.50000000  1
  O  O17  1  0.32500924  0.83773329  0.50000000  1
