# generated using pymatgen
data_Li4MnCo2O7
_symmetry_space_group_name_H-M   'P 1'
_cell_length_a   2.90898625
_cell_length_b   5.88822541
_cell_length_c   14.89118419
_cell_angle_alpha   84.13551982
_cell_angle_beta   84.39471278
_cell_angle_gamma   89.99999497
_symmetry_Int_Tables_number   1
_chemical_formula_structural   Li4MnCo2O7
_chemical_formula_sum   'Li8 Mn2 Co4 O14'
_cell_volume   252.50660475
_cell_formula_units_Z   2
loop_
 _symmetry_equiv_pos_site_id
 _symmetry_equiv_pos_as_xyz
  1  'x, y, z'
loop_
 _atom_site_type_symbol
 _atom_site_label
 _atom_site_symmetry_multiplicity
 _atom_site_fract_x
 _atom_site_fract_y
 _atom_site_fract_z
 _atom_site_occupancy
  Li  Li0  1  0.42290888  0.21764160  0.15418125  1
  Li  Li1  1  0.28960965  0.64021274  0.42077970  1
  Li  Li2  1  0.14317384  0.07157321  0.71365231  1
  Li  Li3  1  0.85424073  0.91480938  0.29151853  1
  Li  Li4  1  0.71653049  0.35928325  0.56694002  1
  Li  Li5  1  0.57466174  0.78744865  0.85067752  1
  Li  Li6  1  0.99931285  0.49864801  0.00137429  1
  Li  Li7  1  0.85431318  0.43556569  0.29137364  1
  Mn  Mn8  1  0.99935063  0.00128524  0.00129874  1
  Mn  Mn9  1  0.42262078  0.70742578  0.15475743  1
  Co  Co10  1  0.71674078  0.85575391  0.56651945  1
  Co  Co11  1  0.57409167  0.28601340  0.85181767  1
  Co  Co12  1  0.28961199  0.15132238  0.42077502  1
  Co  Co13  1  0.14427234  0.57521225  0.71145533  1
  O  O14  1  0.49998452  0.22988323  0.00003096  1
  O  O15  1  0.36122645  0.67553783  0.27754709  1
  O  O16  1  0.22253595  0.09646189  0.55492810  1
  O  O17  1  0.92508023  0.93657276  0.14984053  1
  O  O18  1  0.78524982  0.37126495  0.42949937  1
  O  O19  1  0.64659230  0.81655547  0.70681441  1
  O  O20  1  0.07267703  0.52182225  0.85464695  1
  O  O21  1  0.34814252  0.17160175  0.30371596  1
  O  O22  1  0.21405535  0.62490960  0.57189030  1
  O  O23  1  0.07277790  0.05362156  0.85444319  1
  O  O24  1  0.78485282  0.90625433  0.43029436  1
  O  O25  1  0.64295970  0.33415827  0.71408060  1
  O  O26  1  0.49462594  0.76993510  0.01074811  1
  O  O27  1  0.92779992  0.48922553  0.14439916  1
