# generated using pymatgen
data_Nd3AlNiS7
_symmetry_space_group_name_H-M   'P 1'
_cell_length_a   10.01491156
_cell_length_b   10.01486289
_cell_length_c   6.02138574
_cell_angle_alpha   89.99753821
_cell_angle_beta   90.00069903
_cell_angle_gamma   120.00209757
_symmetry_Int_Tables_number   1
_chemical_formula_structural   Nd3AlNiS7
_chemical_formula_sum   'Nd6 Al2 Ni2 S14'
_cell_volume   523.01004215
_cell_formula_units_Z   2
loop_
 _symmetry_equiv_pos_site_id
 _symmetry_equiv_pos_as_xyz
  1  'x, y, z'
loop_
 _atom_site_type_symbol
 _atom_site_label
 _atom_site_symmetry_multiplicity
 _atom_site_fract_x
 _atom_site_fract_y
 _atom_site_fract_z
 _atom_site_occupancy
  Nd  Nd0  1  0.14046003  0.37222079  0.22911996  1
  Nd  Nd1  1  0.85950801  0.62773990  0.72923480  1
  Nd  Nd2  1  0.62780425  0.76825414  0.22911595  1
  Nd  Nd3  1  0.23176737  0.85953861  0.22914417  1
  Nd  Nd4  1  0.76821051  0.14045672  0.72931878  1
  Nd  Nd5  1  0.37221505  0.23178726  0.72930707  1
  Al  Al6  1  0.33336090  0.66667985  0.65211127  1
  Al  Al7  1  0.66668022  0.33333911  0.15213793  1
  Ni  Ni8  1  0.00001732  0.99998836  0.00415336  1
  Ni  Ni9  1  0.99999354  0.99997631  0.50399530  1
  S  S10  1  0.33335651  0.66669379  0.02128639  1
  S  S11  1  0.66662961  0.33329660  0.52133819  1
  S  S12  1  0.42002222  0.51757639  0.50354137  1
  S  S13  1  0.57999880  0.48242396  0.00356980  1
  S  S14  1  0.48245258  0.90245490  0.50352142  1
  S  S15  1  0.09755855  0.57997744  0.50354548  1
  S  S16  1  0.90244271  0.42005398  0.00356299  1
  S  S17  1  0.51756677  0.09757929  0.00354036  1
  S  S18  1  0.08704729  0.22771662  0.76880890  1
  S  S19  1  0.91296298  0.77226709  0.26869447  1
  S  S20  1  0.77225661  0.85931966  0.76887956  1
  S  S21  1  0.14065532  0.91292881  0.76885807  1
  S  S22  1  0.85931146  0.08705664  0.26861379  1
  S  S23  1  0.22772541  0.14067777  0.26859761  1
