# generated using pymatgen
data_H4CN2O
_symmetry_space_group_name_H-M   'P 1'
_cell_length_a   6.20575885
_cell_length_b   6.20575885
_cell_length_c   4.59601861
_cell_angle_alpha   90.00000000
_cell_angle_beta   90.00000000
_cell_angle_gamma   90.00000000
_symmetry_Int_Tables_number   1
_chemical_formula_structural   H4CN2O
_chemical_formula_sum   'H8 C2 N4 O2'
_cell_volume   176.99930829
_cell_formula_units_Z   2
loop_
 _symmetry_equiv_pos_site_id
 _symmetry_equiv_pos_as_xyz
  1  'x, y, z'
loop_
 _atom_site_type_symbol
 _atom_site_label
 _atom_site_symmetry_multiplicity
 _atom_site_fract_x
 _atom_site_fract_y
 _atom_site_fract_z
 _atom_site_occupancy
  H  H0  1  0.76940881  0.26940781  0.53168389  1
  H  H1  1  0.23059119  0.73059119  0.53168389  1
  H  H2  1  0.86885374  0.36885474  0.19607012  1
  H  H3  1  0.13114626  0.63114526  0.19607012  1
  H  H4  1  0.26940781  0.23059119  0.46831711  1
  H  H5  1  0.73059119  0.76940881  0.46831711  1
  H  H6  1  0.36885474  0.13114626  0.80392788  1
  H  H7  1  0.63114526  0.86885374  0.80392788  1
  C  C8  1  0.50000100  0.00000000  0.42571483  1
  C  C9  1  -0.00000000  0.50000100  0.57428617  1
  N  N10  1  0.86804839  0.36804839  0.41813711  1
  N  N11  1  0.13195061  0.63195161  0.41813711  1
  N  N12  1  0.36804839  0.13195061  0.58186389  1
  N  N13  1  0.63195161  0.86804839  0.58186389  1
  O  O14  1  0.50000100  0.00000000  0.15128067  1
  O  O15  1  0.00000000  0.50000100  0.84871933  1
