# generated using pymatgen
data_Li4MnCo2O7
_symmetry_space_group_name_H-M   'P 1'
_cell_length_a   2.90698141
_cell_length_b   17.45130985
_cell_length_c   5.16299623
_cell_angle_alpha   103.17695308
_cell_angle_beta   90.00000000
_cell_angle_gamma   85.22239480
_symmetry_Int_Tables_number   1
_chemical_formula_structural   Li4MnCo2O7
_chemical_formula_sum   'Li8 Mn2 Co4 O14'
_cell_volume   254.09108836
_cell_formula_units_Z   2
loop_
 _symmetry_equiv_pos_site_id
 _symmetry_equiv_pos_as_xyz
  1  'x, y, z'
loop_
 _atom_site_type_symbol
 _atom_site_label
 _atom_site_symmetry_multiplicity
 _atom_site_fract_x
 _atom_site_fract_y
 _atom_site_fract_z
 _atom_site_occupancy
  Li  Li0  1  0.50024367  0.99951265  0.49595500  1
  Li  Li1  1  0.92731554  0.14536793  0.78572700  1
  Li  Li2  1  0.35586929  0.28826142  0.07242100  1
  Li  Li3  1  0.78511601  0.42976697  0.36032817  1
  Li  Li4  1  0.21377498  0.57245104  0.64434291  1
  Li  Li5  1  0.07480465  0.85039171  0.21376759  1
  Li  Li6  1  0.64321887  0.71356226  0.93899350  1
  Li  Li7  1  0.14335442  0.71329117  0.41804666  1
  Mn  Mn8  1  0.00003696  -0.00007392  0.99268176  1
  Mn  Mn9  1  0.57500478  0.84999145  0.68884116  1
  Co  Co10  1  0.42761475  0.14476951  0.29575734  1
  Co  Co11  1  0.85578483  0.28843034  0.58071687  1
  Co  Co12  1  0.28443106  0.43113687  0.86882842  1
  Co  Co13  1  0.71128936  0.57742227  0.16026066  1
  O  O14  1  0.53432013  0.93136074  0.07135508  1
  O  O15  1  0.96000097  0.07999805  0.38543359  1
  O  O16  1  0.38945409  0.22109083  0.67687613  1
  O  O17  1  0.81963261  0.36073478  0.95431492  1
  O  O18  1  0.24898009  0.50203882  0.23749896  1
  O  O19  1  0.10356613  0.79286774  0.81141172  1
  O  O20  1  0.68372389  0.63255321  0.48889481  1
  O  O21  1  0.46743454  0.06512992  0.89450564  1
  O  O22  1  0.89562191  0.20875617  0.20163913  1
  O  O23  1  0.32201667  0.35596565  0.48315414  1
  O  O24  1  0.74968404  0.50063292  0.79132149  1
  O  O25  1  0.18183333  0.63633334  0.03302557  1
  O  O26  1  0.04073936  0.91852129  0.60271708  1
  O  O27  1  0.60513307  0.78973486  0.35118371  1
