# generated using pymatgen
data_Li4MnCo2O7
_symmetry_space_group_name_H-M   'P 1'
_cell_length_a   2.89165109
_cell_length_b   7.77941133
_cell_length_c   11.64904455
_cell_angle_alpha   85.23624260
_cell_angle_beta   97.12967180
_cell_angle_gamma   79.28914477
_symmetry_Int_Tables_number   1
_chemical_formula_structural   Li4MnCo2O7
_chemical_formula_sum   'Li8 Mn2 Co4 O14'
_cell_volume   253.97506302
_cell_formula_units_Z   2
loop_
 _symmetry_equiv_pos_site_id
 _symmetry_equiv_pos_as_xyz
  1  'x, y, z'
loop_
 _atom_site_type_symbol
 _atom_site_label
 _atom_site_symmetry_multiplicity
 _atom_site_fract_x
 _atom_site_fract_y
 _atom_site_fract_z
 _atom_site_occupancy
  Li  Li0  1  0.58051887  0.06190042  0.22293716  1
  Li  Li1  1  0.70883537  0.22504132  0.64271105  1
  Li  Li2  1  0.85101559  0.36735700  0.06938818  1
  Li  Li3  1  0.28608537  0.79105972  0.36323145  1
  Li  Li4  1  0.42500564  0.92698683  0.77699910  1
  Li  Li5  1  0.00991146  0.49120240  0.51102531  1
  Li  Li6  1  0.13527482  0.64645520  0.91700485  1
  Li  Li7  1  0.57050245  0.57047361  0.71147751  1
  Mn  Mn8  1  0.99867115  0.00195236  0.99929465  1
  Mn  Mn9  1  0.27423740  0.29731551  0.84579132  1
  Co  Co10  1  0.14739532  0.13769245  0.43248309  1
  Co  Co11  1  0.43135291  0.42513517  0.28784199  1
  Co  Co12  1  0.71738249  0.71024160  0.14500557  1
  Co  Co13  1  0.87362391  0.83973324  0.58698107  1
  O  O14  1  0.42487752  0.17144839  0.02120243  1
  O  O15  1  0.57792188  0.30848171  0.46432548  1
  O  O16  1  0.72122400  0.44635780  0.88880579  1
  O  O17  1  0.14863421  0.88035557  0.17762499  1
  O  O18  1  0.29210912  0.01458120  0.59879845  1
  O  O19  1  0.86296998  0.58692671  0.31286666  1
  O  O20  1  0.99001489  0.76053912  0.74056990  1
  O  O21  1  0.70927350  0.97753301  0.39608102  1
  O  O22  1  0.84604124  0.13026243  0.82234392  1
  O  O23  1  0.99665137  0.26500991  0.25831165  1
  O  O24  1  0.42086118  0.69535978  0.53708213  1
  O  O25  1  0.56584025  0.83759780  0.96927931  1
  O  O26  1  0.15398806  0.38454508  0.69252121  1
  O  O27  1  0.27978004  0.54845468  0.10801476  1
