# generated using pymatgen
data_Ca2TaCrO6
_symmetry_space_group_name_H-M   'P 1'
_cell_length_a   5.44355922
_cell_length_b   5.60775457
_cell_length_c   7.83303742
_cell_angle_alpha   90.00000000
_cell_angle_beta   90.00000000
_cell_angle_gamma   89.80138063
_symmetry_Int_Tables_number   1
_chemical_formula_structural   Ca2TaCrO6
_chemical_formula_sum   'Ca4 Ta2 Cr2 O12'
_cell_volume   239.11099229
_cell_formula_units_Z   2
loop_
 _symmetry_equiv_pos_site_id
 _symmetry_equiv_pos_as_xyz
  1  'x, y, z'
loop_
 _atom_site_type_symbol
 _atom_site_label
 _atom_site_symmetry_multiplicity
 _atom_site_fract_x
 _atom_site_fract_y
 _atom_site_fract_z
 _atom_site_occupancy
  Ca  Ca0  1  0.01027779  0.96035153  0.25000000  1
  Ca  Ca1  1  0.48903983  0.43483900  0.25000000  1
  Ca  Ca2  1  0.51096017  0.56516100  0.75000000  1
  Ca  Ca3  1  0.98972221  0.03964847  0.75000000  1
  Ta  Ta4  1  0.00000000  0.50000000  0.00000000  1
  Ta  Ta5  1  0.00000000  0.50000000  0.50000000  1
  Cr  Cr6  1  0.50000000  0.00000000  0.00000000  1
  Cr  Cr7  1  0.50000000  0.00000000  0.50000000  1
  O  O8  1  0.79826949  0.78812657  0.54625188  1
  O  O9  1  0.29129310  0.70224202  0.45609117  1
  O  O10  1  0.20173051  0.21187343  0.45374812  1
  O  O11  1  0.70870690  0.29775798  0.95609117  1
  O  O12  1  0.08719338  0.47383352  0.75000000  1
  O  O13  1  0.70870690  0.29775798  0.54390883  1
  O  O14  1  0.29129310  0.70224202  0.04390883  1
  O  O15  1  0.79826949  0.78812657  0.95374812  1
  O  O16  1  0.59352840  0.02879268  0.25000000  1
  O  O17  1  0.20173051  0.21187343  0.04625188  1
  O  O18  1  0.40647160  0.97120732  0.75000000  1
  O  O19  1  0.91280662  0.52616648  0.25000000  1
