# generated using pymatgen
data_RbSnCl3
_symmetry_space_group_name_H-M   'P 1'
_cell_length_a   5.59618983
_cell_length_b   5.60129064
_cell_length_c   5.61290561
_cell_angle_alpha   90.61904200
_cell_angle_beta   90.57096157
_cell_angle_gamma   90.03880437
_symmetry_Int_Tables_number   1
_chemical_formula_structural   RbSnCl3
_chemical_formula_sum   'Rb1 Sn1 Cl3'
_cell_volume   175.92243945
_cell_formula_units_Z   1
loop_
 _symmetry_equiv_pos_site_id
 _symmetry_equiv_pos_as_xyz
  1  'x, y, z'
loop_
 _atom_site_type_symbol
 _atom_site_label
 _atom_site_symmetry_multiplicity
 _atom_site_fract_x
 _atom_site_fract_y
 _atom_site_fract_z
 _atom_site_occupancy
  Rb  Rb0  1  0.99350551  0.99033303  0.01806213  1
  Sn  Sn1  1  0.50731402  0.51343240  0.47938955  1
  Cl  Cl2  1  0.50262951  0.50989668  0.99246944  1
  Cl  Cl3  1  0.51774269  0.00904248  0.47522685  1
  Cl  Cl4  1  0.00880828  0.52729441  0.46485204  1
