# generated using pymatgen
data_Ca3V2(Si2O7)2
_symmetry_space_group_name_H-M   'P 1'
_cell_length_a   7.76370561
_cell_length_b   9.45104916
_cell_length_c   9.71546336
_cell_angle_alpha   64.29121700
_cell_angle_beta   66.44969600
_cell_angle_gamma   65.74914225
_symmetry_Int_Tables_number   1
_chemical_formula_structural   Ca3V2(Si2O7)2
_chemical_formula_sum   'Ca6 V4 Si8 O28'
_cell_volume   563.96201420
_cell_formula_units_Z   2
loop_
 _symmetry_equiv_pos_site_id
 _symmetry_equiv_pos_as_xyz
  1  'x, y, z'
loop_
 _atom_site_type_symbol
 _atom_site_label
 _atom_site_symmetry_multiplicity
 _atom_site_fract_x
 _atom_site_fract_y
 _atom_site_fract_z
 _atom_site_occupancy
  Ca  Ca0  1  0.83536979  0.93652703  0.46387781  1
  Ca  Ca1  1  0.23577464  0.56347297  0.03612219  1
  Ca  Ca2  1  0.76422536  0.43652703  0.96387781  1
  Ca  Ca3  1  0.64990452  0.25000000  0.75000000  1
  Ca  Ca4  1  0.16463021  0.06347297  0.53612219  1
  Ca  Ca5  1  0.35009548  0.75000000  0.25000000  1
  V  V6  1  0.20257329  0.25000000  0.75000000  1
  V  V7  1  0.79742671  0.75000000  0.25000000  1
  V  V8  1  0.00000000  0.00000000  0.00000000  1
  V  V9  1  0.00000000  0.50000000  0.50000000  1
  Si  Si10  1  0.46547812  0.30286247  0.34721033  1
  Si  Si11  1  0.88444808  0.80286247  0.84721033  1
  Si  Si12  1  0.46778264  0.89421401  0.85311538  1
  Si  Si13  1  0.78488898  0.39421401  0.35311538  1
  Si  Si14  1  0.11555192  0.19713753  0.15278967  1
  Si  Si15  1  0.53221736  0.10578599  0.14688462  1
  Si  Si16  1  0.21511102  0.60578599  0.64688462  1
  Si  Si17  1  0.53452188  0.69713753  0.65278967  1
  O  O18  1  0.12116593  0.67038447  0.49868866  1
  O  O19  1  0.04022555  0.58010771  0.27298284  1
  O  O20  1  0.53905283  0.91851953  0.19037836  1
  O  O21  1  0.10668389  0.08010771  0.77298284  1
  O  O22  1  0.73403503  0.69002558  0.50616145  1
  O  O23  1  0.94783633  0.37095387  0.18143668  1
  O  O24  1  0.35204828  0.41851953  0.69037836  1
  O  O25  1  0.93022206  0.80997442  0.99383855  1
  O  O26  1  0.05216367  0.62904613  0.81856332  1
  O  O27  1  0.34168766  0.74030312  0.58964311  1
  O  O28  1  0.95977445  0.41989229  0.72701716  1
  O  O29  1  0.26596497  0.30997442  0.49383855  1
  O  O30  1  0.50022788  0.12904613  0.31856332  1
  O  O31  1  0.70975994  0.17038447  0.99868866  1
  O  O32  1  0.32836611  0.24030312  0.08964311  1
  O  O33  1  0.06977794  0.19002558  0.00616145  1
  O  O34  1  0.10601484  0.04643686  0.31713391  1
  O  O35  1  0.65831234  0.25969688  0.41035689  1
  O  O36  1  0.46958461  0.45356314  0.18286609  1
  O  O37  1  0.67163389  0.75969688  0.91035689  1
  O  O38  1  0.49977212  0.87095387  0.68143668  1
  O  O39  1  0.89331611  0.91989229  0.22701716  1
  O  O40  1  0.53041539  0.54643686  0.81713391  1
  O  O41  1  0.46094717  0.08148047  0.80962164  1
  O  O42  1  0.89398516  0.95356314  0.68286609  1
  O  O43  1  0.64795172  0.58148047  0.30962164  1
  O  O44  1  0.29024006  0.82961553  0.00131134  1
  O  O45  1  0.87883407  0.32961553  0.50131134  1
