# generated using pymatgen
data_La11V12O36
_symmetry_space_group_name_H-M   'P 1'
_cell_length_a   11.15629656
_cell_length_b   9.66335324
_cell_length_c   7.90969908
_cell_angle_alpha   66.13435983
_cell_angle_beta   89.89033014
_cell_angle_gamma   73.37543526
_symmetry_Int_Tables_number   1
_chemical_formula_structural   La11V12O36
_chemical_formula_sum   'La11 V12 O36'
_cell_volume   740.88362368
_cell_formula_units_Z   1
loop_
 _symmetry_equiv_pos_site_id
 _symmetry_equiv_pos_as_xyz
  1  'x, y, z'
loop_
 _atom_site_type_symbol
 _atom_site_label
 _atom_site_symmetry_multiplicity
 _atom_site_fract_x
 _atom_site_fract_y
 _atom_site_fract_z
 _atom_site_occupancy
  La  La0  1  0.59240058  0.15755375  0.94089699  1
  La  La1  1  0.92531399  0.82599840  0.60356455  1
  La  La2  1  0.74583349  0.50433688  0.72935674  1
  La  La3  1  0.93166435  0.81859130  0.09700807  1
  La  La4  1  0.25820026  0.48412511  0.76986853  1
  La  La5  1  0.59760620  0.15390987  0.43702668  1
  La  La6  1  0.40333025  0.84531072  0.57198593  1
  La  La7  1  0.73991578  0.50938759  0.23578905  1
  La  La8  1  0.25579201  0.49137906  0.26741663  1
  La  La9  1  0.40648214  0.84354650  0.06559068  1
  La  La10  1  0.07708537  0.17779990  0.38712724  1
  V  V11  1  0.83764665  0.16591250  0.67033514  1
  V  V12  1  0.66752510  0.83169370  0.83481762  1
  V  V13  1  0.16602864  0.84484576  0.83056970  1
  V  V14  1  0.66645038  0.83287289  0.33501033  1
  V  V15  1  0.84053306  0.16266731  0.16121131  1
  V  V16  1  0.49769432  0.50074151  0.50088672  1
  V  V17  1  0.32990653  0.16678316  0.66956334  1
  V  V18  1  0.00002236  0.49310984  0.50656579  1
  V  V19  1  0.16538112  0.83512895  0.33221344  1
  V  V20  1  0.50062321  0.49899769  0.00089288  1
  V  V21  1  0.33157752  0.16692338  0.16652388  1
  V  V22  1  0.00346428  0.49423506  0.99599210  1
  O  O23  1  0.84890280  0.69100689  0.93639824  1
  O  O24  1  0.98502981  0.96295420  0.78931723  1
  O  O25  1  0.81094720  0.21572753  0.89793550  1
  O  O26  1  0.96208649  0.51553745  0.73687544  1
  O  O27  1  0.61893815  0.62598318  0.90385581  1
  O  O28  1  0.94030345  0.32196811  0.54566284  1
  O  O29  1  0.72011680  0.03441648  0.76582736  1
  O  O30  1  0.84139959  0.12100872  0.43763791  1
  O  O31  1  0.70227597  0.84427214  0.58050363  1
  O  O32  1  0.36919556  0.17227439  0.91321757  1
  O  O33  1  0.50459074  0.44963159  0.77585075  1
  O  O34  1  0.82078246  0.63894374  0.39797984  1
  O  O35  1  0.68180683  0.36217070  0.53793303  1
  O  O36  1  0.48764839  0.96892251  0.73499231  1
  O  O37  1  0.34281179  0.69782134  0.86928461  1
  O  O38  1  0.89510228  0.34957387  0.12082704  1
  O  O39  1  0.23459165  0.00663213  0.78081705  1
  O  O40  1  0.56232600  0.68884217  0.45561112  1
  O  O41  1  0.43608680  0.31027688  0.54752815  1
  O  O42  1  0.77256709  0.97771187  0.21174654  1
  O  O43  1  0.10606858  0.65581673  0.87569251  1
  O  O44  1  0.17915857  0.37334445  0.58142933  1
  O  O45  1  0.31493328  0.63983569  0.46238950  1
  O  O46  1  0.51428125  0.02993732  0.26868856  1
  O  O47  1  0.66039465  0.29613257  0.13556531  1
  O  O48  1  0.15610315  0.88690377  0.56004301  1
  O  O49  1  0.29778856  0.15777463  0.42367460  1
  O  O50  1  0.63087802  0.82203445  0.08809039  1
  O  O51  1  0.49219731  0.55029813  0.22486275  1
  O  O52  1  0.28649261  0.96014162  0.25114842  1
  O  O53  1  0.05058881  0.69159479  0.42943287  1
  O  O54  1  0.38724815  0.36661454  0.09738686  1
  O  O55  1  0.17407356  0.78365453  0.10367371  1
  O  O56  1  0.03126661  0.51063957  0.24614353  1
  O  O57  1  0.00434884  0.02126358  0.22341370  1
  O  O58  1  0.15921864  0.31945592  0.07561169  1
