# generated using pymatgen
data_Na2CoP2O7
_symmetry_space_group_name_H-M   'P 1'
_cell_length_a   5.30054319
_cell_length_b   6.51797730
_cell_length_c   9.47058915
_cell_angle_alpha   109.62138671
_cell_angle_beta   95.80965563
_cell_angle_gamma   105.22481505
_symmetry_Int_Tables_number   1
_chemical_formula_structural   Na2CoP2O7
_chemical_formula_sum   'Na4 Co2 P4 O14'
_cell_volume   290.85181629
_cell_formula_units_Z   2
loop_
 _symmetry_equiv_pos_site_id
 _symmetry_equiv_pos_as_xyz
  1  'x, y, z'
loop_
 _atom_site_type_symbol
 _atom_site_label
 _atom_site_symmetry_multiplicity
 _atom_site_fract_x
 _atom_site_fract_y
 _atom_site_fract_z
 _atom_site_occupancy
  Na  Na0  1  0.35052203  0.13549801  0.72522403  1
  Na  Na1  1  0.64947797  0.86450199  0.27477597  1
  Na  Na2  1  0.87019568  0.22613716  0.96427257  1
  Na  Na3  1  0.12980432  0.77386284  0.03572743  1
  Co  Co4  1  0.90714043  0.40017293  0.63344313  1
  Co  Co5  1  0.09285957  0.59982707  0.36655687  1
  P  P6  1  0.74337385  0.83666521  0.60779516  1
  P  P7  1  0.25662615  0.16333479  0.39220484  1
  P  P8  1  0.56885294  0.66538097  0.86087112  1
  P  P9  1  0.43114706  0.33461903  0.13912888  1
  O  O10  1  0.93494199  0.69070730  0.57646630  1
  O  O11  1  0.06505801  0.30929270  0.42353370  1
  O  O12  1  0.49990577  0.75553895  0.48116793  1
  O  O13  1  0.50009423  0.24446105  0.51883207  1
  O  O14  1  0.90098757  0.09200343  0.65859276  1
  O  O15  1  0.09901243  0.90799657  0.34140724  1
  O  O16  1  0.64419032  0.83300224  0.76393093  1
  O  O17  1  0.35580968  0.16699776  0.23606907  1
  O  O18  1  0.73999982  0.50227613  0.82836776  1
  O  O19  1  0.26000018  0.49772387  0.17163224  1
  O  O20  1  0.65734107  0.83700077  0.02571424  1
  O  O21  1  0.34265893  0.16299923  0.97428576  1
  O  O22  1  0.26859550  0.54097573  0.80801128  1
  O  O23  1  0.73140450  0.45902427  0.19198872  1
