# generated using pymatgen
data_LiMg3
_symmetry_space_group_name_H-M   'P 1'
_cell_length_a   6.37497236
_cell_length_b   3.12999474
_cell_length_c   5.09565942
_cell_angle_alpha   90.00000000
_cell_angle_beta   90.00000000
_cell_angle_gamma   119.40512616
_symmetry_Int_Tables_number   1
_chemical_formula_structural   LiMg3
_chemical_formula_sum   'Li1 Mg3'
_cell_volume   88.57785572
_cell_formula_units_Z   1
loop_
 _symmetry_equiv_pos_site_id
 _symmetry_equiv_pos_as_xyz
  1  'x, y, z'
loop_
 _atom_site_type_symbol
 _atom_site_label
 _atom_site_symmetry_multiplicity
 _atom_site_fract_x
 _atom_site_fract_y
 _atom_site_fract_z
 _atom_site_occupancy
  Li  Li0  1  0.16599502  0.66599502  0.25000000  1
  Mg  Mg1  1  0.66608340  0.66608340  0.25000000  1
  Mg  Mg2  1  0.33092625  0.33092625  0.75000000  1
  Mg  Mg3  1  0.83699532  0.33699532  0.75000000  1
