# generated using pymatgen
data_Na2CoP2O7
_symmetry_space_group_name_H-M   'P 1'
_cell_length_a   5.85057016
_cell_length_b   8.00768143
_cell_length_c   8.22440948
_cell_angle_alpha   113.30260443
_cell_angle_beta   90.00000002
_cell_angle_gamma   111.42665606
_symmetry_Int_Tables_number   1
_chemical_formula_structural   Na2CoP2O7
_chemical_formula_sum   'Na4 Co2 P4 O14'
_cell_volume   324.68112704
_cell_formula_units_Z   2
loop_
 _symmetry_equiv_pos_site_id
 _symmetry_equiv_pos_as_xyz
  1  'x, y, z'
loop_
 _atom_site_type_symbol
 _atom_site_label
 _atom_site_symmetry_multiplicity
 _atom_site_fract_x
 _atom_site_fract_y
 _atom_site_fract_z
 _atom_site_occupancy
  Na  Na0  1  0.91053118  0.54096042  0.20040974  1
  Na  Na1  1  0.36957076  0.45903958  0.29959026  1
  Na  Na2  1  0.08946882  0.45903958  0.79959026  1
  Na  Na3  1  0.63042924  0.54096042  0.70040974  1
  Co  Co4  1  0.00000000  0.00000000  0.50000000  1
  Co  Co5  1  0.00000000  0.00000000  0.00000000  1
  P  P6  1  0.76463751  0.21122907  0.34482071  1
  P  P7  1  0.55340844  0.78877093  0.15517929  1
  P  P8  1  0.23536249  0.78877093  0.65517929  1
  P  P9  1  0.44659156  0.21122907  0.84482071  1
  O  O10  1  0.52350078  0.00000000  0.25000000  1
  O  O11  1  0.47649922  1.00000000  0.75000000  1
  O  O12  1  0.29514491  0.62660243  0.10291448  1
  O  O13  1  0.66854248  0.37339757  0.39708552  1
  O  O14  1  0.70485509  0.37339757  0.89708552  1
  O  O15  1  0.33145752  0.62660243  0.60291448  1
  O  O16  1  0.94096659  0.21957834  0.20411398  1
  O  O17  1  0.72138824  0.78042166  0.29588602  1
  O  O18  1  0.05903341  0.78042166  0.79588602  1
  O  O19  1  0.27861176  0.21957834  0.70411398  1
  O  O20  1  0.11151245  0.79378938  0.49238974  1
  O  O21  1  0.31772307  0.20621062  0.00761026  1
  O  O22  1  0.88848755  0.20621062  0.50761026  1
  O  O23  1  0.68227693  0.79378938  0.99238974  1
