# generated using pymatgen
data_LiCr2P2O9
_symmetry_space_group_name_H-M   'P 1'
_cell_length_a   6.32555012
_cell_length_b   7.60937115
_cell_length_c   13.89254420
_cell_angle_alpha   90.00000000
_cell_angle_beta   90.00000000
_cell_angle_gamma   90.00000000
_symmetry_Int_Tables_number   1
_chemical_formula_structural   LiCr2P2O9
_chemical_formula_sum   'Li4 Cr8 P8 O36'
_cell_volume   668.69620097
_cell_formula_units_Z   4
loop_
 _symmetry_equiv_pos_site_id
 _symmetry_equiv_pos_as_xyz
  1  'x, y, z'
loop_
 _atom_site_type_symbol
 _atom_site_label
 _atom_site_symmetry_multiplicity
 _atom_site_fract_x
 _atom_site_fract_y
 _atom_site_fract_z
 _atom_site_occupancy
  Li  Li0  1  0.75000000  0.94651568  0.77064691  1
  Li  Li1  1  0.75000000  0.55348432  0.27064691  1
  Li  Li2  1  0.25000100  0.44651468  0.72935309  1
  Li  Li3  1  0.25000100  0.05348432  0.22935309  1
  Cr  Cr4  1  0.75000000  0.35136063  0.88155316  1
  Cr  Cr5  1  0.25000100  0.64863937  0.11844684  1
  Cr  Cr6  1  0.25000100  0.85136063  0.61844684  1
  Cr  Cr7  1  0.75000000  0.14863937  0.38155316  1
  Cr  Cr8  1  0.50000000  -0.00000000  0.00000000  1
  Cr  Cr9  1  0.50000000  0.50000000  0.50000000  1
  Cr  Cr10  1  0.00000000  0.50000000  0.50000000  1
  Cr  Cr11  1  0.00000000  -0.00000000  0.00000000  1
  P  P12  1  0.25000100  0.35140222  0.93532085  1
  P  P13  1  0.75000000  0.64859778  0.06468015  1
  P  P14  1  0.75000000  0.85140222  0.56467915  1
  P  P15  1  0.25000100  0.14859878  0.43532085  1
  P  P16  1  0.75000000  0.39071684  0.69397383  1
  P  P17  1  0.75000000  0.10928316  0.19397383  1
  P  P18  1  0.25000100  0.89071684  0.80602617  1
  P  P19  1  0.25000100  0.60928216  0.30602617  1
  O  O20  1  0.04566010  0.59388203  0.36699104  1
  O  O21  1  0.54565910  0.40611697  0.63300896  1
  O  O22  1  0.95433990  0.09388203  0.13300896  1
  O  O23  1  0.45433990  0.90611797  0.86699104  1
  O  O24  1  0.95433990  0.40611697  0.63300896  1
  O  O25  1  0.45433990  0.59388203  0.36699104  1
  O  O26  1  0.04566010  0.90611797  0.86699104  1
  O  O27  1  0.54565910  0.09388203  0.13300896  1
  O  O28  1  0.25000100  0.33489819  0.48511974  1
  O  O29  1  0.75000000  0.66510281  0.51488026  1
  O  O30  1  0.75000000  0.83489719  0.01487926  1
  O  O31  1  0.25000100  0.16510281  0.98511974  1
  O  O32  1  0.75000000  0.14417855  0.95140603  1
  O  O33  1  0.25000100  0.85582145  0.04859297  1
  O  O34  1  0.25000100  0.64417855  0.54859297  1
  O  O35  1  0.75000000  0.35582245  0.45140703  1
  O  O36  1  0.75000000  0.21701124  0.75522427  1
  O  O37  1  0.25000100  0.78298876  0.24477673  1
  O  O38  1  0.25000100  0.71701124  0.74477573  1
  O  O39  1  0.75000000  0.28298976  0.25522327  1
  O  O40  1  0.44064885  0.13588161  0.36814823  1
  O  O41  1  0.94064885  0.86411839  0.63185177  1
  O  O42  1  0.55935115  0.63588061  0.13185177  1
  O  O43  1  0.05935115  0.36411839  0.86814823  1
  O  O44  1  0.55935115  0.86411839  0.63185177  1
  O  O45  1  0.05935115  0.13588161  0.36814823  1
  O  O46  1  0.44064885  0.36411839  0.86814823  1
  O  O47  1  0.94064885  0.63588061  0.13185177  1
  O  O48  1  0.75000000  0.51141160  0.98480198  1
  O  O49  1  0.25000100  0.02836166  0.72285915  1
  O  O50  1  0.25000100  0.47163734  0.22285915  1
  O  O51  1  0.75000000  0.52836166  0.77714085  1
  O  O52  1  0.75000000  0.98858840  0.48480198  1
  O  O53  1  0.25000100  0.01141160  0.51519802  1
  O  O54  1  0.25000100  0.48858740  0.01519702  1
  O  O55  1  0.75000000  0.97163834  0.27714085  1
