# generated using pymatgen
data_LiMo2P2O9
_symmetry_space_group_name_H-M   'P 1'
_cell_length_a   6.66750353
_cell_length_b   7.88582606
_cell_length_c   14.53296536
_cell_angle_alpha   90.00000000
_cell_angle_beta   90.00000000
_cell_angle_gamma   90.00000000
_symmetry_Int_Tables_number   1
_chemical_formula_structural   LiMo2P2O9
_chemical_formula_sum   'Li4 Mo8 P8 O36'
_cell_volume   764.12548802
_cell_formula_units_Z   4
loop_
 _symmetry_equiv_pos_site_id
 _symmetry_equiv_pos_as_xyz
  1  'x, y, z'
loop_
 _atom_site_type_symbol
 _atom_site_label
 _atom_site_symmetry_multiplicity
 _atom_site_fract_x
 _atom_site_fract_y
 _atom_site_fract_z
 _atom_site_occupancy
  Li  Li0  1  0.75000000  0.96640373  0.75062098  1
  Li  Li1  1  0.75000000  0.53359627  0.25062098  1
  Li  Li2  1  0.25000100  0.46640273  0.74937902  1
  Li  Li3  1  0.25000100  0.03359627  0.24937902  1
  Mo  Mo4  1  0.75000000  0.35775615  0.88075128  1
  Mo  Mo5  1  0.25000100  0.64224385  0.11924872  1
  Mo  Mo6  1  0.25000100  0.85775615  0.61924872  1
  Mo  Mo7  1  0.75000000  0.14224385  0.38075128  1
  Mo  Mo8  1  0.50000000  0.00000000  0.00000000  1
  Mo  Mo9  1  0.50000000  0.50000000  0.50000000  1
  Mo  Mo10  1  0.00000000  0.50000000  0.50000000  1
  Mo  Mo11  1  0.00000000  0.00000000  0.00000000  1
  P  P12  1  0.25000100  0.35348193  0.93340315  1
  P  P13  1  0.75000000  0.64651807  0.06659785  1
  P  P14  1  0.75000000  0.85348193  0.56659685  1
  P  P15  1  0.25000100  0.14651907  0.43340315  1
  P  P16  1  0.75000000  0.38595546  0.69158978  1
  P  P17  1  0.75000000  0.11404454  0.19158978  1
  P  P18  1  0.25000100  0.88595546  0.80841022  1
  P  P19  1  0.25000100  0.61404354  0.30841022  1
  O  O20  1  0.05619900  0.60263187  0.36597799  1
  O  O21  1  0.55619800  0.39736713  0.63402201  1
  O  O22  1  0.94380100  0.10263187  0.13402201  1
  O  O23  1  0.44380100  0.89736813  0.86597799  1
  O  O24  1  0.94380100  0.39736713  0.63402201  1
  O  O25  1  0.44380100  0.60263187  0.36597799  1
  O  O26  1  0.05619900  0.89736813  0.86597799  1
  O  O27  1  0.55619800  0.10263187  0.13402201  1
  O  O28  1  0.25000100  0.32757029  0.47872906  1
  O  O29  1  0.75000000  0.67243071  0.52127094  1
  O  O30  1  0.75000000  0.82756929  0.02126994  1
  O  O31  1  0.25000100  0.17243071  0.97872906  1
  O  O32  1  0.75000000  0.14174751  0.94685256  1
  O  O33  1  0.25000100  0.85825249  0.05314644  1
  O  O34  1  0.25000100  0.64174751  0.55314644  1
  O  O35  1  0.75000000  0.35825349  0.44685356  1
  O  O36  1  0.75000000  0.21997739  0.75248134  1
  O  O37  1  0.25000100  0.78002261  0.24751966  1
  O  O38  1  0.25000100  0.71997739  0.74751866  1
  O  O39  1  0.75000000  0.28002361  0.25248034  1
  O  O40  1  0.43233899  0.12688327  0.36989681  1
  O  O41  1  0.93233899  0.87311673  0.63010319  1
  O  O42  1  0.56766101  0.62688227  0.13010319  1
  O  O43  1  0.06766101  0.37311673  0.86989681  1
  O  O44  1  0.56766101  0.87311673  0.63010319  1
  O  O45  1  0.06766101  0.12688327  0.36989681  1
  O  O46  1  0.43233899  0.37311673  0.86989681  1
  O  O47  1  0.93233899  0.62688227  0.13010319  1
  O  O48  1  0.75000000  0.51834814  0.98747657  1
  O  O49  1  0.25000100  0.02379116  0.73059255  1
  O  O50  1  0.25000100  0.47620784  0.23059255  1
  O  O51  1  0.75000000  0.52379116  0.76940745  1
  O  O52  1  0.75000000  0.98165186  0.48747657  1
  O  O53  1  0.25000100  0.01834814  0.51252343  1
  O  O54  1  0.25000100  0.48165086  0.01252243  1
  O  O55  1  0.75000000  0.97620884  0.26940745  1
