# generated using pymatgen
data_Li7Mn2(CoO4)3
_symmetry_space_group_name_H-M   'P 1'
_cell_length_a   2.92511114
_cell_length_b   14.73612743
_cell_length_c   5.12105455
_cell_angle_alpha   100.98129906
_cell_angle_beta   90.00000000
_cell_angle_gamma   84.30403605
_symmetry_Int_Tables_number   1
_chemical_formula_structural   Li7Mn2(CoO4)3
_chemical_formula_sum   'Li7 Mn2 Co3 O12'
_cell_volume   215.58983528
_cell_formula_units_Z   1
loop_
 _symmetry_equiv_pos_site_id
 _symmetry_equiv_pos_as_xyz
  1  'x, y, z'
loop_
 _atom_site_type_symbol
 _atom_site_label
 _atom_site_symmetry_multiplicity
 _atom_site_fract_x
 _atom_site_fract_y
 _atom_site_fract_z
 _atom_site_occupancy
  Li  Li0  1  0.41553397  0.16893307  0.25057260  1
  Li  Li1  1  0.24581235  0.50837530  0.76706348  1
  Li  Li2  1  0.08934030  0.82131839  0.23693272  1
  Li  Li3  1  0.91604233  0.16791634  0.75469703  1
  Li  Li4  1  0.74454313  0.51091373  0.25811394  1
  Li  Li5  1  0.58868778  0.82262345  0.73607756  1
  Li  Li6  1  0.66674901  0.66650297  0.99937100  1
  Mn  Mn7  1  0.00080642  0.99838716  0.99670765  1
  Mn  Mn8  1  0.83290933  0.33418034  0.50348207  1
  Co  Co9  1  0.50087349  -0.00174698  0.49591069  1
  Co  Co10  1  0.33192473  0.33614955  0.00397307  1
  Co  Co11  1  0.16671206  0.66657688  0.49885987  1
  O  O12  1  0.46248796  0.07502509  0.89974139  1
  O  O13  1  0.29584327  0.40831347  0.40189784  1
  O  O14  1  0.12987547  0.74024807  0.82572296  1
  O  O15  1  0.96349297  0.07301507  0.35861839  1
  O  O16  1  0.79435684  0.41128631  0.85676884  1
  O  O17  1  0.62882013  0.74235875  0.38100106  1
  O  O18  1  0.37106677  0.25786747  0.60847552  1
  O  O19  1  0.20393387  0.59213227  0.17426360  1
  O  O20  1  0.03664585  0.92670730  0.63727533  1
  O  O21  1  0.87085844  0.25828412  0.14588751  1
  O  O22  1  0.70381337  0.59237326  0.61473072  1
  O  O23  1  0.53887019  0.92225863  0.09385517  1
