# generated using pymatgen
data_V(CrS2)2
_symmetry_space_group_name_H-M   'P 1'
_cell_length_a   3.42311823
_cell_length_b   6.11209889
_cell_length_c   6.47963375
_cell_angle_alpha   117.72007749
_cell_angle_beta   105.31612040
_cell_angle_gamma   90.00000000
_symmetry_Int_Tables_number   1
_chemical_formula_structural   V(CrS2)2
_chemical_formula_sum   'V1 Cr2 S4'
_cell_volume   114.54327190
_cell_formula_units_Z   1
loop_
 _symmetry_equiv_pos_site_id
 _symmetry_equiv_pos_as_xyz
  1  'x, y, z'
loop_
 _atom_site_type_symbol
 _atom_site_label
 _atom_site_symmetry_multiplicity
 _atom_site_fract_x
 _atom_site_fract_y
 _atom_site_fract_z
 _atom_site_occupancy
  V  V0  1  0.00000000  0.00000000  0.00000000  1
  Cr  Cr1  1  0.25853871  0.27569113  0.51707741  1
  Cr  Cr2  1  0.74146129  0.72430887  0.48292259  1
  S  S3  1  0.12407275  0.44724846  0.24814549  1
  S  S4  1  0.87592725  0.55275154  0.75185451  1
  S  S5  1  0.36728874  0.02812575  0.73457749  1
  S  S6  1  0.63271126  0.97187425  0.26542251  1
