# generated using pymatgen
data_TeMo2Se3
_symmetry_space_group_name_H-M   'P 1'
_cell_length_a   3.37999440
_cell_length_b   3.37982952
_cell_length_c   38.49652531
_cell_angle_alpha   89.99987662
_cell_angle_beta   90.00000000
_cell_angle_gamma   120.00161373
_symmetry_Int_Tables_number   1
_chemical_formula_structural   TeMo2Se3
_chemical_formula_sum   'Te2 Mo4 Se6'
_cell_volume   380.85168142
_cell_formula_units_Z   2
loop_
 _symmetry_equiv_pos_site_id
 _symmetry_equiv_pos_as_xyz
  1  'x, y, z'
loop_
 _atom_site_type_symbol
 _atom_site_label
 _atom_site_symmetry_multiplicity
 _atom_site_fract_x
 _atom_site_fract_y
 _atom_site_fract_z
 _atom_site_occupancy
  Te  Te0  1  0.66664375  0.33328650  0.42078020  1
  Te  Te1  1  0.66664839  0.33329578  0.51852157  1
  Mo  Mo2  1  0.33331084  0.66662168  0.09392151  1
  Mo  Mo3  1  0.33331114  0.66662228  0.46967919  1
  Mo  Mo4  1  0.66668526  0.33337053  0.28178391  1
  Mo  Mo5  1  0.66668658  0.33337316  0.65755395  1
  Se  Se6  1  0.33334365  0.66668831  0.32481441  1
  Se  Se7  1  0.33336868  0.66673835  0.70052721  1
  Se  Se8  1  0.66664515  0.33328930  0.05094672  1
  Se  Se9  1  0.66664566  0.33329033  0.13691892  1
  Se  Se10  1  0.33335582  0.66671264  0.23878085  1
  Se  Se11  1  0.33335507  0.66671114  0.61451958  1
