# generated using pymatgen
data_PrSiAg
_symmetry_space_group_name_H-M   'P 1'
_cell_length_a   4.28775008
_cell_length_b   4.28775008
_cell_length_c   8.19170729
_cell_angle_alpha   105.17172076
_cell_angle_beta   105.17172076
_cell_angle_gamma   90.00000000
_symmetry_Int_Tables_number   1
_chemical_formula_structural   PrSiAg
_chemical_formula_sum   'Pr2 Si2 Ag2'
_cell_volume   139.90781175
_cell_formula_units_Z   2
loop_
 _symmetry_equiv_pos_site_id
 _symmetry_equiv_pos_as_xyz
  1  'x, y, z'
loop_
 _atom_site_type_symbol
 _atom_site_label
 _atom_site_symmetry_multiplicity
 _atom_site_fract_x
 _atom_site_fract_y
 _atom_site_fract_z
 _atom_site_occupancy
  Pr  Pr0  1  0.58108012  0.58108012  0.16216024  1
  Pr  Pr1  1  0.83108012  0.33108012  0.66216024  1
  Si  Si2  1  0.99972285  0.99972285  0.99944570  1
  Si  Si3  1  0.24972285  0.74972285  0.49944570  1
  Ag  Ag4  1  0.16619703  0.16619703  0.33239406  1
  Ag  Ag5  1  0.41619703  0.91619703  0.83239406  1
