# generated using pymatgen
data_SmTlZn
_symmetry_space_group_name_H-M   'P 1'
_cell_length_a   4.74774378
_cell_length_b   4.74806379
_cell_length_c   7.53072078
_cell_angle_alpha   90.00000000
_cell_angle_beta   90.00000000
_cell_angle_gamma   119.99777055
_symmetry_Int_Tables_number   1
_chemical_formula_structural   SmTlZn
_chemical_formula_sum   'Sm2 Tl2 Zn2'
_cell_volume   147.02146680
_cell_formula_units_Z   2
loop_
 _symmetry_equiv_pos_site_id
 _symmetry_equiv_pos_as_xyz
  1  'x, y, z'
loop_
 _atom_site_type_symbol
 _atom_site_label
 _atom_site_symmetry_multiplicity
 _atom_site_fract_x
 _atom_site_fract_y
 _atom_site_fract_z
 _atom_site_occupancy
  Sm  Sm0  1  0.00000000  0.00000000  0.50000000  1
  Sm  Sm1  1  0.00000000  0.00000000  0.00000000  1
  Tl  Tl2  1  0.33333437  0.66666873  0.25000000  1
  Tl  Tl3  1  0.66666563  0.33333127  0.75000000  1
  Zn  Zn4  1  0.33333281  0.66666563  0.75000000  1
  Zn  Zn5  1  0.66666719  0.33333437  0.25000000  1
