# generated using pymatgen
data_LuB2Rh3
_symmetry_space_group_name_H-M   'P 1'
_cell_length_a   3.11880364
_cell_length_b   5.40397191
_cell_length_c   5.40365717
_cell_angle_alpha   59.99807324
_cell_angle_beta   89.93087916
_cell_angle_gamma   89.86177698
_symmetry_Int_Tables_number   1
_chemical_formula_structural   LuB2Rh3
_chemical_formula_sum   'Lu1 B2 Rh3'
_cell_volume   78.86963629
_cell_formula_units_Z   1
loop_
 _symmetry_equiv_pos_site_id
 _symmetry_equiv_pos_as_xyz
  1  'x, y, z'
loop_
 _atom_site_type_symbol
 _atom_site_label
 _atom_site_symmetry_multiplicity
 _atom_site_fract_x
 _atom_site_fract_y
 _atom_site_fract_z
 _atom_site_occupancy
  Lu  Lu0  1  0.50000000  0.50000000  -0.00000000  1
  B  B1  1  0.50000000  0.16684539  0.66630923  1
  B  B2  1  0.50000000  0.83315461  0.33369077  1
  Rh  Rh3  1  0.00000000  -0.00000000  0.50000000  1
  Rh  Rh4  1  -0.00000000  0.50000000  0.50000000  1
  Rh  Rh5  1  -0.00000000  -0.00000000  0.00000000  1
