# generated using pymatgen
data_Te2Mo3WSe6
_symmetry_space_group_name_H-M   'P 1'
_cell_length_a   3.38086765
_cell_length_b   3.38083566
_cell_length_c   38.46378742
_cell_angle_alpha   90.00006141
_cell_angle_beta   90.00000000
_cell_angle_gamma   120.00031287
_symmetry_Int_Tables_number   1
_chemical_formula_structural   Te2Mo3WSe6
_chemical_formula_sum   'Te2 Mo3 W1 Se6'
_cell_volume   380.74441288
_cell_formula_units_Z   1
loop_
 _symmetry_equiv_pos_site_id
 _symmetry_equiv_pos_as_xyz
  1  'x, y, z'
loop_
 _atom_site_type_symbol
 _atom_site_label
 _atom_site_symmetry_multiplicity
 _atom_site_fract_x
 _atom_site_fract_y
 _atom_site_fract_z
 _atom_site_occupancy
  Te  Te0  1  0.66664657  0.33329214  0.42080855  1
  Te  Te1  1  0.66664702  0.33329305  0.51850477  1
  Mo  Mo2  1  0.33330890  0.66661779  0.09392816  1
  Mo  Mo3  1  0.33331239  0.66662477  0.46965851  1
  Mo  Mo4  1  0.66668893  0.33337786  0.28178915  1
  W  W5  1  0.66669014  0.33338027  0.65755406  1
  Se  Se6  1  0.33335168  0.66670437  0.32483425  1
  Se  Se7  1  0.33335328  0.66670755  0.70072940  1
  Se  Se8  1  0.66664738  0.33329376  0.05088039  1
  Se  Se9  1  0.66664854  0.33329607  0.13696897  1
  Se  Se10  1  0.33335139  0.66670378  0.23874703  1
  Se  Se11  1  0.33335379  0.66670857  0.61434477  1
