# generated using pymatgen
data_Li7Mn2(CoO4)3
_symmetry_space_group_name_H-M   'P 1'
_cell_length_a   2.88187906
_cell_length_b   5.10057706
_cell_length_c   15.66373521
_cell_angle_alpha   97.59964890
_cell_angle_beta   90.00000000
_cell_angle_gamma   106.40977979
_symmetry_Int_Tables_number   1
_chemical_formula_structural   Li7Mn2(CoO4)3
_chemical_formula_sum   'Li7 Mn2 Co3 O12'
_cell_volume   218.75716134
_cell_formula_units_Z   1
loop_
 _symmetry_equiv_pos_site_id
 _symmetry_equiv_pos_as_xyz
  1  'x, y, z'
loop_
 _atom_site_type_symbol
 _atom_site_label
 _atom_site_symmetry_multiplicity
 _atom_site_fract_x
 _atom_site_fract_y
 _atom_site_fract_z
 _atom_site_occupancy
  Li  Li0  1  0.75080437  0.50160874  0.08446343  1
  Li  Li1  1  0.25311533  0.50623066  0.25969983  1
  Li  Li2  1  0.76468526  0.52937051  0.42800421  1
  Li  Li3  1  0.24291847  0.48583694  0.57617837  1
  Li  Li4  1  0.74417983  0.48835966  0.74860182  1
  Li  Li5  1  0.24591347  0.49182694  0.90360363  1
  Li  Li6  1  0.49980014  0.99960028  0.50287454  1
  Mn  Mn7  1  0.99725477  0.99450953  0.99574692  1
  Mn  Mn8  1  0.50223724  0.00447447  0.16990370  1
  Co  Co9  1  0.01283237  0.02566473  0.35288995  1
  Co  Co10  1  0.99131988  0.98263976  0.65443829  1
  Co  Co11  1  0.49780149  0.99560299  0.82681846  1
  O  O12  1  0.61215436  0.22430872  0.95916118  1
  O  O13  1  0.11451877  0.22903755  0.13074757  1
  O  O14  1  0.60412553  0.20825106  0.28189945  1
  O  O15  1  0.12400675  0.24801350  0.45242913  1
  O  O16  1  0.61318778  0.22637556  0.63278726  1
  O  O17  1  0.11495940  0.22991879  0.79447547  1
  O  O18  1  0.88581485  0.77162969  0.19856315  1
  O  O19  1  0.38415663  0.76831325  0.37110205  1
  O  O20  1  0.88000058  0.76000115  0.55293069  1
  O  O21  1  0.39282235  0.78564470  0.70774133  1
  O  O22  1  0.87876397  0.75752795  0.86955529  1
  O  O23  1  0.39262643  0.78525286  0.04538429  1
