# generated using pymatgen
data_Te2Mo3WSe6
_symmetry_space_group_name_H-M   'P 1'
_cell_length_a   3.38021064
_cell_length_b   3.38015430
_cell_length_c   38.42492720
_cell_angle_alpha   89.99993918
_cell_angle_beta   90.00000000
_cell_angle_gamma   120.00055136
_symmetry_Int_Tables_number   1
_chemical_formula_structural   Te2Mo3WSe6
_chemical_formula_sum   'Te2 Mo3 W1 Se6'
_cell_volume   380.20827304
_cell_formula_units_Z   1
loop_
 _symmetry_equiv_pos_site_id
 _symmetry_equiv_pos_as_xyz
  1  'x, y, z'
loop_
 _atom_site_type_symbol
 _atom_site_label
 _atom_site_symmetry_multiplicity
 _atom_site_fract_x
 _atom_site_fract_y
 _atom_site_fract_z
 _atom_site_occupancy
  Te  Te0  1  0.66664768  0.33329437  0.04502426  1
  Te  Te1  1  0.66664686  0.33329271  0.14280478  1
  Mo  Mo2  1  0.33330970  0.66661939  0.09389929  1
  Mo  Mo3  1  0.33331441  0.66662883  0.46966172  1
  Mo  Mo4  1  0.66668913  0.33337827  0.28181480  1
  W  W5  1  0.66669171  0.33338343  0.65753401  1
  Se  Se6  1  0.33336215  0.66672529  0.32483757  1
  Se  Se7  1  0.33335340  0.66670780  0.70073093  1
  Se  Se8  1  0.66662570  0.33325039  0.42663250  1
  Se  Se9  1  0.66665180  0.33330260  0.51269284  1
  Se  Se10  1  0.33335220  0.66670540  0.23878130  1
  Se  Se11  1  0.33335526  0.66671152  0.61433400  1
