# generated using pymatgen
data_Te3Mo2Se
_symmetry_space_group_name_H-M   'P 1'
_cell_length_a   3.49955136
_cell_length_b   3.49953118
_cell_length_c   39.56214279
_cell_angle_alpha   90.00026602
_cell_angle_beta   90.00000000
_cell_angle_gamma   120.00019074
_symmetry_Int_Tables_number   1
_chemical_formula_structural   Te3Mo2Se
_chemical_formula_sum   'Te6 Mo4 Se2'
_cell_volume   419.59648589
_cell_formula_units_Z   2
loop_
 _symmetry_equiv_pos_site_id
 _symmetry_equiv_pos_as_xyz
  1  'x, y, z'
loop_
 _atom_site_type_symbol
 _atom_site_label
 _atom_site_symmetry_multiplicity
 _atom_site_fract_x
 _atom_site_fract_y
 _atom_site_fract_z
 _atom_site_occupancy
  Te  Te0  1  0.33335574  0.66671248  0.70383690  1
  Te  Te1  1  0.66664431  0.33328762  0.04762703  1
  Te  Te2  1  0.66664821  0.33329541  0.42334309  1
  Te  Te3  1  0.66664833  0.33329565  0.14024352  1
  Te  Te4  1  0.66664091  0.33328082  0.51595337  1
  Te  Te5  1  0.33335457  0.66671014  0.61122646  1
  Mo  Mo6  1  0.33331017  0.66662035  0.09392865  1
  Mo  Mo7  1  0.33331066  0.66662133  0.46963906  1
  Mo  Mo8  1  0.66668921  0.33337843  0.28179991  1
  Mo  Mo9  1  0.66669170  0.33338339  0.65755689  1
  Se  Se10  1  0.33335665  0.66671429  0.32270897  1
  Se  Se11  1  0.33334954  0.66670008  0.24088414  1
