# generated using pymatgen
data_TeMo2Se3
_symmetry_space_group_name_H-M   'P 1'
_cell_length_a   3.38260283
_cell_length_b   3.38254627
_cell_length_c   38.40151359
_cell_angle_alpha   90.00017330
_cell_angle_beta   90.00000000
_cell_angle_gamma   120.00055322
_symmetry_Int_Tables_number   1
_chemical_formula_structural   TeMo2Se3
_chemical_formula_sum   'Te2 Mo4 Se6'
_cell_volume   380.51458436
_cell_formula_units_Z   2
loop_
 _symmetry_equiv_pos_site_id
 _symmetry_equiv_pos_as_xyz
  1  'x, y, z'
loop_
 _atom_site_type_symbol
 _atom_site_label
 _atom_site_symmetry_multiplicity
 _atom_site_fract_x
 _atom_site_fract_y
 _atom_site_fract_z
 _atom_site_occupancy
  Te  Te0  1  0.33336074  0.66672249  0.70642741  1
  Te  Te1  1  0.33335064  0.66670228  0.60864683  1
  Mo  Mo2  1  0.33330830  0.66661659  0.09391135  1
  Mo  Mo3  1  0.33331075  0.66662151  0.46966459  1
  Mo  Mo4  1  0.66668759  0.33337519  0.28179665  1
  Mo  Mo5  1  0.66669265  0.33338531  0.65755382  1
  Se  Se6  1  0.33335151  0.66670402  0.32486487  1
  Se  Se7  1  0.66664513  0.33328926  0.05085997  1
  Se  Se8  1  0.66664774  0.33329448  0.42659739  1
  Se  Se9  1  0.66664735  0.33329370  0.13698623  1
  Se  Se10  1  0.66664857  0.33329615  0.51271768  1
  Se  Se11  1  0.33334901  0.66669903  0.23872122  1
