# generated using pymatgen
data_Te2Mo3WSe6
_symmetry_space_group_name_H-M   'P 1'
_cell_length_a   3.37968367
_cell_length_b   3.37967739
_cell_length_c   38.50766945
_cell_angle_alpha   90.00019013
_cell_angle_beta   90.00000000
_cell_angle_gamma   120.00006157
_symmetry_Int_Tables_number   1
_chemical_formula_structural   Te2Mo3WSe6
_chemical_formula_sum   'Te2 Mo3 W1 Se6'
_cell_volume   380.91572091
_cell_formula_units_Z   1
loop_
 _symmetry_equiv_pos_site_id
 _symmetry_equiv_pos_as_xyz
  1  'x, y, z'
loop_
 _atom_site_type_symbol
 _atom_site_label
 _atom_site_symmetry_multiplicity
 _atom_site_fract_x
 _atom_site_fract_y
 _atom_site_fract_z
 _atom_site_occupancy
  Te  Te0  1  0.33336504  0.66673107  0.33066770  1
  Te  Te1  1  0.33338049  0.66676199  0.23293368  1
  Mo  Mo2  1  0.33331535  0.66663070  0.09390870  1
  Mo  Mo3  1  0.66667428  0.33334857  0.28179810  1
  Mo  Mo4  1  0.66667700  0.33335401  0.65752260  1
  W  W5  1  0.33331627  0.66663254  0.46966943  1
  Se  Se6  1  0.33334087  0.66668275  0.70052242  1
  Se  Se7  1  0.66664560  0.33329021  0.05093171  1
  Se  Se8  1  0.66664654  0.33329207  0.42653994  1
  Se  Se9  1  0.66664063  0.33328026  0.13692172  1
  Se  Se10  1  0.66664708  0.33329315  0.51280470  1
  Se  Se11  1  0.33335084  0.66670269  0.61452728  1
