# generated using pymatgen
data_TeMoWSe3
_symmetry_space_group_name_H-M   'P 1'
_cell_length_a   3.37928841
_cell_length_b   3.37922983
_cell_length_c   38.46220281
_cell_angle_alpha   90.00019663
_cell_angle_beta   90.00000000
_cell_angle_gamma   120.00057335
_symmetry_Int_Tables_number   1
_chemical_formula_structural   TeMoWSe3
_chemical_formula_sum   'Te2 Mo2 W2 Se6'
_cell_volume   380.36913169
_cell_formula_units_Z   2
loop_
 _symmetry_equiv_pos_site_id
 _symmetry_equiv_pos_as_xyz
  1  'x, y, z'
loop_
 _atom_site_type_symbol
 _atom_site_label
 _atom_site_symmetry_multiplicity
 _atom_site_fract_x
 _atom_site_fract_y
 _atom_site_fract_z
 _atom_site_occupancy
  Te  Te0  1  0.66664589  0.33329078  0.04503675  1
  Te  Te1  1  0.66664728  0.33329357  0.14280874  1
  Mo  Mo2  1  0.33330561  0.66661122  0.09390339  1
  Mo  Mo3  1  0.66668794  0.33337588  0.28180076  1
  W  W4  1  0.33331018  0.66662036  0.46965650  1
  W  W5  1  0.66669269  0.33338538  0.65753794  1
  Se  Se6  1  0.33335135  0.66670371  0.32487939  1
  Se  Se7  1  0.33336059  0.66672219  0.70073359  1
  Se  Se8  1  0.66664675  0.33329250  0.42646504  1
  Se  Se9  1  0.66664791  0.33329483  0.51286088  1
  Se  Se10  1  0.33335050  0.66670200  0.23873888  1
  Se  Se11  1  0.33335329  0.66670759  0.61432614  1
