# generated using pymatgen
data_Te2Mo3WSe6
_symmetry_space_group_name_H-M   'P 1'
_cell_length_a   3.37973675
_cell_length_b   3.37971002
_cell_length_c   38.42081539
_cell_angle_alpha   90.00049572
_cell_angle_beta   90.00000000
_cell_angle_gamma   120.00026177
_symmetry_Int_Tables_number   1
_chemical_formula_structural   Te2Mo3WSe6
_chemical_formula_sum   'Te2 Mo3 W1 Se6'
_cell_volume   380.06543660
_cell_formula_units_Z   1
loop_
 _symmetry_equiv_pos_site_id
 _symmetry_equiv_pos_as_xyz
  1  'x, y, z'
loop_
 _atom_site_type_symbol
 _atom_site_label
 _atom_site_symmetry_multiplicity
 _atom_site_fract_x
 _atom_site_fract_y
 _atom_site_fract_z
 _atom_site_occupancy
  Te  Te0  1  0.33336103  0.66672306  0.70642466  1
  Te  Te1  1  0.33335213  0.66670525  0.60867239  1
  Mo  Mo2  1  0.33330769  0.66661538  0.09389770  1
  Mo  Mo3  1  0.66668592  0.33337185  0.28179201  1
  Mo  Mo4  1  0.66669300  0.33338600  0.65755969  1
  W  W5  1  0.33330980  0.66661960  0.46965142  1
  Se  Se6  1  0.33335805  0.66671709  0.32483180  1
  Se  Se7  1  0.66664586  0.33329073  0.05089589  1
  Se  Se8  1  0.66664697  0.33329293  0.42646907  1
  Se  Se9  1  0.66664453  0.33328805  0.13695156  1
  Se  Se10  1  0.66664667  0.33329234  0.51283964  1
  Se  Se11  1  0.33334836  0.66669771  0.23876216  1
