# generated using pymatgen
data_Te2Mo3WSe6
_symmetry_space_group_name_H-M   'P 1'
_cell_length_a   3.38102497
_cell_length_b   3.38097821
_cell_length_c   38.42963656
_cell_angle_alpha   90.00029605
_cell_angle_beta   89.99999327
_cell_angle_gamma   120.00046248
_symmetry_Int_Tables_number   1
_chemical_formula_structural   Te2Mo3WSe6
_chemical_formula_sum   'Te2 Mo3 W1 Se6'
_cell_volume   380.43952880
_cell_formula_units_Z   1
loop_
 _symmetry_equiv_pos_site_id
 _symmetry_equiv_pos_as_xyz
  1  'x, y, z'
loop_
 _atom_site_type_symbol
 _atom_site_label
 _atom_site_symmetry_multiplicity
 _atom_site_fract_x
 _atom_site_fract_y
 _atom_site_fract_z
 _atom_site_occupancy
  Te  Te0  1  0.33335659  0.66671389  0.70641254  1
  Te  Te1  1  0.33335408  0.66670898  0.60865537  1
  Mo  Mo2  1  0.33330668  0.66661302  0.09390932  1
  Mo  Mo3  1  0.33331181  0.66662327  0.46966724  1
  Mo  Mo4  1  0.66669251  0.33338543  0.65755715  1
  W  W5  1  0.66668912  0.33337846  0.28180083  1
  Se  Se6  1  0.33336348  0.66672757  0.32501591  1
  Se  Se7  1  0.66664509  0.33328952  0.05086034  1
  Se  Se8  1  0.66663580  0.33327067  0.42659083  1
  Se  Se9  1  0.66664676  0.33329272  0.13698455  1
  Se  Se10  1  0.66664827  0.33329626  0.51271621  1
  Se  Se11  1  0.33334980  0.66670021  0.23857772  1
