# generated using pymatgen
data_Te2Mo3WSe6
_symmetry_space_group_name_H-M   'P 1'
_cell_length_a   3.38316274
_cell_length_b   3.38313121
_cell_length_c   38.45646542
_cell_angle_alpha   89.99979576
_cell_angle_beta   90.00000000
_cell_angle_gamma   120.00030830
_symmetry_Int_Tables_number   1
_chemical_formula_structural   Te2Mo3WSe6
_chemical_formula_sum   'Te2 Mo3 W1 Se6'
_cell_volume   381.18901645
_cell_formula_units_Z   1
loop_
 _symmetry_equiv_pos_site_id
 _symmetry_equiv_pos_as_xyz
  1  'x, y, z'
loop_
 _atom_site_type_symbol
 _atom_site_label
 _atom_site_symmetry_multiplicity
 _atom_site_fract_x
 _atom_site_fract_y
 _atom_site_fract_z
 _atom_site_occupancy
  Te  Te0  1  0.33335592  0.66671283  0.33066818  1
  Te  Te1  1  0.33335347  0.66670793  0.23295123  1
  Mo  Mo2  1  0.33330550  0.66661100  0.09389467  1
  Mo  Mo3  1  0.33331200  0.66662399  0.46967223  1
  Mo  Mo4  1  0.66669623  0.33339247  0.28178814  1
  W  W5  1  0.66669477  0.33338954  0.65752714  1
  Se  Se6  1  0.33335720  0.66671541  0.70072892  1
  Se  Se7  1  0.66662864  0.33325628  0.05088485  1
  Se  Se8  1  0.66664147  0.33328194  0.42665102  1
  Se  Se9  1  0.66664828  0.33329557  0.13694750  1
  Se  Se10  1  0.66665373  0.33330646  0.51269589  1
  Se  Se11  1  0.33335280  0.66670659  0.61433823  1
