# generated using pymatgen
data_Li7Mn2(CoO4)3
_symmetry_space_group_name_H-M   'P 1'
_cell_length_a   2.96585166
_cell_length_b   14.97580986
_cell_length_c   5.14660455
_cell_angle_alpha   101.11115570
_cell_angle_beta   73.25357305
_cell_angle_gamma   89.99999746
_symmetry_Int_Tables_number   1
_chemical_formula_structural   Li7Mn2(CoO4)3
_chemical_formula_sum   'Li7 Mn2 Co3 O12'
_cell_volume   214.41844905
_cell_formula_units_Z   1
loop_
 _symmetry_equiv_pos_site_id
 _symmetry_equiv_pos_as_xyz
  1  'x, y, z'
loop_
 _atom_site_type_symbol
 _atom_site_label
 _atom_site_symmetry_multiplicity
 _atom_site_fract_x
 _atom_site_fract_y
 _atom_site_fract_z
 _atom_site_occupancy
  Li  Li0  1  0.24647454  0.08395552  0.50705092  1
  Li  Li1  1  0.74688208  0.26307406  0.50623584  1
  Li  Li2  1  0.25530122  0.41671406  0.48939756  1
  Li  Li3  1  0.75353569  0.58141834  0.49292862  1
  Li  Li4  1  0.24819883  0.74674501  0.50360234  1
  Li  Li5  1  0.75218207  0.91021775  0.49563585  1
  Li  Li6  1  0.99429569  0.33733045  0.01140862  1
  Mn  Mn7  1  0.00397501  0.99751929  0.99204998  1
  Mn  Mn8  1  0.49664541  0.17281938  0.00670918  1
  Co  Co9  1  0.50178309  0.49379008  0.99643382  1
  Co  Co10  1  0.00165959  0.66411285  -0.00331918  1
  Co  Co11  1  0.49985924  0.83083484  0.00028152  1
  O  O12  1  0.89105227  0.12280530  0.21789546  1
  O  O13  1  0.37575969  0.28143658  0.24848063  1
  O  O14  1  0.88747146  0.46298390  0.22505708  1
  O  O15  1  0.38892099  0.61825534  0.22215801  1
  O  O16  1  0.88447689  0.78646932  0.23104622  1
  O  O17  1  0.38831870  0.95658702  0.22336259  1
  O  O18  1  0.61476071  0.04378180  0.77047859  1
  O  O19  1  0.10592235  0.20351399  0.78815529  1
  O  O20  1  0.61797324  0.38890512  0.76405353  1
  O  O21  1  0.11490674  0.54688391  0.77018652  1
  O  O22  1  0.61361746  0.71153941  0.77276508  1
  O  O23  1  0.11602703  0.87830666  0.76794594  1
