# generated using pymatgen
data_Te3Mo2Se
_symmetry_space_group_name_H-M   'P 1'
_cell_length_a   3.50009428
_cell_length_b   3.50006560
_cell_length_c   39.62501315
_cell_angle_alpha   90.00026567
_cell_angle_beta   90.00000000
_cell_angle_gamma   120.00027102
_symmetry_Int_Tables_number   1
_chemical_formula_structural   Te3Mo2Se
_chemical_formula_sum   'Te6 Mo4 Se2'
_cell_volume   420.39233847
_cell_formula_units_Z   2
loop_
 _symmetry_equiv_pos_site_id
 _symmetry_equiv_pos_as_xyz
  1  'x, y, z'
loop_
 _atom_site_type_symbol
 _atom_site_label
 _atom_site_symmetry_multiplicity
 _atom_site_fract_x
 _atom_site_fract_y
 _atom_site_fract_z
 _atom_site_occupancy
  Te  Te0  1  0.33335346  0.66670792  0.32805806  1
  Te  Te1  1  0.33336001  0.66672101  0.70379497  1
  Te  Te2  1  0.66664761  0.33329423  0.42339607  1
  Te  Te3  1  0.66664877  0.33329655  0.51592412  1
  Te  Te4  1  0.33335650  0.66671400  0.23551371  1
  Te  Te5  1  0.33335120  0.66670341  0.61125955  1
  Mo  Mo6  1  0.33330912  0.66661824  0.09392497  1
  Mo  Mo7  1  0.33330888  0.66661775  0.46965628  1
  Mo  Mo8  1  0.66669266  0.33338531  0.28177028  1
  Mo  Mo9  1  0.66669126  0.33338253  0.65754683  1
  Se  Se10  1  0.66663936  0.33327773  0.05307212  1
  Se  Se11  1  0.66664116  0.33328133  0.13483105  1
