# generated using pymatgen
data_ZnFeAs2O7
_symmetry_space_group_name_H-M   'P 1'
_cell_length_a   7.38018970
_cell_length_b   8.79865975
_cell_length_c   9.73546322
_cell_angle_alpha   90.00000000
_cell_angle_beta   114.13725410
_cell_angle_gamma   90.00000000
_symmetry_Int_Tables_number   1
_chemical_formula_structural   ZnFeAs2O7
_chemical_formula_sum   'Zn4 Fe4 As8 O28'
_cell_volume   576.90743446
_cell_formula_units_Z   4
loop_
 _symmetry_equiv_pos_site_id
 _symmetry_equiv_pos_as_xyz
  1  'x, y, z'
loop_
 _atom_site_type_symbol
 _atom_site_label
 _atom_site_symmetry_multiplicity
 _atom_site_fract_x
 _atom_site_fract_y
 _atom_site_fract_z
 _atom_site_occupancy
  Zn  Zn0  1  0.28052253  0.91899867  0.88831796  1
  Zn  Zn1  1  0.71947747  0.41899867  0.61168204  1
  Zn  Zn2  1  0.71947747  0.08100133  0.11168204  1
  Zn  Zn3  1  0.28052253  0.58100133  0.38831796  1
  Fe  Fe4  1  0.81492812  0.05465400  0.68329157  1
  Fe  Fe5  1  0.18507188  0.55465400  0.81670843  1
  Fe  Fe6  1  0.18507188  0.94534600  0.31670843  1
  Fe  Fe7  1  0.81492812  0.44534600  0.18329157  1
  As  As8  1  0.43135797  0.22665622  0.75346755  1
  As  As9  1  0.56864203  0.72665622  0.74653245  1
  As  As10  1  0.56864203  0.77334378  0.24653245  1
  As  As11  1  0.43135797  0.27334378  0.25346655  1
  As  As12  1  0.01408867  0.27632694  0.95915571  1
  As  As13  1  0.98591133  0.77632694  0.54084429  1
  As  As14  1  0.98591133  0.72367306  0.04084429  1
  As  As15  1  0.01408867  0.22367306  0.45915571  1
  O  O16  1  0.85737304  0.27077904  0.05053624  1
  O  O17  1  0.14262696  0.77077904  0.44946376  1
  O  O18  1  0.14262696  0.72922096  0.94946376  1
  O  O19  1  0.85737304  0.22922096  0.55053624  1
  O  O20  1  0.35900810  0.39826085  0.78509840  1
  O  O21  1  0.64099190  0.89826085  0.71490160  1
  O  O22  1  0.64099190  0.60173915  0.21490160  1
  O  O23  1  0.35900810  0.10173915  0.28509840  1
  O  O24  1  0.46611715  0.09450292  0.89237893  1
  O  O25  1  0.53388285  0.59450292  0.60762107  1
  O  O26  1  0.53388285  0.90549708  0.10762107  1
  O  O27  1  0.46611715  0.40549708  0.39237893  1
  O  O28  1  0.24761356  0.14757362  0.58524237  1
  O  O29  1  0.75238644  0.64757362  0.91475763  1
  O  O30  1  0.75238644  0.85242638  0.41475763  1
  O  O31  1  0.24761356  0.35242638  0.08524237  1
  O  O32  1  0.96125097  0.08149650  0.32723258  1
  O  O33  1  0.03874903  0.58149650  0.17276742  1
  O  O34  1  0.03874903  0.91850350  0.67276742  1
  O  O35  1  0.96125097  0.41850350  0.82723258  1
  O  O36  1  0.63380627  0.26423906  0.21040889  1
  O  O37  1  0.36619373  0.76423906  0.28959111  1
  O  O38  1  0.36619373  0.73576094  0.78959111  1
  O  O39  1  0.63380627  0.23576094  0.71040889  1
  O  O40  1  0.04640753  0.39595317  0.39333370  1
  O  O41  1  0.95359247  0.89595317  0.10666630  1
  O  O42  1  0.95359247  0.60404683  0.60666630  1
  O  O43  1  0.04640753  0.10404683  0.89333370  1
