# generated using pymatgen
data_BiO2
_symmetry_space_group_name_H-M   'P 1'
_cell_length_a   6.28419955
_cell_length_b   6.28424063
_cell_length_c   7.11816708
_cell_angle_alpha   55.49769207
_cell_angle_beta   55.49828210
_cell_angle_gamma   71.50361794
_symmetry_Int_Tables_number   1
_chemical_formula_structural   BiO2
_chemical_formula_sum   'Bi4 O8'
_cell_volume   190.91114955
_cell_formula_units_Z   4
loop_
 _symmetry_equiv_pos_site_id
 _symmetry_equiv_pos_as_xyz
  1  'x, y, z'
loop_
 _atom_site_type_symbol
 _atom_site_label
 _atom_site_symmetry_multiplicity
 _atom_site_fract_x
 _atom_site_fract_y
 _atom_site_fract_z
 _atom_site_occupancy
  Bi  Bi0  1  0.11849347  0.11851245  0.88138032  1
  Bi  Bi1  1  0.13150653  0.13148755  0.36861968  1
  Bi  Bi2  1  0.62500000  0.62500000  0.12500000  1
  Bi  Bi3  1  0.62500000  0.62500000  0.62500000  1
  O  O4  1  0.31819191  0.31819343  0.43884792  1
  O  O5  1  0.44344081  0.82382899  0.36645696  1
  O  O6  1  0.31823238  0.31822930  0.92471930  1
  O  O7  1  0.82382367  0.44344648  0.36645441  1
  O  O8  1  0.42617633  0.80655352  0.88354559  1
  O  O9  1  0.80655919  0.42617101  0.88354304  1
  O  O10  1  0.93176762  0.93177070  0.32528070  1
  O  O11  1  0.93180809  0.93180657  0.81115208  1
