# generated using pymatgen
data_Mg3Mn3(AsO4)4
_symmetry_space_group_name_H-M   'P 1'
_cell_length_a   5.26785795
_cell_length_b   8.71378793
_cell_length_c   15.40429475
_cell_angle_alpha   99.08585332
_cell_angle_beta   90.00000000
_cell_angle_gamma   90.00000000
_symmetry_Int_Tables_number   1
_chemical_formula_structural   Mg3Mn3(AsO4)4
_chemical_formula_sum   'Mg6 Mn6 As8 O32'
_cell_volume   698.23114851
_cell_formula_units_Z   2
loop_
 _symmetry_equiv_pos_site_id
 _symmetry_equiv_pos_as_xyz
  1  'x, y, z'
loop_
 _atom_site_type_symbol
 _atom_site_label
 _atom_site_symmetry_multiplicity
 _atom_site_fract_x
 _atom_site_fract_y
 _atom_site_fract_z
 _atom_site_occupancy
  Mg  Mg0  1  0.94836355  0.02708541  0.71036135  1
  Mg  Mg1  1  0.44836355  0.47291459  0.78963865  1
  Mg  Mg2  1  0.05163645  0.97291459  0.28963865  1
  Mg  Mg3  1  0.55163645  0.52708541  0.21036135  1
  Mg  Mg4  1  -0.00000000  0.00000000  -0.00000000  1
  Mg  Mg5  1  0.50000000  0.50000000  0.50000000  1
  Mn  Mn6  1  0.00310321  0.32076117  0.12543553  1
  Mn  Mn7  1  0.99689679  0.67923883  0.87456447  1
  Mn  Mn8  1  0.50310321  0.17923883  0.37456447  1
  Mn  Mn9  1  0.49689679  0.82076117  0.62543553  1
  Mn  Mn10  1  0.50000000  0.50000000  -0.00000000  1
  Mn  Mn11  1  -0.00000000  0.00000000  0.50000000  1
  As  As12  1  0.51768061  0.88473277  0.85281022  1
  As  As13  1  0.99602409  0.30961495  0.89254301  1
  As  As14  1  0.49602409  0.19038505  0.60745699  1
  As  As15  1  0.50397591  0.80961495  0.39254301  1
  As  As16  1  0.48231939  0.11526723  0.14718978  1
  As  As17  1  0.00397591  0.69038505  0.10745699  1
  As  As18  1  0.98231939  0.38473277  0.35281022  1
  As  As19  1  0.01768061  0.61526723  0.64718978  1
  O  O20  1  0.10946919  0.56822088  0.74813008  1
  O  O21  1  0.54575782  0.26420857  0.51224752  1
  O  O22  1  0.07887086  0.19411442  0.79919461  1
  O  O23  1  0.09886669  0.81288093  0.65030853  1
  O  O24  1  0.92112914  0.80588558  0.20080539  1
  O  O25  1  0.39053081  0.06822088  0.24813008  1
  O  O26  1  0.57887086  0.30588558  0.70080539  1
  O  O27  1  0.79958561  0.89481100  0.39013097  1
  O  O28  1  0.81289941  0.50088177  0.42846530  1
  O  O29  1  0.89053081  0.43177912  0.25186992  1
  O  O30  1  0.40113331  0.31288093  0.15030853  1
  O  O31  1  0.20041439  0.10518900  0.60986903  1
  O  O32  1  0.20567995  0.47123599  0.90188463  1
  O  O33  1  0.18710059  0.49911823  0.57153470  1
  O  O34  1  0.80607747  0.10666776  0.12921177  1
  O  O35  1  0.30607747  0.39333224  0.37078823  1
  O  O36  1  0.70567995  0.02876401  0.59811537  1
  O  O37  1  0.42112914  0.69411442  0.29919461  1
  O  O38  1  0.31289941  0.99911823  0.07153470  1
  O  O39  1  0.29958561  0.60518900  0.10986903  1
  O  O40  1  0.69392253  0.60666776  0.62921177  1
  O  O41  1  0.19392253  0.89333224  0.87078823  1
  O  O42  1  0.45424218  0.73579143  0.48775248  1
  O  O43  1  0.04575782  0.23579143  0.98775248  1
  O  O44  1  0.79432005  0.52876401  0.09811537  1
  O  O45  1  0.60946919  0.93177912  0.75186992  1
  O  O46  1  0.90113331  0.18711907  0.34969147  1
  O  O47  1  0.68710059  0.00088177  0.92846530  1
  O  O48  1  0.95424218  0.76420857  0.01224752  1
  O  O49  1  0.70041439  0.39481100  0.89013097  1
  O  O50  1  0.29432005  0.97123599  0.40188463  1
  O  O51  1  0.59886669  0.68711907  0.84969147  1
