# generated using pymatgen
data_Mg(FeO2)2
_symmetry_space_group_name_H-M   'P 1'
_cell_length_a   6.04975359
_cell_length_b   6.04939752
_cell_length_c   18.13924093
_cell_angle_alpha   59.98276507
_cell_angle_beta   59.98040043
_cell_angle_gamma   60.00180100
_symmetry_Int_Tables_number   1
_chemical_formula_structural   Mg(FeO2)2
_chemical_formula_sum   'Mg6 Fe12 O24'
_cell_volume   469.28737982
_cell_formula_units_Z   6
loop_
 _symmetry_equiv_pos_site_id
 _symmetry_equiv_pos_as_xyz
  1  'x, y, z'
loop_
 _atom_site_type_symbol
 _atom_site_label
 _atom_site_symmetry_multiplicity
 _atom_site_fract_x
 _atom_site_fract_y
 _atom_site_fract_z
 _atom_site_occupancy
  Mg  Mg0  1  0.12141782  0.12150571  0.04518301  1
  Mg  Mg1  1  0.12064550  0.12069996  0.37932867  1
  Mg  Mg2  1  0.49779897  0.49775876  0.33558670  1
  Mg  Mg3  1  0.12468821  0.12472973  0.70860831  1
  Mg  Mg4  1  0.49790825  0.49795477  0.00206049  1
  Mg  Mg5  1  0.87741412  0.87738981  0.62260526  1
  Fe  Fe6  1  0.49714827  0.49716192  0.16588352  1
  Fe  Fe7  1  0.49715434  0.00804654  0.16588032  1
  Fe  Fe8  1  0.49873664  0.49876263  0.49867673  1
  Fe  Fe9  1  0.00805912  0.49713918  0.16588754  1
  Fe  Fe10  1  0.49874460  0.00649388  0.49867024  1
  Fe  Fe11  1  0.50318838  0.50318447  0.66347654  1
  Fe  Fe12  1  0.87926467  0.87918360  0.28746973  1
  Fe  Fe13  1  0.49927149  0.49929293  0.83229402  1
  Fe  Fe14  1  0.00649619  0.49875885  0.49866993  1
  Fe  Fe15  1  0.49926546  0.00451583  0.83229561  1
  Fe  Fe16  1  0.00450866  0.49926828  0.83229708  1
  Fe  Fe17  1  0.87684280  0.87682783  0.95648433  1
  O  O18  1  0.25587311  0.25588586  0.08965367  1
  O  O19  1  0.25781811  0.25772417  0.24224088  1
  O  O20  1  0.25585341  0.71928321  0.08966594  1
  O  O21  1  0.71922066  0.25593386  0.08964062  1
  O  O22  1  0.25452789  0.25450074  0.42376185  1
  O  O23  1  0.27290661  0.74538309  0.24545303  1
  O  O24  1  0.25829122  0.25834206  0.57499272  1
  O  O25  1  0.74553667  0.27282271  0.24541560  1
  O  O26  1  0.74430643  0.74435290  0.08898208  1
  O  O27  1  0.25451967  0.71970922  0.42378649  1
  O  O28  1  0.71967241  0.25453923  0.42377703  1
  O  O29  1  0.74551224  0.74540546  0.24543142  1
  O  O30  1  0.26019314  0.26016446  0.75354289  1
  O  O31  1  0.28254513  0.73910115  0.57974981  1
  O  O32  1  0.73911044  0.28254440  0.57973216  1
  O  O33  1  0.25906099  0.25910210  0.90755992  1
  O  O34  1  0.74707381  0.74706195  0.41964121  1
  O  O35  1  0.26019237  0.71896856  0.75354475  1
  O  O36  1  0.71894378  0.26021103  0.75353155  1
  O  O37  1  0.73911540  0.73914862  0.57974115  1
  O  O38  1  0.26920204  0.74662832  0.91249848  1
  O  O39  1  0.74663540  0.26918197  0.91248892  1
  O  O40  1  0.73870064  0.73865760  0.76131664  1
  O  O41  1  0.74663591  0.74667166  0.91249217  1
