# generated using pymatgen
data_Li20Si3P3S23Cl
_symmetry_space_group_name_H-M   'P 1'
_cell_length_a   8.80176072
_cell_length_b   8.81881980
_cell_length_c   12.72503938
_cell_angle_alpha   90.00000000
_cell_angle_beta   90.25266519
_cell_angle_gamma   90.00000000
_symmetry_Int_Tables_number   1
_chemical_formula_structural   Li20Si3P3S23Cl
_chemical_formula_sum   'Li20 Si3 P3 S23 Cl1'
_cell_volume   987.72248035
_cell_formula_units_Z   1
loop_
 _symmetry_equiv_pos_site_id
 _symmetry_equiv_pos_as_xyz
  1  'x, y, z'
loop_
 _atom_site_type_symbol
 _atom_site_label
 _atom_site_symmetry_multiplicity
 _atom_site_fract_x
 _atom_site_fract_y
 _atom_site_fract_z
 _atom_site_occupancy
  Li  Li0  1  0.23364051  0.76522719  0.29984459  1
  Li  Li1  1  0.77341771  0.22969155  0.29160440  1
  Li  Li2  1  0.26660551  0.27211073  0.78365771  1
  Li  Li3  1  0.73182560  0.72912491  0.78960406  1
  Li  Li4  1  0.23364051  0.23477281  0.29984459  1
  Li  Li5  1  0.77341771  0.77030845  0.29160440  1
  Li  Li6  1  0.26660551  0.72788927  0.78365771  1
  Li  Li7  1  0.73182560  0.27087509  0.78960406  1
  Li  Li8  1  0.99792688  0.50000000  0.93258871  1
  Li  Li9  1  0.99947093  0.50000000  0.45081376  1
  Li  Li10  1  0.49543026  0.00000000  0.55734072  1
  Li  Li11  1  0.50753577  0.00000000  0.04008022  1
  Li  Li12  1  0.25175208  0.25418239  0.01126333  1
  Li  Li13  1  0.74631030  0.75332869  0.02132822  1
  Li  Li14  1  0.27000878  0.75118515  0.54195420  1
  Li  Li15  1  0.72628704  0.24978954  0.54143133  1
  Li  Li16  1  0.27000878  0.24881485  0.54195420  1
  Li  Li17  1  0.72628704  0.75021046  0.54143133  1
  Li  Li18  1  0.25175208  0.74581761  0.01126333  1
  Li  Li19  1  0.74631030  0.24667131  0.02132822  1
  Si  Si20  1  0.50078596  0.00000000  0.80491435  1
  Si  Si21  1  0.51392329  0.00000000  0.31730682  1
  Si  Si22  1  -0.00091737  0.50000000  0.69197600  1
  P  P23  1  0.00149389  0.50000000  0.18691303  1
  P  P24  1  0.00003608  0.00000000  0.49971064  1
  P  P25  1  0.49803671  0.50000000  0.00668714  1
  S  S26  1  0.00174192  0.19364853  0.40803122  1
  S  S27  1  0.00174192  0.80635147  0.40803122  1
  S  S28  1  0.30677619  0.50000000  0.91115644  1
  S  S29  1  0.69269492  0.50000000  0.91617264  1
  S  S30  1  0.49753409  0.69161844  0.09731458  1
  S  S31  1  0.49753409  0.30838156  0.09731458  1
  S  S32  1  0.18861709  0.00000000  0.59432411  1
  S  S33  1  0.80927119  0.00000000  0.59064121  1
  S  S34  1  0.00225627  0.30399289  0.09701266  1
  S  S35  1  0.00225627  0.69600711  0.09701266  1
  S  S36  1  0.20216096  0.50000000  0.59724436  1
  S  S37  1  0.79774227  0.50000000  0.59472834  1
  S  S38  1  0.49589087  0.79667271  0.40293459  1
  S  S39  1  0.49589087  0.20332729  0.40293459  1
  S  S40  1  0.30172731  0.00000000  0.90426423  1
  S  S41  1  0.70279868  0.00000000  0.90219583  1
  S  S42  1  0.99919051  0.69716398  0.78845168  1
  S  S43  1  0.99919051  0.30283602  0.78845168  1
  S  S44  1  0.80896658  0.50000000  0.27633404  1
  S  S45  1  0.19324891  0.50000000  0.27881114  1
  S  S46  1  0.50003460  0.19607408  0.70448694  1
  S  S47  1  0.50003460  0.80392592  0.70448694  1
  S  S48  1  0.68802228  0.00000000  0.20616278  1
  Cl  Cl49  1  0.30125963  0.00000000  0.21621047  1
