# generated using pymatgen
data_AlV(WO4)2
_symmetry_space_group_name_H-M   'P 1'
_cell_length_a   5.14976393
_cell_length_b   5.55058035
_cell_length_c   9.20672611
_cell_angle_alpha   89.99979560
_cell_angle_beta   90.35205117
_cell_angle_gamma   90.00100714
_symmetry_Int_Tables_number   1
_chemical_formula_structural   AlV(WO4)2
_chemical_formula_sum   'Al2 V2 W4 O16'
_cell_volume   263.16173451
_cell_formula_units_Z   2
loop_
 _symmetry_equiv_pos_site_id
 _symmetry_equiv_pos_as_xyz
  1  'x, y, z'
loop_
 _atom_site_type_symbol
 _atom_site_label
 _atom_site_symmetry_multiplicity
 _atom_site_fract_x
 _atom_site_fract_y
 _atom_site_fract_z
 _atom_site_occupancy
  Al  Al0  1  0.25000376  0.65558989  0.24999135  1
  Al  Al1  1  0.74999524  0.34440911  0.75000865  1
  V  V2  1  0.75000829  0.36010510  0.24999824  1
  V  V3  1  0.24999171  0.63989390  0.75000176  1
  W  W4  1  0.24779817  0.16426420  0.50059217  1
  W  W5  1  0.25219988  0.16426945  0.99940977  1
  W  W6  1  0.75220183  0.83573580  0.49940783  1
  W  W7  1  0.74780012  0.83573055  0.00059023  1
  O  O8  1  0.39731632  0.38469563  0.13449291  1
  O  O9  1  0.10270521  0.38468779  0.36550167  1
  O  O10  1  0.60268368  0.61530337  0.86550709  1
  O  O11  1  0.89729379  0.61531121  0.63449833  1
  O  O12  1  0.40823601  0.87800474  0.60967592  1
  O  O13  1  0.09175683  0.87805583  0.89030796  1
  O  O14  1  0.59176399  0.12199526  0.39032408  1
  O  O15  1  0.90824317  0.12194417  0.10969204  1
  O  O16  1  0.93287593  0.62781684  0.14320386  1
  O  O17  1  0.56716196  0.62787050  0.35676286  1
  O  O18  1  0.06712407  0.37218416  0.85679614  1
  O  O19  1  0.43283804  0.37213050  0.64323714  1
  O  O20  1  0.41692448  0.87678231  0.11716632  1
  O  O21  1  0.58307552  0.12321869  0.88283368  1
  O  O22  1  0.08308044  0.87677685  0.38282544  1
  O  O23  1  0.91691956  0.12322415  0.61717456  1
