# generated using pymatgen
data_Ca(BiO2)2
_symmetry_space_group_name_H-M   'P 1'
_cell_length_a   3.52413790
_cell_length_b   10.21457124
_cell_length_c   7.36425383
_cell_angle_alpha   77.12845946
_cell_angle_beta   76.15490848
_cell_angle_gamma   80.06790897
_symmetry_Int_Tables_number   1
_chemical_formula_structural   Ca(BiO2)2
_chemical_formula_sum   'Ca2 Bi4 O8'
_cell_volume   248.92862957
_cell_formula_units_Z   2
loop_
 _symmetry_equiv_pos_site_id
 _symmetry_equiv_pos_as_xyz
  1  'x, y, z'
loop_
 _atom_site_type_symbol
 _atom_site_label
 _atom_site_symmetry_multiplicity
 _atom_site_fract_x
 _atom_site_fract_y
 _atom_site_fract_z
 _atom_site_occupancy
  Ca  Ca0  1  0.29409697  0.21427960  0.20517868  1
  Ca  Ca1  1  0.70819644  0.76383031  0.82788201  1
  Bi  Bi2  1  0.62854714  0.12344574  0.62692387  1
  Bi  Bi3  1  0.12052850  0.55417076  0.21312715  1
  Bi  Bi4  1  0.88199134  0.42399430  0.81993777  1
  Bi  Bi5  1  0.37363509  0.85465069  0.40611004  1
  O  O6  1  0.88473055  0.72461638  0.51397015  1
  O  O7  1  0.43034443  0.28016753  0.86709952  1
  O  O8  1  0.57209961  0.69799528  0.16594825  1
  O  O9  1  0.11748010  0.25342629  0.51908767  1
  O  O10  1  0.20216521  0.90777370  0.69600839  1
  O  O11  1  0.74586521  0.38599749  0.13019601  1
  O  O12  1  0.80011536  0.07031751  0.33705103  1
  O  O13  1  0.25651506  0.59213540  0.90292246  1
