# generated using pymatgen
data_Mg14MnVO16
_symmetry_space_group_name_H-M   'P 1'
_cell_length_a   8.56555016
_cell_length_b   8.58885837
_cell_length_c   4.29166823
_cell_angle_alpha   90.00000000
_cell_angle_beta   90.00000000
_cell_angle_gamma   90.00000000
_symmetry_Int_Tables_number   1
_chemical_formula_structural   Mg14MnVO16
_chemical_formula_sum   'Mg14 Mn1 V1 O16'
_cell_volume   315.73072377
_cell_formula_units_Z   1
loop_
 _symmetry_equiv_pos_site_id
 _symmetry_equiv_pos_as_xyz
  1  'x, y, z'
loop_
 _atom_site_type_symbol
 _atom_site_label
 _atom_site_symmetry_multiplicity
 _atom_site_fract_x
 _atom_site_fract_y
 _atom_site_fract_z
 _atom_site_occupancy
  Mg  Mg0  1  0.50000000  0.00000000  0.00000000  1
  Mg  Mg1  1  0.50000000  0.50000000  0.00000000  1
  Mg  Mg2  1  0.00000000  0.25071652  0.50000000  1
  Mg  Mg3  1  0.00000000  0.74928348  0.50000000  1
  Mg  Mg4  1  0.50000000  0.25007548  0.50000000  1
  Mg  Mg5  1  0.50000000  0.74992452  0.50000000  1
  Mg  Mg6  1  0.25197196  0.00000000  0.50000000  1
  Mg  Mg7  1  0.25093397  0.50000000  0.50000000  1
  Mg  Mg8  1  0.74802804  0.00000000  0.50000000  1
  Mg  Mg9  1  0.74906603  0.50000000  0.50000000  1
  Mg  Mg10  1  0.25138983  0.25021121  0.00000000  1
  Mg  Mg11  1  0.25138983  0.74978879  0.00000000  1
  Mg  Mg12  1  0.74861017  0.25021121  0.00000000  1
  Mg  Mg13  1  0.74861017  0.74978879  0.00000000  1
  Mn  Mn14  1  0.00000000  0.00000000  0.00000000  1
  V  V15  1  0.00000000  0.50000000  0.00000000  1
  O  O16  1  0.25789027  0.00000000  0.00000000  1
  O  O17  1  0.25553654  0.50000000  0.00000000  1
  O  O18  1  0.74210973  0.00000000  0.00000000  1
  O  O19  1  0.74446346  0.50000000  0.00000000  1
  O  O20  1  0.24914877  0.25001532  0.50000000  1
  O  O21  1  0.24914877  0.74998468  0.50000000  1
  O  O22  1  0.75085123  0.25001532  0.50000000  1
  O  O23  1  0.75085123  0.74998468  0.50000000  1
  O  O24  1  0.00000000  0.00000000  0.50000000  1
  O  O25  1  0.00000000  0.50000000  0.50000000  1
  O  O26  1  0.50000000  0.00000000  0.50000000  1
  O  O27  1  0.50000000  0.50000000  0.50000000  1
  O  O28  1  0.00000000  0.25092577  0.00000000  1
  O  O29  1  0.00000000  0.74907423  0.00000000  1
  O  O30  1  0.50000000  0.25067383  0.00000000  1
  O  O31  1  0.50000000  0.74932617  0.00000000  1
