# generated using pymatgen
data_Li7Mn2(CoO4)3
_symmetry_space_group_name_H-M   'P 1'
_cell_length_a   2.92119608
_cell_length_b   14.33501506
_cell_length_c   5.10357498
_cell_angle_alpha   89.00138476
_cell_angle_beta   90.00000000
_cell_angle_gamma   90.00000000
_symmetry_Int_Tables_number   1
_chemical_formula_structural   Li7Mn2(CoO4)3
_chemical_formula_sum   'Li7 Mn2 Co3 O12'
_cell_volume   213.68173206
_cell_formula_units_Z   1
loop_
 _symmetry_equiv_pos_site_id
 _symmetry_equiv_pos_as_xyz
  1  'x, y, z'
loop_
 _atom_site_type_symbol
 _atom_site_label
 _atom_site_symmetry_multiplicity
 _atom_site_fract_x
 _atom_site_fract_y
 _atom_site_fract_z
 _atom_site_occupancy
  Li  Li0  1  0.00000000  0.50744600  0.99499946  1
  Li  Li1  1  0.50000000  0.82631399  0.17701028  1
  Li  Li2  1  0.00000000  0.16800092  0.34432580  1
  Li  Li3  1  0.00000000  0.82265450  0.66239109  1
  Li  Li4  1  0.50000000  0.16530732  0.82231153  1
  Li  Li5  1  0.50000000  0.51038186  0.49855455  1
  Li  Li6  1  0.00000000  0.66770142  0.33400390  1
  Mn  Mn7  1  0.00000000  0.99856311  0.00122430  1
  Mn  Mn8  1  0.50000000  0.33470301  0.16636959  1
  Co  Co9  1  0.50000000  0.99810681  0.50078405  1
  Co  Co10  1  0.00000000  0.33456694  0.66631703  1
  Co  Co11  1  0.50000000  0.66666977  0.83358707  1
  O  O12  1  0.00000000  0.74167397  0.98155599  1
  O  O13  1  0.50000000  0.07376216  0.14532782  1
  O  O14  1  0.00000000  0.41065729  0.30594934  1
  O  O15  1  0.00000000  0.07683009  0.68857422  1
  O  O16  1  0.50000000  0.40776447  0.84948981  1
  O  O17  1  0.50000000  0.74065714  0.54410435  1
  O  O18  1  0.00000000  0.25891797  0.02989034  1
  O  O19  1  0.50000000  0.59445823  0.12178774  1
  O  O20  1  0.00000000  0.92115758  0.31062735  1
  O  O21  1  0.00000000  0.59108845  0.68062005  1
  O  O22  1  0.50000000  0.92529425  0.85753049  1
  O  O23  1  0.50000000  0.25732273  0.48266387  1
