# generated using pymatgen
data_CaMo2(PO5)2
_symmetry_space_group_name_H-M   'P 1'
_cell_length_a   7.19067810
_cell_length_b   7.19067693
_cell_length_c   8.91505188
_cell_angle_alpha   102.90789304
_cell_angle_beta   102.90789152
_cell_angle_gamma   116.49329480
_symmetry_Int_Tables_number   1
_chemical_formula_structural   CaMo2(PO5)2
_chemical_formula_sum   'Ca2 Mo4 P4 O20'
_cell_volume   373.54259092
_cell_formula_units_Z   2
loop_
 _symmetry_equiv_pos_site_id
 _symmetry_equiv_pos_as_xyz
  1  'x, y, z'
loop_
 _atom_site_type_symbol
 _atom_site_label
 _atom_site_symmetry_multiplicity
 _atom_site_fract_x
 _atom_site_fract_y
 _atom_site_fract_z
 _atom_site_occupancy
  Ca  Ca0  1  0.49628340  0.99628340  0.50000000  1
  Ca  Ca1  1  0.24628340  0.24628340  1.00000000  1
  Mo  Mo2  1  0.87193681  0.61902928  0.25141883  1
  Mo  Mo3  1  0.36761045  0.62051699  0.74858117  1
  Mo  Mo4  1  0.87051699  0.11761045  0.24858117  1
  Mo  Mo5  1  0.86902928  0.62193681  0.75141883  1
  P  P6  1  0.03984056  0.03994295  0.58970933  1
  P  P7  1  0.70013123  0.20023462  0.91029067  1
  P  P8  1  0.45023462  0.45013123  0.41029067  1
  P  P9  1  0.28994295  0.78984056  0.08970933  1
  O  O10  1  0.56783376  0.53870008  0.29438606  1
  O  O11  1  0.65866077  0.66243340  0.83170795  1
  O  O12  1  0.31115903  0.60654232  0.97691132  1
  O  O13  1  0.78870008  0.31783376  0.79438606  1
  O  O14  1  0.21858878  0.24432941  0.29179579  1
  O  O15  1  0.42485468  0.63212357  0.52053154  1
  O  O16  1  0.07695282  0.58072545  0.66829205  1
  O  O17  1  0.83072545  0.82695282  0.16829205  1
  O  O18  1  0.91243340  0.40866077  0.33170795  1
  O  O19  1  0.17679299  0.70253362  0.20820421  1
  O  O20  1  0.24431403  0.27344870  0.70561394  1
  O  O21  1  0.49432941  0.96858878  0.79179579  1
  O  O22  1  0.95253362  0.92679299  0.70820421  1
  O  O23  1  0.15432415  0.86159303  0.97946846  1
  O  O24  1  0.11159303  0.90432415  0.47946846  1
  O  O25  1  0.88212357  0.17485468  0.02053154  1
  O  O26  1  0.85654232  0.06115903  0.47691132  1
  O  O27  1  0.62963101  0.33424772  0.02308868  1
  O  O28  1  0.52344870  0.99431403  0.20561394  1
  O  O29  1  0.58424772  0.37963101  0.52308868  1
