# generated using pymatgen
data_TiTe(PO4)3
_symmetry_space_group_name_H-M   'P 1'
_cell_length_a   8.93639875
_cell_length_b   8.93639815
_cell_length_c   8.93639858
_cell_angle_alpha   58.48003598
_cell_angle_beta   58.48003587
_cell_angle_gamma   58.48003361
_symmetry_Int_Tables_number   1
_chemical_formula_structural   TiTe(PO4)3
_chemical_formula_sum   'Ti2 Te2 P6 O24'
_cell_volume   487.08125531
_cell_formula_units_Z   2
loop_
 _symmetry_equiv_pos_site_id
 _symmetry_equiv_pos_as_xyz
  1  'x, y, z'
loop_
 _atom_site_type_symbol
 _atom_site_label
 _atom_site_symmetry_multiplicity
 _atom_site_fract_x
 _atom_site_fract_y
 _atom_site_fract_z
 _atom_site_occupancy
  Ti  Ti0  1  0.13906494  0.13906494  0.13906494  1
  Ti  Ti1  1  0.63906494  0.63906494  0.63906494  1
  Te  Te2  1  0.35638605  0.35638605  0.35638605  1
  Te  Te3  1  0.85638605  0.85638605  0.85638605  1
  P  P4  1  0.03435268  0.45997668  0.75011168  1
  P  P5  1  0.45997668  0.75011168  0.03435268  1
  P  P6  1  0.75011168  0.03435268  0.45997668  1
  P  P7  1  0.25011168  0.95997668  0.53435268  1
  P  P8  1  0.53435268  0.25011168  0.95997668  1
  P  P9  1  0.95997668  0.53435268  0.25011168  1
  O  O10  1  0.12862786  0.52231944  0.27210336  1
  O  O11  1  0.27210336  0.12862786  0.52231944  1
  O  O12  1  0.06125635  0.28510672  0.92339766  1
  O  O13  1  0.52231944  0.27210336  0.12862786  1
  O  O14  1  0.02231944  0.62862786  0.77210336  1
  O  O15  1  0.22056799  0.43967148  0.57931996  1
  O  O16  1  0.28510672  0.92339766  0.06125635  1
  O  O17  1  0.43967148  0.57931996  0.22056799  1
  O  O18  1  0.21280244  0.99972006  0.36695966  1
  O  O19  1  0.57931996  0.22056798  0.43967148  1
  O  O20  1  0.07931996  0.93967148  0.72056799  1
  O  O21  1  0.36695966  0.21280244  0.99972006  1
  O  O22  1  0.62862786  0.77210336  0.02231944  1
  O  O23  1  0.92339766  0.06125635  0.28510672  1
  O  O24  1  0.42339766  0.78510672  0.56125635  1
  O  O25  1  0.77210336  0.02231944  0.62862786  1
  O  O26  1  0.56125635  0.42339766  0.78510672  1
  O  O27  1  0.72056799  0.07931996  0.93967148  1
  O  O28  1  0.78510672  0.56125635  0.42339766  1
  O  O29  1  0.99972006  0.36695966  0.21280244  1
  O  O30  1  0.49972006  0.71280244  0.86695966  1
  O  O31  1  0.93967148  0.72056799  0.07931996  1
  O  O32  1  0.71280244  0.86695966  0.49972006  1
  O  O33  1  0.86695966  0.49972006  0.71280244  1
