# generated using pymatgen
data_Sr(Cu2As)2
_symmetry_space_group_name_H-M   'P 1'
_cell_length_a   8.22732981
_cell_length_b   8.22732981
_cell_length_c   8.22732981
_cell_angle_alpha   29.57040486
_cell_angle_beta   29.57040489
_cell_angle_gamma   29.57040483
_symmetry_Int_Tables_number   1
_chemical_formula_structural   Sr(Cu2As)2
_chemical_formula_sum   'Sr1 Cu4 As2'
_cell_volume   120.05776746
_cell_formula_units_Z   1
loop_
 _symmetry_equiv_pos_site_id
 _symmetry_equiv_pos_as_xyz
  1  'x, y, z'
loop_
 _atom_site_type_symbol
 _atom_site_label
 _atom_site_symmetry_multiplicity
 _atom_site_fract_x
 _atom_site_fract_y
 _atom_site_fract_z
 _atom_site_occupancy
  Cu  Cu0  1  0.44007443  0.44007443  0.44007443  1
  Cu  Cu1  1  0.14448405  0.14448405  0.14448405  1
  Cu  Cu2  1  0.55992557  0.55992557  0.55992557  1
  Cu  Cu3  1  0.85551595  0.85551595  0.85551595  1
  As  As4  1  0.24853492  0.24853492  0.24853492  1
  As  As5  1  0.75146508  0.75146508  0.75146508  1
  Sr  Sr6  1  0.00000000  0.00000000  0.00000000  1
