# generated using pymatgen
data_ZnNi(GeO3)2
_symmetry_space_group_name_H-M   'P 1'
_cell_length_a   5.45729209
_cell_length_b   9.15973101
_cell_length_c   9.70314685
_cell_angle_alpha   90.00000000
_cell_angle_beta   102.28553653
_cell_angle_gamma   90.00000000
_symmetry_Int_Tables_number   1
_chemical_formula_structural   ZnNi(GeO3)2
_chemical_formula_sum   'Zn4 Ni4 Ge8 O24'
_cell_volume   473.92676262
_cell_formula_units_Z   4
loop_
 _symmetry_equiv_pos_site_id
 _symmetry_equiv_pos_as_xyz
  1  'x, y, z'
loop_
 _atom_site_type_symbol
 _atom_site_label
 _atom_site_symmetry_multiplicity
 _atom_site_fract_x
 _atom_site_fract_y
 _atom_site_fract_z
 _atom_site_occupancy
  Zn  Zn0  1  0.45431047  0.50012025  0.24639400  1
  Zn  Zn1  1  0.04568953  0.00012025  0.75360600  1
  Zn  Zn2  1  0.54568953  0.49987975  0.75360600  1
  Zn  Zn3  1  0.95431047  0.99987975  0.24639400  1
  Ni  Ni4  1  0.96160545  0.65566822  0.24667740  1
  Ni  Ni5  1  0.53839455  0.15566822  0.75332260  1
  Ni  Ni6  1  0.03839455  0.34433178  0.75332260  1
  Ni  Ni7  1  0.46160545  0.84433178  0.24667740  1
  Ge  Ge8  1  0.81498075  0.33781012  0.05561670  1
  Ge  Ge9  1  0.68501925  0.83781012  0.94438330  1
  Ge  Ge10  1  0.18501925  0.66218988  0.94438330  1
  Ge  Ge11  1  0.31498075  0.16218988  0.05561670  1
  Ge  Ge12  1  0.23791800  0.34219086  0.45479677  1
  Ge  Ge13  1  0.26208200  0.84219086  0.54520323  1
  Ge  Ge14  1  0.76208200  0.65780914  0.54520323  1
  Ge  Ge15  1  0.73791800  0.15780914  0.45479677  1
  O  O16  1  0.49515739  0.28213149  0.38049365  1
  O  O17  1  0.00484261  0.78213149  0.61950635  1
  O  O18  1  0.50484261  0.71786851  0.61950635  1
  O  O19  1  0.99515739  0.21786851  0.38049365  1
  O  O20  1  0.15105180  0.31664859  0.10927560  1
  O  O21  1  0.34894820  0.81664859  0.89072540  1
  O  O22  1  0.84894820  0.68335141  0.89072540  1
  O  O23  1  0.65105180  0.18335141  0.10927560  1
  O  O24  1  0.70106414  0.98670057  0.37427463  1
  O  O25  1  0.79893586  0.48670057  0.62572537  1
  O  O26  1  0.29893586  0.01329943  0.62572537  1
  O  O27  1  0.20106414  0.51329943  0.37427463  1
  O  O28  1  0.22874187  0.00899892  0.14042794  1
  O  O29  1  0.27125813  0.50899892  0.85957206  1
  O  O30  1  0.77125813  0.99100108  0.85957206  1
  O  O31  1  0.72874187  0.49100108  0.14042794  1
  O  O32  1  0.75506702  0.33405827  0.86843629  1
  O  O33  1  0.74493298  0.83405827  0.13156371  1
  O  O34  1  0.24493298  0.66594173  0.13156371  1
  O  O35  1  0.25506702  0.16594173  0.86843629  1
  O  O36  1  0.31498168  0.33391811  0.64013512  1
  O  O37  1  0.18501832  0.83391811  0.35986488  1
  O  O38  1  0.68501832  0.66608189  0.35986488  1
  O  O39  1  0.81498168  0.16608189  0.64013512  1
