# generated using pymatgen
data_CaV(GeO3)2
_symmetry_space_group_name_H-M   'P 1'
_cell_length_a   5.54186032
_cell_length_b   6.95487044
_cell_length_c   6.95487030
_cell_angle_alpha   83.25710627
_cell_angle_beta   78.73305156
_cell_angle_gamma   78.73304736
_symmetry_Int_Tables_number   1
_chemical_formula_structural   CaV(GeO3)2
_chemical_formula_sum   'Ca2 V2 Ge4 O12'
_cell_volume   256.95169771
_cell_formula_units_Z   2
loop_
 _symmetry_equiv_pos_site_id
 _symmetry_equiv_pos_as_xyz
  1  'x, y, z'
loop_
 _atom_site_type_symbol
 _atom_site_label
 _atom_site_symmetry_multiplicity
 _atom_site_fract_x
 _atom_site_fract_y
 _atom_site_fract_z
 _atom_site_occupancy
  Ca  Ca0  1  0.75000000  0.29937947  0.70062053  1
  Ca  Ca1  1  0.25000000  0.70062053  0.29937947  1
  V  V2  1  0.75000000  0.90940463  0.09059537  1
  V  V3  1  0.25000000  0.09059537  0.90940463  1
  Ge  Ge4  1  0.77513863  0.38368133  0.18979434  1
  Ge  Ge5  1  0.72486137  0.81020566  0.61631867  1
  Ge  Ge6  1  0.22486137  0.61631867  0.81020566  1
  Ge  Ge7  1  0.27513863  0.18979434  0.38368133  1
  O  O8  1  0.52171479  0.32594712  0.38863556  1
  O  O9  1  0.97828521  0.61136444  0.67405288  1
  O  O10  1  0.47828521  0.67405288  0.61136444  1
  O  O11  1  0.02171479  0.38863556  0.32594712  1
  O  O12  1  0.15483252  0.11141857  0.62236581  1
  O  O13  1  0.34516748  0.37763419  0.88858143  1
  O  O14  1  0.84516748  0.88858143  0.37763419  1
  O  O15  1  0.65483252  0.62236581  0.11141857  1
  O  O16  1  0.86056447  0.20430385  0.01937308  1
  O  O17  1  0.63943553  0.98062692  0.79569615  1
  O  O18  1  0.13943553  0.79569615  0.98062692  1
  O  O19  1  0.36056447  0.01937308  0.20430385  1
