# generated using pymatgen
data_Li7Mn2(CoO4)3
_symmetry_space_group_name_H-M   'P 1'
_cell_length_a   2.93897001
_cell_length_b   6.46642696
_cell_length_c   11.93363573
_cell_angle_alpha   76.87635068
_cell_angle_beta   90.00000005
_cell_angle_gamma   103.13512056
_symmetry_Int_Tables_number   1
_chemical_formula_structural   Li7Mn2(CoO4)3
_chemical_formula_sum   'Li7 Mn2 Co3 O12'
_cell_volume   214.77381043
_cell_formula_units_Z   1
loop_
 _symmetry_equiv_pos_site_id
 _symmetry_equiv_pos_as_xyz
  1  'x, y, z'
loop_
 _atom_site_type_symbol
 _atom_site_label
 _atom_site_symmetry_multiplicity
 _atom_site_fract_x
 _atom_site_fract_y
 _atom_site_fract_z
 _atom_site_occupancy
  Li  Li0  1  0.33253430  0.66506960  0.40486368  1
  Li  Li1  1  0.66347374  0.32694648  0.57463431  1
  Li  Li2  1  0.00172812  0.00345624  0.74530292  1
  Li  Li3  1  0.33020188  0.66040475  0.92992963  1
  Li  Li4  1  0.67412152  0.34824203  0.09054762  1
  Li  Li5  1  0.00024806  0.00049612  0.25486837  1
  Li  Li6  1  0.33102501  0.66205102  0.16630655  1
  Mn  Mn7  1  0.99408380  0.98816759  0.00504895  1
  Mn  Mn8  1  0.33338018  0.66676135  0.66667134  1
  Co  Co9  1  0.67408479  0.34816858  0.32718858  1
  Co  Co10  1  0.00197289  0.00394579  0.49561338  1
  Co  Co11  1  0.66483677  0.32967254  0.83664257  1
  O  O12  1  0.48773136  0.97546172  0.62934574  1
  O  O13  1  0.82896280  0.65792561  0.77941820  1
  O  O14  1  0.16150248  0.32300597  0.95061702  1
  O  O15  1  0.50217879  0.00435657  0.10735345  1
  O  O16  1  0.81901116  0.63802231  0.29657230  1
  O  O17  1  0.16755003  0.33510105  0.45039280  1
  O  O18  1  0.16573421  0.33146841  0.21796214  1
  O  O19  1  0.51276122  0.02552345  0.37254538  1
  O  O20  1  0.83012095  0.66024089  0.56053806  1
  O  O21  1  0.17233989  0.34467979  0.71620210  1
  O  O22  1  0.50448374  0.00896848  0.88662813  1
  O  O23  1  0.84593233  0.69186366  0.03480680  1
