# generated using pymatgen
data_Nb2Zn2FeO8
_symmetry_space_group_name_H-M   'P 1'
_cell_length_a   5.30215461
_cell_length_b   5.97651488
_cell_length_c   10.21193883
_cell_angle_alpha   107.10492764
_cell_angle_beta   89.29083613
_cell_angle_gamma   89.95936536
_symmetry_Int_Tables_number   1
_chemical_formula_structural   Nb2Zn2FeO8
_chemical_formula_sum   'Nb4 Zn4 Fe2 O16'
_cell_volume   309.25960177
_cell_formula_units_Z   2
loop_
 _symmetry_equiv_pos_site_id
 _symmetry_equiv_pos_as_xyz
  1  'x, y, z'
loop_
 _atom_site_type_symbol
 _atom_site_label
 _atom_site_symmetry_multiplicity
 _atom_site_fract_x
 _atom_site_fract_y
 _atom_site_fract_z
 _atom_site_occupancy
  Nb  Nb0  1  0.73423273  0.27643580  0.23088576  1
  Nb  Nb1  1  0.76234445  0.04723440  0.77007197  1
  Nb  Nb2  1  0.26287342  0.72404808  0.76867533  1
  Nb  Nb3  1  0.23406454  0.95404860  0.23174385  1
  Zn  Zn4  1  0.76536801  0.43283464  0.56071926  1
  Zn  Zn5  1  0.73218910  0.87222062  0.44109068  1
  Zn  Zn6  1  0.23155674  0.56595631  0.43839929  1
  Zn  Zn7  1  0.26607744  0.12788022  0.56096517  1
  Fe  Fe8  1  0.74668483  0.65185213  0.00084428  1
  Fe  Fe9  1  0.24786297  0.35119747  0.00056127  1
  O  O10  1  0.07405088  0.18607676  0.14108511  1
  O  O11  1  0.42350847  0.04516674  0.85982737  1
  O  O12  1  0.92434395  0.81754131  0.85906308  1
  O  O13  1  0.57442741  0.95491336  0.14020201  1
  O  O14  1  0.59156954  0.43331667  0.11860008  1
  O  O15  1  0.90008060  0.32019639  0.88353116  1
  O  O16  1  0.40225409  0.56611753  0.88251175  1
  O  O17  1  0.09276453  0.68588640  0.11733000  1
  O  O18  1  0.43480966  0.28243998  0.35855413  1
  O  O19  1  0.06200707  0.92729979  0.64188973  1
  O  O20  1  0.36418908  0.83977323  0.38796349  1
  O  O21  1  0.13368268  0.45338347  0.61176010  1
  O  O22  1  0.63359059  0.15957008  0.61212137  1
  O  O23  1  0.86319832  0.54649681  0.38851194  1
  O  O24  1  0.93458405  0.07290130  0.35834209  1
  O  O25  1  0.56260786  0.71704393  0.64196872  1
