# generated using pymatgen
data_ZnFe(GeO3)2
_symmetry_space_group_name_H-M   'P 1'
_cell_length_a   5.50823074
_cell_length_b   9.24957361
_cell_length_c   9.84443571
_cell_angle_alpha   90.00000000
_cell_angle_beta   102.92512458
_cell_angle_gamma   90.00000000
_symmetry_Int_Tables_number   1
_chemical_formula_structural   ZnFe(GeO3)2
_chemical_formula_sum   'Zn4 Fe4 Ge8 O24'
_cell_volume   488.85406977
_cell_formula_units_Z   4
loop_
 _symmetry_equiv_pos_site_id
 _symmetry_equiv_pos_as_xyz
  1  'x, y, z'
loop_
 _atom_site_type_symbol
 _atom_site_label
 _atom_site_symmetry_multiplicity
 _atom_site_fract_x
 _atom_site_fract_y
 _atom_site_fract_z
 _atom_site_occupancy
  Zn  Zn0  1  0.45146487  0.49530864  0.24738361  1
  Zn  Zn1  1  0.04853513  0.99530864  0.75261639  1
  Zn  Zn2  1  0.54853513  0.50469136  0.75261639  1
  Zn  Zn3  1  0.95146487  0.00469136  0.24738361  1
  Fe  Fe4  1  0.95892685  0.65544248  0.24526797  1
  Fe  Fe5  1  0.54107315  0.15544248  0.75473203  1
  Fe  Fe6  1  0.04107315  0.34455752  0.75473203  1
  Fe  Fe7  1  0.45892685  0.84455752  0.24526797  1
  Ge  Ge8  1  0.81262878  0.33709538  0.05653703  1
  Ge  Ge9  1  0.68737122  0.83709538  0.94346297  1
  Ge  Ge10  1  0.18737122  0.66290462  0.94346297  1
  Ge  Ge11  1  0.31262878  0.16290462  0.05653703  1
  Ge  Ge12  1  0.23547102  0.34172980  0.45514781  1
  Ge  Ge13  1  0.26452898  0.84172980  0.54485219  1
  Ge  Ge14  1  0.76452898  0.65827020  0.54485219  1
  Ge  Ge15  1  0.73547102  0.15827020  0.45514781  1
  O  O16  1  0.48984208  0.28037453  0.38196755  1
  O  O17  1  0.01015792  0.78037453  0.61803245  1
  O  O18  1  0.51015792  0.71962547  0.61803245  1
  O  O19  1  0.98984208  0.21962547  0.38196755  1
  O  O20  1  0.14909433  0.31707424  0.10885040  1
  O  O21  1  0.35090567  0.81707424  0.89115060  1
  O  O22  1  0.85090567  0.68292576  0.89115060  1
  O  O23  1  0.64909433  0.18292576  0.10885040  1
  O  O24  1  0.70042023  0.98841049  0.37517166  1
  O  O25  1  0.79957977  0.48841049  0.62482834  1
  O  O26  1  0.29957977  0.01158951  0.62482834  1
  O  O27  1  0.20042023  0.51158951  0.37517166  1
  O  O28  1  0.22218522  0.01286977  0.14036966  1
  O  O29  1  0.27781478  0.51286977  0.85963034  1
  O  O30  1  0.77781478  0.98713023  0.85963034  1
  O  O31  1  0.72218522  0.48713023  0.14036966  1
  O  O32  1  0.74993190  0.33673471  0.87148376  1
  O  O33  1  0.75006810  0.83673471  0.12851624  1
  O  O34  1  0.25006810  0.66326529  0.12851624  1
  O  O35  1  0.24993190  0.16326529  0.87148376  1
  O  O36  1  0.31995790  0.33842684  0.63801754  1
  O  O37  1  0.18004210  0.83842684  0.36198246  1
  O  O38  1  0.68004210  0.66157316  0.36198246  1
  O  O39  1  0.81995790  0.16157316  0.63801754  1
