# generated using pymatgen
data_Mg4Ni5(TeO6)3
_symmetry_space_group_name_H-M   'P 1'
_cell_length_a   8.66035661
_cell_length_b   8.66035681
_cell_length_c   10.31678378
_cell_angle_alpha   85.19836477
_cell_angle_beta   85.19836451
_cell_angle_gamma   61.74685337
_symmetry_Int_Tables_number   1
_chemical_formula_structural   Mg4Ni5(TeO6)3
_chemical_formula_sum   'Mg8 Ni10 Te6 O36'
_cell_volume   678.34386780
_cell_formula_units_Z   2
loop_
 _symmetry_equiv_pos_site_id
 _symmetry_equiv_pos_as_xyz
  1  'x, y, z'
loop_
 _atom_site_type_symbol
 _atom_site_label
 _atom_site_symmetry_multiplicity
 _atom_site_fract_x
 _atom_site_fract_y
 _atom_site_fract_z
 _atom_site_occupancy
  Mg  Mg0  1  0.86337569  0.53696900  0.32754321  1
  Mg  Mg1  1  0.48034213  0.55714493  0.21240784  1
  Mg  Mg2  1  0.46303100  0.13662431  0.67245679  1
  Mg  Mg3  1  0.44285507  0.51965787  0.78759216  1
  Mg  Mg4  1  0.16539768  0.87207329  0.71239305  1
  Mg  Mg5  1  0.14537783  0.25503966  0.82752553  1
  Mg  Mg6  1  0.74496034  0.85462217  0.17247447  1
  Mg  Mg7  1  0.12792671  0.83460232  0.28760695  1
  Ni  Ni8  1  0.79226573  0.50376666  0.98003309  1
  Ni  Ni9  1  0.11208552  0.18394168  0.48000696  1
  Ni  Ni10  1  0.32723386  0.33912668  0.30005916  1
  Ni  Ni11  1  0.94727062  0.71901775  0.80009873  1
  Ni  Ni12  1  0.66087332  0.67276614  0.69994084  1
  Ni  Ni13  1  0.97969365  0.02030635  0.00000000  1
  Ni  Ni14  1  0.62857711  0.37142289  0.50000000  1
  Ni  Ni15  1  0.28098225  0.05273038  0.19990127  1
  Ni  Ni16  1  0.81605832  0.88791448  0.51999304  1
  Ni  Ni17  1  0.49623334  0.20773427  0.01996691  1
  Te  Te18  1  0.46019872  0.86171684  0.95125361  1
  Te  Te19  1  0.80415975  0.19581925  0.24999239  1
  Te  Te20  1  0.80418075  0.19584025  0.75000761  1
  Te  Te21  1  0.46998747  0.85185448  0.45122993  1
  Te  Te22  1  0.14814552  0.53001253  0.54877007  1
  Te  Te23  1  0.13828316  0.53980028  0.04874639  1
  O  O24  1  0.39566659  0.08707054  0.85596393  1
  O  O25  1  0.71631360  0.43580136  0.81133333  1
  O  O26  1  0.56223578  0.62633280  0.54709738  1
  O  O27  1  0.72887184  0.12679825  0.41596588  1
  O  O28  1  0.56419864  0.28368640  0.18866667  1
  O  O29  1  0.87320175  0.27112816  0.58403412  1
  O  O30  1  0.37961734  0.78908252  0.30730370  1
  O  O31  1  0.03979358  0.10094387  0.81592724  1
  O  O32  1  0.56850736  0.29078646  0.68405614  1
  O  O33  1  0.08250146  0.42422072  0.41303588  1
  O  O34  1  0.55011569  0.64223375  0.05160712  1
  O  O35  1  0.52580700  0.96747660  0.08700037  1
  O  O36  1  0.89192243  0.95592939  0.68870005  1
  O  O37  1  0.69936297  0.75303530  0.86825748  1
  O  O38  1  0.35776625  0.44988431  0.94839288  1
  O  O39  1  0.22866376  0.60260020  0.19270271  1
  O  O40  1  0.05818166  0.74946583  0.44841005  1
  O  O41  1  0.24696470  0.30063703  0.13174252  1
  O  O42  1  0.37366720  0.43776422  0.45290262  1
  O  O43  1  0.25053417  0.94181834  0.55158995  1
  O  O44  1  0.69540470  0.78724216  0.35596116  1
  O  O45  1  0.90892441  0.63865547  0.63176048  1
  O  O46  1  0.89905613  0.96020642  0.18407276  1
  O  O47  1  0.39739980  0.77133624  0.80729729  1
  O  O48  1  0.04596677  0.76540531  0.95293605  1
  O  O49  1  0.73509778  0.12058373  0.91594484  1
  O  O50  1  0.03252340  0.47419300  0.91299963  1
  O  O51  1  0.21091748  0.62038266  0.69269630  1
  O  O52  1  0.04407061  0.10807757  0.31129995  1
  O  O53  1  0.36134453  0.09107559  0.36823952  1
  O  O54  1  0.21275784  0.30459530  0.64403884  1
  O  O55  1  0.87941627  0.26490222  0.08405516  1
  O  O56  1  0.70921354  0.43149264  0.31594386  1
  O  O57  1  0.57577928  0.91749854  0.58696412  1
  O  O58  1  0.23459469  0.95403323  0.04706395  1
  O  O59  1  0.91292946  0.60433341  0.14403607  1
