# generated using pymatgen
data_Sr7CaFe4(CoO5)4
_symmetry_space_group_name_H-M   'P 1'
_cell_length_a   10.86769974
_cell_length_b   11.30600818
_cell_length_c   17.84042995
_cell_angle_alpha   108.32236609
_cell_angle_beta   107.69794329
_cell_angle_gamma   90.30582611
_symmetry_Int_Tables_number   1
_chemical_formula_structural   Sr7CaFe4(CoO5)4
_chemical_formula_sum   'Sr28 Ca4 Fe16 Co16 O80'
_cell_volume   1970.06464412
_cell_formula_units_Z   4
loop_
 _symmetry_equiv_pos_site_id
 _symmetry_equiv_pos_as_xyz
  1  'x, y, z'
loop_
 _atom_site_type_symbol
 _atom_site_label
 _atom_site_symmetry_multiplicity
 _atom_site_fract_x
 _atom_site_fract_y
 _atom_site_fract_z
 _atom_site_occupancy
  Sr  Sr0  1  0.30616482  0.06344038  0.61038123  1
  Sr  Sr1  1  0.30926084  0.56522170  0.60982605  1
  Sr  Sr2  1  0.80866354  0.06452776  0.61013423  1
  Sr  Sr3  1  0.80629400  0.56359979  0.10843267  1
  Sr  Sr4  1  0.80686297  0.56376105  0.61055216  1
  Sr  Sr5  1  0.19810721  0.43413020  0.38849933  1
  Sr  Sr6  1  0.19747404  0.43787221  0.89335147  1
  Sr  Sr7  1  0.19538008  0.93542343  0.38744415  1
  Sr  Sr8  1  0.20108363  0.93618944  0.89294616  1
  Sr  Sr9  1  0.69597313  0.43443111  0.38941020  1
  Sr  Sr10  1  0.69957426  0.43800732  0.89381308  1
  Sr  Sr11  1  0.69679956  0.93573531  0.38847950  1
  Sr  Sr12  1  0.69982213  0.93882363  0.89312988  1
  Sr  Sr13  1  0.05564674  0.29571181  0.10984461  1
  Sr  Sr14  1  0.05541522  0.29498886  0.60999615  1
  Sr  Sr15  1  0.05951395  0.79706577  0.60973236  1
  Sr  Sr16  1  0.55706701  0.29519088  0.10883561  1
  Sr  Sr17  1  0.55893225  0.29812070  0.60963228  1
  Sr  Sr18  1  0.55844891  0.79629762  0.10889589  1
  Sr  Sr19  1  0.55577574  0.79510642  0.60973624  1
  Sr  Sr20  1  0.44693743  0.20261909  0.38589407  1
  Sr  Sr21  1  0.44941781  0.20636230  0.89365856  1
  Sr  Sr22  1  0.44412916  0.70193721  0.38688098  1
  Sr  Sr23  1  0.45024040  0.70749656  0.89303499  1
  Sr  Sr24  1  0.94337892  0.19945910  0.38702793  1
  Sr  Sr25  1  0.94846095  0.20500004  0.89349986  1
  Sr  Sr26  1  0.94774713  0.70481379  0.38807980  1
  Sr  Sr27  1  0.95031141  0.70391886  0.89280218  1
  Ca  Ca28  1  0.30675899  0.06631499  0.10512320  1
  Ca  Ca29  1  0.30172122  0.56529573  0.10575210  1
  Ca  Ca30  1  0.79886535  0.06912678  0.10546847  1
  Ca  Ca31  1  0.05498360  0.78425262  0.10627163  1
  Fe  Fe32  1  0.10367061  0.08540454  0.24451887  1
  Fe  Fe33  1  0.10853117  0.09165392  0.75152525  1
  Fe  Fe34  1  0.10973670  0.59229774  0.24865917  1
  Fe  Fe35  1  0.10861806  0.59126899  0.75013111  1
  Fe  Fe36  1  0.60402891  0.08865381  0.24607292  1
  Fe  Fe37  1  0.60838169  0.09076923  0.74969302  1
  Fe  Fe38  1  0.60389209  0.59032257  0.24761309  1
  Fe  Fe39  1  0.60945838  0.59228724  0.75166969  1
  Fe  Fe40  1  0.35657387  0.40761277  0.24690738  1
  Fe  Fe41  1  0.35768948  0.40954883  0.75057904  1
  Fe  Fe42  1  0.35064432  0.90695614  0.24528966  1
  Fe  Fe43  1  0.35890420  0.90972964  0.75124450  1
  Fe  Fe44  1  0.85797888  0.40689814  0.25037832  1
  Fe  Fe45  1  0.85861996  0.40901840  0.75141147  1
  Fe  Fe46  1  0.85761770  0.91107268  0.24636605  1
  Fe  Fe47  1  0.85867073  0.90808405  0.75069563  1
  Co  Co48  1  0.00927850  0.00527347  0.00991811  1
  Co  Co49  1  0.00457988  0.00001980  0.49944300  1
  Co  Co50  1  0.00727947  0.50128025  0.00402489  1
  Co  Co51  1  0.00449644  0.49917799  0.49897450  1
  Co  Co52  1  0.50873934  0.00315874  0.00438436  1
  Co  Co53  1  0.50426548  0.00121434  0.50019630  1
  Co  Co54  1  0.50610713  0.50235196  0.00325260  1
  Co  Co55  1  0.50446534  0.49987001  0.49897068  1
  Co  Co56  1  0.25768051  0.25284895  0.00432430  1
  Co  Co57  1  0.25486671  0.24933515  0.50030636  1
  Co  Co58  1  0.25907066  0.75278108  0.00765795  1
  Co  Co59  1  0.25402935  0.74943879  0.49838115  1
  Co  Co60  1  0.75604359  0.25122020  0.00261342  1
  Co  Co61  1  0.75374223  0.24942696  0.49945808  1
  Co  Co62  1  0.75906821  0.75304743  0.00458290  1
  Co  Co63  1  0.75428092  0.74954083  0.49970743  1
  O  O64  1  0.11770320  0.11415469  0.49194982  1
  O  O65  1  0.12417693  0.11383355  0.99597438  1
  O  O66  1  0.11900870  0.61467940  0.49264179  1
  O  O67  1  0.12604275  0.62262726  0.99607553  1
  O  O68  1  0.61830453  0.11541012  0.49254646  1
  O  O69  1  0.62768007  0.12328078  0.99422210  1
  O  O70  1  0.61804867  0.61445607  0.49222650  1
  O  O71  1  0.62373936  0.62313442  0.99303375  1
  O  O72  1  0.13691443  0.38022179  0.01327505  1
  O  O73  1  0.13918454  0.36715310  0.50561225  1
  O  O74  1  0.14431023  0.87164924  0.01532112  1
  O  O75  1  0.13605738  0.87335598  0.50653257  1
  O  O76  1  0.63366518  0.37706426  0.00926936  1
  O  O77  1  0.63591249  0.37347378  0.50690520  1
  O  O78  1  0.64095623  0.88303105  0.01190018  1
  O  O79  1  0.63872914  0.86806169  0.50568202  1
  O  O80  1  0.36764842  0.12919030  0.49180396  1
  O  O81  1  0.37477662  0.12166332  0.99542926  1
  O  O82  1  0.37059895  0.62390871  0.49112208  1
  O  O83  1  0.37036067  0.62915381  0.99579824  1
  O  O84  1  0.86985641  0.12337314  0.49130973  1
  O  O85  1  0.87383957  0.12060574  0.99518894  1
  O  O86  1  0.86781293  0.62906145  0.49204281  1
  O  O87  1  0.87930356  0.62458234  0.99583666  1
  O  O88  1  0.38262497  0.38946023  0.01331200  1
  O  O89  1  0.38849962  0.38660475  0.50521046  1
  O  O90  1  0.38594699  0.88697624  0.01427507  1
  O  O91  1  0.38820267  0.88667661  0.50491162  1
  O  O92  1  0.88412692  0.38079610  0.01033916  1
  O  O93  1  0.88805977  0.38560075  0.50545340  1
  O  O94  1  0.89544568  0.88779874  0.01412393  1
  O  O95  1  0.88891573  0.88668274  0.50566239  1
  O  O96  1  0.09305286  0.09458213  0.13911738  1
  O  O97  1  0.08272288  0.09413378  0.64181711  1
  O  O98  1  0.08940887  0.60211138  0.14255618  1
  O  O99  1  0.08178136  0.59245006  0.63981995  1
  O  O100  1  0.59199655  0.09469978  0.14061887  1
  O  O101  1  0.58057885  0.09220155  0.63903665  1
  O  O102  1  0.58514578  0.59677820  0.14121867  1
  O  O103  1  0.58317882  0.59461935  0.64207174  1
  O  O104  1  0.44121824  0.40660921  0.35640511  1
  O  O105  1  0.44004842  0.40588678  0.85857588  1
  O  O106  1  0.43700342  0.90888473  0.35581805  1
  O  O107  1  0.44172907  0.90540917  0.85914478  1
  O  O108  1  0.94183087  0.40571212  0.36036884  1
  O  O109  1  0.94275873  0.40504283  0.85912105  1
  O  O110  1  0.94118199  0.90686997  0.35531166  1
  O  O111  1  0.94298126  0.90267634  0.85815653  1
  O  O112  1  0.33388932  0.28529148  0.14273502  1
  O  O113  1  0.33174019  0.29741710  0.64031048  1
  O  O114  1  0.33374583  0.78443088  0.14160925  1
  O  O115  1  0.33367101  0.79781992  0.64252179  1
  O  O116  1  0.83567246  0.28871821  0.14525940  1
  O  O117  1  0.83307469  0.29687455  0.64252479  1
  O  O118  1  0.84015446  0.79460672  0.14128433  1
  O  O119  1  0.83243188  0.79713619  0.64037507  1
  O  O120  1  0.18894188  0.19691762  0.35420733  1
  O  O121  1  0.19135621  0.20367759  0.85979945  1
  O  O122  1  0.19114072  0.70420930  0.35746046  1
  O  O123  1  0.19205248  0.70356883  0.85820660  1
  O  O124  1  0.68495999  0.20109768  0.35507841  1
  O  O125  1  0.69263189  0.20304740  0.85681326  1
  O  O126  1  0.68688909  0.70219361  0.35731653  1
  O  O127  1  0.69405621  0.70494617  0.85954519  1
  O  O128  1  0.42205297  0.06037372  0.23974938  1
  O  O129  1  0.43157323  0.06588392  0.75094209  1
  O  O130  1  0.42266662  0.56256744  0.24118713  1
  O  O131  1  0.43162065  0.56563391  0.75085291  1
  O  O132  1  0.92317344  0.06666859  0.24089828  1
  O  O133  1  0.93127972  0.06473989  0.75095467  1
  O  O134  1  0.93337859  0.56079668  0.24862007  1
  O  O135  1  0.93157172  0.56486674  0.75053846  1
  O  O136  1  0.18154675  0.43669882  0.24917420  1
  O  O137  1  0.18054321  0.43540894  0.75024485  1
  O  O138  1  0.16991529  0.92568663  0.24127624  1
  O  O139  1  0.18154809  0.93598770  0.75085297  1
  O  O140  1  0.68139831  0.43721043  0.24985430  1
  O  O141  1  0.68148122  0.43631277  0.75105735  1
  O  O142  1  0.68136806  0.93584135  0.24914905  1
  O  O143  1  0.68117972  0.93517261  0.74993622  1
