# generated using pymatgen
data_Ce2Fe(SeO)2
_symmetry_space_group_name_H-M   'P 1'
_cell_length_a   3.91998442
_cell_length_b   6.04669601
_cell_length_c   6.69340094
_cell_angle_alpha   68.15480571
_cell_angle_beta   72.97286957
_cell_angle_gamma   71.08636227
_symmetry_Int_Tables_number   1
_chemical_formula_structural   Ce2Fe(SeO)2
_chemical_formula_sum   'Ce2 Fe1 Se2 O2'
_cell_volume   136.60452508
_cell_formula_units_Z   1
loop_
 _symmetry_equiv_pos_site_id
 _symmetry_equiv_pos_as_xyz
  1  'x, y, z'
loop_
 _atom_site_type_symbol
 _atom_site_label
 _atom_site_symmetry_multiplicity
 _atom_site_fract_x
 _atom_site_fract_y
 _atom_site_fract_z
 _atom_site_occupancy
  Ce  Ce0  1  0.30885904  0.14046908  0.24181284  1
  Ce  Ce1  1  0.69114096  0.85953092  0.75818716  1
  Fe  Fe2  1  0.50000000  0.50000000  0.50000000  1
  Se  Se3  1  0.06020146  0.70340054  0.17619654  1
  Se  Se4  1  0.93979854  0.29659946  0.82380346  1
  O  O5  1  0.30240865  0.81436204  0.58082066  1
  O  O6  1  0.69759135  0.18563796  0.41917934  1
