# generated using pymatgen
data_CaFeO2
_symmetry_space_group_name_H-M   'P 1'
_cell_length_a   3.25646301
_cell_length_b   8.66108843
_cell_length_c   7.91428158
_cell_angle_alpha   106.32266064
_cell_angle_beta   89.29883753
_cell_angle_gamma   67.81605010
_symmetry_Int_Tables_number   1
_chemical_formula_structural   CaFeO2
_chemical_formula_sum   'Ca4 Fe4 O8'
_cell_volume   196.59684529
_cell_formula_units_Z   4
loop_
 _symmetry_equiv_pos_site_id
 _symmetry_equiv_pos_as_xyz
  1  'x, y, z'
loop_
 _atom_site_type_symbol
 _atom_site_label
 _atom_site_symmetry_multiplicity
 _atom_site_fract_x
 _atom_site_fract_y
 _atom_site_fract_z
 _atom_site_occupancy
  Ca  Ca0  1  0.18038664  0.05918214  0.21677580  1
  Ca  Ca1  1  0.81544213  0.92076291  0.81141605  1
  Ca  Ca2  1  0.05012848  0.67651798  0.07890676  1
  Ca  Ca3  1  0.94591858  0.30339574  0.94927598  1
  Fe  Fe4  1  0.56037994  0.18495924  0.58051579  1
  Fe  Fe5  1  0.30792295  0.43084601  0.33329549  1
  Fe  Fe6  1  0.68821297  0.54897911  0.69481268  1
  Fe  Fe7  1  0.43574158  0.79493116  0.44770398  1
  O  O8  1  0.01477147  0.66925412  0.56675100  1
  O  O9  1  0.32859845  0.43603356  0.81142067  1
  O  O10  1  0.66745230  0.54394742  0.21678428  1
  O  O11  1  -0.01846974  0.31069262  0.46149064  1
  O  O12  1  0.16270118  0.06288167  0.68334761  1
  O  O13  1  0.56724003  0.17792506  0.07963259  1
  O  O14  1  0.83319543  0.91703319  0.34487112  1
  O  O15  1  0.42865562  0.80199107  0.94861357  1
