# generated using pymatgen
data_BaCaVF7
_symmetry_space_group_name_H-M   'P 1'
_cell_length_a   5.77525928
_cell_length_b   10.01309106
_cell_length_c   10.68065389
_cell_angle_alpha   90.00000000
_cell_angle_beta   90.00000000
_cell_angle_gamma   91.94763451
_symmetry_Int_Tables_number   1
_chemical_formula_structural   BaCaVF7
_chemical_formula_sum   'Ba4 Ca4 V4 F28'
_cell_volume   617.28614957
_cell_formula_units_Z   4
loop_
 _symmetry_equiv_pos_site_id
 _symmetry_equiv_pos_as_xyz
  1  'x, y, z'
loop_
 _atom_site_type_symbol
 _atom_site_label
 _atom_site_symmetry_multiplicity
 _atom_site_fract_x
 _atom_site_fract_y
 _atom_site_fract_z
 _atom_site_occupancy
  Ba  Ba0  1  0.26531754  0.50706406  0.33424680  1
  Ba  Ba1  1  0.73468246  0.99293594  0.83424680  1
  Ba  Ba2  1  0.73468246  0.49293594  0.66575320  1
  Ba  Ba3  1  0.26531754  0.00706406  0.16575320  1
  Ca  Ca4  1  0.70979795  0.82649169  0.41152022  1
  Ca  Ca5  1  0.29020205  0.67350831  0.91152022  1
  Ca  Ca6  1  0.70979795  0.32649169  0.08847978  1
  Ca  Ca7  1  0.29020205  0.17350831  0.58847978  1
  V  V8  1  0.19221661  0.80595473  0.62411608  1
  V  V9  1  0.80778339  0.19404527  0.37588392  1
  V  V10  1  0.19221661  0.30595473  0.87588392  1
  V  V11  1  0.80778339  0.69404527  0.12411608  1
  F  F12  1  0.09761382  0.10443327  0.41395337  1
  F  F13  1  0.34558839  0.37073533  0.03344318  1
  F  F14  1  0.46714476  0.73579688  0.70998433  1
  F  F15  1  0.53285524  0.26420312  0.29001567  1
  F  F16  1  0.91893678  0.35601914  0.46172860  1
  F  F17  1  0.28949471  0.47863677  0.79579099  1
  F  F18  1  0.00971559  0.74044458  0.77613939  1
  F  F19  1  0.08106322  0.14398086  0.96172860  1
  F  F20  1  0.34558839  0.87073533  0.46655682  1
  F  F21  1  0.53285524  0.76420312  0.20998433  1
  F  F22  1  0.09761382  0.60443327  0.08604663  1
  F  F23  1  0.90238618  0.89556673  0.58604663  1
  F  F24  1  0.99028441  0.75955542  0.27613939  1
  F  F25  1  0.39964361  0.87790354  0.96255238  1
  F  F26  1  0.08106322  0.64398086  0.53827140  1
  F  F27  1  0.91893678  0.85601914  0.03827140  1
  F  F28  1  0.99028441  0.25955542  0.22386061  1
  F  F29  1  0.90238618  0.39556673  0.91395337  1
  F  F30  1  0.60035639  0.62209646  0.46255238  1
  F  F31  1  0.65441161  0.62926467  0.96655682  1
  F  F32  1  0.60035639  0.12209646  0.03744762  1
  F  F33  1  0.00971559  0.24044458  0.72386061  1
  F  F34  1  0.39964361  0.37790354  0.53744762  1
  F  F35  1  0.71050529  0.02136323  0.29579099  1
  F  F36  1  0.71050529  0.52136323  0.20420901  1
  F  F37  1  0.28949471  0.97863677  0.70420901  1
  F  F38  1  0.65441161  0.12926467  0.53344318  1
  F  F39  1  0.46714476  0.23579688  0.79001567  1
