# generated using pymatgen
data_Li7Mn2(CoO4)3
_symmetry_space_group_name_H-M   'P 1'
_cell_length_a   2.86106260
_cell_length_b   14.56820191
_cell_length_c   5.23047618
_cell_angle_alpha   87.15247040
_cell_angle_beta   90.00000000
_cell_angle_gamma   90.00000000
_symmetry_Int_Tables_number   1
_chemical_formula_structural   Li7Mn2(CoO4)3
_chemical_formula_sum   'Li7 Mn2 Co3 O12'
_cell_volume   217.73987695
_cell_formula_units_Z   1
loop_
 _symmetry_equiv_pos_site_id
 _symmetry_equiv_pos_as_xyz
  1  'x, y, z'
loop_
 _atom_site_type_symbol
 _atom_site_label
 _atom_site_symmetry_multiplicity
 _atom_site_fract_x
 _atom_site_fract_y
 _atom_site_fract_z
 _atom_site_occupancy
  Li  Li0  1  0.50000000  0.00592815  0.50254387  1
  Li  Li1  1  -0.00000000  0.17351491  0.67465327  1
  Li  Li2  1  0.50000000  0.33792215  0.84100979  1
  Li  Li3  1  -0.00000000  0.50249581  0.00157622  1
  Li  Li4  1  -0.00000000  0.82655218  0.33368609  1
  Li  Li5  1  0.50000000  0.65519749  0.14622728  1
  Li  Li6  1  0.50000000  0.49851000  0.49904122  1
  Mn  Mn7  1  -0.00000000  0.00292987  -0.00251649  1
  Mn  Mn8  1  0.50000000  0.83049789  0.82220811  1
  Co  Co9  1  0.50000000  0.17062982  0.18344429  1
  Co  Co10  1  -0.00000000  0.34356315  0.36830306  1
  Co  Co11  1  -0.00000000  0.65065468  0.63072256  1
  O  O12  1  0.50000000  0.91856103  0.12300450  1
  O  O13  1  -0.00000000  0.09215491  0.32600733  1
  O  O14  1  0.50000000  0.25833640  0.48616603  1
  O  O15  1  -0.00000000  0.40973466  0.64810067  1
  O  O16  1  -0.00000000  0.76255489  0.98660100  1
  O  O17  1  0.50000000  0.58848446  0.82459600  1
  O  O18  1  0.50000000  0.07677988  0.84287672  1
  O  O19  1  -0.00000000  0.24101175  0.03124520  1
  O  O20  1  0.50000000  0.40526841  0.18168892  1
  O  O21  1  -0.00000000  0.59092906  0.34255283  1
  O  O22  1  0.00000000  0.90576025  0.66485672  1
  O  O23  1  0.50000000  0.75202817  0.54140483  1
