# generated using pymatgen
data_Sr6Ca2Fe3(CoO4)5
_symmetry_space_group_name_H-M   'P 1'
_cell_length_a   10.84031473
_cell_length_b   11.26044470
_cell_length_c   17.75598285
_cell_angle_alpha   108.52354673
_cell_angle_beta   107.91272584
_cell_angle_gamma   89.69943070
_symmetry_Int_Tables_number   1
_chemical_formula_structural   Sr6Ca2Fe3(CoO4)5
_chemical_formula_sum   'Sr24 Ca8 Fe12 Co20 O80'
_cell_volume   1945.21141030
_cell_formula_units_Z   4
loop_
 _symmetry_equiv_pos_site_id
 _symmetry_equiv_pos_as_xyz
  1  'x, y, z'
loop_
 _atom_site_type_symbol
 _atom_site_label
 _atom_site_symmetry_multiplicity
 _atom_site_fract_x
 _atom_site_fract_y
 _atom_site_fract_z
 _atom_site_occupancy
  Sr  Sr0  1  0.30896308  0.06310976  0.61016460  1
  Sr  Sr1  1  0.30908982  0.56399610  0.61039172  1
  Sr  Sr2  1  0.81050016  0.06748205  0.61095256  1
  Sr  Sr3  1  0.80449560  0.56207314  0.61153343  1
  Sr  Sr4  1  0.19099654  0.43696224  0.38536149  1
  Sr  Sr5  1  0.20145290  0.43957597  0.89379789  1
  Sr  Sr6  1  0.19611249  0.93361067  0.38521699  1
  Sr  Sr7  1  0.69602263  0.43642284  0.38472978  1
  Sr  Sr8  1  0.69755841  0.43751805  0.89420391  1
  Sr  Sr9  1  0.69745626  0.93396947  0.38717848  1
  Sr  Sr10  1  0.70053986  0.93660863  0.89386145  1
  Sr  Sr11  1  0.05704923  0.29827780  0.11168456  1
  Sr  Sr12  1  0.05628919  0.29321950  0.61087769  1
  Sr  Sr13  1  0.05818050  0.79955579  0.61198202  1
  Sr  Sr14  1  0.55861933  0.29867906  0.60983231  1
  Sr  Sr15  1  0.55678607  0.79155074  0.11018000  1
  Sr  Sr16  1  0.55698111  0.79796209  0.60976661  1
  Sr  Sr17  1  0.44616125  0.20206032  0.38501180  1
  Sr  Sr18  1  0.45156017  0.20787386  0.89459131  1
  Sr  Sr19  1  0.44283529  0.70210947  0.38420176  1
  Sr  Sr20  1  0.44731333  0.70400059  0.89417897  1
  Sr  Sr21  1  0.94431097  0.20138321  0.38475657  1
  Sr  Sr22  1  0.95056730  0.20580457  0.89428317  1
  Sr  Sr23  1  0.94658686  0.69371438  0.38291685  1
  Ca  Ca24  1  0.30194080  0.06862940  0.10530323  1
  Ca  Ca25  1  0.30730712  0.56461349  0.10705737  1
  Ca  Ca26  1  0.80155188  0.06631785  0.10642689  1
  Ca  Ca27  1  0.80161463  0.56258933  0.10752124  1
  Ca  Ca28  1  0.19452990  0.93394115  0.89621564  1
  Ca  Ca29  1  0.04981178  0.78963688  0.10710550  1
  Ca  Ca30  1  0.55745916  0.29152133  0.10813735  1
  Ca  Ca31  1  0.94672640  0.71524544  0.89601166  1
  Fe  Fe32  1  0.11054316  0.09049677  0.75475600  1
  Fe  Fe33  1  0.10567791  0.59809178  0.75385115  1
  Fe  Fe34  1  0.60373044  0.09025425  0.24406660  1
  Fe  Fe35  1  0.60913152  0.09127800  0.75230723  1
  Fe  Fe36  1  0.61133736  0.59334731  0.75240693  1
  Fe  Fe37  1  0.35936052  0.40977149  0.24552161  1
  Fe  Fe38  1  0.35790762  0.41066845  0.75086357  1
  Fe  Fe39  1  0.34868680  0.90703551  0.24301845  1
  Fe  Fe40  1  0.35803395  0.90992830  0.75586813  1
  Fe  Fe41  1  0.86138405  0.41546865  0.75630848  1
  Fe  Fe42  1  0.85996424  0.90775698  0.24581743  1
  Fe  Fe43  1  0.86118202  0.90676568  0.75212248  1
  Co  Co44  1  0.00868560  0.00232142  0.00598204  1
  Co  Co45  1  0.00217656  0.99677866  0.49485317  1
  Co  Co46  1  0.00583185  0.50171687  0.00211809  1
  Co  Co47  1  0.00792921  0.50526607  0.50689509  1
  Co  Co48  1  0.50725424  0.00279035  0.00325759  1
  Co  Co49  1  0.50308023  0.99848694  0.49792500  1
  Co  Co50  1  0.50943545  0.50092771  0.00730096  1
  Co  Co51  1  0.50263208  0.49674152  0.49411388  1
  Co  Co52  1  0.26068202  0.25266330  0.00578567  1
  Co  Co53  1  0.25384988  0.24980296  0.49974985  1
  Co  Co54  1  0.25771755  0.75336207  0.00774526  1
  Co  Co55  1  0.25469384  0.75073025  0.50278446  1
  Co  Co56  1  0.75730353  0.25352740  0.00584980  1
  Co  Co57  1  0.75182168  0.24869520  0.49455776  1
  Co  Co58  1  0.75939039  0.75144768  0.00651764  1
  Co  Co59  1  0.75497189  0.74938291  0.50017349  1
  Co  Co60  1  0.10592940  0.09034054  0.24472940  1
  Co  Co61  1  0.10446945  0.59354961  0.24218915  1
  Co  Co62  1  0.60914283  0.58856712  0.24566140  1
  Co  Co63  1  0.85307960  0.40209831  0.24254132  1
  O  O64  1  0.12146268  0.11323090  0.49227622  1
  O  O65  1  0.12878909  0.11825730  0.99016598  1
  O  O66  1  0.12407267  0.62263934  0.49027083  1
  O  O67  1  0.12525729  0.63545094  0.99238002  1
  O  O68  1  0.63229582  0.13132624  0.49166449  1
  O  O69  1  0.63158694  0.12633052  0.99682385  1
  O  O70  1  0.61657032  0.61789387  0.49211534  1
  O  O71  1  0.62737711  0.62054080  0.99454864  1
  O  O72  1  0.14575273  0.37502411  0.01284756  1
  O  O73  1  0.12206493  0.38122959  0.50405347  1
  O  O74  1  0.12929054  0.88826112  0.01295004  1
  O  O75  1  0.13848489  0.86736159  0.50510404  1
  O  O76  1  0.63661753  0.38378129  0.01786915  1
  O  O77  1  0.63364479  0.37649759  0.50813427  1
  O  O78  1  0.64324331  0.87236464  0.01291202  1
  O  O79  1  0.62769950  0.88457739  0.50381950  1
  O  O80  1  0.38250374  0.11531642  0.49166796  1
  O  O81  1  0.37028994  0.12598728  0.99460508  1
  O  O82  1  0.36567267  0.62928526  0.49091799  1
  O  O83  1  0.37702284  0.61578260  0.99537573  1
  O  O84  1  0.87196746  0.12056046  0.48871318  1
  O  O85  1  0.88371210  0.11362236  0.99741209  1
  O  O86  1  0.87836752  0.61175209  0.49321550  1
  O  O87  1  0.87433393  0.63165831  0.99418831  1
  O  O88  1  0.39188138  0.38535026  0.02054199  1
  O  O89  1  0.38256019  0.38620555  0.50236376  1
  O  O90  1  0.37568801  0.88130295  0.01254394  1
  O  O91  1  0.38011877  0.87661838  0.50598769  1
  O  O92  1  0.88209620  0.38240025  0.01302135  1
  O  O93  1  0.87360967  0.36902344  0.50449909  1
  O  O94  1  0.88922967  0.88343636  0.01873261  1
  O  O95  1  0.88860429  0.88224274  0.50353585  1
  O  O96  1  0.09631465  0.09969758  0.14320610  1
  O  O97  1  0.08581483  0.08982834  0.64426748  1
  O  O98  1  0.08887855  0.59781497  0.13768387  1
  O  O99  1  0.07770178  0.59309700  0.64090051  1
  O  O100  1  0.59027421  0.10058106  0.13850820  1
  O  O101  1  0.58441044  0.09518268  0.64282660  1
  O  O102  1  0.59444856  0.59704944  0.14358132  1
  O  O103  1  0.58139788  0.59528041  0.64233370  1
  O  O104  1  0.44175955  0.40849755  0.35705619  1
  O  O105  1  0.44189130  0.40297664  0.85818727  1
  O  O106  1  0.43666968  0.90789613  0.35386334  1
  O  O107  1  0.44770903  0.90810357  0.86487378  1
  O  O108  1  0.93305575  0.40655283  0.35001799  1
  O  O109  1  0.94508526  0.40760196  0.86455922  1
  O  O110  1  0.94239493  0.90539807  0.35665565  1
  O  O111  1  0.94748980  0.89728591  0.85982833  1
  O  O112  1  0.33911947  0.28450386  0.14127411  1
  O  O113  1  0.33102460  0.29933376  0.64055439  1
  O  O114  1  0.33285805  0.78283424  0.13901732  1
  O  O115  1  0.33110897  0.79832311  0.64508850  1
  O  O116  1  0.83354402  0.28574324  0.13998575  1
  O  O117  1  0.84104363  0.30264432  0.64820451  1
  O  O118  1  0.84063898  0.78212746  0.14233496  1
  O  O119  1  0.83367361  0.79759325  0.64119191  1
  O  O120  1  0.18386072  0.19352112  0.35267469  1
  O  O121  1  0.19538243  0.20944828  0.86021686  1
  O  O122  1  0.18063396  0.69867577  0.34910752  1
  O  O123  1  0.19443621  0.71514107  0.85973916  1
  O  O124  1  0.68407428  0.20255580  0.35433888  1
  O  O125  1  0.69259622  0.20296049  0.86153415  1
  O  O126  1  0.68663090  0.69205419  0.35401277  1
  O  O127  1  0.70248790  0.70582673  0.85973534  1
  O  O128  1  0.42226768  0.05967005  0.23776695  1
  O  O129  1  0.43125231  0.06390579  0.75262972  1
  O  O130  1  0.42571216  0.56369086  0.23975634  1
  O  O131  1  0.43337545  0.56749965  0.75267730  1
  O  O132  1  0.92311523  0.06253090  0.23906474  1
  O  O133  1  0.93150939  0.06485473  0.75301939  1
  O  O134  1  0.92448760  0.55681176  0.23743069  1
  O  O135  1  0.93082808  0.57706824  0.76038378  1
  O  O136  1  0.18414789  0.43913356  0.24724267  1
  O  O137  1  0.18052396  0.44155170  0.75216066  1
  O  O138  1  0.16894155  0.92573677  0.23962669  1
  O  O139  1  0.18148521  0.93362649  0.76062773  1
  O  O140  1  0.67258481  0.42580823  0.24018780  1
  O  O141  1  0.68121382  0.43485878  0.75223518  1
  O  O142  1  0.68246467  0.93692042  0.24724743  1
  O  O143  1  0.68342462  0.93481409  0.75225110  1
