# generated using pymatgen
data_Ba(CdGe)2
_symmetry_space_group_name_H-M   'P 1'
_cell_length_a   4.76993630
_cell_length_b   4.76993630
_cell_length_c   6.69604890
_cell_angle_alpha   110.86549611
_cell_angle_beta   110.86549611
_cell_angle_gamma   90.00000000
_symmetry_Int_Tables_number   1
_chemical_formula_structural   Ba(CdGe)2
_chemical_formula_sum   'Ba1 Cd2 Ge2'
_cell_volume   131.61159863
_cell_formula_units_Z   1
loop_
 _symmetry_equiv_pos_site_id
 _symmetry_equiv_pos_as_xyz
  1  'x, y, z'
loop_
 _atom_site_type_symbol
 _atom_site_label
 _atom_site_symmetry_multiplicity
 _atom_site_fract_x
 _atom_site_fract_y
 _atom_site_fract_z
 _atom_site_occupancy
  Ba  Ba0  1  -0.00000000  -0.00000000  0.00000000  1
  Cd  Cd1  1  0.25000000  0.75000000  0.50000000  1
  Cd  Cd2  1  0.75000000  0.25000000  0.50000000  1
  Ge  Ge3  1  0.61217241  0.61217241  0.22434481  1
  Ge  Ge4  1  0.38782759  0.38782759  0.77565519  1
