# generated using pymatgen
data_Li7Mn2(CoO4)3
_symmetry_space_group_name_H-M   'P 1'
_cell_length_a   2.94839313
_cell_length_b   12.53593316
_cell_length_c   5.96897536
_cell_angle_alpha   103.18723237
_cell_angle_beta   90.00000000
_cell_angle_gamma   90.00000000
_symmetry_Int_Tables_number   1
_chemical_formula_structural   Li7Mn2(CoO4)3
_chemical_formula_sum   'Li7 Mn2 Co3 O12'
_cell_volume   214.80069697
_cell_formula_units_Z   1
loop_
 _symmetry_equiv_pos_site_id
 _symmetry_equiv_pos_as_xyz
  1  'x, y, z'
loop_
 _atom_site_type_symbol
 _atom_site_label
 _atom_site_symmetry_multiplicity
 _atom_site_fract_x
 _atom_site_fract_y
 _atom_site_fract_z
 _atom_site_occupancy
  Li  Li0  1  -0.00000000  0.34219138  0.16300192  1
  Li  Li1  1  0.50000000  0.49521785  0.99044000  1
  Li  Li2  1  -0.00000000  0.66122440  0.83425940  1
  Li  Li3  1  0.50000000  0.82775012  0.66331983  1
  Li  Li4  1  -0.00000000  0.99466288  0.49570548  1
  Li  Li5  1  0.50000000  0.17922244  0.34770392  1
  Li  Li6  1  -0.00000000  0.34008917  0.67670885  1
  Mn  Mn7  1  -0.00000000  0.99900006  0.99879069  1
  Mn  Mn8  1  0.50000000  0.17589613  0.83030019  1
  Co  Co9  1  0.50000000  0.49338237  0.50679517  1
  Co  Co10  1  -0.00000000  0.66357204  0.32622708  1
  Co  Co11  1  0.50000000  0.82667264  0.16863562  1
  O  O12  1  -0.00000000  0.49915728  0.72717006  1
  O  O13  1  0.50000000  0.64974007  0.56746904  1
  O  O14  1  -0.00000000  0.82450343  0.41809329  1
  O  O15  1  0.50000000  0.00627881  0.22345753  1
  O  O16  1  -0.00000000  0.16256865  0.05311570  1
  O  O17  1  0.50000000  0.32210934  0.91348793  1
  O  O18  1  -0.00000000  0.16503369  0.61100992  1
  O  O19  1  0.50000000  0.35035953  0.42267022  1
  O  O20  1  -0.00000000  0.50574572  0.26628171  1
  O  O21  1  0.50000000  0.66360562  0.09195820  1
  O  O22  1  -0.00000000  0.84599706  0.92683283  1
  O  O23  1  0.50000000  0.00601931  0.77656544  1
