# generated using pymatgen
data_YSb(PbO3)2
_symmetry_space_group_name_H-M   'P 1'
_cell_length_a   5.91170514
_cell_length_b   5.88498021
_cell_length_c   5.96132470
_cell_angle_alpha   60.92684832
_cell_angle_beta   60.27496194
_cell_angle_gamma   59.84966394
_symmetry_Int_Tables_number   1
_chemical_formula_structural   YSb(PbO3)2
_chemical_formula_sum   'Y1 Sb1 Pb2 O6'
_cell_volume   147.78764945
_cell_formula_units_Z   1
loop_
 _symmetry_equiv_pos_site_id
 _symmetry_equiv_pos_as_xyz
  1  'x, y, z'
loop_
 _atom_site_type_symbol
 _atom_site_label
 _atom_site_symmetry_multiplicity
 _atom_site_fract_x
 _atom_site_fract_y
 _atom_site_fract_z
 _atom_site_occupancy
  Y  Y0  1  0.00000000  0.00000000  -0.00000000  1
  Sb  Sb1  1  0.50000000  0.50000000  0.50000000  1
  Pb  Pb2  1  0.24597520  0.23522971  0.27281989  1
  Pb  Pb3  1  0.75402480  0.76477029  0.72718011  1
  O  O4  1  0.21335832  0.77771770  0.31493681  1
  O  O5  1  0.69398717  0.77771770  0.31493681  1
  O  O6  1  0.78664168  0.22228230  0.68506319  1
  O  O7  1  0.30601283  0.22228230  0.68506319  1
  O  O8  1  0.73393257  0.34107364  0.19106122  1
  O  O9  1  0.26606743  0.65892636  0.80893878  1
