# generated using pymatgen
data_La7SmNi6(AgO12)2
_symmetry_space_group_name_H-M   'P 1'
_cell_length_a   7.87363408
_cell_length_b   7.79221764
_cell_length_c   7.79221764
_cell_angle_alpha   89.88734839
_cell_angle_beta   90.00000000
_cell_angle_gamma   90.00000000
_symmetry_Int_Tables_number   1
_chemical_formula_structural   La7SmNi6(AgO12)2
_chemical_formula_sum   'La7 Sm1 Ni6 Ag2 O24'
_cell_volume   478.07555257
_cell_formula_units_Z   1
loop_
 _symmetry_equiv_pos_site_id
 _symmetry_equiv_pos_as_xyz
  1  'x, y, z'
loop_
 _atom_site_type_symbol
 _atom_site_label
 _atom_site_symmetry_multiplicity
 _atom_site_fract_x
 _atom_site_fract_y
 _atom_site_fract_z
 _atom_site_occupancy
  La  La0  1  0.25000000  0.25652085  0.25652085  1
  La  La1  1  0.25000000  0.25713104  0.74297014  1
  La  La2  1  0.25000000  0.74297014  0.25713104  1
  La  La3  1  0.25000000  0.74300005  0.74300005  1
  La  La4  1  0.75000000  0.25656019  0.74295883  1
  La  La5  1  0.75000000  0.74295883  0.25656019  1
  La  La6  1  0.75000000  0.74289611  0.74289611  1
  Sm  Sm7  1  0.75000000  0.25934550  0.25934550  1
  Ni  Ni8  1  0.99940531  0.00042414  0.49934433  1
  Ni  Ni9  1  0.99940531  0.49934433  0.00042414  1
  Ni  Ni10  1  0.99966639  0.49960644  0.49960644  1
  Ni  Ni11  1  0.50059469  0.00042414  0.49934433  1
  Ni  Ni12  1  0.50059469  0.49934433  0.00042414  1
  Ni  Ni13  1  0.50033361  0.49960644  0.49960644  1
  Ag  Ag14  1  0.99971154  0.00010731  0.00010731  1
  Ag  Ag15  1  0.50028846  0.00010731  0.00010731  1
  O  O16  1  0.25000000  -0.00001626  -0.00001626  1
  O  O17  1  0.25000000  0.00044036  0.49956106  1
  O  O18  1  0.25000000  0.49956106  0.00044036  1
  O  O19  1  0.25000000  0.49976124  0.49976124  1
  O  O20  1  0.75000000  0.00314765  0.00314765  1
  O  O21  1  0.75000000  0.00238745  0.49792638  1
  O  O22  1  0.75000000  0.49792638  0.00238745  1
  O  O23  1  0.75000000  0.49669141  0.49669141  1
  O  O24  1  0.99729316  0.26202156  0.00281144  1
  O  O25  1  0.99721539  0.24051766  0.49743700  1
  O  O26  1  0.99967634  0.73754173  0.00023602  1
  O  O27  1  0.99971663  0.75959984  0.49971154  1
  O  O28  1  0.50270684  0.26202156  0.00281144  1
  O  O29  1  0.50278461  0.24051766  0.49743700  1
  O  O30  1  0.50032366  0.73754173  0.00023602  1
  O  O31  1  0.50028337  0.75959984  0.49971154  1
  O  O32  1  0.99729316  0.00281144  0.26202156  1
  O  O33  1  0.99967634  0.00023602  0.73754173  1
  O  O34  1  0.99721539  0.49743700  0.24051766  1
  O  O35  1  0.99971663  0.49971154  0.75959984  1
  O  O36  1  0.50270684  0.00281144  0.26202156  1
  O  O37  1  0.50032366  0.00023602  0.73754173  1
  O  O38  1  0.50278461  0.49743700  0.24051766  1
  O  O39  1  0.50028337  0.49971154  0.75959984  1
