# generated using pymatgen
data_Mg16Al13
_symmetry_space_group_name_H-M   'P 1'
_cell_length_a   10.36917185
_cell_length_b   14.96547449
_cell_length_c   9.04638037
_cell_angle_alpha   90.00000000
_cell_angle_beta   124.58232864
_cell_angle_gamma   90.00000000
_symmetry_Int_Tables_number   1
_chemical_formula_structural   Mg16Al13
_chemical_formula_sum   'Mg32 Al26'
_cell_volume   1155.77573161
_cell_formula_units_Z   2
loop_
 _symmetry_equiv_pos_site_id
 _symmetry_equiv_pos_as_xyz
  1  'x, y, z'
loop_
 _atom_site_type_symbol
 _atom_site_label
 _atom_site_symmetry_multiplicity
 _atom_site_fract_x
 _atom_site_fract_y
 _atom_site_fract_z
 _atom_site_occupancy
  Mg  Mg0  1  0.49993762  0.50000000  0.99955990  1
  Mg  Mg1  1  0.04163141  0.64151949  0.00185295  1
  Mg  Mg2  1  0.32749113  0.67330265  0.00084868  1
  Mg  Mg3  1  0.82749113  0.82669735  0.00084868  1
  Mg  Mg4  1  0.54163141  0.85848051  0.00185295  1
  Mg  Mg5  1  0.01591997  0.69785077  0.31588056  1
  Mg  Mg6  1  0.51591997  0.80214923  0.31588056  1
  Mg  Mg7  1  0.84914538  0.50000000  0.34581497  1
  Mg  Mg8  1  0.34049763  0.65777474  0.39761755  1
  Mg  Mg9  1  0.84049763  0.84222526  0.39761755  1
  Mg  Mg10  1  0.94347878  0.65841946  0.60151532  1
  Mg  Mg11  1  0.44347878  0.84158054  0.60151532  1
  Mg  Mg12  1  0.49997895  0.50000000  0.65360816  1
  Mg  Mg13  1  0.69936195  0.69928069  0.68363648  1
  Mg  Mg14  1  0.19936195  0.80071931  0.68363648  1
  Mg  Mg15  1  0.81474815  0.50000000  0.71352516  1
  Mg  Mg16  1  0.99993762  -0.00000000  0.99955990  1
  Mg  Mg17  1  0.54163141  0.14151949  0.00185295  1
  Mg  Mg18  1  0.82749113  0.17330265  0.00084868  1
  Mg  Mg19  1  0.32749113  0.32669735  0.00084868  1
  Mg  Mg20  1  0.04163141  0.35848051  0.00185295  1
  Mg  Mg21  1  0.51591997  0.19785077  0.31588056  1
  Mg  Mg22  1  0.01591997  0.30214923  0.31588056  1
  Mg  Mg23  1  0.34914538  -0.00000000  0.34581497  1
  Mg  Mg24  1  0.84049763  0.15777474  0.39761755  1
  Mg  Mg25  1  0.34049763  0.34222526  0.39761755  1
  Mg  Mg26  1  0.44347878  0.15841946  0.60151532  1
  Mg  Mg27  1  0.94347878  0.34158054  0.60151532  1
  Mg  Mg28  1  -0.00002105  -0.00000000  0.65360816  1
  Mg  Mg29  1  0.19936195  0.19928069  0.68363648  1
  Mg  Mg30  1  0.69936195  0.30071931  0.68363648  1
  Mg  Mg31  1  0.31474815  -0.00000000  0.71352516  1
  Al  Al32  1  0.77709109  0.58997524  -0.00028448  1
  Al  Al33  1  0.27709109  0.91002476  -0.00028448  1
  Al  Al34  1  0.30982263  0.50000000  0.18118200  1
  Al  Al35  1  0.68380052  0.68367696  0.18589664  1
  Al  Al36  1  0.18380052  0.81632304  0.18589664  1
  Al  Al37  1  0.10581320  0.50000000  0.28946614  1
  Al  Al38  1  0.59203922  0.59157239  0.36735743  1
  Al  Al39  1  0.09203922  0.90842761  0.36735743  1
  Al  Al40  1  0.22537616  0.59095647  0.63059716  1
  Al  Al41  1  0.72537616  0.90904353  0.63059716  1
  Al  Al42  1  0.49689385  0.68362559  0.81363108  1
  Al  Al43  1  0.99689385  0.81637441  0.81363108  1
  Al  Al44  1  0.13339165  0.50000000  0.81974491  1
  Al  Al45  1  0.27709109  0.08997524  -0.00028448  1
  Al  Al46  1  0.77709109  0.41002476  -0.00028448  1
  Al  Al47  1  0.80982263  -0.00000000  0.18118200  1
  Al  Al48  1  0.18380052  0.18367696  0.18589664  1
  Al  Al49  1  0.68380052  0.31632304  0.18589664  1
  Al  Al50  1  0.60581320  -0.00000000  0.28946614  1
  Al  Al51  1  0.09203922  0.09157239  0.36735743  1
  Al  Al52  1  0.59203922  0.40842761  0.36735743  1
  Al  Al53  1  0.72537616  0.09095647  0.63059716  1
  Al  Al54  1  0.22537616  0.40904353  0.63059716  1
  Al  Al55  1  0.99689385  0.18362559  0.81363108  1
  Al  Al56  1  0.49689385  0.31637441  0.81363108  1
  Al  Al57  1  0.63339165  -0.00000000  0.81974491  1
