# generated using pymatgen
data_Li9Mn2Co5O16
_symmetry_space_group_name_H-M   'P 1'
_cell_length_a   3.01819818
_cell_length_b   10.02273657
_cell_length_c   9.90754503
_cell_angle_alpha   77.98300954
_cell_angle_beta   92.65623501
_cell_angle_gamma   92.32443337
_symmetry_Int_Tables_number   1
_chemical_formula_structural   Li9Mn2Co5O16
_chemical_formula_sum   'Li9 Mn2 Co5 O16'
_cell_volume   292.67984635
_cell_formula_units_Z   1
loop_
 _symmetry_equiv_pos_site_id
 _symmetry_equiv_pos_as_xyz
  1  'x, y, z'
loop_
 _atom_site_type_symbol
 _atom_site_label
 _atom_site_symmetry_multiplicity
 _atom_site_fract_x
 _atom_site_fract_y
 _atom_site_fract_z
 _atom_site_occupancy
  Li  Li0  1  0.99858522  0.12618866  0.24909416  1
  Li  Li1  1  0.49821906  0.12853094  0.74791363  1
  Li  Li2  1  0.50169017  0.37691485  0.24271897  1
  Li  Li3  1  0.99213886  0.37101558  0.75435735  1
  Li  Li4  1  0.00786114  0.62898442  0.24564265  1
  Li  Li5  1  0.49830983  0.62308515  0.75728103  1
  Li  Li6  1  0.50178094  0.87146906  0.25208637  1
  Li  Li7  1  0.00141478  0.87381134  0.75090584  1
  Li  Li8  1  0.00000000  0.50000000  0.00000000  1
  Mn  Mn9  1  0.00000000  -0.00000000  0.00000000  1
  Mn  Mn10  1  0.50000000  0.50000000  0.50000000  1
  Co  Co11  1  0.50000000  -0.00000000  0.50000000  1
  Co  Co12  1  0.49002880  0.25985296  0.00118736  1
  Co  Co13  1  -0.00063703  0.24778963  0.49767008  1
  Co  Co14  1  0.50997120  0.74014704  0.99881264  1
  Co  Co15  1  0.00063703  0.75221037  0.50232992  1
  O  O16  1  0.47493774  0.07483090  0.11172021  1
  O  O17  1  0.96384878  0.06527326  0.61456624  1
  O  O18  1  0.96792414  0.30762618  0.11533882  1
  O  O19  1  0.51417175  0.31495025  0.61285443  1
  O  O20  1  0.49864293  0.58339454  0.11447585  1
  O  O21  1  0.96184693  0.56882980  0.61930429  1
  O  O22  1  0.97584846  0.81814244  0.11497394  1
  O  O23  1  0.51604113  0.81975212  0.61246624  1
  O  O24  1  0.48395887  0.18024788  0.38753376  1
  O  O25  1  0.02415154  0.18185756  0.88502606  1
  O  O26  1  0.03815307  0.43117020  0.38069571  1
  O  O27  1  0.50135707  0.41660546  0.88552415  1
  O  O28  1  0.48582825  0.68504975  0.38714557  1
  O  O29  1  0.03207586  0.69237382  0.88466118  1
  O  O30  1  0.03615122  0.93472674  0.38543376  1
  O  O31  1  0.52506226  0.92516910  0.88827979  1
