# generated using pymatgen
data_Li9Mn7O16
_symmetry_space_group_name_H-M   'P 1'
_cell_length_a   5.10652959
_cell_length_b   8.12708256
_cell_length_c   7.68815192
_cell_angle_alpha   100.13856053
_cell_angle_beta   103.26077134
_cell_angle_gamma   99.55081416
_symmetry_Int_Tables_number   1
_chemical_formula_structural   Li9Mn7O16
_chemical_formula_sum   'Li9 Mn7 O16'
_cell_volume   298.53997538
_cell_formula_units_Z   1
loop_
 _symmetry_equiv_pos_site_id
 _symmetry_equiv_pos_as_xyz
  1  'x, y, z'
loop_
 _atom_site_type_symbol
 _atom_site_label
 _atom_site_symmetry_multiplicity
 _atom_site_fract_x
 _atom_site_fract_y
 _atom_site_fract_z
 _atom_site_occupancy
  Li  Li0  1  0.48935029  0.11604776  0.86824251  1
  Li  Li1  1  0.50003079  0.50419113  0.99967268  1
  Li  Li2  1  0.50000000  0.37500000  0.62500000  1
  Li  Li3  1  0.49578261  0.76034829  0.74075740  1
  Li  Li4  1  0.51064971  0.63395224  0.38175749  1
  Li  Li5  1  0.50421739  0.98965171  0.50924260  1
  Li  Li6  1  0.50000000  0.87500000  0.12500000  1
  Li  Li7  1  0.49996921  0.24580887  0.25032732  1
  Li  Li8  1  0.00000000  0.87500000  0.62500000  1
  Mn  Mn9  1  0.99013882  0.99644251  0.99539790  1
  Mn  Mn10  1  0.00986118  0.75355749  0.25460210  1
  Mn  Mn11  1  0.00000000  0.37500000  0.12500000  1
  Mn  Mn12  1  0.99744936  0.11937335  0.37544833  1
  Mn  Mn13  1  0.00245854  0.50700598  0.50244948  1
  Mn  Mn14  1  0.99754146  0.24299402  0.74755052  1
  Mn  Mn15  1  0.00255064  0.63062665  0.87455167  1
  O  O16  1  0.21030170  0.85473710  0.88170114  1
  O  O17  1  0.23496892  0.26065152  0.99356573  1
  O  O18  1  0.23458136  0.13626280  0.61792990  1
  O  O19  1  0.22981662  0.51410290  0.74550671  1
  O  O20  1  0.20756212  0.35602672  0.37044013  1
  O  O21  1  0.24534526  0.74744091  0.48324988  1
  O  O22  1  0.23362784  0.63151093  0.11696561  1
  O  O23  1  0.23069427  0.01522712  0.24544376  1
  O  O24  1  0.79243788  0.39397228  0.87955887  1
  O  O25  1  0.76930573  0.73477288  0.00455624  1
  O  O26  1  0.76541864  0.61373720  0.63207010  1
  O  O27  1  0.75465474  0.00255909  0.76674912  1
  O  O28  1  0.78969830  0.89526290  0.36829986  1
  O  O29  1  0.77018338  0.23589710  0.50449429  1
  O  O30  1  0.76637216  0.11848907  0.13303539  1
  O  O31  1  0.76503108  0.48934848  0.25643527  1
