# generated using pymatgen
data_Li9Mn7O16
_symmetry_space_group_name_H-M   'P 1'
_cell_length_a   5.09267221
_cell_length_b   5.10521455
_cell_length_c   12.06202747
_cell_angle_alpha   88.18101673
_cell_angle_beta   86.53628099
_cell_angle_gamma   107.33179142
_symmetry_Int_Tables_number   1
_chemical_formula_structural   Li9Mn7O16
_chemical_formula_sum   'Li9 Mn7 O16'
_cell_volume   298.40966374
_cell_formula_units_Z   1
loop_
 _symmetry_equiv_pos_site_id
 _symmetry_equiv_pos_as_xyz
  1  'x, y, z'
loop_
 _atom_site_type_symbol
 _atom_site_label
 _atom_site_symmetry_multiplicity
 _atom_site_fract_x
 _atom_site_fract_y
 _atom_site_fract_z
 _atom_site_occupancy
  Li  Li0  1  -0.00000000  0.50000000  0.12500000  1
  Li  Li1  1  0.49848759  0.50522948  0.24587202  1
  Li  Li2  1  0.99338886  0.49569654  0.36736748  1
  Li  Li3  1  0.50562249  0.50483306  0.50233172  1
  Li  Li4  1  -0.00000000  0.50000000  0.62500000  1
  Li  Li5  1  0.49437751  0.49516694  0.74766828  1
  Li  Li6  1  0.00661114  0.50430346  0.88263252  1
  Li  Li7  1  0.50151241  0.49477052  0.00412798  1
  Li  Li8  1  0.50000000  0.00000000  0.12500000  1
  Mn  Mn9  1  0.00630292  0.01254576  0.00619012  1
  Mn  Mn10  1  0.99369708  0.98745424  0.24380988  1
  Mn  Mn11  1  0.49006233  0.98830892  0.36590240  1
  Mn  Mn12  1  0.99378921  0.99528773  0.49681007  1
  Mn  Mn13  1  0.50000000  0.00000000  0.62500000  1
  Mn  Mn14  1  0.00621079  0.00471227  0.75318993  1
  Mn  Mn15  1  0.50993767  0.01169108  0.88409760  1
  O  O16  1  0.77272402  0.23915420  0.00339206  1
  O  O17  1  0.21448038  0.21931694  0.12170553  1
  O  O18  1  0.74834573  0.22201008  0.25702091  1
  O  O19  1  0.21990071  0.20815622  0.36360571  1
  O  O20  1  0.75121876  0.22943962  0.50671925  1
  O  O21  1  0.25374450  0.23501004  0.63065020  1
  O  O22  1  0.75619413  0.23099367  0.75897138  1
  O  O23  1  0.25930348  0.24108924  0.88592786  1
  O  O24  1  0.22727598  0.76084580  0.24660694  1
  O  O25  1  0.74069652  0.75891076  0.36407114  1
  O  O26  1  0.24380587  0.76900633  0.49102762  1
  O  O27  1  0.74625550  0.76498996  0.61934980  1
  O  O28  1  0.24878124  0.77056038  0.74327975  1
  O  O29  1  0.78009929  0.79184378  0.88639329  1
  O  O30  1  0.25165427  0.77798992  0.99298009  1
  O  O31  1  0.78551962  0.78068306  0.12829547  1
