# generated using pymatgen
data_TlCu7S4
_symmetry_space_group_name_H-M   'P 1'
_cell_length_a   3.83898513
_cell_length_b   7.44029922
_cell_length_c   7.45483183
_cell_angle_alpha   93.85978504
_cell_angle_beta   105.04040518
_cell_angle_gamma   74.85781355
_symmetry_Int_Tables_number   1
_chemical_formula_structural   TlCu7S4
_chemical_formula_sum   'Tl1 Cu7 S4'
_cell_volume   198.49966880
_cell_formula_units_Z   1
loop_
 _symmetry_equiv_pos_site_id
 _symmetry_equiv_pos_as_xyz
  1  'x, y, z'
loop_
 _atom_site_type_symbol
 _atom_site_label
 _atom_site_symmetry_multiplicity
 _atom_site_fract_x
 _atom_site_fract_y
 _atom_site_fract_z
 _atom_site_occupancy
  Tl  Tl0  1  0.75883652  0.49342072  0.50010637  1
  Cu  Cu1  1  0.10617307  0.16098347  0.88461553  1
  Cu  Cu2  1  0.36384578  0.84265978  0.11240267  1
  Cu  Cu3  1  0.79954196  0.11978730  0.15508901  1
  Cu  Cu4  1  0.76031682  0.89178735  0.85242420  1
  Cu  Cu5  1  0.88218736  0.56820825  0.02348171  1
  Cu  Cu6  1  0.49510786  0.06288739  0.40735238  1
  Cu  Cu7  1  0.16064803  0.93275474  0.60229687  1
  S  S8  1  0.33634118  0.69375989  0.82675539  1
  S  S9  1  0.20142864  0.30222022  0.16442083  1
  S  S10  1  0.49738828  0.17558053  0.69527012  1
  S  S11  1  0.96418450  0.83195036  0.30378491  1
