# generated using pymatgen
data_Tl2Fe3Se4
_symmetry_space_group_name_H-M   'P 1'
_cell_length_a   15.49396955
_cell_length_b   5.53704076
_cell_length_c   7.62205771
_cell_angle_alpha   89.59965068
_cell_angle_beta   75.28066840
_cell_angle_gamma   44.60802595
_symmetry_Int_Tables_number   1
_chemical_formula_structural   Tl2Fe3Se4
_chemical_formula_sum   'Tl4 Fe6 Se8'
_cell_volume   429.32995370
_cell_formula_units_Z   2
loop_
 _symmetry_equiv_pos_site_id
 _symmetry_equiv_pos_as_xyz
  1  'x, y, z'
loop_
 _atom_site_type_symbol
 _atom_site_label
 _atom_site_symmetry_multiplicity
 _atom_site_fract_x
 _atom_site_fract_y
 _atom_site_fract_z
 _atom_site_occupancy
  Tl  Tl0  1  0.99620853  0.00056138  0.00498838  1
  Tl  Tl1  1  0.25000000  -0.00000000  -0.00000000  1
  Tl  Tl2  1  0.50379147  -0.00056138  0.99501162  1
  Tl  Tl3  1  0.75000000  -0.00000000  -0.00000000  1
  Fe  Fe4  1  0.24741213  0.25492834  0.50016032  1
  Fe  Fe5  1  0.25258787  0.74507166  0.49983968  1
  Fe  Fe6  1  0.50706201  0.23651130  0.49929086  1
  Fe  Fe7  1  0.74978467  0.24855079  0.50088934  1
  Fe  Fe8  1  0.75021533  0.75144921  0.49911066  1
  Fe  Fe9  1  0.99293799  0.76348870  0.50070914  1
  Se  Se10  1  0.07465207  0.34638470  0.69232961  1
  Se  Se11  1  0.17089531  0.65890261  0.30673544  1
  Se  Se12  1  0.32910469  0.34109739  0.69326456  1
  Se  Se13  1  0.42534793  0.65361530  0.30767039  1
  Se  Se14  1  0.57017513  0.35900987  0.71681320  1
  Se  Se15  1  0.67832443  0.64154187  0.28567441  1
  Se  Se16  1  0.82167557  0.35845813  0.71432559  1
  Se  Se17  1  0.92982487  0.64099013  0.28318680  1
