# generated using pymatgen
data_Li9Mn2Co5O16
_symmetry_space_group_name_H-M   'P 1'
_cell_length_a   3.01742751
_cell_length_b   5.98889316
_cell_length_c   16.08049372
_cell_angle_alpha   89.37481362
_cell_angle_beta   89.01786689
_cell_angle_gamma   95.01135539
_symmetry_Int_Tables_number   1
_chemical_formula_structural   Li9Mn2Co5O16
_chemical_formula_sum   'Li9 Mn2 Co5 O16'
_cell_volume   289.41561848
_cell_formula_units_Z   1
loop_
 _symmetry_equiv_pos_site_id
 _symmetry_equiv_pos_as_xyz
  1  'x, y, z'
loop_
 _atom_site_type_symbol
 _atom_site_label
 _atom_site_symmetry_multiplicity
 _atom_site_fract_x
 _atom_site_fract_y
 _atom_site_fract_z
 _atom_site_occupancy
  Li  Li0  1  0.00159536  0.49989751  0.00088932  1
  Li  Li1  1  0.50272357  0.25654276  0.12798802  1
  Li  Li2  1  0.00000000  -0.00000000  0.25000000  1
  Li  Li3  1  0.49997563  0.74823289  0.87368766  1
  Li  Li4  1  0.00000000  -0.00000000  0.75000000  1
  Li  Li5  1  0.50002437  0.25176711  0.62631234  1
  Li  Li6  1  0.99840464  0.50010249  0.49911068  1
  Li  Li7  1  0.49727643  0.74345724  0.37201198  1
  Li  Li8  1  0.00000000  0.50000000  0.25000000  1
  Mn  Mn9  1  0.00134993  0.00055548  0.00089283  1
  Mn  Mn10  1  0.99865007  0.99944452  0.49910717  1
  Co  Co11  1  0.50490434  0.73745491  0.13047056  1
  Co  Co12  1  0.49509566  0.26254509  0.36952944  1
  Co  Co13  1  0.50212691  0.74782626  0.62573439  1
  Co  Co14  1  0.00000000  0.50000000  0.75000000  1
  Co  Co15  1  0.49787309  0.25217374  0.87426561  1
  O  O16  1  0.47866905  0.24346226  0.99380861  1
  O  O17  1  0.97716872  0.98812170  0.12156390  1
  O  O18  1  0.49551758  0.75307585  0.23822166  1
  O  O19  1  0.97651715  0.48821282  0.86911648  1
  O  O20  1  0.47657912  0.73574418  0.74441072  1
  O  O21  1  0.97529963  0.98868494  0.62116727  1
  O  O22  1  0.47789554  0.24260202  0.49051593  1
  O  O23  1  0.97970925  0.48200243  0.37468728  1
  O  O24  1  0.52210446  0.75739798  0.00948307  1
  O  O25  1  0.02029075  0.51799757  0.12531272  1
  O  O26  1  0.50448242  0.24692415  0.26177934  1
  O  O27  1  0.02470037  0.01131506  0.87883273  1
  O  O28  1  0.52342088  0.26425582  0.75558828  1
  O  O29  1  0.02348285  0.51178718  0.63088352  1
  O  O30  1  0.52133095  0.75653774  0.50619139  1
  O  O31  1  0.02283128  0.01187830  0.37843610  1
