# generated using pymatgen
data_Ti2Fe3Bi3Pb2O15
_symmetry_space_group_name_H-M   'P 1'
_cell_length_a   18.99212558
_cell_length_b   5.38451728
_cell_length_c   4.79323065
_cell_angle_alpha   90.00000000
_cell_angle_beta   90.00000000
_cell_angle_gamma   44.86402651
_symmetry_Int_Tables_number   1
_chemical_formula_structural   Ti2Fe3Bi3Pb2O15
_chemical_formula_sum   'Ti2 Fe3 Bi3 Pb2 O15'
_cell_volume   345.78055545
_cell_formula_units_Z   1
loop_
 _symmetry_equiv_pos_site_id
 _symmetry_equiv_pos_as_xyz
  1  'x, y, z'
loop_
 _atom_site_type_symbol
 _atom_site_label
 _atom_site_symmetry_multiplicity
 _atom_site_fract_x
 _atom_site_fract_y
 _atom_site_fract_z
 _atom_site_occupancy
  Ti  Ti0  1  0.00289077  0.49277307  0.54686060  1
  Ti  Ti1  1  0.19710923  0.50722693  0.54686060  1
  Fe  Fe2  1  0.39903767  0.50240582  0.54086819  1
  Fe  Fe3  1  0.60000000  0.50000000  0.53390549  1
  Fe  Fe4  1  0.80096233  0.49759418  0.54086819  1
  Bi  Bi5  1  0.40457592  0.98856021  0.95674173  1
  Bi  Bi6  1  0.60000000  -0.00000000  0.96786991  1
  Bi  Bi7  1  0.79542408  0.01143979  0.95674173  1
  Pb  Pb8  1  0.99017905  0.02455239  0.00677427  1
  Pb  Pb9  1  0.20982095  0.97544761  0.00677427  1
  O  O10  1  0.99302751  0.51743122  0.18049509  1
  O  O11  1  0.10000000  0.50000000  0.64791417  1
  O  O12  1  0.20697249  0.48256878  0.18049509  1
  O  O13  1  0.10000000  -0.00000000  0.64791417  1
  O  O14  1  0.30165995  0.48731709  0.67798450  1
  O  O15  1  0.40605925  0.48485187  0.15524691  1
  O  O16  1  0.30165995  0.00438317  0.67798450  1
  O  O17  1  0.50103579  0.49652360  0.67972956  1
  O  O18  1  0.60000000  0.50000000  0.14956644  1
  O  O19  1  0.50103579  0.99829743  0.67972956  1
  O  O20  1  0.69896421  0.50347640  0.67972956  1
  O  O21  1  0.79394075  0.51514813  0.15524691  1
  O  O22  1  0.69896421  0.00170257  0.67972956  1
  O  O23  1  0.89834005  0.51268291  0.67798450  1
  O  O24  1  0.89834005  0.99561683  0.67798450  1
