# generated using pymatgen
data_Li9Mn7O16
_symmetry_space_group_name_H-M   'P 1'
_cell_length_a   5.09404715
_cell_length_b   7.88336140
_cell_length_c   7.84006835
_cell_angle_alpha   94.23848388
_cell_angle_beta   106.32867359
_cell_angle_gamma   82.43102508
_symmetry_Int_Tables_number   1
_chemical_formula_structural   Li9Mn7O16
_chemical_formula_sum   'Li9 Mn7 O16'
_cell_volume   299.28617823
_cell_formula_units_Z   1
loop_
 _symmetry_equiv_pos_site_id
 _symmetry_equiv_pos_as_xyz
  1  'x, y, z'
loop_
 _atom_site_type_symbol
 _atom_site_label
 _atom_site_symmetry_multiplicity
 _atom_site_fract_x
 _atom_site_fract_y
 _atom_site_fract_z
 _atom_site_occupancy
  Li  Li0  1  0.50317692  0.19046587  0.06464834  1
  Li  Li1  1  0.49682308  0.30953413  0.43535166  1
  Li  Li2  1  0.47919808  0.54739774  0.17302701  1
  Li  Li3  1  0.50947248  0.69370569  0.56773920  1
  Li  Li4  1  0.52080192  0.95260226  0.32697299  1
  Li  Li5  1  0.49133263  0.08296704  0.69587927  1
  Li  Li6  1  0.50866737  0.41703296  0.80412073  1
  Li  Li7  1  0.49052752  0.80629431  0.93226080  1
  Li  Li8  1  -0.00000000  0.25000000  0.75000000  1
  Mn  Mn9  1  0.98807921  -0.00041090  0.99350564  1
  Mn  Mn10  1  0.01192079  0.50041090  0.50649436  1
  Mn  Mn11  1  0.00995569  0.13156712  0.38399280  1
  Mn  Mn12  1  0.99004431  0.36843288  0.11600720  1
  Mn  Mn13  1  0.99378387  0.61828172  0.86899486  1
  Mn  Mn14  1  -0.00000000  0.75000000  0.25000000  1
  Mn  Mn15  1  0.00621613  0.88171828  0.63100514  1
  O  O16  1  0.21088051  0.01209933  0.82843318  1
  O  O17  1  0.23374370  0.16133421  0.22130832  1
  O  O18  1  0.22533313  0.41658989  0.97256715  1
  O  O19  1  0.23451092  0.54484836  0.34739532  1
  O  O20  1  0.20387062  0.76928363  0.07364987  1
  O  O21  1  0.23790140  0.91866462  0.48103044  1
  O  O22  1  0.24708970  0.29720929  0.58975064  1
  O  O23  1  0.23065389  0.67031129  0.72873803  1
  O  O24  1  0.76625630  0.33866579  0.27869168  1
  O  O25  1  0.78911949  0.48790067  0.67156682  1
  O  O26  1  0.79612938  0.73071637  0.42635013  1
  O  O27  1  0.76934611  0.82968871  0.77126197  1
  O  O28  1  0.77466687  0.08341011  0.52743285  1
  O  O29  1  0.75291030  0.20279071  0.91024936  1
  O  O30  1  0.76209860  0.58133538  0.01896956  1
  O  O31  1  0.76548908  0.95515164  0.15260468  1
