# generated using pymatgen
data_Cs2ReO4
_symmetry_space_group_name_H-M   'P 1'
_cell_length_a   6.64105355
_cell_length_b   8.66819849
_cell_length_c   11.80796294
_cell_angle_alpha   90.00000000
_cell_angle_beta   90.00000000
_cell_angle_gamma   90.00000000
_symmetry_Int_Tables_number   1
_chemical_formula_structural   Cs2ReO4
_chemical_formula_sum   'Cs8 Re4 O16'
_cell_volume   679.73684455
_cell_formula_units_Z   4
loop_
 _symmetry_equiv_pos_site_id
 _symmetry_equiv_pos_as_xyz
  1  'x, y, z'
loop_
 _atom_site_type_symbol
 _atom_site_label
 _atom_site_symmetry_multiplicity
 _atom_site_fract_x
 _atom_site_fract_y
 _atom_site_fract_z
 _atom_site_occupancy
  Cs  Cs0  1  0.75000000  0.50914548  0.70772231  1
  Cs  Cs1  1  0.25000000  0.99085452  0.20772231  1
  Cs  Cs2  1  0.25000000  0.49085452  0.29227769  1
  Cs  Cs3  1  0.75000000  0.00914548  0.79227769  1
  Cs  Cs4  1  0.75000000  0.82829590  0.41450786  1
  Cs  Cs5  1  0.25000000  0.67170410  0.91450786  1
  Cs  Cs6  1  0.25000000  0.17170410  0.58549214  1
  Cs  Cs7  1  0.75000000  0.32829590  0.08549214  1
  Re  Re8  1  0.75000000  0.27547838  0.42061880  1
  Re  Re9  1  0.25000000  0.22452162  0.92061880  1
  Re  Re10  1  0.25000000  0.72452162  0.57938120  1
  Re  Re11  1  0.75000000  0.77547838  0.07938120  1
  O  O12  1  0.97132889  0.20040914  0.34998242  1
  O  O13  1  0.02867111  0.29959086  0.84998242  1
  O  O14  1  0.47132889  0.79959086  0.65001758  1
  O  O15  1  0.52867111  0.70040914  0.15001758  1
  O  O16  1  0.02867111  0.79959086  0.65001758  1
  O  O17  1  0.97132889  0.70040914  0.15001758  1
  O  O18  1  0.52867111  0.20040914  0.34998242  1
  O  O19  1  0.47132889  0.29959086  0.84998242  1
  O  O20  1  0.75000000  0.48315170  0.41906607  1
  O  O21  1  0.25000000  0.01684830  0.91906607  1
  O  O22  1  0.25000000  0.51684830  0.58093393  1
  O  O23  1  0.75000000  0.98315170  0.08093393  1
  O  O24  1  0.75000000  0.20466318  0.56554229  1
  O  O25  1  0.25000000  0.29533682  0.06554229  1
  O  O26  1  0.25000000  0.79533682  0.43445771  1
  O  O27  1  0.75000000  0.70466318  0.93445771  1
