# generated using pymatgen
data_Li9Mn7O16
_symmetry_space_group_name_H-M   'P 1'
_cell_length_a   5.08577920
_cell_length_b   8.00235421
_cell_length_c   7.77881915
_cell_angle_alpha   80.53709987
_cell_angle_beta   104.10989803
_cell_angle_gamma   81.45260237
_symmetry_Int_Tables_number   1
_chemical_formula_structural   Li9Mn7O16
_chemical_formula_sum   'Li9 Mn7 O16'
_cell_volume   296.90373892
_cell_formula_units_Z   1
loop_
 _symmetry_equiv_pos_site_id
 _symmetry_equiv_pos_as_xyz
  1  'x, y, z'
loop_
 _atom_site_type_symbol
 _atom_site_label
 _atom_site_symmetry_multiplicity
 _atom_site_fract_x
 _atom_site_fract_y
 _atom_site_fract_z
 _atom_site_occupancy
  Li  Li0  1  0.49647799  0.24613105  0.75896512  1
  Li  Li1  1  0.97852408  0.88656880  0.37087736  1
  Li  Li2  1  0.50430680  0.48733647  0.00021367  1
  Li  Li3  1  0.02141990  0.36340559  0.87915710  1
  Li  Li4  1  0.50335672  0.00390848  0.49112281  1
  Li  Li5  1  0.99998618  0.62498372  0.12494891  1
  Li  Li6  1  0.99985487  0.12506999  0.62500941  1
  Li  Li7  1  0.49591002  0.76262546  0.24982295  1
  Li  Li8  1  0.49991196  0.12509371  0.12505714  1
  Mn  Mn9  1  0.99379794  0.00974416  0.00059791  1
  Mn  Mn10  1  0.00658180  0.24017334  0.24932643  1
  Mn  Mn11  1  0.49997659  0.62494881  0.62504542  1
  Mn  Mn12  1  0.49107674  0.88643295  0.87908426  1
  Mn  Mn13  1  0.00672357  0.49600277  0.49854772  1
  Mn  Mn14  1  0.99335460  0.75393831  0.75140279  1
  Mn  Mn15  1  0.50866756  0.36385103  0.37072694  1
  O  O16  1  0.74346717  0.00355784  0.76907300  1
  O  O17  1  0.24959250  0.62141570  0.39140850  1
  O  O18  1  0.78649664  0.23016833  0.01144519  1
  O  O19  1  0.22661162  0.12015682  0.88486954  1
  O  O20  1  0.74299888  0.75000269  0.51124927  1
  O  O21  1  0.25000769  0.37261283  0.14186500  1
  O  O22  1  0.24407861  0.87019531  0.64716564  1
  O  O23  1  0.77792929  0.47007226  0.25583648  1
  O  O24  1  0.25704489  0.49995409  0.73872287  1
  O  O25  1  0.77314761  0.12995950  0.36519917  1
  O  O26  1  0.22210517  0.77999211  0.99416020  1
  O  O27  1  0.75067790  0.62837991  0.85856633  1
  O  O28  1  0.25650442  0.24640595  0.48101851  1
  O  O29  1  0.75012483  0.87737049  0.10819956  1
  O  O30  1  0.75589250  0.37974636  0.60274526  1
  O  O31  1  0.21339297  0.01979615  0.23856653  1
