# generated using pymatgen
data_NaAlH4
_symmetry_space_group_name_H-M   'P 1'
_cell_length_a   3.53922145
_cell_length_b   5.08741957
_cell_length_c   7.18547111
_cell_angle_alpha   90.00000000
_cell_angle_beta   104.25726293
_cell_angle_gamma   90.00000000
_symmetry_Int_Tables_number   1
_chemical_formula_structural   NaAlH4
_chemical_formula_sum   'Na2 Al2 H8'
_cell_volume   125.39314980
_cell_formula_units_Z   2
loop_
 _symmetry_equiv_pos_site_id
 _symmetry_equiv_pos_as_xyz
  1  'x, y, z'
loop_
 _atom_site_type_symbol
 _atom_site_label
 _atom_site_symmetry_multiplicity
 _atom_site_fract_x
 _atom_site_fract_y
 _atom_site_fract_z
 _atom_site_occupancy
  Na  Na0  1  0.17305093  0.26482983  0.34610186  1
  Na  Na1  1  0.82694907  0.76482983  0.65389814  1
  Al  Al2  1  0.41465420  0.29378194  0.82930840  1
  Al  Al3  1  0.58534580  0.79378194  0.17069160  1
  H  H4  1  0.34820024  0.02194056  0.69640048  1
  H  H5  1  0.65179976  0.52194056  0.30359952  1
  H  H6  1  0.31628786  0.49020081  0.63257572  1
  H  H7  1  0.68371214  0.99020081  0.36742428  1
  H  H8  1  0.07627853  0.81422934  0.15255706  1
  H  H9  1  0.92372147  0.31422934  0.84744294  1
  H  H10  1  0.52164736  0.11391752  0.04329472  1
  H  H11  1  0.47835264  0.61391752  0.95670528  1
