# generated using pymatgen
data_V5BiO10
_symmetry_space_group_name_H-M   'P 1'
_cell_length_a   9.96434393
_cell_length_b   10.43369629
_cell_length_c   9.96434393
_cell_angle_alpha   61.47723452
_cell_angle_beta   90.00000000
_cell_angle_gamma   61.47724070
_symmetry_Int_Tables_number   1
_chemical_formula_structural   V5BiO10
_chemical_formula_sum   'V20 Bi4 O40'
_cell_volume   764.05404342
_cell_formula_units_Z   4
loop_
 _symmetry_equiv_pos_site_id
 _symmetry_equiv_pos_as_xyz
  1  'x, y, z'
loop_
 _atom_site_type_symbol
 _atom_site_label
 _atom_site_symmetry_multiplicity
 _atom_site_fract_x
 _atom_site_fract_y
 _atom_site_fract_z
 _atom_site_occupancy
  V  V0  1  0.04025469  0.20533465  0.56619068  1
  V  V1  1  0.17413517  0.99365234  0.35684590  1
  V  V2  1  0.22847467  0.20533465  0.04025469  1
  V  V3  1  0.03380932  0.59466535  0.84558934  1
  V  V4  1  0.35684590  0.99365234  0.83221249  1
  V  V5  1  0.15105740  0.40000000  0.63099650  1
  V  V6  1  0.44894260  0.40000000  0.96900350  1
  V  V7  1  0.64950176  0.99365234  0.17413517  1
  V  V8  1  0.24315410  0.80634766  0.76778751  1
  V  V9  1  0.37152533  0.59466535  0.55974531  1
  V  V10  1  0.56619068  0.20533465  0.75441066  1
  V  V11  1  0.42586483  0.80634766  0.24315410  1
  V  V12  1  0.83221249  0.99365234  0.64950176  1
  V  V13  1  0.63099650  0.40000000  0.44894260  1
  V  V14  1  0.55974531  0.59466535  0.03380932  1
  V  V15  1  0.75441066  0.20533465  0.22847467  1
  V  V16  1  0.84558934  0.59466535  0.37152533  1
  V  V17  1  0.96900350  0.40000000  0.15105740  1
  V  V18  1  0.76778751  0.80634766  0.95049824  1
  V  V19  1  0.95049824  0.80634766  0.42586483  1
  Bi  Bi20  1  0.41202622  0.17594756  0.41202622  1
  Bi  Bi21  1  0.18797378  0.62405244  0.18797378  1
  Bi  Bi22  1  0.98204930  0.03590141  0.98204930  1
  Bi  Bi23  1  0.61795070  0.76409859  0.61795070  1
  O  O24  1  0.14802957  0.00613019  0.80457228  1
  O  O25  1  0.16487255  0.00118517  0.54255537  1
  O  O26  1  0.18929753  0.00613019  0.14802957  1
  O  O27  1  0.00240421  0.60851761  0.04176799  1
  O  O28  1  0.21092282  0.19148239  0.25028560  1
  O  O29  1  0.24121478  0.19425625  0.86388131  1
  O  O30  1  0.03547104  0.60574375  0.65813756  1
  O  O31  1  0.04176799  0.60851761  0.38907718  1
  O  O32  1  0.25028560  0.19148239  0.59759579  1
  O  O33  1  0.25428094  0.40000000  0.96668475  1
  O  O34  1  0.45625846  0.00118517  0.16487255  1
  O  O35  1  0.05744463  0.79881483  0.76605771  1
  O  O36  1  0.14374154  0.79881483  0.43512745  1
  O  O37  1  0.34571906  0.40000000  0.63331525  1
  O  O38  1  0.54255537  0.00118517  0.83394229  1
  O  O39  1  0.34971440  0.60851761  0.00240421  1
  O  O40  1  0.55823201  0.19148239  0.21092282  1
  O  O41  1  0.35878522  0.60574375  0.73611869  1
  O  O42  1  0.56452896  0.19425625  0.94186244  1
  O  O43  1  0.59759579  0.19148239  0.55823201  1
  O  O44  1  0.38907718  0.60851761  0.34971440  1
  O  O45  1  0.41070247  0.79386981  0.45197043  1
  O  O46  1  0.59514036  0.40000000  0.64418546  1
  O  O47  1  0.80457228  0.00613019  0.84584024  1
  O  O48  1  0.43512745  0.79881483  0.05744463  1
  O  O49  1  0.83394229  0.00118517  0.45625846  1
  O  O50  1  0.63331525  0.40000000  0.25428094  1
  O  O51  1  0.64418546  0.40000000  0.00485964  1
  O  O52  1  0.45197043  0.79386981  0.79542772  1
  O  O53  1  0.84584024  0.00613019  0.18929753  1
  O  O54  1  0.86388131  0.19425625  0.56452896  1
  O  O55  1  0.65813756  0.60574375  0.35878522  1
  O  O56  1  0.73611869  0.60574375  0.03547104  1
  O  O57  1  0.94186244  0.19425625  0.24121478  1
  O  O58  1  0.95581454  0.40000000  0.59514036  1
  O  O59  1  0.75415976  0.79386981  0.41070247  1
  O  O60  1  0.96668475  0.40000000  0.34571906  1
  O  O61  1  0.76605771  0.79881483  0.14374154  1
  O  O62  1  0.00485964  0.40000000  0.95581454  1
  O  O63  1  0.79542772  0.79386981  0.75415976  1
