# generated using pymatgen
data_Li9Mn2Co5O16
_symmetry_space_group_name_H-M   'P 1'
_cell_length_a   3.01849911
_cell_length_b   15.62137055
_cell_length_c   6.42990863
_cell_angle_alpha   88.56275776
_cell_angle_beta   76.66669502
_cell_angle_gamma   81.92110590
_symmetry_Int_Tables_number   1
_chemical_formula_structural   Li9Mn2Co5O16
_chemical_formula_sum   'Li9 Mn2 Co5 O16'
_cell_volume   292.08123303
_cell_formula_units_Z   1
loop_
 _symmetry_equiv_pos_site_id
 _symmetry_equiv_pos_as_xyz
  1  'x, y, z'
loop_
 _atom_site_type_symbol
 _atom_site_label
 _atom_site_symmetry_multiplicity
 _atom_site_fract_x
 _atom_site_fract_y
 _atom_site_fract_z
 _atom_site_occupancy
  Li  Li0  1  0.75010164  0.18772568  0.12692729  1
  Li  Li1  1  0.75021840  0.43837493  0.62162892  1
  Li  Li2  1  0.74165678  0.69006261  0.12834340  1
  Li  Li3  1  0.24989836  0.31227432  0.87307271  1
  Li  Li4  1  0.23882612  0.56302734  0.38464278  1
  Li  Li5  1  0.25834322  0.80993739  0.87165660  1
  Li  Li6  1  0.76117388  0.93697266  0.61535722  1
  Li  Li7  1  0.24978160  0.06162507  0.37837108  1
  Li  Li8  1  -0.00000000  0.75000000  0.50000000  1
  Mn  Mn9  1  -0.00314074  0.99841860  0.00147739  1
  Mn  Mn10  1  0.00314074  0.50158140  0.99852261  1
  Co  Co11  1  -0.00000000  0.25000000  0.50000000  1
  Co  Co12  1  0.50145438  0.37359464  0.25000164  1
  Co  Co13  1  0.49109724  0.63135506  0.73993495  1
  Co  Co14  1  0.50890276  0.86864494  0.26006505  1
  Co  Co15  1  0.49854562  0.12640536  0.74999836  1
  O  O16  1  0.34586794  0.09252554  0.04821626  1
  O  O17  1  0.35464430  0.33968158  0.54642992  1
  O  O18  1  0.36144307  0.59420119  0.03850853  1
  O  O19  1  0.90039923  0.21624634  0.79397037  1
  O  O20  1  0.90414625  0.46534823  0.29713938  1
  O  O21  1  0.85747741  0.71085915  0.80653837  1
  O  O22  1  0.38101719  0.84870484  0.53368226  1
  O  O23  1  0.86111670  0.96464857  0.29814057  1
  O  O24  1  0.09960077  0.28375366  0.20602963  1
  O  O25  1  0.13888330  0.53535143  0.70185943  1
  O  O26  1  0.14252259  0.78914085  0.19346163  1
  O  O27  1  0.65413206  0.40747446  0.95178374  1
  O  O28  1  0.61898281  0.65129516  0.46631774  1
  O  O29  1  0.63855693  0.90579981  0.96149147  1
  O  O30  1  0.09585375  0.03465277  0.70286062  1
  O  O31  1  0.64535570  0.16031942  0.45357008  1
