# generated using pymatgen
data_NaFeBO3
_symmetry_space_group_name_H-M   'P 1'
_cell_length_a   5.14441184
_cell_length_b   9.00443255
_cell_length_c   5.71175940
_cell_angle_alpha   90.00000000
_cell_angle_beta   100.28501786
_cell_angle_gamma   90.00000000
_symmetry_Int_Tables_number   1
_chemical_formula_structural   NaFeBO3
_chemical_formula_sum   'Na4 Fe4 B4 O12'
_cell_volume   260.33164462
_cell_formula_units_Z   4
loop_
 _symmetry_equiv_pos_site_id
 _symmetry_equiv_pos_as_xyz
  1  'x, y, z'
loop_
 _atom_site_type_symbol
 _atom_site_label
 _atom_site_symmetry_multiplicity
 _atom_site_fract_x
 _atom_site_fract_y
 _atom_site_fract_z
 _atom_site_occupancy
  Na  Na0  1  -0.00000000  0.66302130  0.75000000  1
  Na  Na1  1  -0.00000000  0.33697870  0.25000000  1
  Na  Na2  1  0.50000000  0.16302130  0.75000000  1
  Na  Na3  1  0.50000000  0.83697870  0.25000000  1
  Fe  Fe4  1  -0.00000000  0.00000000  0.50000000  1
  Fe  Fe5  1  -0.00000000  0.00000000  -0.00000000  1
  Fe  Fe6  1  0.50000000  0.50000000  0.50000000  1
  Fe  Fe7  1  0.50000000  0.50000000  -0.00000000  1
  B  B8  1  -0.00000000  0.33054196  0.75000000  1
  B  B9  1  -0.00000000  0.66945804  0.25000000  1
  B  B10  1  0.50000000  0.83054196  0.75000000  1
  B  B11  1  0.50000000  0.16945804  0.25000000  1
  O  O12  1  -0.00000000  0.17477364  0.75000000  1
  O  O13  1  -0.00000000  0.82522636  0.25000000  1
  O  O14  1  0.22024681  0.40513046  0.70274683  1
  O  O15  1  0.27975319  0.90513046  0.79725317  1
  O  O16  1  0.22024681  0.59486954  0.20274683  1
  O  O17  1  0.27975319  0.09486954  0.29725317  1
  O  O18  1  0.50000000  0.67477364  0.75000000  1
  O  O19  1  0.50000000  0.32522636  0.25000000  1
  O  O20  1  0.72024681  0.90513046  0.70274683  1
  O  O21  1  0.77975319  0.40513046  0.79725317  1
  O  O22  1  0.72024681  0.09486954  0.20274683  1
  O  O23  1  0.77975319  0.59486954  0.29725317  1
