# generated using pymatgen
data_Li5GeAs3
_symmetry_space_group_name_H-M   'P 1'
_cell_length_a   8.67338121
_cell_length_b   12.89450309
_cell_length_c   10.58821625
_cell_angle_alpha   34.99872294
_cell_angle_beta   34.99979835
_cell_angle_gamma   59.64635918
_symmetry_Int_Tables_number   1
_chemical_formula_structural   Li5GeAs3
_chemical_formula_sum   'Li10 Ge2 As6'
_cell_volume   336.55239111
_cell_formula_units_Z   2
loop_
 _symmetry_equiv_pos_site_id
 _symmetry_equiv_pos_as_xyz
  1  'x, y, z'
loop_
 _atom_site_type_symbol
 _atom_site_label
 _atom_site_symmetry_multiplicity
 _atom_site_fract_x
 _atom_site_fract_y
 _atom_site_fract_z
 _atom_site_occupancy
  Li  Li0  1  0.00023325  0.33298810  0.24840923  1
  Li  Li1  1  0.00234930  0.66666700  0.24765070  1
  Li  Li2  1  0.50952150  0.33828901  0.23941403  1
  Li  Li3  1  0.00398299  0.00034490  0.24737454  1
  Li  Li4  1  0.49047850  0.99504399  0.76058597  1
  Li  Li5  1  0.99765070  0.66666700  0.75234930  1
  Li  Li6  1  0.50321760  0.33828901  0.74571793  1
  Li  Li7  1  0.49678240  0.99504399  0.25428207  1
  Li  Li8  1  0.99976675  0.00034490  0.75159077  1
  Li  Li9  1  0.99601701  0.33298810  0.75262546  1
  Ge  Ge10  1  0.48496069  0.66666700  0.26503931  1
  Ge  Ge11  1  0.51503931  0.66666700  0.73496069  1
  As  As12  1  0.97433998  0.98863826  0.03168785  1
  As  As13  1  0.02566002  0.34469474  0.96831215  1
  As  As14  1  0.50363047  0.98863826  0.00239737  1
  As  As15  1  0.00000000  0.66666700  0.00000000  1
  As  As16  1  0.49636953  0.34469474  0.99760263  1
  As  As17  1  0.50000000  0.66666700  0.00000000  1
