# generated using pymatgen
data_Li3Mn3(PO4)4
_symmetry_space_group_name_H-M   'P 1'
_cell_length_a   6.84345096
_cell_length_b   9.90830043
_cell_length_c   10.49368215
_cell_angle_alpha   91.43209879
_cell_angle_beta   89.99999986
_cell_angle_gamma   69.79749413
_symmetry_Int_Tables_number   1
_chemical_formula_structural   Li3Mn3(PO4)4
_chemical_formula_sum   'Li6 Mn6 P8 O32'
_cell_volume   667.53222719
_cell_formula_units_Z   2
loop_
 _symmetry_equiv_pos_site_id
 _symmetry_equiv_pos_as_xyz
  1  'x, y, z'
loop_
 _atom_site_type_symbol
 _atom_site_label
 _atom_site_symmetry_multiplicity
 _atom_site_fract_x
 _atom_site_fract_y
 _atom_site_fract_z
 _atom_site_occupancy
  Li  Li0  1  0.97594124  0.85519466  0.44228694  1
  Li  Li1  1  0.46209093  1.00000000  0.25000000  1
  Li  Li2  1  0.83113591  0.14480534  0.05771306  1
  Li  Li3  1  0.16886409  0.85519466  0.94228694  1
  Li  Li4  1  0.02405876  0.14480534  0.55771306  1
  Li  Li5  1  0.53790907  0.00000000  0.75000000  1
  Mn  Mn6  1  0.63793450  0.68652017  0.75473456  1
  Mn  Mn7  1  0.67554433  0.68652017  0.25473456  1
  Mn  Mn8  1  0.50000000  0.50000000  0.50000000  1
  Mn  Mn9  1  0.32445567  0.31347983  0.74526544  1
  Mn  Mn10  1  0.36206550  0.31347983  0.24526544  1
  Mn  Mn11  1  -0.00000000  0.50000000  -0.00000000  1
  P  P12  1  0.41205152  0.83950170  0.50346522  1
  P  P13  1  0.74844578  0.83950170  0.00346522  1
  P  P14  1  0.82753967  0.39245627  0.24692582  1
  P  P15  1  0.17246033  0.60754373  0.75307418  1
  P  P16  1  0.78000506  0.39245627  0.74692582  1
  P  P17  1  0.25155422  0.16049830  0.99653478  1
  P  P18  1  0.21999494  0.60754373  0.25307418  1
  P  P19  1  0.58794848  0.16049830  0.49653478  1
  O  O20  1  0.59944510  0.83085106  0.89193882  1
  O  O21  1  0.22978213  0.48863675  0.14486696  1
  O  O22  1  0.35732321  0.69175155  0.21832362  1
  O  O23  1  0.81900343  0.96669084  0.98762840  1
  O  O24  1  0.77021787  0.51136325  0.85513304  1
  O  O25  1  0.68055750  0.51519158  0.64107819  1
  O  O26  1  0.56970384  0.83085106  0.39193882  1
  O  O27  1  0.04907477  0.30824845  0.28167638  1
  O  O28  1  0.21430573  0.96669084  0.48762840  1
  O  O29  1  0.95092523  0.69175155  0.71832362  1
  O  O30  1  0.36732705  0.15617768  0.86671940  1
  O  O31  1  0.47649527  0.15617768  0.36671940  1
  O  O32  1  0.00151257  0.69928127  0.29780137  1
  O  O33  1  0.43029616  0.16914894  0.60806118  1
  O  O34  1  0.18099657  0.03330916  0.01237160  1
  O  O35  1  0.52350473  0.84382232  0.63328060  1
  O  O36  1  0.28158111  0.48863675  0.64486696  1
  O  O37  1  0.19574909  0.48480842  0.85892181  1
  O  O38  1  0.71841889  0.51136325  0.35513304  1
  O  O39  1  0.80425091  0.51519158  0.14107819  1
  O  O40  1  0.99848743  0.30071873  0.70219863  1
  O  O41  1  0.65061130  0.29797252  0.49920490  1
  O  O42  1  0.64267679  0.30824845  0.78167638  1
  O  O43  1  0.05141518  0.29797252  0.99920490  1
  O  O44  1  0.78569427  0.03330916  0.51237160  1
  O  O45  1  0.31944250  0.48480842  0.35892181  1
  O  O46  1  0.63267295  0.84382232  0.13328060  1
  O  O47  1  0.34938870  0.70202748  0.50079510  1
  O  O48  1  0.94858482  0.70202748  0.00079510  1
  O  O49  1  0.40055490  0.16914894  0.10806118  1
  O  O50  1  0.70079484  0.30071873  0.20219863  1
  O  O51  1  0.29920516  0.69928127  0.79780137  1
