# generated using pymatgen
data_NaLi15V16O48
_symmetry_space_group_name_H-M   'P 1'
_cell_length_a   10.13591815
_cell_length_b   8.63657388
_cell_length_c   15.26131716
_cell_angle_alpha   73.56327022
_cell_angle_beta   71.74865022
_cell_angle_gamma   115.21638715
_symmetry_Int_Tables_number   1
_chemical_formula_structural   NaLi15V16O48
_chemical_formula_sum   'Na1 Li15 V16 O48'
_cell_volume   1004.05243860
_cell_formula_units_Z   1
loop_
 _symmetry_equiv_pos_site_id
 _symmetry_equiv_pos_as_xyz
  1  'x, y, z'
loop_
 _atom_site_type_symbol
 _atom_site_label
 _atom_site_symmetry_multiplicity
 _atom_site_fract_x
 _atom_site_fract_y
 _atom_site_fract_z
 _atom_site_occupancy
  Na  Na0  1  0.43750000  0.33743666  0.18750000  1
  Li  Li1  1  0.06281557  0.29683398  0.31190929  1
  Li  Li2  1  0.06283390  0.65265402  0.31234391  1
  Li  Li3  1  0.43750000  0.70708379  0.18750000  1
  Li  Li4  1  0.81216610  0.15216304  0.06265609  1
  Li  Li5  1  0.81218443  0.79592671  0.06309071  1
  Li  Li6  1  0.31251759  0.15293227  0.56262355  1
  Li  Li7  1  0.31266030  0.79513811  0.56265341  1
  Li  Li8  1  0.68740996  0.20494660  0.43726868  1
  Li  Li9  1  0.68851782  0.84730196  0.43761826  1
  Li  Li10  1  0.18759004  0.20480631  0.93773132  1
  Li  Li11  1  0.18648218  0.84640340  0.93738174  1
  Li  Li12  1  0.56233970  0.29513123  0.81234659  1
  Li  Li13  1  0.56248241  0.65303823  0.81237645  1
  Li  Li14  1  0.93750000  0.34724223  0.68750000  1
  Li  Li15  1  0.93750000  0.70470414  0.68750000  1
  V  V16  1  0.30287869  0.54149817  0.03839392  1
  V  V17  1  0.31944876  0.02144984  0.08301404  1
  V  V18  1  0.17719622  0.97209899  0.41828662  1
  V  V19  1  0.19479591  0.46212498  0.46016937  1
  V  V20  1  0.55555124  0.03501512  0.29198596  1
  V  V21  1  0.57212131  0.52701240  0.33660608  1
  V  V22  1  0.92882587  0.47700395  0.16523316  1
  V  V23  1  0.94617413  0.96341124  0.20976684  1
  V  V24  1  0.05501516  0.03775259  0.79036719  1
  V  V25  1  0.07137475  0.52346998  0.83404294  1
  V  V26  1  0.42964825  0.47667948  0.66557077  1
  V  V27  1  0.44535175  0.96260200  0.70942923  1
  V  V28  1  0.80362525  0.53613817  0.54095706  1
  V  V29  1  0.81998484  0.02310461  0.58463281  1
  V  V30  1  0.68020409  0.97749844  0.91483063  1
  V  V31  1  0.69780378  0.46318939  0.95671338  1
  O  O32  1  0.12610233  0.56456623  0.05279756  1
  O  O33  1  0.28431361  0.37090559  0.00284426  1
  O  O34  1  0.12341225  0.93988519  0.19415606  1
  O  O35  1  0.33892348  0.83657168  0.12364420  1
  O  O36  1  0.30850797  0.48289216  0.15155248  1
  O  O37  1  0.50175385  0.23519845  0.06365202  1
  O  O38  1  0.69370142  0.94466616  0.02567088  1
  O  O39  1  0.00178870  0.75908259  0.43104455  1
  O  O40  1  0.18129858  0.52663561  0.34932912  1
  O  O41  1  0.16270540  0.16109365  0.37482069  1
  O  O42  1  0.37324615  0.04709563  0.31134798  1
  O  O43  1  0.56649203  0.57593766  0.22344752  1
  O  O44  1  0.53607652  0.87129240  0.25135580  1
  O  O45  1  0.75158775  0.26062900  0.18084394  1
  O  O46  1  0.93094569  0.02636314  0.09950544  1
  O  O47  1  0.21452726  0.62761664  0.49956727  1
  O  O48  1  0.90901279  0.66206594  0.12645826  1
  O  O49  1  0.19115370  0.94237563  0.52865042  1
  O  O50  1  0.37055237  0.43657455  0.44602184  1
  O  O51  1  0.59068639  0.33943624  0.37215574  1
  O  O52  1  0.57023337  0.97133729  0.40218560  1
  O  O53  1  0.74889767  0.74126147  0.32220244  1
  O  O54  1  0.05646228  0.55549479  0.72377249  1
  O  O55  1  0.96598721  0.12951142  0.24854174  1
  O  O56  1  0.03421928  0.87126876  0.75154177  1
  O  O57  1  0.94405431  0.44492289  0.27549456  1
  O  O58  1  0.25376637  0.26042217  0.68035139  1
  O  O59  1  0.43130833  0.02682423  0.59886226  1
  O  O60  1  0.40930255  0.66145487  0.62641763  1
  O  O61  1  0.62807276  0.56223933  0.55551018  1
  O  O62  1  0.80703894  0.05609596  0.47373414  1
  O  O63  1  0.09096765  0.33818978  0.87361826  1
  O  O64  1  0.78403235  0.37083939  0.50138174  1
  O  O65  1  0.06796106  0.97279116  0.90126586  1
  O  O66  1  0.24692724  0.73967575  0.81948982  1
  O  O67  1  0.46569745  0.12856995  0.74858237  1
  O  O68  1  0.44369167  0.44437815  0.77613774  1
  O  O69  1  0.62123363  0.93700719  0.69464861  1
  O  O70  1  0.84078072  0.83859024  0.62345823  1
  O  O71  1  0.81853772  0.47280599  0.65122751  1
  O  O72  1  0.99601682  0.23920698  0.56983396  1
  O  O73  1  0.30476663  0.05328952  0.97281440  1
  O  O74  1  0.50444763  0.76204402  0.92897816  1
  O  O75  1  0.68384630  0.52987235  0.84634958  1
  O  O76  1  0.66047274  0.16265565  0.87543273  1
  O  O77  1  0.87898318  0.06302413  0.80516604  1
  O  O78  1  0.71229460  0.62320894  0.00017931  1
  O  O79  1  0.87321130  0.43833843  0.94395545  1
