# generated using pymatgen
data_ErMn2
_symmetry_space_group_name_H-M   'P 1'
_cell_length_a   5.20413648
_cell_length_b   5.20413648
_cell_length_c   8.51796066
_cell_angle_alpha   89.94284641
_cell_angle_beta   89.94284641
_cell_angle_gamma   61.84376902
_symmetry_Int_Tables_number   1
_chemical_formula_structural   ErMn2
_chemical_formula_sum   'Er4 Mn8'
_cell_volume   203.39294698
_cell_formula_units_Z   4
loop_
 _symmetry_equiv_pos_site_id
 _symmetry_equiv_pos_as_xyz
  1  'x, y, z'
loop_
 _atom_site_type_symbol
 _atom_site_label
 _atom_site_symmetry_multiplicity
 _atom_site_fract_x
 _atom_site_fract_y
 _atom_site_fract_z
 _atom_site_occupancy
  Er  Er0  1  0.66827007  0.66827007  0.93738227  1
  Er  Er1  1  0.33172993  0.33172993  0.06261773  1
  Er  Er2  1  0.33186193  0.33186193  0.43722525  1
  Er  Er3  1  0.66813807  0.66813807  0.56277475  1
  Mn  Mn4  1  -0.00000000  -0.00000000  0.00000000  1
  Mn  Mn5  1  -0.00000000  -0.00000000  0.50000000  1
  Mn  Mn6  1  0.18447258  0.18447258  0.75041951  1
  Mn  Mn7  1  0.81552742  0.81552742  0.24958049  1
  Mn  Mn8  1  0.32097910  0.83139954  0.24982206  1
  Mn  Mn9  1  0.83139954  0.32097910  0.24982206  1
  Mn  Mn10  1  0.67902090  0.16860046  0.75017794  1
  Mn  Mn11  1  0.16860046  0.67902090  0.75017794  1
