# generated using pymatgen
data_Sc(P2Rh3)2
_symmetry_space_group_name_H-M   'P 1'
_cell_length_a   3.67634955
_cell_length_b   7.00917399
_cell_length_c   7.00884212
_cell_angle_alpha   119.99590561
_cell_angle_beta   90.00003281
_cell_angle_gamma   90.00041419
_symmetry_Int_Tables_number   1
_chemical_formula_structural   Sc(P2Rh3)2
_chemical_formula_sum   'Sc1 P4 Rh6'
_cell_volume   156.41502345
_cell_formula_units_Z   1
loop_
 _symmetry_equiv_pos_site_id
 _symmetry_equiv_pos_as_xyz
  1  'x, y, z'
loop_
 _atom_site_type_symbol
 _atom_site_label
 _atom_site_symmetry_multiplicity
 _atom_site_fract_x
 _atom_site_fract_y
 _atom_site_fract_z
 _atom_site_occupancy
  Sc  Sc0  1  0.99975341  0.99999629  0.99996671  1
  P  P1  1  0.00025163  0.66663605  0.33329173  1
  P  P2  1  0.49999818  0.62638554  0.80859227  1
  P  P3  1  0.50001743  0.19139228  0.81781247  1
  P  P4  1  0.50000099  0.18215477  0.37361289  1
  Rh  Rh5  1  0.99990798  0.06549448  0.51804657  1
  Rh  Rh6  1  0.99991074  0.48194095  0.54748972  1
  Rh  Rh7  1  0.99987380  0.45255662  0.93447334  1
  Rh  Rh8  1  0.49987534  0.38601775  0.20145794  1
  Rh  Rh9  1  0.49993956  0.79864108  0.18459861  1
  Rh  Rh10  1  0.49987096  0.81538418  0.61395774  1
