# generated using pymatgen
data_Be12Fe
_symmetry_space_group_name_H-M   'P 1'
_cell_length_a   4.07822944
_cell_length_b   5.45204285
_cell_length_c   5.45204285
_cell_angle_alpha   81.95893000
_cell_angle_beta   68.03691023
_cell_angle_gamma   68.03691023
_symmetry_Int_Tables_number   1
_chemical_formula_structural   Be12Fe
_chemical_formula_sum   'Be12 Fe1'
_cell_volume   104.26721166
_cell_formula_units_Z   1
loop_
 _symmetry_equiv_pos_site_id
 _symmetry_equiv_pos_as_xyz
  1  'x, y, z'
loop_
 _atom_site_type_symbol
 _atom_site_label
 _atom_site_symmetry_multiplicity
 _atom_site_fract_x
 _atom_site_fract_y
 _atom_site_fract_z
 _atom_site_occupancy
  Be  Be0  1  -0.00000000  0.00000000  0.50000000  1
  Be  Be1  1  0.50000000  0.00000000  0.50000000  1
  Be  Be2  1  0.50000000  0.50000000  0.00000000  1
  Be  Be3  1  -0.00000000  0.50000000  0.00000000  1
  Be  Be4  1  -0.00000000  0.34602527  0.65397473  1
  Be  Be5  1  -0.00000000  0.65397473  0.34602527  1
  Be  Be6  1  0.65397473  0.34602527  0.34602527  1
  Be  Be7  1  0.34602527  0.65397473  0.65397473  1
  Be  Be8  1  0.50000000  0.79034185  0.20965815  1
  Be  Be9  1  0.50000000  0.20965815  0.79034185  1
  Be  Be10  1  0.70965815  0.79034185  0.79034185  1
  Be  Be11  1  0.29034185  0.20965815  0.20965815  1
  Fe  Fe12  1  -0.00000000  0.00000000  0.00000000  1
