# generated using pymatgen
data_Er(Mo3S4)2
_symmetry_space_group_name_H-M   'P 1'
_cell_length_a   6.49552713
_cell_length_b   6.49552766
_cell_length_c   6.49552713
_cell_angle_alpha   89.51853478
_cell_angle_beta   90.48146449
_cell_angle_gamma   90.48146522
_symmetry_Int_Tables_number   1
_chemical_formula_structural   Er(Mo3S4)2
_chemical_formula_sum   'Er1 Mo6 S8'
_cell_volume   274.02960932
_cell_formula_units_Z   1
loop_
 _symmetry_equiv_pos_site_id
 _symmetry_equiv_pos_as_xyz
  1  'x, y, z'
loop_
 _atom_site_type_symbol
 _atom_site_label
 _atom_site_symmetry_multiplicity
 _atom_site_fract_x
 _atom_site_fract_y
 _atom_site_fract_z
 _atom_site_occupancy
  Er  Er0  1  -0.00000000  -0.00000000  -0.00000000  1
  Mo  Mo1  1  0.41972073  0.43990891  0.77691756  1
  Mo  Mo2  1  0.22308244  0.58027927  0.43990891  1
  Mo  Mo3  1  0.56009109  0.77691756  0.58027927  1
  Mo  Mo4  1  0.58027927  0.56009109  0.22308244  1
  Mo  Mo5  1  0.77691756  0.41972073  0.56009109  1
  Mo  Mo6  1  0.43990891  0.22308244  0.41972073  1
  S  S7  1  0.23704432  0.76295568  0.76295568  1
  S  S8  1  0.76295568  0.23704432  0.23704432  1
  S  S9  1  0.36766237  0.87200879  0.24816412  1
  S  S10  1  0.75183588  0.63233763  0.87200879  1
  S  S11  1  0.12799121  0.24816412  0.63233763  1
  S  S12  1  0.63233763  0.12799121  0.75183588  1
  S  S13  1  0.24816412  0.36766237  0.12799121  1
  S  S14  1  0.87200879  0.75183588  0.36766237  1
