# generated using pymatgen
data_RbV5S8
_symmetry_space_group_name_H-M   'P 1'
_cell_length_a   3.29232503
_cell_length_b   8.54594078
_cell_length_c   9.04992197
_cell_angle_alpha   104.09384456
_cell_angle_beta   100.48033046
_cell_angle_gamma   90.00000000
_symmetry_Int_Tables_number   1
_chemical_formula_structural   RbV5S8
_chemical_formula_sum   'Rb1 V5 S8'
_cell_volume   242.58190181
_cell_formula_units_Z   1
loop_
 _symmetry_equiv_pos_site_id
 _symmetry_equiv_pos_as_xyz
  1  'x, y, z'
loop_
 _atom_site_type_symbol
 _atom_site_label
 _atom_site_symmetry_multiplicity
 _atom_site_fract_x
 _atom_site_fract_y
 _atom_site_fract_z
 _atom_site_occupancy
  Rb  Rb0  1  0.50000000  0.00000000  -0.00000000  1
  V  V1  1  -0.00000000  0.50000000  -0.00000000  1
  V  V2  1  0.71091951  0.85579158  0.42183902  1
  V  V3  1  0.28908049  0.14420842  0.57816098  1
  V  V4  1  0.64900241  0.49786494  0.29800481  1
  V  V5  1  0.35099759  0.50213506  0.70199519  1
  S  S6  1  0.83750002  0.99958543  0.67500004  1
  S  S7  1  0.16249998  0.00041457  0.32499996  1
  S  S8  1  0.76076922  0.34008262  0.52153844  1
  S  S9  1  0.23923078  0.65991738  0.47846156  1
  S  S10  1  0.91326215  0.67761439  0.82652430  1
  S  S11  1  0.08673785  0.32238561  0.17347570  1
  S  S12  1  0.57397149  0.67694430  0.14794298  1
  S  S13  1  0.42602851  0.32305570  0.85205702  1
