# generated using pymatgen
data_Tm3Ga9Pt2
_symmetry_space_group_name_H-M   'P 1'
_cell_length_a   4.21601664
_cell_length_b   8.14082341
_cell_length_c   8.14082341
_cell_angle_alpha   74.81753132
_cell_angle_beta   74.99265392
_cell_angle_gamma   74.99265392
_symmetry_Int_Tables_number   1
_chemical_formula_structural   Tm3Ga9Pt2
_chemical_formula_sum   'Tm3 Ga9 Pt2'
_cell_volume   254.92516379
_cell_formula_units_Z   1
loop_
 _symmetry_equiv_pos_site_id
 _symmetry_equiv_pos_as_xyz
  1  'x, y, z'
loop_
 _atom_site_type_symbol
 _atom_site_label
 _atom_site_symmetry_multiplicity
 _atom_site_fract_x
 _atom_site_fract_y
 _atom_site_fract_z
 _atom_site_occupancy
  Tm  Tm0  1  0.00000000  -0.00000000  0.00000000  1
  Tm  Tm1  1  0.30921053  0.69078947  0.69078947  1
  Tm  Tm2  1  0.69078947  0.30921053  0.30921053  1
  Ga  Ga3  1  0.00000000  0.50000000  0.50000000  1
  Ga  Ga4  1  0.34286780  0.28597636  0.02828805  1
  Ga  Ga5  1  0.65713220  0.71402364  0.97171195  1
  Ga  Ga6  1  0.34286780  0.02828805  0.28597636  1
  Ga  Ga7  1  0.65713220  0.97171195  0.71402364  1
  Ga  Ga8  1  0.13697707  0.57977009  0.14627578  1
  Ga  Ga9  1  0.86302293  0.42022991  0.85372422  1
  Ga  Ga10  1  0.13697707  0.14627578  0.57977009  1
  Ga  Ga11  1  0.86302293  0.85372422  0.42022991  1
  Pt  Pt12  1  0.50000000  0.30272829  0.69727171  1
  Pt  Pt13  1  0.50000000  0.69727171  0.30272829  1
