# generated using pymatgen
data_Ho2Te5
_symmetry_space_group_name_H-M   'P 1'
_cell_length_a   4.37966422
_cell_length_b   4.38161792
_cell_length_c   21.97485561
_cell_angle_alpha   90.00000000
_cell_angle_beta   95.71911520
_cell_angle_gamma   90.00000000
_symmetry_Int_Tables_number   1
_chemical_formula_structural   Ho2Te5
_chemical_formula_sum   'Ho4 Te10'
_cell_volume   419.59876199
_cell_formula_units_Z   2
loop_
 _symmetry_equiv_pos_site_id
 _symmetry_equiv_pos_as_xyz
  1  'x, y, z'
loop_
 _atom_site_type_symbol
 _atom_site_label
 _atom_site_symmetry_multiplicity
 _atom_site_fract_x
 _atom_site_fract_y
 _atom_site_fract_z
 _atom_site_occupancy
  Ho  Ho0  1  0.09966653  0.75000000  0.19933306  1
  Ho  Ho1  1  0.90033347  0.25000000  0.80066694  1
  Ho  Ho2  1  0.30639257  0.75000000  0.61278513  1
  Ho  Ho3  1  0.69360743  0.25000000  0.38721487  1
  Te  Te4  1  0.95582956  0.75000000  0.91165912  1
  Te  Te5  1  0.04417044  0.25000000  0.08834088  1
  Te  Te6  1  0.54424132  0.75000000  0.08848265  1
  Te  Te7  1  0.45575868  0.25000000  0.91151735  1
  Te  Te8  1  0.75000073  0.75000000  0.50000146  1
  Te  Te9  1  0.24999927  0.25000000  0.49999854  1
  Te  Te10  1  0.17351432  0.75000000  0.34702863  1
  Te  Te11  1  0.82648568  0.25000000  0.65297137  1
  Te  Te12  1  0.37850117  0.75000000  0.75700234  1
  Te  Te13  1  0.62149883  0.25000000  0.24299766  1
