# generated using pymatgen
data_Hf(CoGe)6
_symmetry_space_group_name_H-M   'P 1'
_cell_length_a   5.04648184
_cell_length_b   5.04656387
_cell_length_c   7.79660933
_cell_angle_alpha   90.00000000
_cell_angle_beta   90.00000000
_cell_angle_gamma   119.99946450
_symmetry_Int_Tables_number   1
_chemical_formula_structural   Hf(CoGe)6
_chemical_formula_sum   'Hf1 Co6 Ge6'
_cell_volume   171.95833721
_cell_formula_units_Z   1
loop_
 _symmetry_equiv_pos_site_id
 _symmetry_equiv_pos_as_xyz
  1  'x, y, z'
loop_
 _atom_site_type_symbol
 _atom_site_label
 _atom_site_symmetry_multiplicity
 _atom_site_fract_x
 _atom_site_fract_y
 _atom_site_fract_z
 _atom_site_occupancy
  Hf  Hf0  1  0.99998077  1.00000000  -0.00000000  1
  Co  Co1  1  0.49999731  -0.00000000  0.24900351  1
  Co  Co2  1  0.49999113  0.50000459  0.24900515  1
  Co  Co3  1  0.99998654  0.49999541  0.24900515  1
  Co  Co4  1  0.49999731  -0.00000000  0.75099649  1
  Co  Co5  1  0.49999113  0.50000459  0.75099485  1
  Co  Co6  1  0.99998654  0.49999541  0.75099485  1
  Ge  Ge7  1  0.33331271  0.66667744  -0.00000000  1
  Ge  Ge8  1  0.66663527  0.33332256  -0.00000000  1
  Ge  Ge9  1  0.33331643  0.66669521  0.50000000  1
  Ge  Ge10  1  0.66662121  0.33330479  0.50000000  1
  Ge  Ge11  1  0.99999182  1.00000000  0.33957102  1
  Ge  Ge12  1  0.99999182  1.00000000  0.66042898  1
