# generated using pymatgen
data_Li9Mn2Co5O16
_symmetry_space_group_name_H-M   'P 1'
_cell_length_a   2.97634871
_cell_length_b   15.55889154
_cell_length_c   6.43756403
_cell_angle_alpha   88.84653592
_cell_angle_beta   76.96007836
_cell_angle_gamma   81.63849240
_symmetry_Int_Tables_number   1
_chemical_formula_structural   Li9Mn2Co5O16
_chemical_formula_sum   'Li9 Mn2 Co5 O16'
_cell_volume   287.31562820
_cell_formula_units_Z   1
loop_
 _symmetry_equiv_pos_site_id
 _symmetry_equiv_pos_as_xyz
  1  'x, y, z'
loop_
 _atom_site_type_symbol
 _atom_site_label
 _atom_site_symmetry_multiplicity
 _atom_site_fract_x
 _atom_site_fract_y
 _atom_site_fract_z
 _atom_site_occupancy
  Li  Li0  1  0.73919685  0.18850118  0.13119321  1
  Li  Li1  1  0.75880515  0.43478485  0.62192378  1
  Li  Li2  1  0.76498224  0.68381036  0.12027548  1
  Li  Li3  1  0.24119485  0.31521515  0.87807622  1
  Li  Li4  1  0.26080315  0.56149882  0.36880679  1
  Li  Li5  1  0.24533273  0.81282380  0.88017912  1
  Li  Li6  1  0.75466727  0.93717620  0.61982088  1
  Li  Li7  1  0.23501776  0.06618964  0.37972452  1
  Li  Li8  1  0.50000000  0.37500000  0.25000000  1
  Mn  Mn9  1  0.00931761  0.99806797  0.99774355  1
  Mn  Mn10  1  0.99068239  0.75193203  0.50225645  1
  Co  Co11  1  0.99715902  0.25649652  0.48857711  1
  Co  Co12  1  0.00284098  0.49350348  0.01142289  1
  Co  Co13  1  0.50490962  0.62219385  0.75454109  1
  Co  Co14  1  0.50000000  0.87500000  0.25000000  1
  Co  Co15  1  0.49509038  0.12780615  0.74545891  1
  O  O16  1  0.35555228  0.09094152  0.04881918  1
  O  O17  1  0.36261066  0.33659512  0.55741579  1
  O  O18  1  0.35985567  0.59078075  0.04743713  1
  O  O19  1  0.88936078  0.21754550  0.78799317  1
  O  O20  1  0.88098046  0.47385774  0.28458377  1
  O  O21  1  0.88296373  0.71588715  0.80089654  1
  O  O22  1  0.34752189  0.84274187  0.54697781  1
  O  O23  1  0.91604961  0.95789049  0.29459876  1
  O  O24  1  0.11901954  0.27614226  0.21541623  1
  O  O25  1  0.11063922  0.53245550  0.71200683  1
  O  O26  1  0.08395039  0.79210951  0.20540124  1
  O  O27  1  0.63738934  0.41340488  0.94258421  1
  O  O28  1  0.64444772  0.65905948  0.45118082  1
  O  O29  1  0.65247811  0.90725813  0.95302219  1
  O  O30  1  0.11703627  0.03411285  0.69910346  1
  O  O31  1  0.64014433  0.15922025  0.45256287  1
