# generated using pymatgen
data_DyWClO4
_symmetry_space_group_name_H-M   'P 1'
_cell_length_a   6.37096504
_cell_length_b   6.37096504
_cell_length_c   6.98202690
_cell_angle_alpha   75.71588737
_cell_angle_beta   75.71588737
_cell_angle_gamma   70.68289316
_symmetry_Int_Tables_number   1
_chemical_formula_structural   DyWClO4
_chemical_formula_sum   'Dy2 W2 Cl2 O8'
_cell_volume   254.91319100
_cell_formula_units_Z   2
loop_
 _symmetry_equiv_pos_site_id
 _symmetry_equiv_pos_as_xyz
  1  'x, y, z'
loop_
 _atom_site_type_symbol
 _atom_site_label
 _atom_site_symmetry_multiplicity
 _atom_site_fract_x
 _atom_site_fract_y
 _atom_site_fract_z
 _atom_site_occupancy
  Dy  Dy0  1  0.77745106  0.77745106  0.11870667  1
  Dy  Dy1  1  0.22254894  0.22254894  0.88129333  1
  W  W2  1  0.63674936  0.63674936  0.73399212  1
  W  W3  1  0.36325064  0.36325064  0.26600788  1
  Cl  Cl4  1  0.98848412  0.98848412  0.77152497  1
  Cl  Cl5  1  0.01151588  0.01151588  0.22847503  1
  O  O6  1  0.54559536  0.54559536  0.19501347  1
  O  O7  1  0.45440464  0.45440464  0.80498653  1
  O  O8  1  0.70360831  0.70360831  0.46493154  1
  O  O9  1  0.29639169  0.29639169  0.53506846  1
  O  O10  1  0.10854432  0.49249740  0.15422942  1
  O  O11  1  0.49249740  0.10854432  0.15422942  1
  O  O12  1  0.89145568  0.50750260  0.84577058  1
  O  O13  1  0.50750260  0.89145568  0.84577058  1
