# generated using pymatgen
data_BH5NCl
_symmetry_space_group_name_H-M   'P 1'
_cell_length_a   4.68170784
_cell_length_b   4.68170784
_cell_length_c   8.67051073
_cell_angle_alpha   90.00000000
_cell_angle_beta   90.00000000
_cell_angle_gamma   98.01214053
_symmetry_Int_Tables_number   1
_chemical_formula_structural   BH5NCl
_chemical_formula_sum   'B2 H10 N2 Cl2'
_cell_volume   188.18852095
_cell_formula_units_Z   2
loop_
 _symmetry_equiv_pos_site_id
 _symmetry_equiv_pos_as_xyz
  1  'x, y, z'
loop_
 _atom_site_type_symbol
 _atom_site_label
 _atom_site_symmetry_multiplicity
 _atom_site_fract_x
 _atom_site_fract_y
 _atom_site_fract_z
 _atom_site_occupancy
  B  B0  1  0.14622966  0.14622966  0.52057685  1
  B  B1  1  0.85377034  0.85377034  0.02057685  1
  H  H2  1  0.79534555  0.79534555  0.54512675  1
  H  H3  1  0.20465445  0.20465445  0.04512675  1
  H  H4  1  0.75331651  0.98853221  0.38949780  1
  H  H5  1  0.98853221  0.75331651  0.38949780  1
  H  H6  1  0.24668349  0.01146779  0.88949780  1
  H  H7  1  0.01146779  0.24668349  0.88949780  1
  H  H8  1  0.31775720  0.03000575  0.59296336  1
  H  H9  1  0.03000575  0.31775720  0.59296336  1
  H  H10  1  0.68224280  0.96999425  0.09296336  1
  H  H11  1  0.96999425  0.68224280  0.09296336  1
  N  N12  1  0.90406651  0.90406651  0.45513804  1
  N  N13  1  0.09593349  0.09593349  0.95513804  1
  Cl  Cl14  1  0.33928933  0.33928933  0.34897605  1
  Cl  Cl15  1  0.66071067  0.66071067  0.84897605  1
