# generated using pymatgen
data_Rb2NaCeCl6
_symmetry_space_group_name_H-M   'P 1'
_cell_length_a   7.78452973
_cell_length_b   7.78453008
_cell_length_c   7.78453007
_cell_angle_alpha   59.99999881
_cell_angle_beta   59.99999823
_cell_angle_gamma   59.99999834
_symmetry_Int_Tables_number   1
_chemical_formula_structural   Rb2NaCeCl6
_chemical_formula_sum   'Rb2 Na1 Ce1 Cl6'
_cell_volume   333.56630190
_cell_formula_units_Z   1
loop_
 _symmetry_equiv_pos_site_id
 _symmetry_equiv_pos_as_xyz
  1  'x, y, z'
loop_
 _atom_site_type_symbol
 _atom_site_label
 _atom_site_symmetry_multiplicity
 _atom_site_fract_x
 _atom_site_fract_y
 _atom_site_fract_z
 _atom_site_occupancy
  Rb  Rb0  1  0.25000000  0.25000000  0.25000000  1
  Rb  Rb1  1  0.75000000  0.75000000  0.75000000  1
  Na  Na2  1  0.50000000  0.50000000  0.50000000  1
  Ce  Ce3  1  0.00000000  -0.00000000  0.00000000  1
  Cl  Cl4  1  0.24891512  0.75108488  0.24891512  1
  Cl  Cl5  1  0.75108488  0.75108488  0.24891512  1
  Cl  Cl6  1  0.75108488  0.24891512  0.75108488  1
  Cl  Cl7  1  0.75108488  0.24891512  0.24891512  1
  Cl  Cl8  1  0.24891512  0.75108488  0.75108488  1
  Cl  Cl9  1  0.24891512  0.24891512  0.75108488  1
