# generated using pymatgen
data_Pr(Ge3Pt)4
_symmetry_space_group_name_H-M   'P 1'
_cell_length_a   7.56090764
_cell_length_b   7.56090764
_cell_length_c   7.56090764
_cell_angle_alpha   109.47122063
_cell_angle_beta   109.47122063
_cell_angle_gamma   109.47122063
_symmetry_Int_Tables_number   1
_chemical_formula_structural   Pr(Ge3Pt)4
_chemical_formula_sum   'Pr1 Ge12 Pt4'
_cell_volume   332.73608919
_cell_formula_units_Z   1
loop_
 _symmetry_equiv_pos_site_id
 _symmetry_equiv_pos_as_xyz
  1  'x, y, z'
loop_
 _atom_site_type_symbol
 _atom_site_label
 _atom_site_symmetry_multiplicity
 _atom_site_fract_x
 _atom_site_fract_y
 _atom_site_fract_z
 _atom_site_occupancy
  Pr  Pr0  1  -0.00000000  -0.00000000  0.00000000  1
  Ge  Ge1  1  0.35430783  0.20278558  0.84847775  1
  Ge  Ge2  1  0.64569217  0.79721442  0.15152225  1
  Ge  Ge3  1  0.64569217  0.49416991  0.84847775  1
  Ge  Ge4  1  0.35430783  0.50583009  0.15152225  1
  Ge  Ge5  1  0.20278558  0.84847775  0.35430783  1
  Ge  Ge6  1  0.79721442  0.15152225  0.64569217  1
  Ge  Ge7  1  0.49416991  0.84847775  0.64569217  1
  Ge  Ge8  1  0.50583009  0.15152225  0.35430783  1
  Ge  Ge9  1  0.84847775  0.35430783  0.20278558  1
  Ge  Ge10  1  0.15152225  0.64569217  0.79721442  1
  Ge  Ge11  1  0.84847775  0.64569217  0.49416991  1
  Ge  Ge12  1  0.15152225  0.35430783  0.50583009  1
  Pt  Pt13  1  -0.00000000  -0.00000000  0.50000000  1
  Pt  Pt14  1  0.50000000  0.00000000  0.00000000  1
  Pt  Pt15  1  -0.00000000  0.50000000  0.00000000  1
  Pt  Pt16  1  0.50000000  0.50000000  0.50000000  1
