# generated using pymatgen
data_KP(HO2)2
_symmetry_space_group_name_H-M   'P 1'
_cell_length_a   4.59755414
_cell_length_b   6.12133398
_cell_length_c   7.59053580
_cell_angle_alpha   113.77972312
_cell_angle_beta   90.00000000
_cell_angle_gamma   90.00000000
_symmetry_Int_Tables_number   1
_chemical_formula_structural   KP(HO2)2
_chemical_formula_sum   'K2 P2 H4 O8'
_cell_volume   195.48573253
_cell_formula_units_Z   2
loop_
 _symmetry_equiv_pos_site_id
 _symmetry_equiv_pos_as_xyz
  1  'x, y, z'
loop_
 _atom_site_type_symbol
 _atom_site_label
 _atom_site_symmetry_multiplicity
 _atom_site_fract_x
 _atom_site_fract_y
 _atom_site_fract_z
 _atom_site_occupancy
  K  K0  1  0.25000000  0.12347078  0.24694157  1
  K  K1  1  0.75000000  0.87652922  0.75305843  1
  P  P2  1  0.25000000  0.37015084  0.74030168  1
  P  P3  1  0.75000000  0.62984916  0.25969832  1
  H  H4  1  -0.00000000  0.32109733  0.00000000  1
  H  H5  1  0.50000000  0.67890267  0.00000000  1
  H  H6  1  0.75000000  0.30802051  0.61604103  1
  H  H7  1  0.25000000  0.69197949  0.38395897  1
  O  O8  1  0.17002155  0.23399825  0.86860224  1
  O  O9  1  0.82997845  0.36539601  0.13139776  1
  O  O10  1  0.67002155  0.76600175  0.13139776  1
  O  O11  1  0.32997845  0.63460399  0.86860224  1
  O  O12  1  0.50649236  0.23333434  0.60921496  1
  O  O13  1  0.49350764  0.62411938  0.39078504  1
  O  O14  1  0.00649236  0.76666566  0.39078504  1
  O  O15  1  0.99350764  0.37588062  0.60921496  1
