# generated using pymatgen
data_RbYMnWO6
_symmetry_space_group_name_H-M   'P 1'
_cell_length_a   5.42952421
_cell_length_b   5.62181902
_cell_length_c   9.80023414
_cell_angle_alpha   90.00000000
_cell_angle_beta   93.03108494
_cell_angle_gamma   90.00000000
_symmetry_Int_Tables_number   1
_chemical_formula_structural   RbYMnWO6
_chemical_formula_sum   'Rb2 Y2 Mn2 W2 O12'
_cell_volume   298.72191178
_cell_formula_units_Z   2
loop_
 _symmetry_equiv_pos_site_id
 _symmetry_equiv_pos_as_xyz
  1  'x, y, z'
loop_
 _atom_site_type_symbol
 _atom_site_label
 _atom_site_symmetry_multiplicity
 _atom_site_fract_x
 _atom_site_fract_y
 _atom_site_fract_z
 _atom_site_occupancy
  Rb  Rb0  1  0.23250154  0.77869034  0.01221057  1
  Rb  Rb1  1  0.76749846  0.27869034  0.98778943  1
  Y  Y2  1  0.26986130  0.82727072  0.50108956  1
  Y  Y3  1  0.73013870  0.32727072  0.49891044  1
  Mn  Mn4  1  0.74471452  0.77784402  0.30600056  1
  Mn  Mn5  1  0.25528548  0.27784402  0.69399944  1
  W  W6  1  0.78075879  0.76768908  0.72017679  1
  W  W7  1  0.21924121  0.26768908  0.27982321  1
  O  O8  1  0.57180685  0.03912459  0.64604795  1
  O  O9  1  0.42819315  0.53912459  0.35395205  1
  O  O10  1  0.51425782  0.06633873  0.35215199  1
  O  O11  1  0.48574218  0.56633873  0.64784801  1
  O  O12  1  0.92629082  0.44883152  0.26626634  1
  O  O13  1  0.07370918  0.94883152  0.73373366  1
  O  O14  1  0.94494921  0.46728264  0.74116066  1
  O  O15  1  0.05505079  0.96728264  0.25883934  1
  O  O16  1  0.87105831  0.71986040  0.51057806  1
  O  O17  1  0.12894169  0.21986040  0.48942194  1
  O  O18  1  0.69759953  0.79047797  0.89832995  1
  O  O19  1  0.30240047  0.29047797  0.10167005  1
