# generated using pymatgen
data_As2O3
_symmetry_space_group_name_H-M   'P 1'
_cell_length_a   4.61246856
_cell_length_b   8.92344869
_cell_length_c   8.82723720
_cell_angle_alpha   105.55216022
_cell_angle_beta   90.00000000
_cell_angle_gamma   90.00000000
_symmetry_Int_Tables_number   1
_chemical_formula_structural   As2O3
_chemical_formula_sum   'As8 O12'
_cell_volume   350.01900313
_cell_formula_units_Z   4
loop_
 _symmetry_equiv_pos_site_id
 _symmetry_equiv_pos_as_xyz
  1  'x, y, z'
loop_
 _atom_site_type_symbol
 _atom_site_label
 _atom_site_symmetry_multiplicity
 _atom_site_fract_x
 _atom_site_fract_y
 _atom_site_fract_z
 _atom_site_occupancy
  As  As0  1  0.70475805  0.08488335  0.62043944  1
  As  As1  1  0.20475805  0.91511665  0.37956056  1
  As  As2  1  0.55819463  0.89429483  0.89341079  1
  As  As3  1  0.05819463  0.10570517  0.10658921  1
  As  As4  1  0.09064526  0.61524653  0.59637569  1
  As  As5  1  0.59064526  0.38475347  0.40362431  1
  As  As6  1  0.12950256  0.43504232  0.86889704  1
  As  As7  1  0.62950256  0.56495768  0.13110296  1
  O  O8  1  0.82556853  0.95356823  0.43358484  1
  O  O9  1  0.32556853  0.04643177  0.56641516  1
  O  O10  1  0.76266730  0.94987716  0.73990769  1
  O  O11  1  0.26266730  0.05012284  0.26009231  1
  O  O12  1  0.85596945  0.92250838  0.03435700  1
  O  O13  1  0.35596945  0.07749162  0.96564300  1
  O  O14  1  0.75977273  0.57757843  0.48130964  1
  O  O15  1  0.25977273  0.42242157  0.51869036  1
  O  O16  1  0.95198425  0.57006369  0.77248572  1
  O  O17  1  0.45198425  0.42993631  0.22751428  1
  O  O18  1  0.31353724  0.59036193  0.01884280  1
  O  O19  1  0.81353724  0.40963807  0.98115720  1
