# generated using pymatgen
data_Li9Mn2Co5O16
_symmetry_space_group_name_H-M   'P 1'
_cell_length_a   2.97074398
_cell_length_b   5.01178564
_cell_length_c   19.65006494
_cell_angle_alpha   92.98847448
_cell_angle_beta   81.64135761
_cell_angle_gamma   90.17429809
_symmetry_Int_Tables_number   1
_chemical_formula_structural   Li9Mn2Co5O16
_chemical_formula_sum   'Li9 Mn2 Co5 O16'
_cell_volume   289.06009408
_cell_formula_units_Z   1
loop_
 _symmetry_equiv_pos_site_id
 _symmetry_equiv_pos_as_xyz
  1  'x, y, z'
loop_
 _atom_site_type_symbol
 _atom_site_label
 _atom_site_symmetry_multiplicity
 _atom_site_fract_x
 _atom_site_fract_y
 _atom_site_fract_z
 _atom_site_occupancy
  Li  Li0  1  0.87632563  0.37716925  0.12733191  1
  Li  Li1  1  0.12080662  0.61381066  0.38218865  1
  Li  Li2  1  0.38393021  0.87148433  0.62145216  1
  Li  Li3  1  0.63732379  0.12473030  0.87081417  1
  Li  Li4  1  0.36267621  0.87526970  0.12918583  1
  Li  Li5  1  0.61606979  0.12851567  0.37854784  1
  Li  Li6  1  0.87919338  0.38618934  0.61781135  1
  Li  Li7  1  0.12367437  0.62283075  0.87266809  1
  Li  Li8  1  0.50000000  0.50000000  0.50000000  1
  Mn  Mn9  1  0.00000000  -0.00000000  0.00000000  1
  Mn  Mn10  1  0.00000000  -0.00000000  0.50000000  1
  Co  Co11  1  0.24792836  0.25028663  0.25038613  1
  Co  Co12  1  0.75207164  0.74971337  0.74961387  1
  Co  Co13  1  0.50000000  0.50000000  0.00000000  1
  Co  Co14  1  0.74716837  0.74992261  0.25076615  1
  Co  Co15  1  0.25283163  0.25007739  0.74923385  1
  O  O16  1  0.40552497  0.19054091  0.05603289  1
  O  O17  1  0.69373567  0.44585834  0.30718725  1
  O  O18  1  0.93990109  0.70910180  0.55932691  1
  O  O19  1  0.19469541  0.94662377  0.80932852  1
  O  O20  1  0.99346528  0.68568552  0.05562397  1
  O  O21  1  0.19338936  0.94407475  0.30593607  1
  O  O22  1  0.44596065  0.16623476  0.55459549  1
  O  O23  1  0.69053190  0.44689692  0.80903954  1
  O  O24  1  0.30946810  0.55310308  0.19096046  1
  O  O25  1  0.55403935  0.83376524  0.44540451  1
  O  O26  1  0.80661064  0.05592525  0.69406393  1
  O  O27  1  0.00653472  0.31431448  0.94437603  1
  O  O28  1  0.80530459  0.05337623  0.19067148  1
  O  O29  1  0.06009891  0.29089820  0.44067309  1
  O  O30  1  0.30626433  0.55414166  0.69281275  1
  O  O31  1  0.59447503  0.80945909  0.94396711  1
