# generated using pymatgen
data_Y2Th8O19
_symmetry_space_group_name_H-M   'P 1'
_cell_length_a   3.90579306
_cell_length_b   39.08677815
_cell_length_c   37.28912979
_cell_angle_alpha   5.20576636
_cell_angle_beta   58.41805737
_cell_angle_gamma   60.02440548
_symmetry_Int_Tables_number   1
_chemical_formula_structural   Y2Th8O19
_chemical_formula_sum   'Y2 Th8 O19'
_cell_volume   421.94266877
_cell_formula_units_Z   1
loop_
 _symmetry_equiv_pos_site_id
 _symmetry_equiv_pos_as_xyz
  1  'x, y, z'
loop_
 _atom_site_type_symbol
 _atom_site_label
 _atom_site_symmetry_multiplicity
 _atom_site_fract_x
 _atom_site_fract_y
 _atom_site_fract_z
 _atom_site_occupancy
  Y  Y0  1  0.02689612  0.02151689  0.97310388  1
  Y  Y1  1  0.97310388  0.07848311  0.02689612  1
  Th  Th2  1  0.00990553  0.20792442  0.99009447  1
  Th  Th3  1  0.00469773  0.30375818  0.99530227  1
  Th  Th4  1  0.00171132  0.40136906  0.99828868  1
  Th  Th5  1  0.00027472  0.50021978  0.99972528  1
  Th  Th6  1  0.99972528  0.59978022  0.00027472  1
  Th  Th7  1  0.99828868  0.69863094  0.00171132  1
  Th  Th8  1  0.99530227  0.79624182  0.00469773  1
  Th  Th9  1  0.99009447  0.89207558  0.00990553  1
  O  O10  1  0.26203247  0.00962598  0.23796753  1
  O  O11  1  0.25191756  0.10153405  0.24808244  1
  O  O12  1  0.25088537  0.20070829  0.24911463  1
  O  O13  1  0.25000000  0.30000000  0.25000000  1
  O  O14  1  0.24911463  0.39929171  0.25088537  1
  O  O15  1  0.24808244  0.49846595  0.25191756  1
  O  O16  1  0.23796753  0.59037402  0.26203247  1
  O  O17  1  0.25317649  0.70254119  0.24682351  1
  O  O18  1  0.74774615  0.09819692  0.75225385  1
  O  O19  1  0.72053173  0.17642539  0.77946827  1
  O  O20  1  0.75000000  0.30000000  0.75000000  1
  O  O21  1  0.24682351  0.89745881  0.25317649  1
  O  O22  1  0.77946827  0.42357461  0.72053173  1
  O  O23  1  0.75225385  0.50180308  0.74774615  1
  O  O24  1  0.75426131  0.60340905  0.74573869  1
  O  O25  1  0.75043029  0.70034423  0.74956971  1
  O  O26  1  0.75000000  0.80000000  0.75000000  1
  O  O27  1  0.74956971  0.89965577  0.75043029  1
  O  O28  1  0.74573869  0.99659095  0.75426131  1
