# generated using pymatgen
data_Cr2Ag2O7
_symmetry_space_group_name_H-M   'P 1'
_cell_length_a   6.63196417
_cell_length_b   6.99757524
_cell_length_c   7.19701861
_cell_angle_alpha   92.02868419
_cell_angle_beta   111.45431781
_cell_angle_gamma   94.96332855
_symmetry_Int_Tables_number   1
_chemical_formula_structural   Cr2Ag2O7
_chemical_formula_sum   'Cr4 Ag4 O14'
_cell_volume   308.87778486
_cell_formula_units_Z   2
loop_
 _symmetry_equiv_pos_site_id
 _symmetry_equiv_pos_as_xyz
  1  'x, y, z'
loop_
 _atom_site_type_symbol
 _atom_site_label
 _atom_site_symmetry_multiplicity
 _atom_site_fract_x
 _atom_site_fract_y
 _atom_site_fract_z
 _atom_site_occupancy
  Cr  Cr0  1  0.76039109  0.66320653  0.98448068  1
  Cr  Cr1  1  0.23960891  0.33679347  0.01551932  1
  Cr  Cr2  1  0.20007497  0.84461783  0.31225168  1
  Cr  Cr3  1  0.79992503  0.15538217  0.68774832  1
  Ag  Ag4  1  0.75262065  0.15341339  0.18392503  1
  Ag  Ag5  1  0.73184167  0.63375667  0.45495370  1
  Ag  Ag6  1  0.24737935  0.84658661  0.81607497  1
  Ag  Ag7  1  0.26815833  0.36624333  0.54504630  1
  O  O8  1  0.84441316  0.29559231  0.52170451  1
  O  O9  1  0.63193549  0.85163813  0.00036226  1
  O  O10  1  0.26596365  0.49327765  0.85649293  1
  O  O11  1  0.04282460  0.74647036  0.06181793  1
  O  O12  1  0.54644718  0.13748284  0.66749444  1
  O  O13  1  0.88686344  0.94458044  0.66643105  1
  O  O14  1  0.67533763  0.57024732  0.75367091  1
  O  O15  1  0.36806451  0.14836187  0.99963774  1
  O  O16  1  0.73403635  0.50672235  0.14350707  1
  O  O17  1  0.11313656  0.05541956  0.33356895  1
  O  O18  1  0.45355282  0.86251716  0.33250556  1
  O  O19  1  0.95717540  0.25352964  0.93818207  1
  O  O20  1  0.15558684  0.70440769  0.47829549  1
  O  O21  1  0.32466237  0.42975268  0.24632909  1
