# generated using pymatgen
data_Cs2PrCuBr6
_symmetry_space_group_name_H-M   'P 1'
_cell_length_a   7.97753684
_cell_length_b   7.97753723
_cell_length_c   7.97753721
_cell_angle_alpha   59.99999875
_cell_angle_beta   59.99999818
_cell_angle_gamma   59.99999826
_symmetry_Int_Tables_number   1
_chemical_formula_structural   Cs2PrCuBr6
_chemical_formula_sum   'Cs2 Pr1 Cu1 Br6'
_cell_volume   358.99754861
_cell_formula_units_Z   1
loop_
 _symmetry_equiv_pos_site_id
 _symmetry_equiv_pos_as_xyz
  1  'x, y, z'
loop_
 _atom_site_type_symbol
 _atom_site_label
 _atom_site_symmetry_multiplicity
 _atom_site_fract_x
 _atom_site_fract_y
 _atom_site_fract_z
 _atom_site_occupancy
  Cs  Cs0  1  0.25000000  0.25000000  0.25000000  1
  Cs  Cs1  1  0.75000000  0.75000000  0.75000000  1
  Pr  Pr2  1  0.50000000  0.50000000  0.50000000  1
  Cu  Cu3  1  -0.00000000  -0.00000000  0.00000000  1
  Br  Br4  1  0.24127265  0.75872735  0.24127265  1
  Br  Br5  1  0.75872735  0.75872735  0.24127265  1
  Br  Br6  1  0.75872735  0.24127265  0.75872735  1
  Br  Br7  1  0.75872735  0.24127265  0.24127265  1
  Br  Br8  1  0.24127265  0.75872735  0.75872735  1
  Br  Br9  1  0.24127265  0.24127265  0.75872735  1
