# generated using pymatgen
data_Li9Mn2Co5O16
_symmetry_space_group_name_H-M   'P 1'
_cell_length_a   3.02530970
_cell_length_b   19.15841444
_cell_length_c   5.06431170
_cell_angle_alpha   92.24697670
_cell_angle_beta   91.90893016
_cell_angle_gamma   84.75245610
_symmetry_Int_Tables_number   1
_chemical_formula_structural   Li9Mn2Co5O16
_chemical_formula_sum   'Li9 Mn2 Co5 O16'
_cell_volume   291.94287956
_cell_formula_units_Z   1
loop_
 _symmetry_equiv_pos_site_id
 _symmetry_equiv_pos_as_xyz
  1  'x, y, z'
loop_
 _atom_site_type_symbol
 _atom_site_label
 _atom_site_symmetry_multiplicity
 _atom_site_fract_x
 _atom_site_fract_y
 _atom_site_fract_z
 _atom_site_occupancy
  Li  Li0  1  0.86462435  0.12524131  0.37963193  1
  Li  Li1  1  0.24999328  0.24999092  0.25002209  1
  Li  Li2  1  0.63534577  0.37476712  0.12040322  1
  Li  Li3  1  0.00510656  0.49898766  0.99883695  1
  Li  Li4  1  0.37648848  0.62475917  0.87533606  1
  Li  Li5  1  0.74999318  0.75000399  0.74999824  1
  Li  Li6  1  0.12353175  0.87523814  0.62463585  1
  Li  Li7  1  0.49489803  0.00101442  0.50117223  1
  Li  Li8  1  0.75000679  0.24999329  0.74998555  1
  Mn  Mn9  1  0.99706735  0.00009248  0.99653660  1
  Mn  Mn10  1  0.50294047  0.49991416  0.50342608  1
  Co  Co11  1  0.35484094  0.13076423  0.87461006  1
  Co  Co12  1  0.14514025  0.36924069  0.62537311  1
  Co  Co13  1  0.85973971  0.62588790  0.37509713  1
  Co  Co14  1  0.24998776  0.75000225  0.24999128  1
  Co  Co15  1  0.64025289  0.87411348  0.12490682  1
  O  O16  1  0.40913405  0.06472447  0.15526219  1
  O  O17  1  0.78594553  0.18287613  0.05174755  1
  O  O18  1  0.18103785  0.31968441  0.90628164  1
  O  O19  1  0.54243658  0.43708261  0.79545819  1
  O  O20  1  0.90978530  0.56433237  0.66825153  1
  O  O21  1  0.26531422  0.68770100  0.54134118  1
  O  O22  1  0.70803356  0.81212832  0.41090040  1
  O  O23  1  0.04133968  0.93660868  0.29127481  1
  O  O24  1  0.31896343  0.18030978  0.59374866  1
  O  O25  1  0.71405222  0.31711848  0.44822881  1
  O  O26  1  0.09095096  0.43527031  0.34471012  1
  O  O27  1  0.45868234  0.56339179  0.20872399  1
  O  O28  1  0.79194282  0.68786953  0.08911710  1
  O  O29  1  0.23466391  0.81230027  0.95865294  1
  O  O30  1  0.59018102  0.93567648  0.83176164  1
  O  O31  1  0.95757096  0.06291617  0.70457106  1
