# generated using pymatgen
data_Sr2Y4Fe2Cu2O13
_symmetry_space_group_name_H-M   'P 1'
_cell_length_a   5.47995380
_cell_length_b   10.82313859
_cell_length_c   11.87027757
_cell_angle_alpha   116.97828130
_cell_angle_beta   102.90817296
_cell_angle_gamma   90.08162763
_symmetry_Int_Tables_number   1
_chemical_formula_structural   Sr2Y4Fe2Cu2O13
_chemical_formula_sum   'Sr4 Y8 Fe4 Cu4 O26'
_cell_volume   607.26622166
_cell_formula_units_Z   2
loop_
 _symmetry_equiv_pos_site_id
 _symmetry_equiv_pos_as_xyz
  1  'x, y, z'
loop_
 _atom_site_type_symbol
 _atom_site_label
 _atom_site_symmetry_multiplicity
 _atom_site_fract_x
 _atom_site_fract_y
 _atom_site_fract_z
 _atom_site_occupancy
  Sr  Sr0  1  0.20090152  0.35945912  0.99050484  1
  Sr  Sr1  1  0.29834408  0.86963735  0.00851030  1
  Sr  Sr2  1  0.70165592  0.13036265  0.99148970  1
  Sr  Sr3  1  0.79909848  0.64054088  0.00949516  1
  Y  Y4  1  0.02239519  0.17543481  0.63306286  1
  Y  Y5  1  0.10620241  0.67841070  0.62927999  1
  Y  Y6  1  0.39306335  0.54903028  0.37029032  1
  Y  Y7  1  0.52202130  0.95803598  0.63310496  1
  Y  Y8  1  0.47797870  0.04196402  0.36689504  1
  Y  Y9  1  0.60693665  0.45096972  0.62970968  1
  Y  Y10  1  0.89379759  0.32158930  0.37072001  1
  Y  Y11  1  0.97760481  0.82456519  0.36693714  1
  Fe  Fe12  1  0.18966283  0.52007023  0.80911772  1
  Fe  Fe13  1  0.31132303  0.21082947  0.19129872  1
  Fe  Fe14  1  0.68867697  0.78917053  0.80870128  1
  Fe  Fe15  1  0.81033717  0.47992977  0.19088228  1
  Cu  Cu16  1  0.11371689  0.01372719  0.79573284  1
  Cu  Cu17  1  0.38527546  0.71797975  0.20328440  1
  Cu  Cu18  1  0.61472454  0.28202025  0.79671560  1
  Cu  Cu19  1  0.88628311  0.98627281  0.20426716  1
  O  O20  1  0.06319860  0.35915672  0.22081495  1
  O  O21  1  0.10347772  0.60859077  0.21348584  1
  O  O22  1  0.15491189  0.14984421  0.29409859  1
  O  O23  1  0.14735429  0.86144452  0.20925115  1
  O  O24  1  0.24971449  0.02744147  0.49989441  1
  O  O25  1  0.24995710  0.47226920  0.50003028  1
  O  O26  1  0.25051435  0.75214119  0.50009438  1
  O  O27  1  0.35222206  0.15139857  0.79080129  1
  O  O28  1  0.34665612  0.35651930  0.70727471  1
  O  O29  1  0.19987889  0.11114583  0.00934814  1
  O  O30  1  0.39395355  0.89484208  0.78749578  1
  O  O31  1  0.43647992  0.63822422  0.77811931  1
  O  O32  1  0.30061279  0.60265008  0.99109616  1
  O  O33  1  0.56352008  0.36177578  0.22188069  1
  O  O34  1  0.60604645  0.10515792  0.21250422  1
  O  O35  1  0.65334388  0.64348070  0.29272529  1
  O  O36  1  0.64777794  0.84860143  0.20919871  1
  O  O37  1  0.74948565  0.24785881  0.49990562  1
  O  O38  1  0.75004290  0.52773080  0.49996972  1
  O  O39  1  0.75028551  0.97255853  0.50010559  1
  O  O40  1  0.85264571  0.13855548  0.79074885  1
  O  O41  1  0.84508811  0.85015579  0.70590141  1
  O  O42  1  0.69938721  0.39734992  0.00890384  1
  O  O43  1  0.89652228  0.39140923  0.78651416  1
  O  O44  1  0.93680140  0.64084328  0.77918505  1
  O  O45  1  0.80012111  0.88885417  0.99065186  1
