# generated using pymatgen
data_Li7Mn5O12
_symmetry_space_group_name_H-M   'P 1'
_cell_length_a   5.28317722
_cell_length_b   7.77542875
_cell_length_c   5.96483898
_cell_angle_alpha   76.43967219
_cell_angle_beta   70.27088400
_cell_angle_gamma   75.07285108
_symmetry_Int_Tables_number   1
_chemical_formula_structural   Li7Mn5O12
_chemical_formula_sum   'Li7 Mn5 O12'
_cell_volume   219.91200107
_cell_formula_units_Z   1
loop_
 _symmetry_equiv_pos_site_id
 _symmetry_equiv_pos_as_xyz
  1  'x, y, z'
loop_
 _atom_site_type_symbol
 _atom_site_label
 _atom_site_symmetry_multiplicity
 _atom_site_fract_x
 _atom_site_fract_y
 _atom_site_fract_z
 _atom_site_occupancy
  Li  Li0  1  0.00819390  0.99572666  0.49484874  1
  Li  Li1  1  0.00000000  0.33333300  0.16666700  1
  Li  Li2  1  0.50000000  0.83333300  0.66666700  1
  Li  Li3  1  0.50401003  0.16307266  0.33388654  1
  Li  Li4  1  0.99180610  0.67094034  0.83848426  1
  Li  Li5  1  0.49598997  0.50359434  0.99944646  1
  Li  Li6  1  0.50000000  0.83333300  0.16666700  1
  Mn  Mn7  1  0.00045795  0.99852731  0.00113203  1
  Mn  Mn8  1  0.99954205  0.66813969  0.33220097  1
  Mn  Mn9  1  0.00000000  0.33333300  0.66666700  1
  Mn  Mn10  1  0.50003112  0.16355748  0.83651758  1
  Mn  Mn11  1  0.49996888  0.50310952  0.49681542  1
  O  O12  1  0.78160461  0.90952393  0.32071721  1
  O  O13  1  0.77814465  0.24372996  0.98965336  1
  O  O14  1  0.23779840  0.72944297  0.48163427  1
  O  O15  1  0.23735009  0.07835422  0.13477505  1
  O  O16  1  0.77434166  0.58220844  0.65627791  1
  O  O17  1  0.27747398  0.40979295  0.82014774  1
  O  O18  1  0.22565834  0.08445856  0.67705509  1
  O  O19  1  0.22185535  0.42293604  0.34368064  1
  O  O20  1  0.76220160  0.93722303  0.85169973  1
  O  O21  1  0.72252602  0.25687405  0.51318526  1
  O  O22  1  0.21839539  0.75714307  0.01261579  1
  O  O23  1  0.76264991  0.58831278  0.19855795  1
