# generated using pymatgen
data_Li4Mn3O7
_symmetry_space_group_name_H-M   'P 1'
_cell_length_a   5.28452347
_cell_length_b   7.76887518
_cell_length_c   7.67098209
_cell_angle_alpha   63.83284902
_cell_angle_beta   82.64049353
_cell_angle_gamma   105.81373591
_symmetry_Int_Tables_number   1
_chemical_formula_structural   Li4Mn3O7
_chemical_formula_sum   'Li8 Mn6 O14'
_cell_volume   260.47423752
_cell_formula_units_Z   2
loop_
 _symmetry_equiv_pos_site_id
 _symmetry_equiv_pos_as_xyz
  1  'x, y, z'
loop_
 _atom_site_type_symbol
 _atom_site_label
 _atom_site_symmetry_multiplicity
 _atom_site_fract_x
 _atom_site_fract_y
 _atom_site_fract_z
 _atom_site_occupancy
  Li  Li0  1  0.59268059  0.08382662  0.77563163  1
  Li  Li1  1  0.99919626  0.48322189  0.50319658  1
  Li  Li2  1  0.43996526  0.93670060  0.21516523  1
  Li  Li3  1  0.84574874  0.34901340  0.92769177  1
  Li  Li4  1  0.28651774  0.80249211  0.63966042  1
  Li  Li5  1  0.69303441  0.20188838  0.36722537  1
  Li  Li6  1  0.14285700  0.64285700  0.07142900  1
  Li  Li7  1  0.14285700  0.14285700  0.57142900  1
  Mn  Mn8  1  0.99114485  0.00186715  0.99611344  1
  Mn  Mn9  1  0.29456915  0.28384685  0.14674356  1
  Mn  Mn10  1  0.42028621  0.42219543  0.71215984  1
  Mn  Mn11  1  0.86542779  0.86351857  0.43069716  1
  Mn  Mn12  1  0.72163409  0.72001033  0.85524384  1
  Mn  Mn13  1  0.56408091  0.56570467  0.28761316  1
  O  O14  1  0.08659461  0.87988311  0.83470425  1
  O  O15  1  0.58152409  0.34196476  0.52622340  1
  O  O16  1  0.94692081  0.74644180  0.25356715  1
  O  O17  1  0.42623560  0.19167746  0.95764623  1
  O  O18  1  0.86425644  0.63171693  0.67916973  1
  O  O19  1  0.28662138  0.04518688  0.37800015  1
  O  O20  1  0.72339869  0.48609804  0.10321777  1
  O  O21  1  0.99909262  0.24052712  0.76485685  1
  O  O22  1  0.42145756  0.65399707  0.46368727  1
  O  O23  1  0.85947840  0.09403654  0.18521077  1
  O  O24  1  0.33879419  0.53927320  0.88928985  1
  O  O25  1  0.70418991  0.94374924  0.61663460  1
  O  O26  1  0.19912039  0.40583189  0.30815275  1
  O  O27  1  0.56231531  0.79961596  0.03963923  1
