# generated using pymatgen
data_Li4Mn3O7
_symmetry_space_group_name_H-M   'P 1'
_cell_length_a   6.00249744
_cell_length_b   6.54957731
_cell_length_c   7.77515971
_cell_angle_alpha   114.02878450
_cell_angle_beta   109.12903390
_cell_angle_gamma   75.27654064
_symmetry_Int_Tables_number   1
_chemical_formula_structural   Li4Mn3O7
_chemical_formula_sum   'Li8 Mn6 O14'
_cell_volume   261.17265419
_cell_formula_units_Z   2
loop_
 _symmetry_equiv_pos_site_id
 _symmetry_equiv_pos_as_xyz
  1  'x, y, z'
loop_
 _atom_site_type_symbol
 _atom_site_label
 _atom_site_symmetry_multiplicity
 _atom_site_fract_x
 _atom_site_fract_y
 _atom_site_fract_z
 _atom_site_occupancy
  Li  Li0  1  0.21428600  0.42857100  0.14285700  1
  Li  Li1  1  0.91078818  0.84414961  0.26801049  1
  Li  Li2  1  0.64607739  0.28976105  0.41631140  1
  Li  Li3  1  0.35685988  0.71697383  0.57176137  1
  Li  Li4  1  0.07171212  0.14016917  0.71395363  1
  Li  Li5  1  0.78249361  0.56738195  0.86940260  1
  Li  Li6  1  0.51778282  0.01299339  0.01770351  1
  Li  Li7  1  0.71428600  0.42857100  0.14285700  1
  Mn  Mn8  1  0.98982978  0.99792344  0.99991875  1
  Mn  Mn9  1  0.43874122  0.85921956  0.28579525  1
  Mn  Mn10  1  0.13484910  0.28834295  0.42217036  1
  Mn  Mn11  1  0.85152188  0.71095513  0.56565731  1
  Mn  Mn12  1  0.57705012  0.14618787  0.72005769  1
  Mn  Mn13  1  0.29372190  0.56880005  0.86354364  1
  O  O14  1  0.86483332  0.25565526  0.91047231  1
  O  O15  1  0.59237118  0.72580307  0.08017146  1
  O  O16  1  0.31931424  0.14685191  0.22669102  1
  O  O17  1  0.03945948  0.57667012  0.37657787  1
  O  O18  1  0.75830126  0.99595385  0.52046376  1
  O  O19  1  0.47356537  0.42253540  0.66558191  1
  O  O20  1  0.14155283  0.83248151  0.77501009  1
  O  O21  1  0.56373868  0.60148674  0.37524169  1
  O  O22  1  0.28701817  0.02466149  0.51070391  1
  O  O23  1  0.95500563  0.43460760  0.62013209  1
  O  O24  1  0.67027074  0.86118915  0.76525124  1
  O  O25  1  0.38911252  0.28047288  0.90913713  1
  O  O26  1  0.10925676  0.71029109  0.05902298  1
  O  O27  1  0.83619982  0.13133993  0.20554254  1
