# generated using pymatgen
data_Li9Mn2Co5O16
_symmetry_space_group_name_H-M   'P 1'
_cell_length_a   3.01635587
_cell_length_b   7.78153174
_cell_length_c   12.51709325
_cell_angle_alpha   90.58170388
_cell_angle_beta   90.20375093
_cell_angle_gamma   83.26663726
_symmetry_Int_Tables_number   1
_chemical_formula_structural   Li9Mn2Co5O16
_chemical_formula_sum   'Li9 Mn2 Co5 O16'
_cell_volume   291.75723801
_cell_formula_units_Z   1
loop_
 _symmetry_equiv_pos_site_id
 _symmetry_equiv_pos_as_xyz
  1  'x, y, z'
loop_
 _atom_site_type_symbol
 _atom_site_label
 _atom_site_symmetry_multiplicity
 _atom_site_fract_x
 _atom_site_fract_y
 _atom_site_fract_z
 _atom_site_occupancy
  Li  Li0  1  0.80444293  0.37673149  0.06115952  1
  Li  Li1  1  0.05727396  0.87574392  0.30989271  1
  Li  Li2  1  0.30500961  0.37985831  0.56605330  1
  Li  Li3  1  0.19499039  0.62014169  0.93394670  1
  Li  Li4  1  0.44272604  0.12425608  0.19010729  1
  Li  Li5  1  0.69555707  0.62326851  0.43884048  1
  Li  Li6  1  0.56611986  0.87537967  0.80765843  1
  Li  Li7  1  0.93388014  0.12462033  0.69234157  1
  Li  Li8  1  0.75000000  0.50000000  0.75000000  1
  Mn  Mn9  1  -0.00014143  0.00015344  0.99922818  1
  Mn  Mn10  1  0.50014143  -0.00015344  0.50077182  1
  Co  Co11  1  0.25000000  0.50000000  0.25000000  1
  Co  Co12  1  0.35939830  0.26250294  0.87060390  1
  Co  Co13  1  0.64373715  0.74690644  0.12462407  1
  Co  Co14  1  0.85626285  0.25309356  0.37537593  1
  Co  Co15  1  0.14060170  0.73749706  0.62939610  1
  O  O16  1  0.37690326  0.18756563  0.01976456  1
  O  O17  1  0.68899561  0.68072563  0.27236425  1
  O  O18  1  0.88053345  0.18661120  0.52393059  1
  O  O19  1  0.75946703  0.42460473  0.90362036  1
  O  O20  1  0.00898120  0.93092254  0.14907649  1
  O  O21  1  0.24326309  0.43018036  0.39976249  1
  O  O22  1  0.14682062  0.69776922  0.76619757  1
  O  O23  1  0.51720747  0.92857567  0.64838310  1
  O  O24  1  0.25673791  0.56981964  0.10023651  1
  O  O25  1  0.49101880  0.06907746  0.35092251  1
  O  O26  1  0.74053197  0.57539527  0.59637964  1
  O  O27  1  0.61946655  0.81338880  0.97606841  1
  O  O28  1  0.81100439  0.31927437  0.22763675  1
  O  O29  1  0.12309674  0.81243437  0.48023544  1
  O  O30  1  0.98279253  0.07142433  0.85161690  1
  O  O31  1  0.35317938  0.30223078  0.73380243  1
