# generated using pymatgen
data_Pr12Si5Se28
_symmetry_space_group_name_H-M   'P 1'
_cell_length_a   10.69153309
_cell_length_b   10.69153384
_cell_length_c   24.41277570
_cell_angle_alpha   90.00000000
_cell_angle_beta   90.00000000
_cell_angle_gamma   120.00000042
_symmetry_Int_Tables_number   1
_chemical_formula_structural   Pr12Si5Se28
_chemical_formula_sum   'Pr24 Si10 Se56'
_cell_volume   2416.72809151
_cell_formula_units_Z   2
loop_
 _symmetry_equiv_pos_site_id
 _symmetry_equiv_pos_as_xyz
  1  'x, y, z'
loop_
 _atom_site_type_symbol
 _atom_site_label
 _atom_site_symmetry_multiplicity
 _atom_site_fract_x
 _atom_site_fract_y
 _atom_site_fract_z
 _atom_site_occupancy
  Pr  Pr0  1  0.12997291  0.77990035  0.19422474  1
  Pr  Pr1  1  0.12534651  0.76241649  0.67956950  1
  Pr  Pr2  1  0.12455704  0.77335263  0.43515716  1
  Pr  Pr3  1  0.12986499  0.77094941  0.93499219  1
  Pr  Pr4  1  0.22009965  0.35007256  0.19422474  1
  Pr  Pr5  1  0.22664737  0.35120441  0.43515716  1
  Pr  Pr6  1  0.23758351  0.36293002  0.67956950  1
  Pr  Pr7  1  0.22905059  0.35891558  0.93499219  1
  Pr  Pr8  1  0.64992744  0.87002709  0.19422474  1
  Pr  Pr9  1  0.63706998  0.87465349  0.67956950  1
  Pr  Pr10  1  0.64879559  0.87544296  0.43515716  1
  Pr  Pr11  1  0.64108442  0.87013501  0.93499219  1
  Pr  Pr12  1  0.36767604  0.13573545  0.06737043  1
  Pr  Pr13  1  0.35239963  0.12805791  0.31333181  1
  Pr  Pr14  1  0.34430785  0.11935732  0.55267899  1
  Pr  Pr15  1  0.36053738  0.13045475  0.81143551  1
  Pr  Pr16  1  0.76805942  0.63232396  0.06737043  1
  Pr  Pr17  1  0.77565829  0.64760037  0.31333181  1
  Pr  Pr18  1  0.77504947  0.65569215  0.55267899  1
  Pr  Pr19  1  0.76991737  0.63946262  0.81143551  1
  Pr  Pr20  1  0.86426455  0.23194058  0.06737043  1
  Pr  Pr21  1  0.87194209  0.22434171  0.31333181  1
  Pr  Pr22  1  0.88064268  0.22495053  0.55267899  1
  Pr  Pr23  1  0.86954525  0.23008263  0.81143551  1
  Si  Si24  1  -0.00000000  0.00000000  0.74213484  1
  Si  Si25  1  0.33333300  0.66666700  0.08302445  1
  Si  Si26  1  0.33333300  0.66666700  0.33349034  1
  Si  Si27  1  0.33333300  0.66666700  0.58015133  1
  Si  Si28  1  0.33333300  0.66666700  0.82953814  1
  Si  Si29  1  -0.00000000  0.00000000  0.99496096  1
  Si  Si30  1  0.66666700  0.33333300  0.45698686  1
  Si  Si31  1  0.66666700  0.33333300  0.21131456  1
  Si  Si32  1  0.66666700  0.33333300  0.70578886  1
  Si  Si33  1  0.66666700  0.33333300  0.95961026  1
  Se  Se34  1  0.09319372  0.83645654  0.30722168  1
  Se  Se35  1  0.08528560  0.85873078  0.04631991  1
  Se  Se36  1  0.08546179  0.85144127  0.80068984  1
  Se  Se37  1  0.08869625  0.82923657  0.55906765  1
  Se  Se38  1  0.10682189  0.52528382  0.11887950  1
  Se  Se39  1  0.10712345  0.52197515  0.37048122  1
  Se  Se40  1  0.10604758  0.51564456  0.61840135  1
  Se  Se41  1  0.10734690  0.52086477  0.86734533  1
  Se  Se42  1  0.41846193  0.89317811  0.11887950  1
  Se  Se43  1  0.40959698  0.89395242  0.61840135  1
  Se  Se44  1  0.41485171  0.89287655  0.37048122  1
  Se  Se45  1  0.41351787  0.89265310  0.86734533  1
  Se  Se46  1  0.33333300  0.66666700  0.24009134  1
  Se  Se47  1  0.33333300  0.66666700  0.48871866  1
  Se  Se48  1  0.33333300  0.66666700  0.73769725  1
  Se  Se49  1  0.33333300  0.66666700  0.98912082  1
  Se  Se50  1  0.14126922  0.22655482  0.04631991  1
  Se  Se51  1  0.16354346  0.25673718  0.30722168  1
  Se  Se52  1  0.17076343  0.25945968  0.55906765  1
  Se  Se53  1  0.14855873  0.23402052  0.80068984  1
  Se  Se54  1  0.47471618  0.58153807  0.11887950  1
  Se  Se55  1  0.48435544  0.59040302  0.61840135  1
  Se  Se56  1  0.47802485  0.58514829  0.37048122  1
  Se  Se57  1  0.47913523  0.58648213  0.86734533  1
  Se  Se58  1  0.25867261  0.09604306  0.17861531  1
  Se  Se59  1  0.25703883  0.09075453  0.43254027  1
  Se  Se60  1  0.23028109  0.07889500  0.69115048  1
  Se  Se61  1  0.24292749  0.08687743  0.93348314  1
  Se  Se62  1  0.77344518  0.91471440  0.04631991  1
  Se  Se63  1  0.74326282  0.90680628  0.30722168  1
  Se  Se64  1  0.74054032  0.91130375  0.55906765  1
  Se  Se65  1  0.76597948  0.91453821  0.80068984  1
  Se  Se66  1  0.52257337  0.41665169  0.24618918  1
  Se  Se67  1  0.52130523  0.41411933  0.49472795  1
  Se  Se68  1  0.52167600  0.41458940  0.74450458  1
  Se  Se69  1  0.52086355  0.41543625  0.99483941  1
  Se  Se70  1  0.83737045  0.74132739  0.17861531  1
  Se  Se71  1  0.83371569  0.74296117  0.43254027  1
  Se  Se72  1  0.84861391  0.76971891  0.69115048  1
  Se  Se73  1  0.84394994  0.75707251  0.93348314  1
  Se  Se74  1  0.66666700  0.33333300  0.11700329  1
  Se  Se75  1  0.66666700  0.33333300  0.36473444  1
  Se  Se76  1  0.66666700  0.33333300  0.61461844  1
  Se  Se77  1  0.66666700  0.33333300  0.86636387  1
  Se  Se78  1  0.58334831  0.10592168  0.24618918  1
  Se  Se79  1  0.58588067  0.10718590  0.49472795  1
  Se  Se80  1  0.58541060  0.10708660  0.74450458  1
  Se  Se81  1  0.58456375  0.10542731  0.99483941  1
  Se  Se82  1  0.89407832  0.47742663  0.24618918  1
  Se  Se83  1  0.89281410  0.47869477  0.49472795  1
  Se  Se84  1  0.89291340  0.47832400  0.74450458  1
  Se  Se85  1  0.89457269  0.47913645  0.99483941  1
  Se  Se86  1  0.90395694  0.16262955  0.17861531  1
  Se  Se87  1  0.92110500  0.15138609  0.69115048  1
  Se  Se88  1  0.91312257  0.15605006  0.93348314  1
  Se  Se89  1  0.90924547  0.16628431  0.43254027  1
