# generated using pymatgen
data_Sr13Mn8O30
_symmetry_space_group_name_H-M   'P 1'
_cell_length_a   6.85981336
_cell_length_b   9.84018889
_cell_length_c   10.65521665
_cell_angle_alpha   89.43072556
_cell_angle_beta   91.69356275
_cell_angle_gamma   89.60537157
_symmetry_Int_Tables_number   1
_chemical_formula_structural   Sr13Mn8O30
_chemical_formula_sum   'Sr13 Mn8 O30'
_cell_volume   718.87871742
_cell_formula_units_Z   1
loop_
 _symmetry_equiv_pos_site_id
 _symmetry_equiv_pos_as_xyz
  1  'x, y, z'
loop_
 _atom_site_type_symbol
 _atom_site_label
 _atom_site_symmetry_multiplicity
 _atom_site_fract_x
 _atom_site_fract_y
 _atom_site_fract_z
 _atom_site_occupancy
  Sr  Sr0  1  0.00155036  0.81749932  0.53292411  1
  Sr  Sr1  1  0.99982789  0.68794400  0.03419128  1
  Sr  Sr2  1  0.17550433  0.00496858  0.82273627  1
  Sr  Sr3  1  0.17369311  0.49667525  0.32635603  1
  Sr  Sr4  1  0.35541839  0.34588233  0.69614606  1
  Sr  Sr5  1  0.35463859  0.14324355  0.20881125  1
  Sr  Sr6  1  0.50044403  0.49898220  0.00124534  1
  Sr  Sr7  1  0.64540787  0.85558264  0.79188992  1
  Sr  Sr8  1  0.64415421  0.65402275  0.30598198  1
  Sr  Sr9  1  0.82526399  0.50174972  0.67351397  1
  Sr  Sr10  1  0.82142442  0.99731202  0.17563419  1
  Sr  Sr11  1  -0.00010240  0.31339783  0.96699391  1
  Sr  Sr12  1  0.99705613  0.18152982  0.46933217  1
  Mn  Mn13  1  0.21926147  0.66770278  0.78275354  1
  Mn  Mn14  1  0.21841914  0.83098202  0.28019799  1
  Mn  Mn15  1  0.41702726  0.66604889  0.57705912  1
  Mn  Mn16  1  0.42058714  0.83249012  0.07336806  1
  Mn  Mn17  1  0.57902765  0.16775332  0.92810155  1
  Mn  Mn18  1  0.58229973  0.33323043  0.42489552  1
  Mn  Mn19  1  0.78145801  0.16798870  0.72212361  1
  Mn  Mn20  1  0.78087257  0.33350018  0.21976261  1
  O  O21  1  0.02803387  0.25113589  0.71362666  1
  O  O22  1  0.03237580  0.25762993  0.21142782  1
  O  O23  1  0.15996779  0.51867050  0.88452091  1
  O  O24  1  0.16158867  0.58125397  0.62005213  1
  O  O25  1  0.12985184  0.98264440  0.36208938  1
  O  O26  1  0.15857660  0.91445705  0.11606199  1
  O  O27  1  0.30990822  0.78307737  0.91382346  1
  O  O28  1  0.31485143  0.81569626  0.66621896  1
  O  O29  1  0.33677967  0.24524381  0.95570055  1
  O  O30  1  0.30858018  0.71692222  0.41692268  1
  O  O31  1  0.32080239  0.67395152  0.16118969  1
  O  O32  1  0.32450160  0.28380871  0.45133335  1
  O  O33  1  0.48802859  0.59699894  0.74925982  1
  O  O34  1  0.50053438  0.49913317  0.50231947  1
  O  O35  1  0.48756808  0.89413989  0.24100349  1
  O  O36  1  0.51228701  0.10369125  0.76202621  1
  O  O37  1  0.50259272  0.00161214  0.00506208  1
  O  O38  1  0.51217142  0.40442814  0.25348453  1
  O  O39  1  0.67456229  0.71597687  0.55038423  1
  O  O40  1  0.67817022  0.32585113  0.83921100  1
  O  O41  1  0.69063421  0.28002176  0.58442622  1
  O  O42  1  0.66139993  0.75407002  0.04428770  1
  O  O43  1  0.68443097  0.18432556  0.33442371  1
  O  O44  1  0.68878344  0.22242782  0.08668427  1
  O  O45  1  0.84124299  0.08596181  0.88686855  1
  O  O46  1  0.87214567  0.01627097  0.64061454  1
  O  O47  1  0.83857936  0.41806497  0.38324043  1
  O  O48  1  0.84299064  0.48328133  0.11952090  1
  O  O49  1  0.96718203  0.74205227  0.78999139  1
  O  O50  1  0.97164410  0.74871387  0.28820537  1
