# generated using pymatgen
data_Li7Mn5O12
_symmetry_space_group_name_H-M   'P 1'
_cell_length_a   5.24072033
_cell_length_b   8.63090123
_cell_length_c   5.29824320
_cell_angle_alpha   90.00000000
_cell_angle_beta   67.22561272
_cell_angle_gamma   90.00000000
_symmetry_Int_Tables_number   1
_chemical_formula_structural   Li7Mn5O12
_chemical_formula_sum   'Li7 Mn5 O12'
_cell_volume   220.96680450
_cell_formula_units_Z   1
loop_
 _symmetry_equiv_pos_site_id
 _symmetry_equiv_pos_as_xyz
  1  'x, y, z'
loop_
 _atom_site_type_symbol
 _atom_site_label
 _atom_site_symmetry_multiplicity
 _atom_site_fract_x
 _atom_site_fract_y
 _atom_site_fract_z
 _atom_site_occupancy
  Li  Li0  1  0.50000000  0.16487715  0.00000000  1
  Li  Li1  1  0.50000000  0.33333300  0.50000000  1
  Li  Li2  1  0.50000000  0.50178985  0.00000000  1
  Li  Li3  1  0.50000000  0.67208180  0.50000000  1
  Li  Li4  1  0.50000000  0.83333300  0.00000000  1
  Li  Li5  1  0.50000000  0.99458520  0.50000000  1
  Li  Li6  1  -0.00000000  0.83333300  0.50000000  1
  Mn  Mn7  1  -0.00000000  0.99822205  0.00000000  1
  Mn  Mn8  1  -0.00000000  0.66844495  0.00000000  1
  Mn  Mn9  1  -0.00000000  0.16305721  0.50000000  1
  Mn  Mn10  1  -0.00000000  0.33333300  0.00000000  1
  Mn  Mn11  1  -0.00000000  0.50360979  0.50000000  1
  O  O12  1  0.23504891  0.16395809  0.77684223  1
  O  O13  1  0.23155140  0.33333300  0.27692132  1
  O  O14  1  0.23504891  0.50270891  0.77684223  1
  O  O15  1  0.21091087  0.66016521  0.23776286  1
  O  O16  1  0.23482371  0.83333300  0.78063878  1
  O  O17  1  0.21091087  0.00650179  0.23776286  1
  O  O18  1  0.76495109  0.16395809  0.22315777  1
  O  O19  1  0.76844860  0.33333300  0.72307868  1
  O  O20  1  0.76495109  0.50270891  0.22315777  1
  O  O21  1  0.78908913  0.66016521  0.76223714  1
  O  O22  1  0.76517629  0.83333300  0.21936122  1
  O  O23  1  0.78908913  0.00650179  0.76223714  1
