# generated using pymatgen
data_Li4Mn3O7
_symmetry_space_group_name_H-M   'P 1'
_cell_length_a   5.09850645
_cell_length_b   5.83026897
_cell_length_c   9.28922813
_cell_angle_alpha   90.06336762
_cell_angle_beta   98.98770172
_cell_angle_gamma   72.80691812
_symmetry_Int_Tables_number   1
_chemical_formula_structural   Li4Mn3O7
_chemical_formula_sum   'Li8 Mn6 O14'
_cell_volume   260.25316165
_cell_formula_units_Z   2
loop_
 _symmetry_equiv_pos_site_id
 _symmetry_equiv_pos_as_xyz
  1  'x, y, z'
loop_
 _atom_site_type_symbol
 _atom_site_label
 _atom_site_symmetry_multiplicity
 _atom_site_fract_x
 _atom_site_fract_y
 _atom_site_fract_z
 _atom_site_occupancy
  Li  Li0  1  0.56741772  0.35545925  0.13696149  1
  Li  Li1  1  0.28928563  0.93014219  0.57794111  1
  Li  Li2  1  0.15379447  0.21437396  0.27039556  1
  Li  Li3  1  0.84440034  0.78662202  0.72586019  1
  Li  Li4  1  0.70318870  0.07135350  0.44341587  1
  Li  Li5  1  0.42897859  0.64284257  0.85713586  1
  Li  Li6  1  0.01283464  0.49924636  0.98815006  1
  Li  Li7  1  0.42882645  0.14293080  0.85712029  1
  Mn  Mn8  1  0.00330897  0.99843763  0.98983430  1
  Mn  Mn9  1  0.85405866  0.28739743  0.72432215  1
  Mn  Mn10  1  0.71049460  0.57090042  0.43117765  1
  Mn  Mn11  1  0.14622167  0.71497507  0.28326982  1
  Mn  Mn12  1  0.57806699  0.85730319  0.13020777  1
  Mn  Mn13  1  0.27910739  0.42819781  0.58418774  1
  O  O14  1  0.74427417  0.30354684  0.91560137  1
  O  O15  1  0.42409426  0.87465936  0.36108451  1
  O  O16  1  0.28941412  0.15319546  0.07210842  1
  O  O17  1  0.99344035  0.72859820  0.50017143  1
  O  O18  1  0.87600537  0.02051125  0.18947535  1
  O  O19  1  0.56318069  0.58789986  0.65185888  1
  O  O20  1  0.11812445  0.45031088  0.78352860  1
  O  O21  1  0.43293172  0.41090273  0.35313384  1
  O  O22  1  0.11310264  0.98212849  0.79882187  1
  O  O23  1  0.98097963  0.26512725  0.52484516  1
  O  O24  1  0.73934748  0.83532511  0.93068296  1
  O  O25  1  0.56771321  0.13260542  0.64209493  1
  O  O26  1  0.29390143  0.69784403  0.06233492  1
  O  O27  1  0.86350565  0.55716292  0.21427790  1
