# generated using pymatgen
data_Li4Mn3CoO8
_symmetry_space_group_name_H-M   'P 1'
_cell_length_a   5.05240867
_cell_length_b   6.05246264
_cell_length_c   5.30828839
_cell_angle_alpha   69.38344266
_cell_angle_beta   77.83586030
_cell_angle_gamma   86.30058405
_symmetry_Int_Tables_number   1
_chemical_formula_structural   Li4Mn3CoO8
_chemical_formula_sum   'Li4 Mn3 Co1 O8'
_cell_volume   148.50982406
_cell_formula_units_Z   1
loop_
 _symmetry_equiv_pos_site_id
 _symmetry_equiv_pos_as_xyz
  1  'x, y, z'
loop_
 _atom_site_type_symbol
 _atom_site_label
 _atom_site_symmetry_multiplicity
 _atom_site_fract_x
 _atom_site_fract_y
 _atom_site_fract_z
 _atom_site_occupancy
  Li  Li0  1  0.24760843  0.87663821  0.50201373  1
  Li  Li1  1  0.75239157  0.12336179  0.49798627  1
  Li  Li2  1  0.25074127  0.37486635  0.51371853  1
  Li  Li3  1  0.74925873  0.62513365  0.48628147  1
  Mn  Mn4  1  0.50470705  0.24469723  0.99404736  1
  Mn  Mn5  1  0.00000000  0.50000000  -0.00000000  1
  Mn  Mn6  1  0.49529295  0.75530277  0.00595264  1
  Co  Co7  1  0.00000000  0.00000000  -0.00000000  1
  O  O8  1  0.13452474  0.70479139  0.23665773  1
  O  O9  1  0.64103245  0.95834442  0.23564838  1
  O  O10  1  0.12298462  0.18151876  0.20602072  1
  O  O11  1  0.63588778  0.45730069  0.23196808  1
  O  O12  1  0.35896755  0.04165558  0.76435162  1
  O  O13  1  0.86547526  0.29520861  0.76334227  1
  O  O14  1  0.36411222  0.54269931  0.76803192  1
  O  O15  1  0.87701538  0.81848124  0.79397928  1
