# generated using pymatgen
data_Li6V3P8O29
_symmetry_space_group_name_H-M   'P 1'
_cell_length_a   9.86413924
_cell_length_b   9.82703526
_cell_length_c   13.93775000
_cell_angle_alpha   90.09207935
_cell_angle_beta   89.97981693
_cell_angle_gamma   59.94182945
_symmetry_Int_Tables_number   1
_chemical_formula_structural   Li6V3P8O29
_chemical_formula_sum   'Li12 V6 P16 O58'
_cell_volume   1169.36258577
_cell_formula_units_Z   2
loop_
 _symmetry_equiv_pos_site_id
 _symmetry_equiv_pos_as_xyz
  1  'x, y, z'
loop_
 _atom_site_type_symbol
 _atom_site_label
 _atom_site_symmetry_multiplicity
 _atom_site_fract_x
 _atom_site_fract_y
 _atom_site_fract_z
 _atom_site_occupancy
  Li  Li0  1  0.90699172  0.77761306  0.06011725  1
  Li  Li1  1  0.90406129  0.32205539  0.55930979  1
  Li  Li2  1  0.66512753  0.67240639  0.88393562  1
  Li  Li3  1  0.77471693  0.31144835  0.06181431  1
  Li  Li4  1  0.31797191  0.90823706  0.06271036  1
  Li  Li5  1  0.68467483  0.22232486  0.44002248  1
  Li  Li6  1  0.31952385  0.77249311  0.55950257  1
  Li  Li7  1  0.22544209  0.67889236  0.94109126  1
  Li  Li8  1  0.33852330  0.32851594  0.61584656  1
  Li  Li9  1  0.08547552  0.68892531  0.43817733  1
  Li  Li10  1  0.22606182  0.09217716  0.43718711  1
  Li  Li11  1  0.09305027  0.22754020  0.94072983  1
  V  V12  1  0.56852443  0.42940925  0.25033964  1
  V  V13  1  0.43542281  0.56491648  0.75077290  1
  V  V14  1  0.57090051  0.99993759  0.75003165  1
  V  V15  1  0.43613721  0.99991482  0.24963350  1
  V  V16  1  0.99803847  0.57071155  0.24996933  1
  V  V17  1  0.00062247  0.43455879  0.74945288  1
  P  P18  1  0.91125138  0.77075452  0.84089542  1
  P  P19  1  0.76649688  0.91575087  0.34353283  1
  P  P20  1  0.91133025  0.32150770  0.34187451  1
  P  P21  1  0.66803865  0.66453085  0.12611458  1
  P  P22  1  0.66459748  0.66750993  0.62740871  1
  P  P23  1  0.77099678  0.32027993  0.84380008  1
  P  P24  1  0.68217848  0.22911125  0.65869125  1
  P  P25  1  0.32058471  0.91103936  0.84333972  1
  P  P26  1  0.68287682  0.08413879  0.15671531  1
  P  P27  1  0.32146670  0.76724467  0.34074827  1
  P  P28  1  0.23322148  0.67814121  0.15816757  1
  P  P29  1  0.33198387  0.33549567  0.37390031  1
  P  P30  1  0.33314363  0.33180134  0.87273939  1
  P  P31  1  0.09055050  0.68002014  0.65588063  1
  P  P32  1  0.23203376  0.08925246  0.65699866  1
  P  P33  1  0.08873768  0.23273169  0.15923106  1
  O  O34  1  0.00625626  0.75218251  0.56569609  1
  O  O35  1  0.91417041  0.74738201  0.33890831  1
  O  O36  1  0.76671131  0.99547532  0.06971587  1
  O  O37  1  0.74769699  0.91444124  0.83948496  1
  O  O38  1  0.89193175  0.62317806  0.82560907  1
  O  O39  1  0.81403137  0.67362987  0.16407297  1
  O  O40  1  0.89920835  0.48075479  0.32442885  1
  O  O41  1  0.00116488  0.24248490  0.06891080  1
  O  O42  1  0.92006499  0.33536986  0.84006122  1
  O  O43  1  0.65843292  0.81532308  0.67488715  1
  O  O44  1  0.61908059  0.90218220  0.32512076  1
  O  O45  1  0.81662842  0.51673214  0.66795533  1
  O  O46  1  0.66858997  0.66411907  0.01783327  1
  O  O47  1  0.66009430  0.66668097  0.52128035  1
  O  O48  1  0.67562579  0.51102735  0.16484612  1
  O  O49  1  0.48590168  0.88857001  0.82947838  1
  O  O50  1  0.51397198  0.81216424  0.16445002  1
  O  O51  1  0.74774807  0.33552757  0.34104001  1
  O  O52  1  0.78690523  0.21554649  0.75065987  1
  O  O53  1  0.75750413  0.24673869  0.56952978  1
  O  O54  1  0.75956058  0.24797432  0.93416113  1
  O  O55  1  0.62614983  0.48790186  0.82559001  1
  O  O56  1  0.51488680  0.66469335  0.66960162  1
  O  O57  1  0.66127917  0.25286271  0.16117369  1
  O  O58  1  0.48055852  0.61773983  0.32254613  1
  O  O59  1  0.33809157  0.91564363  0.33946056  1
  O  O60  1  0.78836864  0.00013367  0.25004878  1
  O  O61  1  0.76235683  0.00466888  0.43028208  1
  O  O62  1  0.24344571  0.99705489  0.56819052  1
  O  O63  1  0.66296647  0.08479439  0.66054102  1
  O  O64  1  0.51554077  0.37681192  0.67318791  1
  O  O65  1  0.33189639  0.74838617  0.84344634  1
  O  O66  1  0.48714872  0.32668050  0.33603381  1
  O  O67  1  0.38002791  0.51906902  0.17569219  1
  O  O68  1  0.24159236  0.75867647  0.06835374  1
  O  O69  1  0.24373836  0.75747409  0.43113570  1
  O  O70  1  0.21101636  0.78946137  0.24983147  1
  O  O71  1  0.25524692  0.66334319  0.65932671  1
  O  O72  1  0.47524498  0.18446605  0.82541203  1
  O  O73  1  0.52162762  0.09700460  0.17490726  1
  O  O74  1  0.33475607  0.48216043  0.83117529  1
  O  O75  1  0.32874133  0.33504278  0.97889178  1
  O  O76  1  0.33157997  0.33638466  0.48216938  1
  O  O77  1  0.18649563  0.48923912  0.33516675  1
  O  O78  1  0.37482232  0.11196068  0.67078554  1
  O  O79  1  0.32585002  0.18794242  0.33538439  1
  O  O80  1  0.08357867  0.66428632  0.15906555  1
  O  O81  1  0.00251962  0.78507660  0.74916446  1
  O  O82  1  0.00401044  0.75244789  0.93019278  1
  O  O83  1  0.11189452  0.51282192  0.67418843  1
  O  O84  1  0.18071652  0.33373952  0.83133066  1
  O  O85  1  0.09838840  0.38233428  0.17738732  1
  O  O86  1  0.25335869  0.08424581  0.16014093  1
  O  O87  1  0.24003624  0.00355488  0.93210082  1
  O  O88  1  0.21705530  0.99993134  0.75008871  1
  O  O89  1  0.08078760  0.25157785  0.65724368  1
  O  O90  1  0.00004123  0.24127952  0.43172711  1
  O  O91  1  0.00040753  0.21024067  0.25021985  1
