# generated using pymatgen
data_Li8V3P8O29
_symmetry_space_group_name_H-M   'P 1'
_cell_length_a   9.88037193
_cell_length_b   9.86735728
_cell_length_c   13.80680150
_cell_angle_alpha   89.99887473
_cell_angle_beta   89.76357948
_cell_angle_gamma   60.04700819
_symmetry_Int_Tables_number   1
_chemical_formula_structural   Li8V3P8O29
_chemical_formula_sum   'Li16 V6 P16 O58'
_cell_volume   1166.26832801
_cell_formula_units_Z   2
loop_
 _symmetry_equiv_pos_site_id
 _symmetry_equiv_pos_as_xyz
  1  'x, y, z'
loop_
 _atom_site_type_symbol
 _atom_site_label
 _atom_site_symmetry_multiplicity
 _atom_site_fract_x
 _atom_site_fract_y
 _atom_site_fract_z
 _atom_site_occupancy
  Li  Li0  1  0.90503451  0.76601462  0.06429095  1
  Li  Li1  1  0.76643022  0.90518797  0.56289578  1
  Li  Li2  1  0.90509552  0.32884243  0.56434892  1
  Li  Li3  1  0.66976092  0.66813229  0.38183488  1
  Li  Li4  1  0.66989105  0.66207965  0.88181757  1
  Li  Li5  1  0.76645662  0.32827585  0.06299496  1
  Li  Li6  1  0.32964315  0.90503495  0.06436984  1
  Li  Li7  1  0.66444822  0.23438353  0.44004344  1
  Li  Li8  1  0.32958170  0.76532678  0.56441167  1
  Li  Li9  1  0.66432973  0.10122317  0.94016457  1
  Li  Li10  1  0.23460494  0.66393314  0.93729180  1
  Li  Li11  1  0.10086835  0.66299540  0.43814306  1
  Li  Li12  1  0.23473121  0.10160898  0.43734857  1
  Li  Li13  1  0.10088451  0.23608745  0.93810763  1
  Li  Li14  1  0.99711719  0.00224939  0.00077660  1
  Li  Li15  1  0.99714703  0.00042967  0.50078422  1
  V  V16  1  0.56092105  0.43548222  0.24982025  1
  V  V17  1  0.43511158  0.56380174  0.74843323  1
  V  V18  1  0.56079809  0.00371674  0.74980027  1
  V  V19  1  0.43519662  0.00093642  0.24839774  1
  V  V20  1  0.00053377  0.56358316  0.24843794  1
  V  V21  1  0.00041851  0.43597660  0.74845005  1
  P  P22  1  0.90786962  0.77752736  0.84350868  1
  P  P23  1  0.77599045  0.90954108  0.34405058  1
  P  P24  1  0.90801365  0.31462786  0.34348074  1
  P  P25  1  0.66495963  0.66581589  0.12575202  1
  P  P26  1  0.66481137  0.66937966  0.62578365  1
  P  P27  1  0.77583471  0.31450827  0.84409450  1
  P  P28  1  0.68692913  0.22584651  0.65686943  1
  P  P29  1  0.31367684  0.91096747  0.84348657  1
  P  P30  1  0.68694724  0.08714744  0.15687712  1
  P  P31  1  0.31363601  0.77543659  0.34348023  1
  P  P32  1  0.22752667  0.68734026  0.15611441  1
  P  P33  1  0.33142602  0.33601403  0.37433731  1
  P  P34  1  0.33150365  0.33242876  0.87436963  1
  P  P35  1  0.08606274  0.68770407  0.65563140  1
  P  P36  1  0.22744585  0.08517454  0.65610782  1
  P  P37  1  0.08615645  0.22609611  0.15557970  1
  O  O38  1  0.99481438  0.78045791  0.56688684  1
  O  O39  1  0.92461955  0.74839192  0.34445288  1
  O  O40  1  0.78155568  0.99896032  0.06747208  1
  O  O41  1  0.74410724  0.92547926  0.84377997  1
  O  O42  1  0.88887693  0.63245338  0.83467259  1
  O  O43  1  0.80892649  0.67413999  0.16353135  1
  O  O44  1  0.88898312  0.47871621  0.33457687  1
  O  O45  1  0.99484201  0.22453956  0.06688196  1
  O  O46  1  0.92442461  0.32710311  0.84446918  1
  O  O47  1  0.67012690  0.81670483  0.66850139  1
  O  O48  1  0.63147706  0.89009602  0.33354508  1
  O  O49  1  0.80878199  0.51700200  0.66350333  1
  O  O50  1  0.66713963  0.65828238  0.01649847  1
  O  O51  1  0.66697494  0.67522537  0.51656081  1
  O  O52  1  0.67020914  0.51309027  0.16828392  1
  O  O53  1  0.47795177  0.89470590  0.83050633  1
  O  O54  1  0.51154547  0.80890326  0.16335582  1
  O  O55  1  0.74420201  0.33053292  0.34380675  1
  O  O56  1  0.79153285  0.20958373  0.75062133  1
  O  O57  1  0.78165637  0.21929717  0.56750645  1
  O  O58  1  0.77136845  0.22429185  0.93261084  1
  O  O59  1  0.63131516  0.47846642  0.83356298  1
  O  O60  1  0.51141791  0.67950018  0.66328147  1
  O  O61  1  0.66946802  0.25167953  0.15877652  1
  O  O62  1  0.47792218  0.62748432  0.33051441  1
  O  O63  1  0.33094286  0.92109774  0.34552187  1
  O  O64  1  0.79170244  0.99869590  0.25055017  1
  O  O65  1  0.77157107  0.00425425  0.43253932  1
  O  O66  1  0.22980819  0.99413408  0.56645484  1
  O  O67  1  0.66943378  0.07876861  0.65870165  1
  O  O68  1  0.53085068  0.37559898  0.66597894  1
  O  O69  1  0.33104898  0.74799852  0.84555221  1
  O  O70  1  0.48318281  0.33610167  0.32848386  1
  O  O71  1  0.38015417  0.53071576  0.16859582  1
  O  O72  1  0.22971623  0.77613501  0.06644381  1
  O  O73  1  0.22709840  0.76857293  0.43288975  1
  O  O74  1  0.20963204  0.79262357  0.25038010  1
  O  O75  1  0.24745491  0.67361625  0.65622821  1
  O  O76  1  0.48320143  0.18090507  0.82822734  1
  O  O77  1  0.53085377  0.09349314  0.16601884  1
  O  O78  1  0.32958186  0.48095259  0.83469684  1
  O  O79  1  0.34544563  0.31976653  0.98203621  1
  O  O80  1  0.34467040  0.33481095  0.48208156  1
  O  O81  1  0.18816952  0.48672532  0.33501417  1
  O  O82  1  0.38006985  0.08928112  0.66859715  1
  O  O83  1  0.32989210  0.18926081  0.33464039  1
  O  O84  1  0.08274386  0.66941285  0.15513375  1
  O  O85  1  0.99642053  0.79319004  0.75040153  1
  O  O86  1  0.99958965  0.77693729  0.93229459  1
  O  O87  1  0.09308338  0.53080671  0.66653578  1
  O  O88  1  0.18809552  0.32506021  0.83518822  1
  O  O89  1  0.09323150  0.37592766  0.16647956  1
  O  O90  1  0.24753531  0.07872279  0.15618238  1
  O  O91  1  0.22723254  0.00437243  0.93288674  1
  O  O92  1  0.20965368  0.99773196  0.75038876  1
  O  O93  1  0.08266749  0.24779653  0.65516172  1
  O  O94  1  0.99970548  0.22368418  0.43232015  1
  O  O95  1  0.99652957  0.21029371  0.25042543  1
