# generated using pymatgen
data_Li9Mn2Co5O16
_symmetry_space_group_name_H-M   'P 1'
_cell_length_a   3.00905176
_cell_length_b   10.08182306
_cell_length_c   9.95954040
_cell_angle_alpha   73.22975752
_cell_angle_beta   86.95931271
_cell_angle_gamma   91.53396636
_symmetry_Int_Tables_number   1
_chemical_formula_structural   Li9Mn2Co5O16
_chemical_formula_sum   'Li9 Mn2 Co5 O16'
_cell_volume   288.60256409
_cell_formula_units_Z   1
loop_
 _symmetry_equiv_pos_site_id
 _symmetry_equiv_pos_as_xyz
  1  'x, y, z'
loop_
 _atom_site_type_symbol
 _atom_site_label
 _atom_site_symmetry_multiplicity
 _atom_site_fract_x
 _atom_site_fract_y
 _atom_site_fract_z
 _atom_site_occupancy
  Li  Li0  1  0.99668513  0.25655017  0.74749495  1
  Li  Li1  1  0.50626748  0.74331710  0.49835066  1
  Li  Li2  1  0.99363502  0.25022211  0.24854834  1
  Li  Li3  1  0.50301470  0.25401978  0.50000005  1
  Li  Li4  1  0.00636498  0.74977789  0.25145166  1
  Li  Li5  1  0.49373252  0.25668290  0.00164934  1
  Li  Li6  1  0.49698530  0.74598022  -0.00000005  1
  Li  Li7  1  0.00331487  0.74344983  0.75250505  1
  Li  Li8  1  0.50000000  0.50000000  0.75000000  1
  Mn  Mn9  1  0.99874505  0.00145129  0.99918116  1
  Mn  Mn10  1  0.00125495  0.99854871  0.50081884  1
  Co  Co11  1  0.50000000  0.50000000  0.25000000  1
  Co  Co12  1  -0.00062066  0.49858892  0.50936881  1
  Co  Co13  1  0.50000000  0.00000000  0.25000000  1
  Co  Co14  1  0.00062066  0.50141108  0.99063119  1
  Co  Co15  1  0.50000000  0.00000000  0.75000000  1
  O  O16  1  0.47331027  0.11712145  0.87396557  1
  O  O17  1  0.99528845  0.61577198  0.60783851  1
  O  O18  1  0.47144945  0.11564546  0.37415520  1
  O  O19  1  0.96886585  0.11293839  0.62832021  1
  O  O20  1  0.47034873  0.61409635  0.37185623  1
  O  O21  1  0.97100566  0.11378204  0.12903473  1
  O  O22  1  0.00979840  0.61026806  0.12131673  1
  O  O23  1  0.48536057  0.61469736  0.88478627  1
  O  O24  1  0.51463943  0.38530264  0.61521373  1
  O  O25  1  0.02899434  0.88621796  0.37096527  1
  O  O26  1  0.52965127  0.38590365  0.12814377  1
  O  O27  1  0.99020160  0.38973194  0.37868327  1
  O  O28  1  0.52855055  0.88435454  0.12584480  1
  O  O29  1  0.00471155  0.38422802  0.89216149  1
  O  O30  1  0.03113415  0.88706161  0.87167979  1
  O  O31  1  0.52668973  0.88287855  0.62603443  1
