# generated using pymatgen
data_Li7V3P8O29
_symmetry_space_group_name_H-M   'P 1'
_cell_length_a   9.82974339
_cell_length_b   9.84234849
_cell_length_c   13.91904215
_cell_angle_alpha   90.19184910
_cell_angle_beta   90.27028724
_cell_angle_gamma   60.21378918
_symmetry_Int_Tables_number   1
_chemical_formula_structural   Li7V3P8O29
_chemical_formula_sum   'Li14 V6 P16 O58'
_cell_volume   1168.71157158
_cell_formula_units_Z   2
loop_
 _symmetry_equiv_pos_site_id
 _symmetry_equiv_pos_as_xyz
  1  'x, y, z'
loop_
 _atom_site_type_symbol
 _atom_site_label
 _atom_site_symmetry_multiplicity
 _atom_site_fract_x
 _atom_site_fract_y
 _atom_site_fract_z
 _atom_site_occupancy
  Li  Li0  1  0.76624788  0.90715038  0.56489979  1
  Li  Li1  1  0.90585098  0.33106803  0.56613489  1
  Li  Li2  1  0.66988662  0.66642592  0.38542826  1
  Li  Li3  1  0.66519266  0.67257263  0.88428400  1
  Li  Li4  1  0.76753720  0.31936511  0.06057499  1
  Li  Li5  1  0.32295513  0.91055041  0.06305058  1
  Li  Li6  1  0.66765626  0.23545652  0.44428253  1
  Li  Li7  1  0.32666806  0.76779701  0.56752297  1
  Li  Li8  1  0.66415118  0.10041553  0.93386788  1
  Li  Li9  1  0.23636479  0.66075110  0.93463336  1
  Li  Li10  1  0.09790452  0.66979892  0.43942643  1
  Li  Li11  1  0.10686276  0.23163421  0.94008224  1
  Li  Li12  1  0.98634767  0.95584687  0.00355799  1
  Li  Li13  1  0.03171721  0.02588493  0.49675217  1
  V  V14  1  0.55921550  0.43823953  0.24860489  1
  V  V15  1  0.43448589  0.56538525  0.74867772  1
  V  V16  1  0.56348366  0.00005859  0.74746824  1
  V  V17  1  0.43537628  0.00450101  0.25179592  1
  V  V18  1  0.99700426  0.56430610  0.24645536  1
  V  V19  1  0.00529604  0.43416722  0.75060801  1
  P  P20  1  0.91336447  0.77946021  0.84042745  1
  P  P21  1  0.77698236  0.91137151  0.34012531  1
  P  P22  1  0.90729379  0.31452331  0.34487650  1
  P  P23  1  0.66303940  0.66705957  0.12904316  1
  P  P24  1  0.67059818  0.66433257  0.62559164  1
  P  P25  1  0.77636400  0.31871882  0.84267310  1
  P  P26  1  0.68780983  0.22756059  0.65668790  1
  P  P27  1  0.31630894  0.91048983  0.84738286  1
  P  P28  1  0.68847579  0.08602142  0.15395375  1
  P  P29  1  0.31657450  0.77744706  0.34219327  1
  P  P30  1  0.22277975  0.68904987  0.15762740  1
  P  P31  1  0.33223297  0.33564504  0.37016428  1
  P  P32  1  0.33371525  0.33190181  0.87391293  1
  P  P33  1  0.08198160  0.68773688  0.65324648  1
  P  P34  1  0.22158512  0.08437034  0.65999585  1
  P  P35  1  0.08491131  0.22570637  0.16008645  1
  O  O36  1  0.99559142  0.76768371  0.56153661  1
  O  O37  1  0.92221074  0.74648497  0.34173808  1
  O  O38  1  0.77820163  0.01152842  0.06394071  1
  O  O39  1  0.74720291  0.91961777  0.84504525  1
  O  O40  1  0.90294398  0.62660213  0.83193157  1
  O  O41  1  0.81019035  0.66605655  0.17569572  1
  O  O42  1  0.89647250  0.47651659  0.33260741  1
  O  O43  1  0.99628939  0.22760516  0.07090509  1
  O  O44  1  0.92455437  0.33615375  0.84462131  1
  O  O45  1  0.68197258  0.80736424  0.66310906  1
  O  O46  1  0.62976637  0.89176762  0.32694269  1
  O  O47  1  0.81344247  0.51068940  0.66939581  1
  O  O48  1  0.66460056  0.66454088  0.02182302  1
  O  O49  1  0.68199374  0.65456562  0.51698446  1
  O  O50  1  0.66969830  0.51366410  0.16837673  1
  O  O51  1  0.48207972  0.88743281  0.83385794  1
  O  O52  1  0.51253081  0.81325485  0.16874663  1
  O  O53  1  0.73875007  0.33929898  0.34082268  1
  O  O54  1  0.79495201  0.21315924  0.75008758  1
  O  O55  1  0.77841114  0.22749904  0.56781584  1
  O  O56  1  0.77396009  0.22884867  0.93067741  1
  O  O57  1  0.63197988  0.48321692  0.83353538  1
  O  O58  1  0.51433982  0.67580083  0.66013672  1
  O  O59  1  0.66052016  0.25486082  0.16129090  1
  O  O60  1  0.47954756  0.62675073  0.32936781  1
  O  O61  1  0.34373079  0.91721881  0.34092392  1
  O  O62  1  0.79581410  0.99659482  0.24708253  1
  O  O63  1  0.76723575  0.00493653  0.42832156  1
  O  O64  1  0.19993183  0.99198822  0.58047963  1
  O  O65  1  0.67348382  0.07982225  0.65680892  1
  O  O66  1  0.53014713  0.37625692  0.66810192  1
  O  O67  1  0.32676279  0.74950177  0.84466798  1
  O  O68  1  0.48108397  0.33678546  0.32701541  1
  O  O69  1  0.38125479  0.53557619  0.16687700  1
  O  O70  1  0.21627608  0.78131834  0.06920542  1
  O  O71  1  0.23030813  0.77325064  0.43080558  1
  O  O72  1  0.20865600  0.79453543  0.25068744  1
  O  O73  1  0.24649165  0.66677263  0.65478468  1
  O  O74  1  0.48447197  0.18863542  0.83337539  1
  O  O75  1  0.53598553  0.07999811  0.16514337  1
  O  O76  1  0.32635159  0.48500902  0.83773038  1
  O  O77  1  0.32103273  0.32679638  0.98084517  1
  O  O78  1  0.34129403  0.33313524  0.47628207  1
  O  O79  1  0.18078620  0.48338568  0.33052007  1
  O  O80  1  0.37751381  0.08121485  0.66147022  1
  O  O81  1  0.33795217  0.18720958  0.32248055  1
  O  O82  1  0.08612990  0.65816660  0.16260688  1
  O  O83  1  0.98677618  0.79984387  0.74145940  1
  O  O84  1  0.01351536  0.78258872  0.92146855  1
  O  O85  1  0.08535006  0.53091912  0.66934758  1
  O  O86  1  0.18682775  0.32539405  0.82701250  1
  O  O87  1  0.09231306  0.37741400  0.17249353  1
  O  O88  1  0.25016970  0.08093770  0.16185539  1
  O  O89  1  0.23521578  0.00020161  0.93821524  1
  O  O90  1  0.20398185  0.01051204  0.76049437  1
  O  O91  1  0.07956043  0.25310199  0.66062602  1
  O  O92  1  0.98827462  0.22842029  0.43458600  1
  O  O93  1  0.99638110  0.20774446  0.25281636  1
