# generated using pymatgen
data_LiCr2O4
_symmetry_space_group_name_H-M   'P 1'
_cell_length_a   8.41884027
_cell_length_b   8.43065627
_cell_length_c   8.30185974
_cell_angle_alpha   90.00458611
_cell_angle_beta   90.00158667
_cell_angle_gamma   90.00256387
_symmetry_Int_Tables_number   1
_chemical_formula_structural   LiCr2O4
_chemical_formula_sum   'Li8 Cr16 O32'
_cell_volume   589.23568741
_cell_formula_units_Z   8
loop_
 _symmetry_equiv_pos_site_id
 _symmetry_equiv_pos_as_xyz
  1  'x, y, z'
loop_
 _atom_site_type_symbol
 _atom_site_label
 _atom_site_symmetry_multiplicity
 _atom_site_fract_x
 _atom_site_fract_y
 _atom_site_fract_z
 _atom_site_occupancy
  Li  Li0  1  0.00290151  0.00037592  0.99861595  1
  Li  Li1  1  0.24974961  0.24732980  0.25107477  1
  Li  Li2  1  0.25013821  0.75270660  0.75110054  1
  Li  Li3  1  0.49699808  0.99975150  0.49876016  1
  Li  Li4  1  0.50307665  0.49961608  0.00126543  1
  Li  Li5  1  0.74968488  0.25265685  0.74898613  1
  Li  Li6  1  0.75016276  0.74745514  0.24894819  1
  Li  Li7  1  0.99710480  0.50041106  0.50137065  1
  Cr  Cr8  1  0.12219380  0.12780763  0.62495291  1
  Cr  Cr9  1  0.12433005  0.37655862  0.87550025  1
  Cr  Cr10  1  0.12290252  0.87255003  0.37492949  1
  Cr  Cr11  1  0.12605020  0.62570898  0.12609763  1
  Cr  Cr12  1  0.37388424  0.37431783  0.62591561  1
  Cr  Cr13  1  0.37716130  0.12745738  0.87500695  1
  Cr  Cr14  1  0.37567113  0.62349585  0.37557643  1
  Cr  Cr15  1  0.37771964  0.87214047  0.12496514  1
  Cr  Cr16  1  0.62232411  0.37222415  0.37508589  1
  Cr  Cr17  1  0.62418371  0.12347590  0.12453745  1
  Cr  Cr18  1  0.62269143  0.62751506  0.62501854  1
  Cr  Cr19  1  0.62601361  0.87427288  0.87392999  1
  Cr  Cr20  1  0.87396224  0.12563110  0.37397221  1
  Cr  Cr21  1  0.87734616  0.37251008  0.12505888  1
  Cr  Cr22  1  0.87577812  0.87649947  0.62445184  1
  Cr  Cr23  1  0.87784896  0.62783245  0.87505174  1
  O  O24  1  0.10710754  0.11037730  0.38266497  1
  O  O25  1  0.10310353  0.88884897  0.61779925  1
  O  O26  1  0.11723647  0.61582642  0.89432360  1
  O  O27  1  0.13923264  0.14357996  0.86714438  1
  O  O28  1  0.12103047  0.39238293  0.10965033  1
  O  O29  1  0.13391898  0.36678103  0.64424294  1
  O  O30  1  0.14175673  0.62906077  0.36021714  1
  O  O31  1  0.13840458  0.85274829  0.13174843  1
  O  O32  1  0.36147452  0.14727262  0.63189162  1
  O  O33  1  0.35819705  0.37090087  0.86002194  1
  O  O34  1  0.36599902  0.63307789  0.14435108  1
  O  O35  1  0.37897366  0.60765571  0.60975757  1
  O  O36  1  0.36084981  0.85646607  0.36718700  1
  O  O37  1  0.38295100  0.38409433  0.39431277  1
  O  O38  1  0.39686362  0.11113432  0.11791658  1
  O  O39  1  0.39284409  0.88958178  0.88270847  1
  O  O40  1  0.60705793  0.38970023  0.61731233  1
  O  O41  1  0.60298545  0.61121046  0.38207649  1
  O  O42  1  0.61699904  0.88411698  0.10560515  1
  O  O43  1  0.63937464  0.35645604  0.13292263  1
  O  O44  1  0.62080106  0.10756704  0.89035027  1
  O  O45  1  0.63395016  0.13316920  0.35576341  1
  O  O46  1  0.64181680  0.87094567  0.63986230  1
  O  O47  1  0.63857299  0.64725527  0.86814414  1
  O  O48  1  0.86162430  0.35269982  0.36815466  1
  O  O49  1  0.85811227  0.12904662  0.13989821  1
  O  O50  1  0.86605829  0.86683223  0.85566467  1
  O  O51  1  0.87930867  0.89234927  0.39023673  1
  O  O52  1  0.86068493  0.64358224  0.63284234  1
  O  O53  1  0.88282640  0.11580296  0.60563702  1
  O  O54  1  0.89699739  0.38889283  0.88216885  1
  O  O55  1  0.89300727  0.61042306  0.11739296  1
