# generated using pymatgen
data_LiV(PO3)4
_symmetry_space_group_name_H-M   'P 1'
_cell_length_a   7.25314973
_cell_length_b   7.25314973
_cell_length_c   9.78435566
_cell_angle_alpha   70.81561483
_cell_angle_beta   80.97253186
_cell_angle_gamma   110.18465676
_symmetry_Int_Tables_number   1
_chemical_formula_structural   LiV(PO3)4
_chemical_formula_sum   'Li2 V2 P8 O24'
_cell_volume   434.56630500
_cell_formula_units_Z   2
loop_
 _symmetry_equiv_pos_site_id
 _symmetry_equiv_pos_as_xyz
  1  'x, y, z'
loop_
 _atom_site_type_symbol
 _atom_site_label
 _atom_site_symmetry_multiplicity
 _atom_site_fract_x
 _atom_site_fract_y
 _atom_site_fract_z
 _atom_site_occupancy
  Li  Li0  1  0.00000000  0.00000000  -0.00000000  1
  Li  Li1  1  0.50000000  0.00000000  0.50000000  1
  V  V2  1  0.05560727  0.80560727  0.75000000  1
  V  V3  1  0.94439273  0.19439273  0.25000000  1
  P  P4  1  0.27112569  0.72938762  0.02179244  1
  P  P5  1  0.69148730  0.98845707  0.80094023  1
  P  P6  1  0.28939730  0.49242653  0.69905977  1
  P  P7  1  0.25118005  0.29291812  0.47820756  1
  P  P8  1  0.74881995  0.70708188  0.52179244  1
  P  P9  1  0.71060270  0.50757347  0.30094023  1
  P  P10  1  0.30851270  0.01154293  0.19905977  1
  P  P11  1  0.72887431  0.27061238  0.97820756  1
  O  O12  1  0.18817617  0.85832048  0.91212078  1
  O  O13  1  0.35002980  0.96392518  0.34611379  1
  O  O14  1  0.27041693  0.69943201  0.68011022  1
  O  O15  1  0.30180546  0.81640951  0.14996381  1
  O  O16  1  0.50044737  0.77802492  0.93836274  1
  O  O17  1  0.15196499  0.48939852  0.09833081  1
  O  O18  1  0.21638866  0.43881011  0.56163726  1
  O  O19  1  0.18996103  0.30385641  0.84611379  1
  O  O20  1  0.72955874  0.89970305  0.41212078  1
  O  O21  1  0.08772933  0.25029581  0.40166919  1
  O  O22  1  0.87954223  0.95052715  0.81988978  1
  O  O23  1  0.53362668  0.54823072  0.64996381  1
  O  O24  1  0.46637332  0.45176928  0.35003619  1
  O  O25  1  0.12045777  0.04947285  0.18011022  1
  O  O26  1  0.91227067  0.74970419  0.59833081  1
  O  O27  1  0.27044126  0.10029695  0.58787922  1
  O  O28  1  0.81003897  0.69614359  0.15388621  1
  O  O29  1  0.78361134  0.56118989  0.43836274  1
  O  O30  1  0.84803501  0.51060148  0.90166919  1
  O  O31  1  0.49955263  0.22197508  0.06163726  1
  O  O32  1  0.69819454  0.18359049  0.85003619  1
  O  O33  1  0.72958307  0.30056799  0.31988978  1
  O  O34  1  0.64997020  0.03607482  0.65388621  1
  O  O35  1  0.81182383  0.14167952  0.08787922  1
