# generated using pymatgen
data_LiMnPCO7
_symmetry_space_group_name_H-M   'P 1'
_cell_length_a   9.69868773
_cell_length_b   10.17809848
_cell_length_c   6.21420078
_cell_angle_alpha   89.48313059
_cell_angle_beta   88.82201542
_cell_angle_gamma   62.37655090
_symmetry_Int_Tables_number   1
_chemical_formula_structural   LiMnPCO7
_chemical_formula_sum   'Li4 Mn4 P4 C4 O28'
_cell_volume   543.39241484
_cell_formula_units_Z   4
loop_
 _symmetry_equiv_pos_site_id
 _symmetry_equiv_pos_as_xyz
  1  'x, y, z'
loop_
 _atom_site_type_symbol
 _atom_site_label
 _atom_site_symmetry_multiplicity
 _atom_site_fract_x
 _atom_site_fract_y
 _atom_site_fract_z
 _atom_site_occupancy
  Li  Li0  1  0.76571864  0.23643326  0.98234660  1
  Li  Li1  1  0.75995635  0.74039093  0.51054942  1
  Li  Li2  1  0.23123443  0.26276788  0.48783739  1
  Li  Li3  1  0.24055797  0.75828449  0.47970873  1
  Mn  Mn4  1  0.66061029  0.06740449  0.24859357  1
  Mn  Mn5  1  0.66187150  0.56551502  0.25521874  1
  Mn  Mn6  1  0.33820448  0.43214691  0.75567954  1
  Mn  Mn7  1  0.33875539  0.93305249  0.74602443  1
  P  P8  1  0.57168000  0.07574340  0.74514650  1
  P  P9  1  0.57072784  0.57542496  0.75056011  1
  P  P10  1  0.42717441  0.42432888  0.24529642  1
  P  P11  1  0.42922974  0.92420543  0.25641806  1
  C  C12  1  0.93484952  0.39042687  0.25500127  1
  C  C13  1  0.93363814  0.89347532  0.26368918  1
  C  C14  1  0.06653611  0.11011408  0.76038944  1
  C  C15  1  0.06731097  0.60702300  0.71482290  1
  O  O16  1  0.87739766  0.03726276  0.22869981  1
  O  O17  1  0.87836810  0.53615051  0.25683713  1
  O  O18  1  0.92854588  0.20224318  0.77689167  1
  O  O19  1  0.81925936  0.35598716  0.22977920  1
  O  O20  1  0.92978902  0.69800908  0.69620532  1
  O  O21  1  0.81699129  0.85881709  0.27694971  1
  O  O22  1  0.67812547  0.05277324  0.93890109  1
  O  O23  1  0.66969499  0.08532494  0.55149507  1
  O  O24  1  0.65761318  0.58056227  0.95146583  1
  O  O25  1  0.68725836  0.55863381  0.56359937  1
  O  O26  1  0.58107199  0.28212615  0.20001503  1
  O  O27  1  0.53620145  0.44058809  0.75732478  1
  O  O28  1  0.58371899  0.78058760  0.28465685  1
  O  O29  1  0.53712790  0.94168810  0.71674691  1
  O  O30  1  0.46265823  0.05930413  0.27461797  1
  O  O31  1  0.41507974  0.21811623  0.76844228  1
  O  O32  1  0.46365287  0.55585967  0.28608792  1
  O  O33  1  0.41595378  0.71862294  0.72228534  1
  O  O34  1  0.31250601  0.46069337  0.05820947  1
  O  O35  1  0.33885367  0.40354098  0.44313368  1
  O  O36  1  0.31070039  0.93418703  0.43813158  1
  O  O37  1  0.34542665  0.92695358  0.04999606  1
  O  O38  1  0.18339926  0.14380048  0.73653166  1
  O  O39  1  0.07224608  0.29946271  0.27736271  1
  O  O40  1  0.18476606  0.64054336  0.71042339  1
  O  O41  1  0.07162796  0.80410841  0.28442995  1
  O  O42  1  0.12182142  0.46261210  0.74359125  1
  O  O43  1  0.12209045  0.96470160  0.76753967  1
