# generated using pymatgen
data_Na3Li3Fe2P2(CO7)2
_symmetry_space_group_name_H-M   'P 1'
_cell_length_a   8.72906872
_cell_length_b   6.66586693
_cell_length_c   10.20067158
_cell_angle_alpha   89.68767890
_cell_angle_beta   87.68824942
_cell_angle_gamma   88.81365601
_symmetry_Int_Tables_number   1
_chemical_formula_structural   Na3Li3Fe2P2(CO7)2
_chemical_formula_sum   'Na6 Li6 Fe4 P4 C4 O28'
_cell_volume   592.92803002
_cell_formula_units_Z   2
loop_
 _symmetry_equiv_pos_site_id
 _symmetry_equiv_pos_as_xyz
  1  'x, y, z'
loop_
 _atom_site_type_symbol
 _atom_site_label
 _atom_site_symmetry_multiplicity
 _atom_site_fract_x
 _atom_site_fract_y
 _atom_site_fract_z
 _atom_site_occupancy
  Na  Na0  1  0.08340233  0.23835358  0.87782295  1
  Na  Na1  1  0.25954867  0.49927457  0.62847860  1
  Na  Na2  1  0.25873860  -0.00011429  0.12545549  1
  Na  Na3  1  0.25764174  0.50074707  0.12324068  1
  Na  Na4  1  0.74528765  0.50019748  0.87451224  1
  Na  Na5  1  0.73960449  0.50132690  0.37259626  1
  Li  Li6  1  0.08397871  0.22812299  0.37725062  1
  Li  Li7  1  0.28413599  0.03106117  0.61671894  1
  Li  Li8  1  0.72353483  0.97374340  0.88378835  1
  Li  Li9  1  0.72512572  0.98519459  0.37519834  1
  Li  Li10  1  0.90960716  0.78248747  0.62341245  1
  Li  Li11  1  0.90357267  0.76770101  0.12761248  1
  Fe  Fe12  1  0.35725362  0.75145756  0.88267212  1
  Fe  Fe13  1  0.34247502  0.75704453  0.39441722  1
  Fe  Fe14  1  0.66130798  0.24401620  0.60679671  1
  Fe  Fe15  1  0.65165540  0.24098593  0.10913704  1
  P  P16  1  0.41769463  0.23885666  0.84982816  1
  P  P17  1  0.40990017  0.24795222  0.35544418  1
  P  P18  1  0.59390431  0.75923215  0.64462439  1
  P  P19  1  0.59225065  0.75056800  0.14473762  1
  C  C20  1  0.04229988  0.76176354  0.86320947  1
  C  C21  1  0.03919178  0.76066391  0.36224735  1
  C  C22  1  0.96174595  0.23746799  0.63232615  1
  C  C23  1  0.94264805  0.24368536  0.15063226  1
  O  O24  1  0.10678242  0.21911485  0.65068332  1
  O  O25  1  0.08643458  0.25647276  0.17507221  1
  O  O26  1  0.07236709  0.75489522  0.98679489  1
  O  O27  1  0.07796520  0.75158842  0.48391553  1
  O  O28  1  0.15501151  0.75214326  0.77460706  1
  O  O29  1  0.14704504  0.75636018  0.26916489  1
  O  O30  1  0.31573565  0.06377582  0.90065566  1
  O  O31  1  0.32571784  0.43452184  0.88770539  1
  O  O32  1  0.30086600  0.07308473  0.40160099  1
  O  O33  1  0.32131113  0.44419363  0.39862312  1
  O  O34  1  0.43775273  0.22657420  0.69673090  1
  O  O35  1  0.43033299  0.77364378  0.59009741  1
  O  O36  1  0.43162992  0.24504806  0.20323495  1
  O  O37  1  0.43731540  0.74380195  0.07710113  1
  O  O38  1  0.57855040  0.23129208  0.90929988  1
  O  O39  1  0.57869662  0.77776535  0.79725112  1
  O  O40  1  0.56893260  0.22879536  0.41587387  1
  O  O41  1  0.56338261  0.77854508  0.29582224  1
  O  O42  1  0.67966214  0.55895741  0.60810256  1
  O  O43  1  0.70078081  0.92802436  0.58844138  1
  O  O44  1  0.69172746  0.55659784  0.11866645  1
  O  O45  1  0.69498790  0.92385137  0.08851088  1
  O  O46  1  0.86333314  0.24193828  0.73276663  1
  O  O47  1  0.84201294  0.22204075  0.24760625  1
  O  O48  1  0.91019323  0.25133459  0.51446102  1
  O  O49  1  0.89472073  0.25147609  0.03159757  1
  O  O50  1  0.90280061  0.77770573  0.82381012  1
  O  O51  1  0.89744631  0.77466707  0.32964151  1
