# generated using pymatgen
data_MnFeCo(PO4)3
_symmetry_space_group_name_H-M   'P 1'
_cell_length_a   9.85915344
_cell_length_b   6.00883606
_cell_length_c   14.63546540
_cell_angle_alpha   90.00000000
_cell_angle_beta   89.83473428
_cell_angle_gamma   90.00000000
_symmetry_Int_Tables_number   1
_chemical_formula_structural   MnFeCo(PO4)3
_chemical_formula_sum   'Mn4 Fe4 Co4 P12 O48'
_cell_volume   867.03117153
_cell_formula_units_Z   4
loop_
 _symmetry_equiv_pos_site_id
 _symmetry_equiv_pos_as_xyz
  1  'x, y, z'
loop_
 _atom_site_type_symbol
 _atom_site_label
 _atom_site_symmetry_multiplicity
 _atom_site_fract_x
 _atom_site_fract_y
 _atom_site_fract_z
 _atom_site_occupancy
  Mn  Mn0  1  0.21447226  0.75000000  0.14702829  1
  Mn  Mn1  1  0.28191587  0.25000000  0.97883703  1
  Mn  Mn2  1  0.28375157  0.25000000  0.64514202  1
  Mn  Mn3  1  0.28568604  0.25000000  0.31083065  1
  Fe  Fe4  1  0.22209813  0.75000000  0.82033058  1
  Fe  Fe5  1  0.22182382  0.75000000  0.48739781  1
  Fe  Fe6  1  0.72757879  0.75000000  0.34470573  1
  Fe  Fe7  1  0.72856054  0.75000000  0.01051039  1
  Co  Co8  1  0.73050569  0.75000000  0.67536164  1
  Co  Co9  1  0.77384307  0.25000000  0.51100579  1
  Co  Co10  1  0.77073806  0.25000000  0.84046592  1
  Co  Co11  1  0.77264221  0.25000000  0.17654038  1
  P  P12  1  0.09916623  0.25000000  0.80630589  1
  P  P13  1  0.09953994  0.25000000  0.47359933  1
  P  P14  1  0.09795278  0.25000000  0.13977226  1
  P  P15  1  0.40099768  0.75000000  0.97271926  1
  P  P16  1  0.40476575  0.75000000  0.63930619  1
  P  P17  1  0.40175035  0.75000000  0.30528899  1
  P  P18  1  0.60034042  0.25000000  0.69443698  1
  P  P19  1  0.60100854  0.25000000  0.36126242  1
  P  P20  1  0.60009113  0.25000000  0.02680972  1
  P  P21  1  0.89887635  0.75000000  0.86130339  1
  P  P22  1  0.90101853  0.75000000  0.53100614  1
  P  P23  1  0.90200404  0.75000000  0.19568629  1
  O  O24  1  0.05023521  0.75000000  0.88303898  1
  O  O25  1  0.05454570  0.75000000  0.21926096  1
  O  O26  1  0.05217378  0.75000000  0.55405859  1
  O  O27  1  0.11770743  0.25000000  0.91131167  1
  O  O28  1  0.11879019  0.25000000  0.57857606  1
  O  O29  1  0.11907293  0.25000000  0.24380745  1
  O  O30  1  0.17023853  0.04728026  0.75974582  1
  O  O31  1  0.17023853  0.45271974  0.75974582  1
  O  O32  1  0.16812264  0.04936343  0.09080698  1
  O  O33  1  0.16812264  0.45063657  0.09080698  1
  O  O34  1  0.16892164  0.04672339  0.42695800  1
  O  O35  1  0.16892164  0.45327661  0.42695800  1
  O  O36  1  0.32616975  0.55210091  0.92319067  1
  O  O37  1  0.32616975  0.94789909  0.92319067  1
  O  O38  1  0.33025952  0.94801458  0.58947003  1
  O  O39  1  0.33025952  0.55198542  0.58947003  1
  O  O40  1  0.32858704  0.54944657  0.25720205  1
  O  O41  1  0.32858704  0.95055343  0.25720205  1
  O  O42  1  0.38110415  0.75000000  0.74209527  1
  O  O43  1  0.37972151  0.75000000  0.40883212  1
  O  O44  1  0.37884798  0.75000000  0.07646461  1
  O  O45  1  0.44688147  0.25000000  0.71499207  1
  O  O46  1  0.44826393  0.25000000  0.38228923  1
  O  O47  1  0.44692947  0.25000000  0.04830202  1
  O  O48  1  0.55207883  0.75000000  0.95096027  1
  O  O49  1  0.55750724  0.75000000  0.61724472  1
  O  O50  1  0.55386098  0.75000000  0.28290854  1
  O  O51  1  0.62212348  0.25000000  0.92254375  1
  O  O52  1  0.62249224  0.25000000  0.58977520  1
  O  O53  1  0.62433435  0.25000000  0.25658996  1
  O  O54  1  0.67067572  0.04930245  0.74358460  1
  O  O55  1  0.67067572  0.45069755  0.74358460  1
  O  O56  1  0.67267830  0.04836363  0.40900792  1
  O  O57  1  0.67267830  0.45163637  0.40900792  1
  O  O58  1  0.67190525  0.04837037  0.07501411  1
  O  O59  1  0.67190525  0.45162963  0.07501411  1
  O  O60  1  0.82696937  0.54919993  0.57968184  1
  O  O61  1  0.82696937  0.95080007  0.57968184  1
  O  O62  1  0.82582167  0.55053478  0.90997108  1
  O  O63  1  0.82582167  0.94946522  0.90997108  1
  O  O64  1  0.82932683  0.55042131  0.24482627  1
  O  O65  1  0.82932683  0.94957869  0.24482627  1
  O  O66  1  0.87762565  0.75000000  0.75671678  1
  O  O67  1  0.88020135  0.75000000  0.42761835  1
  O  O68  1  0.88321526  0.75000000  0.09197287  1
  O  O69  1  0.94444442  0.25000000  0.78759388  1
  O  O70  1  0.94327309  0.25000000  0.12101318  1
  O  O71  1  0.94416806  0.25000000  0.45568560  1
