# generated using pymatgen
data_Li6V3P8O29
_symmetry_space_group_name_H-M   'P 1'
_cell_length_a   9.83907499
_cell_length_b   9.84882100
_cell_length_c   13.94091334
_cell_angle_alpha   90.02294029
_cell_angle_beta   90.13215803
_cell_angle_gamma   59.97153535
_symmetry_Int_Tables_number   1
_chemical_formula_structural   Li6V3P8O29
_chemical_formula_sum   'Li12 V6 P16 O58'
_cell_volume   1169.59206950
_cell_formula_units_Z   2
loop_
 _symmetry_equiv_pos_site_id
 _symmetry_equiv_pos_as_xyz
  1  'x, y, z'
loop_
 _atom_site_type_symbol
 _atom_site_label
 _atom_site_symmetry_multiplicity
 _atom_site_fract_x
 _atom_site_fract_y
 _atom_site_fract_z
 _atom_site_occupancy
  Li  Li0  1  0.91428138  0.77528750  0.06105563  1
  Li  Li1  1  0.90392516  0.32195103  0.55914097  1
  Li  Li2  1  0.66108642  0.67109287  0.88409674  1
  Li  Li3  1  0.77504352  0.31681905  0.06254474  1
  Li  Li4  1  0.31677451  0.90711634  0.06057827  1
  Li  Li5  1  0.68320455  0.22396052  0.43937971  1
  Li  Li6  1  0.31989642  0.77225686  0.56065894  1
  Li  Li7  1  0.68008695  0.09224327  0.93932457  1
  Li  Li8  1  0.33878824  0.33228727  0.61587744  1
  Li  Li9  1  0.08571449  0.68956517  0.43895840  1
  Li  Li10  1  0.22489692  0.09190375  0.43747132  1
  Li  Li11  1  0.09602849  0.22596680  0.94091542  1
  V  V12  1  0.56661063  0.43325219  0.24775621  1
  V  V13  1  0.42928770  0.56649735  0.75474034  1
  V  V14  1  0.57074925  0.99578870  0.74524914  1
  V  V15  1  0.43335310  0.99988536  0.25226496  1
  V  V16  1  0.99997764  0.56936429  0.24995735  1
  V  V17  1  0.00002207  0.43622957  0.75002392  1
  P  P18  1  0.91199052  0.77018764  0.84305347  1
  P  P19  1  0.76831093  0.91495412  0.34139267  1
  P  P20  1  0.91073767  0.32200372  0.34092938  1
  P  P21  1  0.66709976  0.66695719  0.12609975  1
  P  P22  1  0.66313817  0.66449552  0.62711411  1
  P  P23  1  0.77007070  0.32095812  0.84218356  1
  P  P24  1  0.67925166  0.23147189  0.65711010  1
  P  P25  1  0.32073395  0.91089875  0.84287916  1
  P  P26  1  0.67862594  0.08737221  0.15666470  1
  P  P27  1  0.32135923  0.76606172  0.34333753  1
  P  P28  1  0.23169507  0.68320082  0.15857651  1
  P  P29  1  0.33283381  0.33412776  0.37389631  1
  P  P30  1  0.33697157  0.32770163  0.87292621  1
  P  P31  1  0.08791329  0.68218122  0.65692185  1
  P  P32  1  0.22998615  0.09093676  0.65782952  1
  P  P33  1  0.08922710  0.23266977  0.15910383  1
  O  O34  1  0.00312956  0.75313064  0.56633006  1
  O  O35  1  0.91376028  0.74702278  0.33979852  1
  O  O36  1  0.75645151  0.00093299  0.06585796  1
  O  O37  1  0.74681047  0.91833118  0.84001639  1
  O  O38  1  0.88927506  0.62500214  0.82476631  1
  O  O39  1  0.81376868  0.67427799  0.16500954  1
  O  O40  1  0.90030567  0.48055770  0.32352413  1
  O  O41  1  0.00207871  0.24058267  0.06855612  1
  O  O42  1  0.92025036  0.33349342  0.84271264  1
  O  O43  1  0.65978372  0.81348753  0.67323324  1
  O  O44  1  0.61713933  0.90453941  0.32408161  1
  O  O45  1  0.81705854  0.51539042  0.66812269  1
  O  O46  1  0.66972602  0.66429011  0.01785640  1
  O  O47  1  0.66050557  0.66570739  0.52098994  1
  O  O48  1  0.67541316  0.51125078  0.16369120  1
  O  O49  1  0.48551173  0.89279482  0.82837974  1
  O  O50  1  0.51405276  0.81269115  0.16430255  1
  O  O51  1  0.74572440  0.33829232  0.33863522  1
  O  O52  1  0.78590106  0.21719187  0.74963856  1
  O  O53  1  0.75802764  0.24572509  0.56859369  1
  O  O54  1  0.75605297  0.24274228  0.93112134  1
  O  O55  1  0.62652267  0.48795913  0.82762954  1
  O  O56  1  0.51557429  0.66286469  0.67014556  1
  O  O57  1  0.66616936  0.25091223  0.15899126  1
  O  O58  1  0.48081974  0.62077052  0.32389315  1
  O  O59  1  0.33381520  0.91714701  0.34103358  1
  O  O60  1  0.79238588  0.99339385  0.24533811  1
  O  O61  1  0.76085031  0.00728814  0.42686402  1
  O  O62  1  0.24421681  0.99859498  0.56886500  1
  O  O63  1  0.66226039  0.08588534  0.65994132  1
  O  O64  1  0.51440891  0.37806718  0.67159703  1
  O  O65  1  0.33790998  0.74825257  0.84006386  1
  O  O66  1  0.48591390  0.32678325  0.33571522  1
  O  O67  1  0.38284646  0.52163456  0.17587589  1
  O  O68  1  0.23916283  0.76808547  0.07315379  1
  O  O69  1  0.24350484  0.75748551  0.43411843  1
  O  O70  1  0.20761872  0.78577827  0.25465557  1
  O  O71  1  0.25321740  0.66489493  0.65996062  1
  O  O72  1  0.48461123  0.17848605  0.82999246  1
  O  O73  1  0.51918391  0.10154235  0.17614687  1
  O  O74  1  0.34036738  0.47322819  0.82674358  1
  O  O75  1  0.33943869  0.32663164  0.97905006  1
  O  O76  1  0.33023675  0.33399305  0.48213912  1
  O  O77  1  0.18622382  0.48804825  0.33500574  1
  O  O78  1  0.37350039  0.11446088  0.67251248  1
  O  O79  1  0.32453321  0.18669225  0.33626140  1
  O  O80  1  0.08620391  0.66078103  0.16012114  1
  O  O81  1  0.00007313  0.78607771  0.75003774  1
  O  O82  1  0.99677702  0.75620051  0.93367670  1
  O  O83  1  0.11032439  0.51439219  0.67502977  1
  O  O84  1  0.18302929  0.33251027  0.83184028  1
  O  O85  1  0.09967060  0.38085519  0.17651963  1
  O  O86  1  0.25424831  0.08400356  0.16135384  1
  O  O87  1  0.24200526  0.00396891  0.93142423  1
  O  O88  1  0.21405536  0.00308497  0.75034718  1
  O  O89  1  0.07981933  0.25360349  0.65727782  1
  O  O90  1  0.99788567  0.24269755  0.43144762  1
  O  O91  1  0.99998950  0.21081193  0.24999679  1
