# generated using pymatgen
data_LiMn2(PO4)2
_symmetry_space_group_name_H-M   'P 1'
_cell_length_a   9.13182779
_cell_length_b   9.09333465
_cell_length_c   12.18684099
_cell_angle_alpha   70.42657947
_cell_angle_beta   109.59581557
_cell_angle_gamma   94.38188518
_symmetry_Int_Tables_number   1
_chemical_formula_structural   LiMn2(PO4)2
_chemical_formula_sum   'Li6 Mn12 P12 O48'
_cell_volume   897.53879042
_cell_formula_units_Z   6
loop_
 _symmetry_equiv_pos_site_id
 _symmetry_equiv_pos_as_xyz
  1  'x, y, z'
loop_
 _atom_site_type_symbol
 _atom_site_label
 _atom_site_symmetry_multiplicity
 _atom_site_fract_x
 _atom_site_fract_y
 _atom_site_fract_z
 _atom_site_occupancy
  Li  Li0  1  0.50000000  0.50000000  -0.00000000  1
  Li  Li1  1  0.37456800  0.64785828  0.35930293  1
  Li  Li2  1  0.74892460  0.25101932  0.24824715  1
  Li  Li3  1  0.00000000  0.00000000  0.50000000  1
  Li  Li4  1  0.25107540  0.74898068  0.75175285  1
  Li  Li5  1  0.62543200  0.35214172  0.64069707  1
  Mn  Mn6  1  0.15962557  0.52539550  0.09593579  1
  Mn  Mn7  1  0.33593798  0.98400923  0.40129349  1
  Mn  Mn8  1  0.77177109  0.91438768  0.15221800  1
  Mn  Mn9  1  0.38648330  0.14136245  0.12407801  1
  Mn  Mn10  1  0.10280212  0.35659195  0.37537147  1
  Mn  Mn11  1  0.73042329  0.58515580  0.34788511  1
  Mn  Mn12  1  0.26957671  0.41484420  0.65211489  1
  Mn  Mn13  1  0.89719788  0.64340805  0.62462853  1
  Mn  Mn14  1  0.61351670  0.85863755  0.87592199  1
  Mn  Mn15  1  0.66406202  0.01599077  0.59870651  1
  Mn  Mn16  1  0.22822891  0.08561232  0.84778200  1
  Mn  Mn17  1  0.84037443  0.47460450  0.90406421  1
  P  P18  1  0.42785615  0.79281600  0.07801808  1
  P  P19  1  0.03860002  0.17217041  0.17418854  1
  P  P20  1  0.08224813  0.71052106  0.42028577  1
  P  P21  1  0.83456773  0.58471171  0.12223252  1
  P  P22  1  0.66466717  0.91699148  0.37509204  1
  P  P23  1  0.45166521  0.32687999  0.32955738  1
  P  P24  1  0.54833479  0.67312001  0.67044262  1
  P  P25  1  0.33533283  0.08300852  0.62490796  1
  P  P26  1  0.16543227  0.41528829  0.87776748  1
  P  P27  1  0.91775187  0.28947894  0.57971423  1
  P  P28  1  0.96139998  0.82782959  0.82581146  1
  P  P29  1  0.57214385  0.20718400  0.92198192  1
  O  O30  1  0.36611033  0.96441024  0.03462699  1
  O  O31  1  0.02102946  0.33388637  0.06830380  1
  O  O32  1  0.01380670  0.54930534  0.18183219  1
  O  O33  1  0.32516845  0.68136385  0.14552897  1
  O  O34  1  0.21635493  0.80445648  0.37650772  1
  O  O35  1  0.79665663  0.76292128  0.06361397  1
  O  O36  1  0.48453008  0.94987701  0.31636523  1
  O  O37  1  0.59472089  0.78017313  0.17962703  1
  O  O38  1  0.74937058  0.51249775  0.01803229  1
  O  O39  1  0.73485750  0.00344921  0.27154048  1
  O  O40  1  0.55547405  0.25217238  0.02841991  1
  O  O41  1  0.99685774  0.19330088  0.28070632  1
  O  O42  1  0.06150060  0.75234225  0.52671019  1
  O  O43  1  0.27936281  0.38551495  0.28660523  1
  O  O44  1  0.21127029  0.11436615  0.21663233  1
  O  O45  1  0.13750689  0.53664813  0.45996244  1
  O  O46  1  0.49870643  0.30840092  0.22486763  1
  O  O47  1  0.76406081  0.49537586  0.22409789  1
  O  O48  1  0.75077051  0.99111319  0.47715257  1
  O  O49  1  0.53156779  0.84135271  0.56891542  1
  O  O50  1  0.92543156  0.73721031  0.31324856  1
  O  O51  1  0.69825464  0.73867934  0.43454019  1
  O  O52  1  0.55126312  0.43983496  0.39269198  1
  O  O53  1  0.06858185  0.94395779  0.87987454  1
  O  O54  1  0.93141815  0.05604221  0.12012546  1
  O  O55  1  0.44873688  0.56016504  0.60730802  1
  O  O56  1  0.30174536  0.26132066  0.56545981  1
  O  O57  1  0.46843221  0.15864729  0.43108458  1
  O  O58  1  0.07456844  0.26278969  0.68675144  1
  O  O59  1  0.24922949  0.00888681  0.52284743  1
  O  O60  1  0.23593919  0.50462414  0.77590211  1
  O  O61  1  0.50129357  0.69159908  0.77513237  1
  O  O62  1  0.86249311  0.46335187  0.54003756  1
  O  O63  1  0.78872971  0.88563385  0.78336767  1
  O  O64  1  0.72063719  0.61448505  0.71339477  1
  O  O65  1  0.93849940  0.24765775  0.47328981  1
  O  O66  1  0.00314226  0.80669912  0.71929368  1
  O  O67  1  0.44452595  0.74782762  0.97158009  1
  O  O68  1  0.26514250  0.99655079  0.72845952  1
  O  O69  1  0.25062942  0.48750225  0.98196771  1
  O  O70  1  0.40527911  0.21982687  0.82037297  1
  O  O71  1  0.51546992  0.05012299  0.68363477  1
  O  O72  1  0.20334337  0.23707872  0.93638603  1
  O  O73  1  0.78364507  0.19554352  0.62349228  1
  O  O74  1  0.67483155  0.31863615  0.85447103  1
  O  O75  1  0.98619330  0.45069466  0.81816881  1
  O  O76  1  0.97897054  0.66611363  0.93169620  1
  O  O77  1  0.63388967  0.03558976  0.96537301  1
