# generated using pymatgen
data_Li6V3P8O29
_symmetry_space_group_name_H-M   'P 1'
_cell_length_a   9.81042952
_cell_length_b   9.82803239
_cell_length_c   14.02815485
_cell_angle_alpha   90.85456817
_cell_angle_beta   91.00351503
_cell_angle_gamma   60.22158408
_symmetry_Int_Tables_number   1
_chemical_formula_structural   Li6V3P8O29
_chemical_formula_sum   'Li12 V6 P16 O58'
_cell_volume   1173.74405805
_cell_formula_units_Z   2
loop_
 _symmetry_equiv_pos_site_id
 _symmetry_equiv_pos_as_xyz
  1  'x, y, z'
loop_
 _atom_site_type_symbol
 _atom_site_label
 _atom_site_symmetry_multiplicity
 _atom_site_fract_x
 _atom_site_fract_y
 _atom_site_fract_z
 _atom_site_occupancy
  Li  Li0  1  0.91251646  0.32087522  0.56115956  1
  Li  Li1  1  0.67267681  0.67732490  0.38834677  1
  Li  Li2  1  0.67699092  0.66976175  0.88962788  1
  Li  Li3  1  0.77333503  0.30800365  0.06462577  1
  Li  Li4  1  0.31573134  0.90989523  0.06762552  1
  Li  Li5  1  0.66026036  0.23655892  0.43949764  1
  Li  Li6  1  0.32323104  0.76556775  0.56099449  1
  Li  Li7  1  0.68872972  0.08659725  0.93655574  1
  Li  Li8  1  0.22516380  0.68138864  0.94288664  1
  Li  Li9  1  0.10289921  0.66384572  0.43694698  1
  Li  Li10  1  0.09320836  0.22101288  0.94574066  1
  Li  Li11  1  0.99973386  0.99742552  0.49331236  1
  V  V12  1  0.56483525  0.43000588  0.24682231  1
  V  V13  1  0.43374567  0.56857410  0.75000226  1
  V  V14  1  0.56585040  0.99816816  0.74308444  1
  V  V15  1  0.43145988  0.00872531  0.25715958  1
  V  V16  1  0.99833635  0.56794674  0.24779492  1
  V  V17  1  0.00310073  0.43639064  0.74818494  1
  P  P18  1  0.91189799  0.77527469  0.83528423  1
  P  P19  1  0.78305449  0.91594132  0.33880411  1
  P  P20  1  0.90775803  0.31794602  0.34441086  1
  P  P21  1  0.66265696  0.66561307  0.12951014  1
  P  P22  1  0.66709143  0.66297500  0.62820161  1
  P  P23  1  0.77107989  0.32464146  0.84402703  1
  P  P24  1  0.68226999  0.23112659  0.66006646  1
  P  P25  1  0.32470491  0.91091413  0.84513899  1
  P  P26  1  0.67939043  0.08264972  0.15335000  1
  P  P27  1  0.32127842  0.77298748  0.34135127  1
  P  P28  1  0.22719136  0.68183640  0.15881492  1
  P  P29  1  0.33196766  0.33797316  0.37264937  1
  P  P30  1  0.33643921  0.33301511  0.86909344  1
  P  P31  1  0.08441359  0.68658758  0.65210787  1
  P  P32  1  0.22096890  0.08016402  0.65910374  1
  P  P33  1  0.08668002  0.23078996  0.16183613  1
  O  O34  1  0.01711397  0.76681493  0.55901233  1
  O  O35  1  0.92241521  0.74704412  0.34245265  1
  O  O36  1  0.74577868  0.00798833  0.05999827  1
  O  O37  1  0.74525036  0.92022173  0.83782237  1
  O  O38  1  0.88966660  0.62832904  0.82265998  1
  O  O39  1  0.81156188  0.66196774  0.17791824  1
  O  O40  1  0.89745225  0.47952477  0.33593908  1
  O  O41  1  0.99666142  0.24076108  0.07126034  1
  O  O42  1  0.92294649  0.33452070  0.84576843  1
  O  O43  1  0.67410577  0.80657967  0.67136993  1
  O  O44  1  0.62965291  0.90466779  0.33428533  1
  O  O45  1  0.81378074  0.50888038  0.66745894  1
  O  O46  1  0.66899019  0.66301798  0.02247825  1
  O  O47  1  0.66646013  0.65736817  0.52113325  1
  O  O48  1  0.66771432  0.51084563  0.16318390  1
  O  O49  1  0.48996359  0.88765885  0.82586685  1
  O  O50  1  0.51526003  0.81381095  0.16909082  1
  O  O51  1  0.73771310  0.34278870  0.33706785  1
  O  O52  1  0.78853960  0.21508404  0.75285411  1
  O  O53  1  0.76762701  0.23156121  0.57148442  1
  O  O54  1  0.75085603  0.24978499  0.93145461  1
  O  O55  1  0.63093937  0.49165167  0.82525368  1
  O  O56  1  0.51155311  0.67302812  0.66552218  1
  O  O57  1  0.66520289  0.24789328  0.16177795  1
  O  O58  1  0.48301970  0.62398081  0.32919122  1
  O  O59  1  0.34577782  0.91492883  0.34170778  1
  O  O60  1  0.79905156  0.98370001  0.23839590  1
  O  O61  1  0.79427982  0.01496214  0.41794300  1
  O  O62  1  0.20109360  0.98685055  0.57991428  1
  O  O63  1  0.65379594  0.09268542  0.66284567  1
  O  O64  1  0.52676766  0.38802798  0.67342526  1
  O  O65  1  0.33984481  0.74565204  0.84317052  1
  O  O66  1  0.48491999  0.32780805  0.33259258  1
  O  O67  1  0.37985959  0.52240455  0.17818019  1
  O  O68  1  0.24444676  0.75530745  0.06979546  1
  O  O69  1  0.23260017  0.77049460  0.42833544  1
  O  O70  1  0.21307126  0.79190011  0.24895407  1
  O  O71  1  0.25152977  0.66579902  0.66547129  1
  O  O72  1  0.48165734  0.18344881  0.82632654  1
  O  O73  1  0.52073868  0.09447892  0.17622803  1
  O  O74  1  0.33675758  0.48296467  0.83245357  1
  O  O75  1  0.32855314  0.33005522  0.97482902  1
  O  O76  1  0.33108328  0.34443243  0.47884380  1
  O  O77  1  0.18333423  0.48840616  0.33049709  1
  O  O78  1  0.38083251  0.07396084  0.66404876  1
  O  O79  1  0.32698238  0.19085350  0.32947244  1
  O  O80  1  0.08533826  0.65957016  0.16063572  1
  O  O81  1  0.98414631  0.79897424  0.73834802  1
  O  O82  1  0.01228007  0.76379164  0.91837097  1
  O  O83  1  0.08637379  0.53004112  0.66530861  1
  O  O84  1  0.18395538  0.33746606  0.82284067  1
  O  O85  1  0.10190511  0.37707853  0.17798721  1
  O  O86  1  0.24844891  0.08091966  0.16376887  1
  O  O87  1  0.25444137  0.99710076  0.93690549  1
  O  O88  1  0.20712143  0.00726976  0.76029174  1
  O  O89  1  0.08287404  0.24958424  0.65993264  1
  O  O90  1  0.98332494  0.22829625  0.43387819  1
  O  O91  1  0.99408966  0.21456065  0.25165759  1
