# generated using pymatgen
data_Li6V3P8O29
_symmetry_space_group_name_H-M   'P 1'
_cell_length_a   9.80468224
_cell_length_b   9.81346903
_cell_length_c   14.00041958
_cell_angle_alpha   90.01033224
_cell_angle_beta   89.22414251
_cell_angle_gamma   59.96702836
_symmetry_Int_Tables_number   1
_chemical_formula_structural   Li6V3P8O29
_chemical_formula_sum   'Li12 V6 P16 O58'
_cell_volume   1166.08317241
_cell_formula_units_Z   2
loop_
 _symmetry_equiv_pos_site_id
 _symmetry_equiv_pos_as_xyz
  1  'x, y, z'
loop_
 _atom_site_type_symbol
 _atom_site_label
 _atom_site_symmetry_multiplicity
 _atom_site_fract_x
 _atom_site_fract_y
 _atom_site_fract_z
 _atom_site_occupancy
  Li  Li0  1  0.89899587  0.75820229  0.05957700  1
  Li  Li1  1  0.76694759  0.90201680  0.56234323  1
  Li  Li2  1  0.89797474  0.34270957  0.55890682  1
  Li  Li3  1  0.76710663  0.33021635  0.06217537  1
  Li  Li4  1  0.33031753  0.90008136  0.05883669  1
  Li  Li5  1  0.33274696  0.76855426  0.55824573  1
  Li  Li6  1  0.34825323  0.32338037  0.60850693  1
  Li  Li7  1  0.34859907  0.33157709  0.10734274  1
  Li  Li8  1  0.08745657  0.68450878  0.43751160  1
  Li  Li9  1  0.08757689  0.22965349  0.93764007  1
  Li  Li10  1  0.98379958  0.96686410  0.99719703  1
  Li  Li11  1  0.98571633  0.04804269  0.49809848  1
  V  V12  1  0.56197922  0.43930902  0.25024528  1
  V  V13  1  0.43767065  0.56312314  0.75328592  1
  V  V14  1  0.56251051  0.99851967  0.74992996  1
  V  V15  1  0.43753509  0.00010532  0.25256386  1
  V  V16  1  0.99866122  0.56609454  0.25234995  1
  V  V17  1  -0.00025863  0.43388794  0.75148153  1
  P  P18  1  0.91060124  0.77529457  0.84079856  1
  P  P19  1  0.77079160  0.91659860  0.34710613  1
  P  P20  1  0.91031521  0.31275392  0.34086427  1
  P  P21  1  0.66592314  0.66861728  0.12881508  1
  P  P22  1  0.66712252  0.66418996  0.62917853  1
  P  P23  1  0.77135937  0.31140801  0.84724945  1
  P  P24  1  0.69688907  0.21779123  0.66139187  1
  P  P25  1  0.31045280  0.91456440  0.84377908  1
  P  P26  1  0.69772645  0.08500139  0.16163123  1
  P  P27  1  0.31104887  0.77595193  0.34354892  1
  P  P28  1  0.21915200  0.69167450  0.15960766  1
  P  P29  1  0.33202571  0.33629917  0.36842696  1
  P  P30  1  0.33234585  0.33163000  0.86727918  1
  P  P31  1  0.09538993  0.68042506  0.65764535  1
  P  P32  1  0.22041089  0.08841975  0.65933404  1
  P  P33  1  0.09501507  0.22536461  0.15769414  1
  O  O34  1  0.00052222  0.76441760  0.57069470  1
  O  O35  1  0.91842119  0.74876484  0.33643088  1
  O  O36  1  0.80754934  0.98249950  0.08341402  1
  O  O37  1  0.74351050  0.91050335  0.83188731  1
  O  O38  1  0.91672661  0.61435376  0.82573828  1
  O  O39  1  0.81440672  0.66900817  0.16773971  1
  O  O40  1  0.91580572  0.46813794  0.32583646  1
  O  O41  1  -0.00014868  0.23738195  0.07072029  1
  O  O42  1  0.91848860  0.33236925  0.83584738  1
  O  O43  1  0.66809553  0.81476577  0.66787984  1
  O  O44  1  0.61957846  0.90895544  0.33198806  1
  O  O45  1  0.81552667  0.51481770  0.66792690  1
  O  O46  1  0.66142160  0.67191816  0.02240623  1
  O  O47  1  0.66163054  0.66301675  0.52279301  1
  O  O48  1  0.66570828  0.51813916  0.16872000  1
  O  O49  1  0.46771352  0.91208150  0.83045046  1
  O  O50  1  0.51547302  0.81690071  0.17306127  1
  O  O51  1  0.74332336  0.34458277  0.33236512  1
  O  O52  1  0.78468385  0.19624306  0.76169998  1
  O  O53  1  0.80704080  0.20996699  0.58329505  1
  O  O54  1  0.78353833  0.22990370  0.93990357  1
  O  O55  1  0.61909307  0.46986714  0.83361025  1
  O  O56  1  0.51703794  0.66775313  0.67492102  1
  O  O57  1  0.66647436  0.25525049  0.15629222  1
  O  O58  1  0.46904713  0.62193802  0.32988352  1
  O  O59  1  0.33142224  0.91898094  0.33476915  1
  O  O60  1  0.78549650  0.01804953  0.26192469  1
  O  O61  1  0.78082648  0.98635436  0.44005580  1
  O  O62  1  0.20854852  0.99466351  0.57885673  1
  O  O63  1  0.66503599  0.07903258  0.65573577  1
  O  O64  1  0.53476912  0.37239122  0.66702179  1
  O  O65  1  0.33235615  0.75044941  0.83552233  1
  O  O66  1  0.47629542  0.33810268  0.32023197  1
  O  O67  1  0.37282350  0.52970139  0.16400940  1
  O  O68  1  0.20604421  0.79797022  0.07923165  1
  O  O69  1  0.22593904  0.77706997  0.43521331  1
  O  O70  1  0.19710037  0.78381872  0.25864735  1
  O  O71  1  0.26016888  0.66281598  0.65485593  1
  O  O72  1  0.47823964  0.18612369  0.81984550  1
  O  O73  1  0.53514811  0.09332794  0.16713482  1
  O  O74  1  0.33147456  0.47784821  0.82177690  1
  O  O75  1  0.33519581  0.33114194  0.97381786  1
  O  O76  1  0.33775262  0.33279853  0.47491672  1
  O  O77  1  0.18204121  0.49134132  0.33566296  1
  O  O78  1  0.37384592  0.09689865  0.66453991  1
  O  O79  1  0.33255368  0.19030365  0.32252294  1
  O  O80  1  0.07940500  0.65805456  0.15937964  1
  O  O81  1  0.00850951  0.78707182  0.75073033  1
  O  O82  1  0.98487649  0.78068661  0.93257145  1
  O  O83  1  0.11412184  0.51524892  0.67168667  1
  O  O84  1  0.18383511  0.32475261  0.83354214  1
  O  O85  1  0.11410967  0.37132608  0.17262441  1
  O  O86  1  0.25989005  0.07842670  0.15433566  1
  O  O87  1  0.22456495  0.99871002  0.93528120  1
  O  O88  1  0.19690991  0.01900192  0.75823932  1
  O  O89  1  0.08055282  0.26169600  0.65812896  1
  O  O90  1  0.98542866  0.23288020  0.43241121  1
  O  O91  1  0.00864255  0.20406907  0.25058636  1
