# generated using pymatgen
data_Li6V3P8O29
_symmetry_space_group_name_H-M   'P 1'
_cell_length_a   9.86132737
_cell_length_b   9.82695624
_cell_length_c   13.99780179
_cell_angle_alpha   89.99919727
_cell_angle_beta   89.50721632
_cell_angle_gamma   59.61708462
_symmetry_Int_Tables_number   1
_chemical_formula_structural   Li6V3P8O29
_chemical_formula_sum   'Li12 V6 P16 O58'
_cell_volume   1170.13137953
_cell_formula_units_Z   2
loop_
 _symmetry_equiv_pos_site_id
 _symmetry_equiv_pos_as_xyz
  1  'x, y, z'
loop_
 _atom_site_type_symbol
 _atom_site_label
 _atom_site_symmetry_multiplicity
 _atom_site_fract_x
 _atom_site_fract_y
 _atom_site_fract_z
 _atom_site_occupancy
  Li  Li0  1  0.90515679  0.76794262  0.06197110  1
  Li  Li1  1  0.76369217  0.89810174  0.56086626  1
  Li  Li2  1  0.89867520  0.33383700  0.55623652  1
  Li  Li3  1  0.77513088  0.31437226  0.06398706  1
  Li  Li4  1  0.32211486  0.90531979  0.06004766  1
  Li  Li5  1  0.33063972  0.76771879  0.55679047  1
  Li  Li6  1  0.22114611  0.69194566  0.94021322  1
  Li  Li7  1  0.34108497  0.33733354  0.60976430  1
  Li  Li8  1  0.34559324  0.33005617  0.11228666  1
  Li  Li9  1  0.23186675  0.08983090  0.43517950  1
  Li  Li10  1  0.08128519  0.22574449  0.93824079  1
  Li  Li11  1  0.97375697  0.98150705  0.49104255  1
  V  V12  1  0.56543970  0.43164281  0.25692233  1
  V  V13  1  0.43555268  0.56726269  0.74943853  1
  V  V14  1  0.56917024  0.99974342  0.75298580  1
  V  V15  1  0.43829660  0.00023657  0.24876175  1
  V  V16  1  0.00044277  0.56844127  0.25294862  1
  V  V17  1  0.99505794  0.43655183  0.74890724  1
  P  P18  1  0.91399886  0.76920558  0.84393693  1
  P  P19  1  0.76858023  0.91633176  0.34454663  1
  P  P20  1  0.91475961  0.31303153  0.34192380  1
  P  P21  1  0.66797585  0.66184920  0.12975014  1
  P  P22  1  0.66241642  0.67088775  0.62617219  1
  P  P23  1  0.76663160  0.31838939  0.84480836  1
  P  P24  1  0.69431681  0.21933548  0.65983184  1
  P  P25  1  0.32027017  0.91280640  0.84153268  1
  P  P26  1  0.68671134  0.08821656  0.16012447  1
  P  P27  1  0.31064866  0.77595809  0.34376522  1
  P  P28  1  0.23095781  0.67854914  0.15938826  1
  P  P29  1  0.33064511  0.33466817  0.37050460  1
  P  P30  1  0.32896285  0.33464271  0.87066191  1
  P  P31  1  0.09001237  0.68872239  0.65948369  1
  P  P32  1  0.23086116  0.09146596  0.65799165  1
  P  P33  1  0.09280523  0.23109720  0.15727397  1
  O  O34  1  0.99301055  0.79513637  0.58053670  1
  O  O35  1  0.90855886  0.74671473  0.32972409  1
  O  O36  1  0.77302095  0.98521915  0.07769058  1
  O  O37  1  0.75131029  0.91258985  0.83825188  1
  O  O38  1  0.90504543  0.61830364  0.81909682  1
  O  O39  1  0.81731569  0.66194768  0.16645234  1
  O  O40  1  0.91601550  0.46738833  0.33087953  1
  O  O41  1  0.99856291  0.24854193  0.06939282  1
  O  O42  1  0.91499131  0.33522446  0.83553945  1
  O  O43  1  0.66736246  0.81817274  0.67009653  1
  O  O44  1  0.61312086  0.91701100  0.33353288  1
  O  O45  1  0.80956390  0.51682711  0.66401555  1
  O  O46  1  0.66136729  0.65890690  0.02361963  1
  O  O47  1  0.66001107  0.68011720  0.51989125  1
  O  O48  1  0.66103751  0.51870611  0.17553139  1
  O  O49  1  0.48136158  0.89648008  0.82627716  1
  O  O50  1  0.51837091  0.81820907  0.17094084  1
  O  O51  1  0.75032245  0.33640120  0.33821094  1
  O  O52  1  0.78308981  0.20169610  0.76010005  1
  O  O53  1  0.79937374  0.21248273  0.57988215  1
  O  O54  1  0.75700156  0.25526793  0.93891846  1
  O  O55  1  0.61630940  0.47911782  0.82032944  1
  O  O56  1  0.50921270  0.67888119  0.66672386  1
  O  O57  1  0.66773830  0.25365528  0.15795058  1
  O  O58  1  0.46808030  0.62012319  0.33478076  1
  O  O59  1  0.33302173  0.92031016  0.33514481  1
  O  O60  1  0.78270292  0.01475599  0.25817233  1
  O  O61  1  0.78440054  0.98241607  0.43745943  1
  O  O62  1  0.23411544  0.00165082  0.56987387  1
  O  O63  1  0.66894159  0.07696657  0.65769400  1
  O  O64  1  0.52909180  0.37115293  0.66823554  1
  O  O65  1  0.32935805  0.75051048  0.83842433  1
  O  O66  1  0.48292829  0.32795324  0.32831931  1
  O  O67  1  0.37567252  0.51203853  0.17362143  1
  O  O68  1  0.24564651  0.75711751  0.07037663  1
  O  O69  1  0.21900379  0.79234653  0.43376190  1
  O  O70  1  0.20812216  0.78761460  0.25054973  1
  O  O71  1  0.26106901  0.65994066  0.65729338  1
  O  O72  1  0.47604473  0.18536362  0.82513766  1
  O  O73  1  0.51707302  0.11352906  0.17451075  1
  O  O74  1  0.32799617  0.48488404  0.83166756  1
  O  O75  1  0.33076010  0.33226716  0.97768483  1
  O  O76  1  0.33121970  0.32913596  0.47739389  1
  O  O77  1  0.19038448  0.48395297  0.32758521  1
  O  O78  1  0.37629363  0.10947557  0.66894752  1
  O  O79  1  0.32611726  0.18593037  0.33059757  1
  O  O80  1  0.08214895  0.66359009  0.15693417  1
  O  O81  1  0.01964459  0.78049367  0.75957026  1
  O  O82  1  0.00067235  0.74703205  0.93559444  1
  O  O83  1  0.10406096  0.52485572  0.66662326  1
  O  O84  1  0.18063051  0.33103655  0.83328882  1
  O  O85  1  0.11302316  0.37607268  0.17405747  1
  O  O86  1  0.25815679  0.08282734  0.15293840  1
  O  O87  1  0.23840641  0.00077013  0.93171716  1
  O  O88  1  0.21034947  0.00728421  0.75107362  1
  O  O89  1  0.08172987  0.25955457  0.65827493  1
  O  O90  1  0.00180707  0.22143781  0.43014226  1
  O  O91  1  0.00855126  0.20647964  0.24869314  1
