# generated using pymatgen
data_Li6V3P8O29
_symmetry_space_group_name_H-M   'P 1'
_cell_length_a   9.86517737
_cell_length_b   9.86442920
_cell_length_c   13.92940514
_cell_angle_alpha   90.24787098
_cell_angle_beta   90.23590251
_cell_angle_gamma   59.77934078
_symmetry_Int_Tables_number   1
_chemical_formula_structural   Li6V3P8O29
_chemical_formula_sum   'Li12 V6 P16 O58'
_cell_volume   1171.29136921
_cell_formula_units_Z   2
loop_
 _symmetry_equiv_pos_site_id
 _symmetry_equiv_pos_as_xyz
  1  'x, y, z'
loop_
 _atom_site_type_symbol
 _atom_site_label
 _atom_site_symmetry_multiplicity
 _atom_site_fract_x
 _atom_site_fract_y
 _atom_site_fract_z
 _atom_site_occupancy
  Li  Li0  1  0.91401313  0.77367565  0.06075122  1
  Li  Li1  1  0.77381806  0.91412817  0.56072271  1
  Li  Li2  1  0.90818984  0.31512847  0.55939699  1
  Li  Li3  1  0.66526608  0.66502624  0.38293757  1
  Li  Li4  1  0.66487170  0.66552253  0.88293670  1
  Li  Li5  1  0.77082599  0.31962980  0.06266187  1
  Li  Li6  1  0.31564010  0.90798090  0.05930874  1
  Li  Li7  1  0.31960562  0.77066895  0.56254097  1
  Li  Li8  1  0.67774763  0.09587424  0.93999110  1
  Li  Li9  1  0.09574655  0.67768525  0.43991855  1
  Li  Li10  1  0.22489510  0.09576222  0.44014874  1
  Li  Li11  1  0.09550663  0.22512290  0.94012203  1
  V  V12  1  0.56709325  0.42853195  0.25163504  1
  V  V13  1  0.42854105  0.56714801  0.75172818  1
  V  V14  1  0.56777370  0.00313923  0.74712940  1
  V  V15  1  0.43334820  0.00266579  0.25115466  1
  V  V16  1  0.00314834  0.56778267  0.24707774  1
  V  V17  1  0.00267525  0.43334508  0.75117006  1
  P  P18  1  0.90939703  0.77086620  0.84266694  1
  P  P19  1  0.77082856  0.90944488  0.34267646  1
  P  P20  1  0.90887339  0.32306494  0.34084557  1
  P  P21  1  0.66629058  0.66732834  0.12637717  1
  P  P22  1  0.66725736  0.66613545  0.62643285  1
  P  P23  1  0.76952957  0.31930111  0.84424670  1
  P  P24  1  0.68348462  0.23343602  0.65790325  1
  P  P25  1  0.32301192  0.90903143  0.84090362  1
  P  P26  1  0.68031515  0.08627800  0.15894544  1
  P  P27  1  0.31924581  0.76956618  0.34415725  1
  P  P28  1  0.23362285  0.68334944  0.15780855  1
  P  P29  1  0.33431517  0.33358051  0.37358907  1
  P  P30  1  0.33352043  0.33450997  0.87366159  1
  P  P31  1  0.08634218  0.68026377  0.65896845  1
  P  P32  1  0.23140858  0.08683285  0.65765152  1
  P  P33  1  0.08686675  0.23129817  0.15763586  1
  O  O34  1  0.99806691  0.75836724  0.56863497  1
  O  O35  1  0.92043918  0.74186735  0.33737455  1
  O  O36  1  0.75843556  0.99790042  0.06859381  1
  O  O37  1  0.74182446  0.92047008  0.83739316  1
  O  O38  1  0.88667998  0.62691091  0.82543255  1
  O  O39  1  0.81415744  0.67397983  0.16391027  1
  O  O40  1  0.88932731  0.48734798  0.32547077  1
  O  O41  1  0.99629605  0.24562841  0.06762114  1
  O  O42  1  0.91913866  0.33237553  0.84374803  1
  O  O43  1  0.67392652  0.81402134  0.66395436  1
  O  O44  1  0.62680599  0.88682865  0.32558537  1
  O  O45  1  0.81724137  0.51458248  0.66748184  1
  O  O46  1  0.66330020  0.67187511  0.01818477  1
  O  O47  1  0.67130934  0.66320709  0.51825454  1
  O  O48  1  0.67143748  0.51561942  0.16370175  1
  O  O49  1  0.48733178  0.88938540  0.82549562  1
  O  O50  1  0.51474919  0.81722791  0.16756144  1
  O  O51  1  0.74367496  0.34280642  0.33604875  1
  O  O52  1  0.78598863  0.20934215  0.75473611  1
  O  O53  1  0.76919182  0.23966300  0.57285301  1
  O  O54  1  0.75597499  0.24292894  0.93414159  1
  O  O55  1  0.62732403  0.48545777  0.82689345  1
  O  O56  1  0.51560061  0.67130963  0.66396453  1
  O  O57  1  0.66683251  0.24946592  0.16021733  1
  O  O58  1  0.48545024  0.62745079  0.32680107  1
  O  O59  1  0.33214758  0.91928621  0.34379241  1
  O  O60  1  0.78964031  0.99708481  0.25083168  1
  O  O61  1  0.76410573  0.98990558  0.43377383  1
  O  O62  1  0.24569164  0.99624924  0.56764480  1
  O  O63  1  0.66196682  0.08773772  0.65871834  1
  O  O64  1  0.52465597  0.38545128  0.67670641  1
  O  O65  1  0.34267666  0.74382831  0.83621476  1
  O  O66  1  0.48067599  0.32810504  0.32839004  1
  O  O67  1  0.38557416  0.52452909  0.17669000  1
  O  O68  1  0.24035983  0.76886998  0.07270775  1
  O  O69  1  0.24279445  0.75580481  0.43398619  1
  O  O70  1  0.20947403  0.78603813  0.25455124  1
  O  O71  1  0.24957729  0.66663931  0.66028045  1
  O  O72  1  0.48416612  0.18605958  0.83268121  1
  O  O73  1  0.52056937  0.09857089  0.17466318  1
  O  O74  1  0.32793105  0.48085670  0.82828776  1
  O  O75  1  0.32880521  0.32915920  0.98011903  1
  O  O76  1  0.32867925  0.32853537  0.48006092  1
  O  O77  1  0.18592403  0.48426656  0.33266924  1
  O  O78  1  0.38211545  0.09452642  0.67716304  1
  O  O79  1  0.33255728  0.18072987  0.33081639  1
  O  O80  1  0.08798603  0.66185521  0.15855860  1
  O  O81  1  0.99711096  0.78968190  0.75084879  1
  O  O82  1  0.98980242  0.76402553  0.93375678  1
  O  O83  1  0.09848847  0.52054952  0.67466031  1
  O  O84  1  0.18061880  0.33270645  0.83102626  1
  O  O85  1  0.09444390  0.38209514  0.17713314  1
  O  O86  1  0.25055735  0.08493999  0.15752393  1
  O  O87  1  0.24333896  0.99942672  0.93007233  1
  O  O88  1  0.21263798  0.99947656  0.74984324  1
  O  O89  1  0.08501736  0.25052202  0.65757493  1
  O  O90  1  0.99907358  0.24331032  0.43004717  1
  O  O91  1  0.99945462  0.21258246  0.24981550  1
