# generated using pymatgen
data_Li6V3P8O29
_symmetry_space_group_name_H-M   'P 1'
_cell_length_a   9.83616083
_cell_length_b   9.87672813
_cell_length_c   13.93804817
_cell_angle_alpha   89.97704260
_cell_angle_beta   90.23597862
_cell_angle_gamma   60.01576086
_symmetry_Int_Tables_number   1
_chemical_formula_structural   Li6V3P8O29
_chemical_formula_sum   'Li12 V6 P16 O58'
_cell_volume   1172.82936571
_cell_formula_units_Z   2
loop_
 _symmetry_equiv_pos_site_id
 _symmetry_equiv_pos_as_xyz
  1  'x, y, z'
loop_
 _atom_site_type_symbol
 _atom_site_label
 _atom_site_symmetry_multiplicity
 _atom_site_fract_x
 _atom_site_fract_y
 _atom_site_fract_z
 _atom_site_occupancy
  Li  Li0  1  0.77292164  0.90998833  0.55845198  1
  Li  Li1  1  0.91500300  0.31093634  0.55831601  1
  Li  Li2  1  0.66450710  0.66851138  0.38070483  1
  Li  Li3  1  0.66752675  0.67027109  0.88589615  1
  Li  Li4  1  0.77408025  0.31615720  0.06458120  1
  Li  Li5  1  0.31844366  0.90867843  0.06540647  1
  Li  Li6  1  0.67659009  0.22761571  0.43665822  1
  Li  Li7  1  0.31287939  0.77713039  0.55627110  1
  Li  Li8  1  0.68285472  0.08992442  0.94213453  1
  Li  Li9  1  0.22204170  0.68318187  0.94526457  1
  Li  Li10  1  0.09699805  0.67654540  0.43635208  1
  Li  Li11  1  0.09636503  0.22625504  0.94313558  1
  V  V12  1  0.56655846  0.43131334  0.24735313  1
  V  V13  1  0.43173554  0.56487236  0.75085529  1
  V  V14  1  0.56768817  0.00068812  0.74796034  1
  V  V15  1  0.42904555  0.00808737  0.25539351  1
  V  V16  1  0.99807925  0.56736318  0.24543745  1
  V  V17  1  0.00307122  0.43160337  0.74798133  1
  P  P18  1  0.91217086  0.76882625  0.84157751  1
  P  P19  1  0.77149402  0.91079746  0.34091228  1
  P  P20  1  0.90950086  0.32108080  0.34259035  1
  P  P21  1  0.66387954  0.66802597  0.12698748  1
  P  P22  1  0.66570698  0.66532050  0.62640500  1
  P  P23  1  0.77074373  0.32034807  0.84121227  1
  P  P24  1  0.67956683  0.23321029  0.65766473  1
  P  P25  1  0.31991939  0.91096881  0.84444223  1
  P  P26  1  0.67954803  0.08680630  0.15636969  1
  P  P27  1  0.32215334  0.76958974  0.34192174  1
  P  P28  1  0.22936397  0.68243537  0.15893982  1
  P  P29  1  0.33233047  0.33551614  0.37367625  1
  P  P30  1  0.33660978  0.33144949  0.87366557  1
  P  P31  1  0.08477640  0.68290462  0.65624844  1
  P  P32  1  0.23143371  0.08395553  0.65843844  1
  P  P33  1  0.08713494  0.23200148  0.15910283  1
  O  O34  1  0.99691706  0.75538550  0.56501798  1
  O  O35  1  0.91999295  0.74817561  0.34248151  1
  O  O36  1  0.75654201  0.00672452  0.06588118  1
  O  O37  1  0.74407814  0.91648361  0.83886969  1
  O  O38  1  0.88945559  0.62551572  0.82556257  1
  O  O39  1  0.81412828  0.66442640  0.17146166  1
  O  O40  1  0.88862186  0.48615707  0.32681365  1
  O  O41  1  0.99671686  0.24469440  0.06859884  1
  O  O42  1  0.92028247  0.33662807  0.83983742  1
  O  O43  1  0.67138016  0.81272372  0.66402440  1
  O  O44  1  0.62717725  0.88765629  0.32628644  1
  O  O45  1  0.81409640  0.51242936  0.66501491  1
  O  O46  1  0.66592214  0.66601678  0.01914996  1
  O  O47  1  0.66259541  0.66536921  0.51865755  1
  O  O48  1  0.67116538  0.51313950  0.16339102  1
  O  O49  1  0.48586166  0.88763689  0.82611316  1
  O  O50  1  0.51540168  0.81605200  0.16599504  1
  O  O51  1  0.74173771  0.33932681  0.33772644  1
  O  O52  1  0.78992212  0.21289001  0.75000207  1
  O  O53  1  0.75774440  0.24333260  0.56797634  1
  O  O54  1  0.75910633  0.24344602  0.93092548  1
  O  O55  1  0.62686407  0.48627799  0.82582276  1
  O  O56  1  0.51485760  0.66731682  0.66800848  1
  O  O57  1  0.66421620  0.25197235  0.16109813  1
  O  O58  1  0.48686610  0.62414319  0.32606898  1
  O  O59  1  0.34115522  0.91346132  0.34070291  1
  O  O60  1  0.78896046  0.99942883  0.24978040  1
  O  O61  1  0.75511841  0.00272968  0.43072017  1
  O  O62  1  0.24161512  0.99106046  0.57310237  1
  O  O63  1  0.66747645  0.08254013  0.65942628  1
  O  O64  1  0.52006102  0.37996080  0.67474275  1
  O  O65  1  0.33292088  0.74858132  0.84336991  1
  O  O66  1  0.48385759  0.33003519  0.33363526  1
  O  O67  1  0.38343488  0.52416872  0.17789146  1
  O  O68  1  0.24723909  0.75700426  0.06945700  1
  O  O69  1  0.24331348  0.75391874  0.43020310  1
  O  O70  1  0.21220220  0.78878480  0.25046071  1
  O  O71  1  0.24885209  0.66513307  0.65780834  1
  O  O72  1  0.48817322  0.18649245  0.83329500  1
  O  O73  1  0.52131558  0.09580640  0.17429129  1
  O  O74  1  0.33453385  0.48441308  0.82962958  1
  O  O75  1  0.33558560  0.34051007  0.98003760  1
  O  O76  1  0.33152966  0.33544090  0.48020769  1
  O  O77  1  0.18060958  0.48323621  0.33133840  1
  O  O78  1  0.38405552  0.09189975  0.67814177  1
  O  O79  1  0.33394890  0.18574953  0.32871910  1
  O  O80  1  0.08881408  0.65880946  0.15982904  1
  O  O81  1  0.99190214  0.79161208  0.74541258  1
  O  O82  1  0.00635547  0.76246110  0.92603465  1
  O  O83  1  0.09345554  0.52375984  0.67711850  1
  O  O84  1  0.18886322  0.32869058  0.83245109  1
  O  O85  1  0.10155087  0.37820409  0.17478175  1
  O  O86  1  0.24907700  0.08262076  0.15978053  1
  O  O87  1  0.24415919  0.00113705  0.93416627  1
  O  O88  1  0.20935280  0.00499586  0.75477949  1
  O  O89  1  0.08658296  0.25088001  0.65945213  1
  O  O90  1  0.99059631  0.24477106  0.43326388  1
  O  O91  1  0.99644237  0.21434274  0.25054895  1
