# generated using pymatgen
data_Li9Mn2Co5O16
_symmetry_space_group_name_H-M   'P 1'
_cell_length_a   3.01943302
_cell_length_b   9.96598044
_cell_length_c   9.91483812
_cell_angle_alpha   77.83621533
_cell_angle_beta   93.23716232
_cell_angle_gamma   93.01686290
_symmetry_Int_Tables_number   1
_chemical_formula_structural   Li9Mn2Co5O16
_chemical_formula_sum   'Li9 Mn2 Co5 O16'
_cell_volume   290.93612275
_cell_formula_units_Z   1
loop_
 _symmetry_equiv_pos_site_id
 _symmetry_equiv_pos_as_xyz
  1  'x, y, z'
loop_
 _atom_site_type_symbol
 _atom_site_label
 _atom_site_symmetry_multiplicity
 _atom_site_fract_x
 _atom_site_fract_y
 _atom_site_fract_z
 _atom_site_occupancy
  Li  Li0  1  0.00091687  0.12445691  0.25125092  1
  Li  Li1  1  0.50336587  0.12593835  0.74728283  1
  Li  Li2  1  0.49663413  0.37406165  0.25271717  1
  Li  Li3  1  0.99908313  0.37554309  0.74874908  1
  Li  Li4  1  0.99161294  0.62224983  0.25346447  1
  Li  Li5  1  0.49917370  0.62939728  0.73964997  1
  Li  Li6  1  0.50082630  0.87060272  0.26035003  1
  Li  Li7  1  0.00838706  0.87775017  0.74653553  1
  Li  Li8  1  -0.00000000  0.75000000  0.50000000  1
  Mn  Mn9  1  -0.00035505  0.99957846  0.00143507  1
  Mn  Mn10  1  0.00035505  0.50042154  0.99856493  1
  Co  Co11  1  0.49942681  0.99165313  0.49818412  1
  Co  Co12  1  0.50000000  0.25000000  -0.00000000  1
  Co  Co13  1  -0.00000000  0.25000000  0.50000000  1
  Co  Co14  1  0.50057319  0.50834687  0.50181588  1
  Co  Co15  1  0.50000000  0.75000000  -0.00000000  1
  O  O16  1  0.47306009  0.06932953  0.11510169  1
  O  O17  1  0.96984323  0.07094295  0.61474260  1
  O  O18  1  0.96504282  0.31524717  0.11538507  1
  O  O19  1  0.51157584  0.32364129  0.60920252  1
  O  O20  1  0.46955766  0.56883910  0.11439752  1
  O  O21  1  0.98465938  0.55756753  0.61513010  1
  O  O22  1  0.96002483  0.81441109  0.11728617  1
  O  O23  1  0.49829031  0.83379747  0.61425884  1
  O  O24  1  0.48842416  0.17635871  0.39079748  1
  O  O25  1  0.03495718  0.18475283  0.88461493  1
  O  O26  1  0.03015677  0.42905705  0.38525740  1
  O  O27  1  0.52693991  0.43067047  0.88489831  1
  O  O28  1  0.50170969  0.66620253  0.38574116  1
  O  O29  1  0.03997517  0.68558891  0.88271383  1
  O  O30  1  0.01534062  0.94243247  0.38486990  1
  O  O31  1  0.53044234  0.93116090  0.88560248  1
