# generated using pymatgen
data_Li6Mn3V(PO4)6
_symmetry_space_group_name_H-M   'P 1'
_cell_length_a   8.70487555
_cell_length_b   12.31033670
_cell_length_c   8.75780063
_cell_angle_alpha   90.00000000
_cell_angle_beta   90.00000000
_cell_angle_gamma   91.27002176
_symmetry_Int_Tables_number   1
_chemical_formula_structural   Li6Mn3V(PO4)6
_chemical_formula_sum   'Li12 Mn6 V2 P12 O48'
_cell_volume   938.25492260
_cell_formula_units_Z   2
loop_
 _symmetry_equiv_pos_site_id
 _symmetry_equiv_pos_as_xyz
  1  'x, y, z'
loop_
 _atom_site_type_symbol
 _atom_site_label
 _atom_site_symmetry_multiplicity
 _atom_site_fract_x
 _atom_site_fract_y
 _atom_site_fract_z
 _atom_site_occupancy
  Li  Li0  1  0.07570528  0.69636490  0.08054163  1
  Li  Li1  1  0.07382413  0.75848652  0.69432622  1
  Li  Li2  1  0.20810056  0.18114222  0.77216306  1
  Li  Li3  1  0.29189944  0.31885778  0.27216306  1
  Li  Li4  1  0.42617587  0.74151348  0.19432622  1
  Li  Li5  1  0.42429472  0.80363510  0.58054163  1
  Li  Li6  1  0.57755963  0.19888642  0.41503080  1
  Li  Li7  1  0.58135272  0.26579526  0.80527092  1
  Li  Li8  1  0.70903318  0.67509696  0.71881699  1
  Li  Li9  1  0.79096682  0.82490304  0.21881699  1
  Li  Li10  1  0.91864728  0.23420474  0.30527092  1
  Li  Li11  1  0.92244037  0.30111358  0.91503080  1
  Mn  Mn12  1  0.24443559  0.10887230  0.45808685  1
  Mn  Mn13  1  0.25556441  0.39112770  0.95808685  1
  Mn  Mn14  1  0.74610897  0.60856066  0.04047248  1
  Mn  Mn15  1  0.75389103  0.89143934  0.54047248  1
  Mn  Mn16  1  0.74816922  0.10334794  0.96355405  1
  Mn  Mn17  1  0.75183078  0.39665206  0.46355405  1
  V  V18  1  0.24538092  0.60615250  0.53029656  1
  V  V19  1  0.25461908  0.89384750  0.03029656  1
  P  P20  1  0.03795442  0.49003342  0.25249415  1
  P  P21  1  0.10240191  0.84881794  0.37972017  1
  P  P22  1  0.09961212  0.14659371  0.09722236  1
  P  P23  1  0.40038788  0.35340629  0.59722236  1
  P  P24  1  0.39759809  0.65118206  0.87972017  1
  P  P25  1  0.46204558  0.00996658  0.75249415  1
  P  P26  1  0.53919241  0.99661228  0.24782199  1
  P  P27  1  0.60514859  0.35778133  0.11804279  1
  P  P28  1  0.60175262  0.65589178  0.40160462  1
  P  P29  1  0.89824738  0.84410822  0.90160462  1
  P  P30  1  0.89485141  0.14221867  0.61804279  1
  P  P31  1  0.96080759  0.50338772  0.74782199  1
  O  O32  1  0.04349430  0.43145576  0.86387703  1
  O  O33  1  0.08048076  0.84859988  0.89714257  1
  O  O34  1  0.07311612  0.59295978  0.67857774  1
  O  O35  1  0.06700779  0.17040739  0.59718065  1
  O  O36  1  0.10981748  0.56682493  0.38144494  1
  O  O37  1  0.14837996  0.81826829  0.20914860  1
  O  O38  1  0.14225839  0.96647703  0.40827568  1
  O  O39  1  0.14269098  0.22889594  0.97043598  1
  O  O40  1  0.15120721  0.18882960  0.25537202  1
  O  O41  1  0.17220611  0.43233530  0.18058235  1
  O  O42  1  0.16781996  0.03456119  0.05746759  1
  O  O43  1  0.19237178  0.77540485  0.49741179  1
  O  O44  1  0.30762822  0.72459515  0.99741179  1
  O  O45  1  0.33218004  0.46543881  0.55746759  1
  O  O46  1  0.32779389  0.06766470  0.68058235  1
  O  O47  1  0.34879279  0.31117040  0.75537202  1
  O  O48  1  0.35774161  0.53352297  0.90827568  1
  O  O49  1  0.35162004  0.68173171  0.70914860  1
  O  O50  1  0.35730902  0.27110406  0.47043598  1
  O  O51  1  0.39018252  0.93317507  0.88144494  1
  O  O52  1  0.42688388  0.90704022  0.17857774  1
  O  O53  1  0.41951924  0.65140012  0.39714257  1
  O  O54  1  0.43299221  0.32959261  0.09718065  1
  O  O55  1  0.45650570  0.06854424  0.36387703  1
  O  O56  1  0.54305783  0.93184129  0.64459660  1
  O  O57  1  0.57078135  0.67717515  0.89718229  1
  O  O58  1  0.58032554  0.35789296  0.60841578  1
  O  O59  1  0.57117047  0.09741662  0.82266464  1
  O  O60  1  0.60214094  0.07611921  0.12535357  1
  O  O61  1  0.63830007  0.74570949  0.52484815  1
  O  O62  1  0.64663636  0.32207957  0.28627754  1
  O  O63  1  0.63161154  0.48205824  0.10459360  1
  O  O64  1  0.64659111  0.69580750  0.24010877  1
  O  O65  1  0.67063172  0.93396506  0.32257812  1
  O  O66  1  0.67382187  0.55205578  0.45337257  1
  O  O67  1  0.70064527  0.29642434  0.99762480  1
  O  O68  1  0.79935473  0.20357566  0.49762480  1
  O  O69  1  0.82617813  0.94794422  0.95337257  1
  O  O70  1  0.82936828  0.56603494  0.82257812  1
  O  O71  1  0.85340889  0.80419250  0.74010877  1
  O  O72  1  0.86169993  0.75429051  0.02484815  1
  O  O73  1  0.86838846  0.01794176  0.60459360  1
  O  O74  1  0.85336364  0.17792043  0.78627854  1
  O  O75  1  0.89785906  0.42388079  0.62535357  1
  O  O76  1  0.92921865  0.82282485  0.39718229  1
  O  O77  1  0.92882953  0.40258338  0.32266464  1
  O  O78  1  0.91967446  0.14210704  0.10841578  1
  O  O79  1  0.95694217  0.56815871  0.14459660  1
