# generated using pymatgen
data_Li3V2F12
_symmetry_space_group_name_H-M   'P 1'
_cell_length_a   9.26475479
_cell_length_b   9.45089180
_cell_length_c   12.75316886
_cell_angle_alpha   90.00000000
_cell_angle_beta   89.52126288
_cell_angle_gamma   90.00000000
_symmetry_Int_Tables_number   1
_chemical_formula_structural   Li3V2F12
_chemical_formula_sum   'Li12 V8 F48'
_cell_volume   1116.63097355
_cell_formula_units_Z   4
loop_
 _symmetry_equiv_pos_site_id
 _symmetry_equiv_pos_as_xyz
  1  'x, y, z'
loop_
 _atom_site_type_symbol
 _atom_site_label
 _atom_site_symmetry_multiplicity
 _atom_site_fract_x
 _atom_site_fract_y
 _atom_site_fract_z
 _atom_site_occupancy
  Li  Li0  1  0.02613598  0.23658053  0.50857884  1
  Li  Li1  1  0.11137325  0.12578722  0.15269645  1
  Li  Li2  1  0.09871441  0.38533832  0.86584417  1
  Li  Li3  1  0.38862675  0.62578722  0.34730355  1
  Li  Li4  1  0.40128559  0.88533832  0.63415583  1
  Li  Li5  1  0.47386402  0.73658053  0.99142116  1
  Li  Li6  1  0.52613598  0.26341947  0.00857884  1
  Li  Li7  1  0.59871441  0.11466168  0.36584417  1
  Li  Li8  1  0.61137325  0.37421278  0.65269645  1
  Li  Li9  1  0.90128559  0.61466168  0.13415583  1
  Li  Li10  1  0.88862675  0.87421278  0.84730355  1
  Li  Li11  1  0.97386402  0.76341947  0.49142116  1
  V  V12  1  0.24523681  0.96692472  0.38140780  1
  V  V13  1  0.25476319  0.46692472  0.11859220  1
  V  V14  1  0.24899104  0.03089895  0.88102463  1
  V  V15  1  0.25100896  0.53089895  0.61897537  1
  V  V16  1  0.74899104  0.46910105  0.38102463  1
  V  V17  1  0.75100896  0.96910105  0.11897537  1
  V  V18  1  0.74523681  0.53307528  0.88140780  1
  V  V19  1  0.75476319  0.03307528  0.61859220  1
  F  F20  1  0.08956928  0.83941648  0.38546015  1
  F  F21  1  0.09717992  0.59055529  0.11662293  1
  F  F22  1  0.09588396  0.63182517  0.57513293  1
  F  F23  1  0.09418271  0.92803045  0.83973660  1
  F  F24  1  0.12171191  0.11738919  0.42035386  1
  F  F25  1  0.12991159  0.31756536  0.15873992  1
  F  F26  1  0.15877234  0.06540505  0.00579119  1
  F  F27  1  0.16265004  0.49629156  0.74370417  1
  F  F28  1  0.16881422  0.19074027  0.82760507  1
  F  F29  1  0.16988942  0.37176535  0.56504840  1
  F  F30  1  0.20609062  0.00360622  0.24095880  1
  F  F31  1  0.21818387  0.42683225  0.97652555  1
  F  F32  1  0.28181613  0.92683225  0.52347445  1
  F  F33  1  0.29390938  0.50360622  0.25904120  1
  F  F34  1  0.33011058  0.87176535  0.93495160  1
  F  F35  1  0.33118578  0.69074027  0.67239493  1
  F  F36  1  0.33734996  0.99629156  0.75629583  1
  F  F37  1  0.34122766  0.56540505  0.49420881  1
  F  F38  1  0.37008841  0.81756536  0.34126008  1
  F  F39  1  0.37828809  0.61738919  0.07964614  1
  F  F40  1  0.40282008  0.09055529  0.38337707  1
  F  F41  1  0.41043072  0.33941648  0.11453985  1
  F  F42  1  0.40581729  0.42803045  0.66026340  1
  F  F43  1  0.40411604  0.13182517  0.92486707  1
  F  F44  1  0.59588396  0.86817483  0.07513293  1
  F  F45  1  0.59418271  0.57196955  0.33973660  1
  F  F46  1  0.58956928  0.66058352  0.88546015  1
  F  F47  1  0.59717992  0.90944471  0.61662293  1
  F  F48  1  0.62171191  0.38261081  0.92035386  1
  F  F49  1  0.62991159  0.18243464  0.65873992  1
  F  F50  1  0.65877234  0.43459495  0.50579119  1
  F  F51  1  0.66265004  0.00370844  0.24370417  1
  F  F52  1  0.66881422  0.30925973  0.32760507  1
  F  F53  1  0.66988942  0.12823465  0.06504840  1
  F  F54  1  0.70609062  0.49639378  0.74095880  1
  F  F55  1  0.71818387  0.07316775  0.47652555  1
  F  F56  1  0.78181613  0.57316775  0.02347445  1
  F  F57  1  0.79390938  0.99639378  0.75904120  1
  F  F58  1  0.83011058  0.62823465  0.43495160  1
  F  F59  1  0.83118578  0.80925973  0.17239493  1
  F  F60  1  0.83734996  0.50370844  0.25629583  1
  F  F61  1  0.84122766  0.93459495  0.99420881  1
  F  F62  1  0.87008841  0.68243464  0.84126008  1
  F  F63  1  0.87828809  0.88261081  0.57964614  1
  F  F64  1  0.90581729  0.07196955  0.16026340  1
  F  F65  1  0.90411604  0.36817483  0.42486707  1
  F  F66  1  0.90282008  0.40944471  0.88337707  1
  F  F67  1  0.91043072  0.16058352  0.61453985  1
