# generated using pymatgen
data_Li2FeSiO4
_symmetry_space_group_name_H-M   'P 1'
_cell_length_a   5.40546447
_cell_length_b   6.28931501
_cell_length_c   10.80559819
_cell_angle_alpha   90.00142626
_cell_angle_beta   90.00143548
_cell_angle_gamma   91.22381496
_symmetry_Int_Tables_number   1
_chemical_formula_structural   Li2FeSiO4
_chemical_formula_sum   'Li8 Fe4 Si4 O16'
_cell_volume   367.27054670
_cell_formula_units_Z   4
loop_
 _symmetry_equiv_pos_site_id
 _symmetry_equiv_pos_as_xyz
  1  'x, y, z'
loop_
 _atom_site_type_symbol
 _atom_site_label
 _atom_site_symmetry_multiplicity
 _atom_site_fract_x
 _atom_site_fract_y
 _atom_site_fract_z
 _atom_site_occupancy
  Li  Li0  1  0.33383429  0.98419705  0.66636378  1
  Li  Li1  1  0.16618753  0.51580487  0.16635665  1
  Li  Li2  1  0.20258969  0.49175883  0.66294275  1
  Li  Li3  1  0.81941496  0.48673802  0.83522350  1
  Li  Li4  1  0.67362610  0.48331598  0.33350785  1
  Li  Li5  1  0.82639451  0.01667518  0.83350724  1
  Li  Li6  1  0.68058799  0.01327797  0.33521302  1
  Li  Li7  1  0.29739793  0.00824351  0.16293341  1
  Fe  Fe8  1  0.16679789  0.24808711  0.41881895  1
  Fe  Fe9  1  0.33326460  0.25190735  0.91880963  1
  Fe  Fe10  1  0.82308278  0.75839680  0.58243495  1
  Fe  Fe11  1  0.67691957  0.74161532  0.08245796  1
  Si  Si12  1  0.17987377  0.74998875  0.91708880  1
  Si  Si13  1  0.32013959  0.75007808  0.41707605  1
  Si  Si14  1  0.67954662  0.25713055  0.58395670  1
  Si  Si15  1  0.82041687  0.24281106  0.08397128  1
  O  O16  1  0.25409311  0.96848110  0.33996871  1
  O  O17  1  0.25169305  0.96832391  0.83905300  1
  O  O18  1  0.29889654  0.74460827  0.05783337  1
  O  O19  1  0.20113223  0.75536704  0.55783228  1
  O  O20  1  0.62707532  0.74888722  0.42410605  1
  O  O21  1  0.87294558  0.75116045  0.92412697  1
  O  O22  1  0.24835385  0.53161378  0.33904168  1
  O  O23  1  0.24584682  0.53145573  0.83996819  1
  O  O24  1  0.80792491  0.46084172  0.65764543  1
  O  O25  1  0.76736939  0.46491135  0.16127112  1
  O  O26  1  0.37348798  0.26787937  0.57929470  1
  O  O27  1  0.71261737  0.25174068  0.94026198  1
  O  O28  1  0.78735958  0.24824203  0.44026617  1
  O  O29  1  0.12650768  0.23215546  0.07928136  1
  O  O30  1  0.73253736  0.03510312  0.66126514  1
  O  O31  1  0.69210954  0.03919634  0.15763733  1
