# generated using pymatgen
data_Li2Ti3CoO8
_symmetry_space_group_name_H-M   'P 1'
_cell_length_a   8.45287704
_cell_length_b   8.45337085
_cell_length_c   8.45321083
_cell_angle_alpha   90.00355396
_cell_angle_beta   89.94139540
_cell_angle_gamma   90.03953223
_symmetry_Int_Tables_number   1
_chemical_formula_structural   Li2Ti3CoO8
_chemical_formula_sum   'Li8 Ti12 Co4 O32'
_cell_volume   604.02629152
_cell_formula_units_Z   4
loop_
 _symmetry_equiv_pos_site_id
 _symmetry_equiv_pos_as_xyz
  1  'x, y, z'
loop_
 _atom_site_type_symbol
 _atom_site_label
 _atom_site_symmetry_multiplicity
 _atom_site_fract_x
 _atom_site_fract_y
 _atom_site_fract_z
 _atom_site_occupancy
  Li  Li0  1  0.00004448  0.99923854  0.99949101  1
  Li  Li1  1  0.25059861  0.25076535  0.25016233  1
  Li  Li2  1  0.24973163  0.74980354  0.75003091  1
  Li  Li3  1  0.50031397  0.99999464  0.49990111  1
  Li  Li4  1  0.49949136  0.50008261  0.00078381  1
  Li  Li5  1  0.74996155  0.24984949  0.74952799  1
  Li  Li6  1  0.74953399  0.75121324  0.24925289  1
  Li  Li7  1  0.00029725  0.49923456  0.50096277  1
  Ti  Ti8  1  0.12893173  0.12240243  0.62261315  1
  Ti  Ti9  1  0.12335752  0.36986933  0.87845484  1
  Ti  Ti10  1  0.12230781  0.62455621  0.12853584  1
  Ti  Ti11  1  0.37890191  0.37595000  0.62966510  1
  Ti  Ti12  1  0.37474295  0.62713143  0.37725728  1
  Ti  Ti13  1  0.37126294  0.88011590  0.12637677  1
  Ti  Ti14  1  0.62808714  0.37895312  0.37402434  1
  Ti  Ti15  1  0.62715696  0.12792947  0.11996603  1
  Ti  Ti16  1  0.62053842  0.87273986  0.87170000  1
  Ti  Ti17  1  0.87624720  0.12558913  0.37321647  1
  Ti  Ti18  1  0.87538881  0.87101479  0.62156172  1
  Ti  Ti19  1  0.87346226  0.62299585  0.87617511  1
  Co  Co20  1  0.12491296  0.87514178  0.37509980  1
  Co  Co21  1  0.37505284  0.12497928  0.87488997  1
  Co  Co22  1  0.62498843  0.62499081  0.62508893  1
  Co  Co23  1  0.87505117  0.37481241  0.12482242  1
  O  O24  1  0.10582316  0.12462615  0.39046847  1
  O  O25  1  0.10882721  0.89466508  0.62538757  1
  O  O26  1  0.11150286  0.61223121  0.88820115  1
  O  O27  1  0.12629418  0.14401523  0.85950358  1
  O  O28  1  0.12470782  0.39078819  0.10593914  1
  O  O29  1  0.13779961  0.36178317  0.63827511  1
  O  O30  1  0.14040089  0.62550415  0.35615774  1
  O  O31  1  0.14425983  0.85883079  0.12494978  1
  O  O32  1  0.35572218  0.14113473  0.62467851  1
  O  O33  1  0.35911033  0.37551490  0.85562151  1
  O  O34  1  0.36167920  0.63746559  0.13844830  1
  O  O35  1  0.37561024  0.60921719  0.60554405  1
  O  O36  1  0.37439075  0.85563211  0.35924154  1
  O  O37  1  0.38820998  0.38848408  0.38743112  1
  O  O38  1  0.39086246  0.10576309  0.12531288  1
  O  O39  1  0.39417340  0.87455854  0.89119347  1
  O  O40  1  0.60572038  0.37488036  0.60862254  1
  O  O41  1  0.60952587  0.60614366  0.37525837  1
  O  O42  1  0.61205694  0.88833099  0.11188976  1
  O  O43  1  0.62538702  0.35574115  0.14066678  1
  O  O44  1  0.62373859  0.10938849  0.89396232  1
  O  O45  1  0.63857493  0.13807960  0.36217685  1
  O  O46  1  0.64108099  0.87531116  0.64464425  1
  O  O47  1  0.64416038  0.64043622  0.87472540  1
  O  O48  1  0.85599034  0.35949065  0.37421337  1
  O  O49  1  0.85931392  0.12519324  0.14393547  1
  O  O50  1  0.86210305  0.86146252  0.86236111  1
  O  O51  1  0.87550868  0.89088627  0.39434286  1
  O  O52  1  0.87435253  0.64419894  0.64086799  1
  O  O53  1  0.88787302  0.11254028  0.61150838  1
  O  O54  1  0.89083317  0.39398746  0.87548984  1
  O  O55  1  0.89403920  0.62450103  0.10955815  1
