# generated using pymatgen
data_Li2Mn3F8
_symmetry_space_group_name_H-M   'P 1'
_cell_length_a   5.38303106
_cell_length_b   5.80088142
_cell_length_c   6.98674946
_cell_angle_alpha   56.29812667
_cell_angle_beta   68.22830513
_cell_angle_gamma   63.22632873
_symmetry_Int_Tables_number   1
_chemical_formula_structural   Li2Mn3F8
_chemical_formula_sum   'Li2 Mn3 F8'
_cell_volume   159.88217549
_cell_formula_units_Z   1
loop_
 _symmetry_equiv_pos_site_id
 _symmetry_equiv_pos_as_xyz
  1  'x, y, z'
loop_
 _atom_site_type_symbol
 _atom_site_label
 _atom_site_symmetry_multiplicity
 _atom_site_fract_x
 _atom_site_fract_y
 _atom_site_fract_z
 _atom_site_occupancy
  Li  Li0  1  0.43902905  0.34762070  0.74766058  1
  Li  Li1  1  0.56097095  0.65237930  0.25233942  1
  Mn  Mn2  1  -0.00000000  0.00000000  0.00000000  1
  Mn  Mn3  1  0.23012954  0.18307796  0.35439202  1
  Mn  Mn4  1  0.76987046  0.81692204  0.64560798  1
  F  F5  1  0.21228043  0.19106451  0.05217017  1
  F  F6  1  0.21566995  0.72868071  0.54265499  1
  F  F7  1  0.31893159  0.08277303  0.68063358  1
  F  F8  1  0.28482849  0.58935584  0.18784921  1
  F  F9  1  0.71517151  0.41064416  0.81215079  1
  F  F10  1  0.68106841  0.91722697  0.31936642  1
  F  F11  1  0.78433005  0.27131929  0.45734501  1
  F  F12  1  0.78771957  0.80893549  0.94782983  1
