# generated using pymatgen
data_Li2MgCr3(SO4)6
_symmetry_space_group_name_H-M   'P 1'
_cell_length_a   9.10651782
_cell_length_b   8.96089625
_cell_length_c   9.03237809
_cell_angle_alpha   56.03876112
_cell_angle_beta   55.69783624
_cell_angle_gamma   55.34554832
_symmetry_Int_Tables_number   1
_chemical_formula_structural   Li2MgCr3(SO4)6
_chemical_formula_sum   'Li2 Mg1 Cr3 S6 O24'
_cell_volume   469.08225581
_cell_formula_units_Z   1
loop_
 _symmetry_equiv_pos_site_id
 _symmetry_equiv_pos_as_xyz
  1  'x, y, z'
loop_
 _atom_site_type_symbol
 _atom_site_label
 _atom_site_symmetry_multiplicity
 _atom_site_fract_x
 _atom_site_fract_y
 _atom_site_fract_z
 _atom_site_occupancy
  Li  Li0  1  0.18214526  0.42704990  0.76455619  1
  Li  Li1  1  0.76199218  0.18573945  0.42845834  1
  Mg  Mg2  1  0.16340263  0.14057404  0.15691163  1
  Cr  Cr3  1  0.84616355  0.85023014  0.85273715  1
  Cr  Cr4  1  0.64128325  0.64386055  0.64638551  1
  Cr  Cr5  1  0.35750112  0.35819102  0.34437697  1
  S  S6  1  0.03334318  0.74803154  0.46681022  1
  S  S7  1  0.54317585  0.95203902  0.25556158  1
  S  S8  1  0.25077121  0.54892885  0.94646017  1
  S  S9  1  0.75920916  0.46439582  0.03244911  1
  S  S10  1  0.46267857  0.03666109  0.75466560  1
  S  S11  1  0.94932249  0.25039935  0.54743478  1
  O  O12  1  0.00255626  0.95434213  0.34573714  1
  O  O13  1  0.02272038  0.70934796  0.65916892  1
  O  O14  1  0.35868343  0.97237960  0.28162424  1
  O  O15  1  0.04914986  0.68719365  0.96846043  1
  O  O16  1  0.49120899  0.89568077  0.69545809  1
  O  O17  1  0.22726941  0.62118831  0.38215170  1
  O  O18  1  0.67855643  0.97309602  0.05335328  1
  O  O19  1  0.38256164  0.63056526  0.75283933  1
  O  O20  1  0.29388402  0.51851213  0.09587814  1
  O  O21  1  0.09702200  0.29447660  0.51699503  1
  O  O22  1  0.62911657  0.75643299  0.38551424  1
  O  O23  1  0.27196750  0.36445862  0.95791132  1
  O  O24  1  0.72125146  0.65640414  0.01941693  1
  O  O25  1  0.37981488  0.23699594  0.62908886  1
  O  O26  1  0.88684728  0.69890037  0.49680835  1
  O  O27  1  0.69773093  0.49123775  0.89554340  1
  O  O28  1  0.64592103  0.37095467  0.23082014  1
  O  O29  1  0.33919857  0.00852593  0.95496034  1
  O  O30  1  0.75279268  0.38362711  0.63023415  1
  O  O31  1  0.52150750  0.10193913  0.29823264  1
  O  O32  1  0.96586117  0.33820887  0.99562300  1
  O  O33  1  0.65683745  0.02218404  0.71305747  1
  O  O34  1  0.96099138  0.26948132  0.36535426  1
  O  O35  1  0.96896271  0.04796393  0.68416037  1
