# generated using pymatgen
data_Li2MnVP2(HO5)2
_symmetry_space_group_name_H-M   'P 1'
_cell_length_a   5.41805794
_cell_length_b   7.36922577
_cell_length_c   14.30211500
_cell_angle_alpha   87.19829511
_cell_angle_beta   85.48113160
_cell_angle_gamma   105.43095214
_symmetry_Int_Tables_number   1
_chemical_formula_structural   Li2MnVP2(HO5)2
_chemical_formula_sum   'Li6 Mn3 V3 P6 H6 O30'
_cell_volume   547.29167468
_cell_formula_units_Z   3
loop_
 _symmetry_equiv_pos_site_id
 _symmetry_equiv_pos_as_xyz
  1  'x, y, z'
loop_
 _atom_site_type_symbol
 _atom_site_label
 _atom_site_symmetry_multiplicity
 _atom_site_fract_x
 _atom_site_fract_y
 _atom_site_fract_z
 _atom_site_occupancy
  Li  Li0  1  0.15081130  0.57730434  0.24948666  1
  Li  Li1  1  0.18414113  0.75664272  0.41695920  1
  Li  Li2  1  0.48007186  0.90645742  0.91521644  1
  Li  Li3  1  0.51789043  0.09378855  0.08467786  1
  Li  Li4  1  0.81678209  0.24331969  0.58288261  1
  Li  Li5  1  0.84965363  0.42271466  0.75069387  1
  Mn  Mn6  1  0.33358819  0.83344031  0.66674468  1
  Mn  Mn7  1  0.33289213  0.33332448  0.66634682  1
  Mn  Mn8  1  0.66741555  0.66711439  0.33406207  1
  V  V9  1  0.00001212  0.49982604  0.00003409  1
  V  V10  1  0.99902813  0.99932432  0.99952278  1
  V  V11  1  0.66635164  0.16658694  0.33326896  1
  P  P12  1  0.19267628  0.32798422  0.44048408  1
  P  P13  1  0.14033773  0.00567750  0.22574581  1
  P  P14  1  0.53143364  0.66204163  0.10791696  1
  P  P15  1  0.46880091  0.33724866  0.89232058  1
  P  P16  1  0.85757188  0.99123785  0.77254319  1
  P  P17  1  0.80933281  0.67578793  0.56101915  1
  H  H18  1  0.06330262  0.78226980  0.87811100  1
  H  H19  1  0.27507453  0.54322134  0.78638771  1
  H  H20  1  0.60931894  0.88271441  0.45292128  1
  H  H21  1  0.39169370  0.12368516  0.54670856  1
  H  H22  1  0.72297521  0.45042055  0.21446373  1
  H  H23  1  0.93749118  0.21741215  0.12131520  1
  O  O24  1  0.13531264  0.94837624  0.12335203  1
  O  O25  1  0.05988283  0.82771323  0.29516263  1
  O  O26  1  0.03435012  0.85829300  0.75804680  1
  O  O27  1  0.10037226  0.78253118  0.56623078  1
  O  O28  1  0.10141148  0.77941484  0.94481416  1
  O  O29  1  0.24415408  0.55819937  0.10057844  1
  O  O30  1  0.27406860  0.50562809  0.37093718  1
  O  O31  1  0.19865549  0.38670673  0.54309059  1
  O  O32  1  0.22657753  0.54133566  0.72078837  1
  O  O33  1  0.62247282  0.84129053  0.03749599  1
  O  O34  1  0.53582064  0.72234139  0.21030818  1
  O  O35  1  0.56297716  0.88251722  0.38693460  1
  O  O36  1  0.29631778  0.47156032  0.90843953  1
  O  O37  1  0.37084873  0.19624249  0.42382264  1
  O  O38  1  0.56662089  0.88350937  0.76747090  1
  O  O39  1  0.42744387  0.11601317  0.23141227  1
  O  O40  1  0.63312459  0.80908109  0.57503760  1
  O  O41  1  0.70436615  0.52781156  0.09241287  1
  O  O42  1  0.43989170  0.12556644  0.61224474  1
  O  O43  1  0.46492966  0.27721953  0.78997433  1
  O  O44  1  0.37695648  0.15764113  0.96249039  1
  O  O45  1  0.77051507  0.45102162  0.28033610  1
  O  O46  1  0.80566191  0.61811012  0.45783733  1
  O  O47  1  0.72660536  0.49890036  0.63040783  1
  O  O48  1  0.75587489  0.44127235  0.89992541  1
  O  O49  1  0.89782025  0.21991870  0.05486564  1
  O  O50  1  0.90588169  0.21771762  0.43472614  1
  O  O51  1  0.96187412  0.13744955  0.24253454  1
  O  O52  1  0.93939682  0.16844018  0.70325174  1
  O  O53  1  0.86116674  0.04863286  0.87523500  1
