# generated using pymatgen
data_Li2Mn3SnO8
_symmetry_space_group_name_H-M   'P 1'
_cell_length_a   8.78560702
_cell_length_b   8.37614163
_cell_length_c   8.64700193
_cell_angle_alpha   89.90102325
_cell_angle_beta   89.98484974
_cell_angle_gamma   89.91877013
_symmetry_Int_Tables_number   1
_chemical_formula_structural   Li2Mn3SnO8
_chemical_formula_sum   'Li8 Mn12 Sn4 O32'
_cell_volume   636.32683954
_cell_formula_units_Z   4
loop_
 _symmetry_equiv_pos_site_id
 _symmetry_equiv_pos_as_xyz
  1  'x, y, z'
loop_
 _atom_site_type_symbol
 _atom_site_label
 _atom_site_symmetry_multiplicity
 _atom_site_fract_x
 _atom_site_fract_y
 _atom_site_fract_z
 _atom_site_occupancy
  Li  Li0  1  0.00188738  0.00041896  0.00368631  1
  Li  Li1  1  0.24618864  0.24975991  0.24789530  1
  Li  Li2  1  0.25347930  0.75011720  0.74958736  1
  Li  Li3  1  0.49901945  0.00046245  0.50264135  1
  Li  Li4  1  0.50218907  0.49869151  0.99633047  1
  Li  Li5  1  0.74552200  0.25044739  0.75178975  1
  Li  Li6  1  0.75497084  0.74943622  0.25243058  1
  Li  Li7  1  0.99748856  0.50111557  0.49633716  1
  Mn  Mn8  1  0.12384722  0.13399648  0.62316253  1
  Mn  Mn9  1  0.12726723  0.38425971  0.87276481  1
  Mn  Mn10  1  0.12628311  0.62551903  0.12190655  1
  Mn  Mn11  1  0.37292563  0.37486766  0.62225531  1
  Mn  Mn12  1  0.37332266  0.61527111  0.37145403  1
  Mn  Mn13  1  0.37777903  0.86508263  0.12429463  1
  Mn  Mn14  1  0.62352607  0.36573058  0.37668740  1
  Mn  Mn15  1  0.62836177  0.11509714  0.12685094  1
  Mn  Mn16  1  0.62767073  0.87428128  0.87932251  1
  Mn  Mn17  1  0.87236367  0.12583788  0.37872888  1
  Mn  Mn18  1  0.87205502  0.88462645  0.62735098  1
  Mn  Mn19  1  0.87669242  0.63411757  0.87569260  1
  Sn  Sn20  1  0.12488866  0.87530166  0.37412816  1
  Sn  Sn21  1  0.37475558  0.12554155  0.87636900  1
  Sn  Sn22  1  0.62487174  0.62546983  0.62464533  1
  Sn  Sn23  1  0.87391623  0.37480590  0.12378605  1
  O  O24  1  0.09654204  0.12319237  0.37818661  1
  O  O25  1  0.12398970  0.90138593  0.61485638  1
  O  O26  1  0.11590342  0.61680055  0.89446020  1
  O  O27  1  0.13601363  0.14921861  0.87015625  1
  O  O28  1  0.11706562  0.39251873  0.10809489  1
  O  O29  1  0.14666684  0.36654135  0.63562613  1
  O  O30  1  0.12656864  0.62821186  0.34818629  1
  O  O31  1  0.13383024  0.85575936  0.13074535  1
  O  O32  1  0.36184812  0.14336757  0.63183106  1
  O  O33  1  0.37315481  0.37255878  0.84831591  1
  O  O34  1  0.35338662  0.63267395  0.13564750  1
  O  O35  1  0.38147238  0.60765031  0.60648930  1
  O  O36  1  0.36556821  0.85147028  0.36429418  1
  O  O37  1  0.38557169  0.38273801  0.39456673  1
  O  O38  1  0.38011337  0.09840022  0.11755774  1
  O  O39  1  0.40231869  0.87610303  0.88514453  1
  O  O40  1  0.59624360  0.37826520  0.62311562  1
  O  O41  1  0.62234163  0.59891696  0.38374347  1
  O  O42  1  0.62253768  0.88389628  0.10507801  1
  O  O43  1  0.63513103  0.34959044  0.12868574  1
  O  O44  1  0.61689156  0.10621780  0.89010283  1
  O  O45  1  0.64678444  0.13341216  0.36568665  1
  O  O46  1  0.62314365  0.87160195  0.65291558  1
  O  O47  1  0.63860853  0.64324096  0.86991817  1
  O  O48  1  0.85960424  0.35700619  0.36881854  1
  O  O49  1  0.87286872  0.12811030  0.15200784  1
  O  O50  1  0.85334826  0.86703373  0.86236641  1
  O  O51  1  0.88202000  0.89327516  0.39366789  1
  O  O52  1  0.86372451  0.64953531  0.63022283  1
  O  O53  1  0.88431162  0.11742483  0.60557468  1
  O  O54  1  0.87822247  0.40163483  0.88282317  1
  O  O55  1  0.90293000  0.62213031  0.12115853  1
