# generated using pymatgen
data_Li4Co3SbO8
_symmetry_space_group_name_H-M   'P 1'
_cell_length_a   10.38834148
_cell_length_b   10.38856093
_cell_length_c   14.64824313
_cell_angle_alpha   19.71277747
_cell_angle_beta   19.71372912
_cell_angle_gamma   34.02810835
_symmetry_Int_Tables_number   1
_chemical_formula_structural   Li4Co3SbO8
_chemical_formula_sum   'Li4 Co3 Sb1 O8'
_cell_volume   155.24935331
_cell_formula_units_Z   1
loop_
 _symmetry_equiv_pos_site_id
 _symmetry_equiv_pos_as_xyz
  1  'x, y, z'
loop_
 _atom_site_type_symbol
 _atom_site_label
 _atom_site_symmetry_multiplicity
 _atom_site_fract_x
 _atom_site_fract_y
 _atom_site_fract_z
 _atom_site_occupancy
  Li  Li0  1  0.00000091  0.99999952  0.49999948  1
  Li  Li1  1  -0.00000019  0.49999983  0.50000018  1
  Li  Li2  1  0.49999978  0.99999916  0.50000041  1
  Li  Li3  1  0.50000043  0.50000054  0.49999943  1
  Co  Co4  1  0.00000051  0.50000014  -0.00000049  1
  Co  Co5  1  0.49999973  0.00000044  -0.00000007  1
  Co  Co6  1  0.49999917  0.49999960  0.00000075  1
  Sb  Sb7  1  -0.00000091  -0.00000072  0.00000127  1
  O  O8  1  0.96592903  0.96594344  0.30666947  1
  O  O9  1  0.00752622  0.53145154  0.22797492  1
  O  O10  1  0.53149664  0.00757183  0.22790820  1
  O  O11  1  0.03407040  0.03405659  0.69333084  1
  O  O12  1  0.47986226  0.47984221  0.28287499  1
  O  O13  1  0.99247320  0.46854867  0.77202544  1
  O  O14  1  0.46850383  0.99242819  0.77209131  1
  O  O15  1  0.52013899  0.52015899  0.71712286  1
