# generated using pymatgen
data_Li9Mn2Co5O16
_symmetry_space_group_name_H-M   'P 1'
_cell_length_a   3.01764545
_cell_length_b   9.98292409
_cell_length_c   9.90817127
_cell_angle_alpha   77.92486864
_cell_angle_beta   92.98037556
_cell_angle_gamma   92.89891918
_symmetry_Int_Tables_number   1
_chemical_formula_structural   Li9Mn2Co5O16
_chemical_formula_sum   'Li9 Mn2 Co5 O16'
_cell_volume   291.24299917
_cell_formula_units_Z   1
loop_
 _symmetry_equiv_pos_site_id
 _symmetry_equiv_pos_as_xyz
  1  'x, y, z'
loop_
 _atom_site_type_symbol
 _atom_site_label
 _atom_site_symmetry_multiplicity
 _atom_site_fract_x
 _atom_site_fract_y
 _atom_site_fract_z
 _atom_site_occupancy
  Li  Li0  1  0.99538584  0.12421416  0.25675820  1
  Li  Li1  1  0.50622210  0.13012927  0.74351985  1
  Li  Li2  1  0.50307613  0.37271975  0.25455854  1
  Li  Li3  1  0.00708980  0.37340369  0.74984273  1
  Li  Li4  1  0.99291020  0.62659631  0.25015727  1
  Li  Li5  1  0.49692387  0.62728025  0.74544146  1
  Li  Li6  1  0.49377790  0.86987073  0.25648015  1
  Li  Li7  1  0.00461416  0.87578584  0.74324180  1
  Li  Li8  1  0.50000000  0.00000000  0.50000000  1
  Mn  Mn9  1  -0.00000000  0.00000000  -0.00000000  1
  Mn  Mn10  1  -0.00000000  0.50000000  -0.00000000  1
  Co  Co11  1  0.49968222  0.24979592  0.00127376  1
  Co  Co12  1  0.99890025  0.24155698  0.49858398  1
  Co  Co13  1  0.50000000  0.50000000  0.50000000  1
  Co  Co14  1  0.50031778  0.75020408  0.99872624  1
  Co  Co15  1  0.00109975  0.75844302  0.50141602  1
  O  O16  1  0.47067814  0.06797543  0.11704121  1
  O  O17  1  0.99455311  0.08414688  0.61604649  1
  O  O18  1  0.96932774  0.31508220  0.11386315  1
  O  O19  1  0.46965092  0.32099031  0.61435517  1
  O  O20  1  0.46965176  0.56884487  0.11596508  1
  O  O21  1  0.00883139  0.57372120  0.61044044  1
  O  O22  1  0.96796833  0.81483371  0.11252951  1
  O  O23  1  0.48471362  0.80801262  0.61444625  1
  O  O24  1  0.51528638  0.19198738  0.38555375  1
  O  O25  1  0.03203167  0.18516629  0.88747049  1
  O  O26  1  0.99116861  0.42627880  0.38955956  1
  O  O27  1  0.53034824  0.43115513  0.88403492  1
  O  O28  1  0.53034908  0.67900969  0.38564483  1
  O  O29  1  0.03067226  0.68491780  0.88613685  1
  O  O30  1  0.00544689  0.91585312  0.38395351  1
  O  O31  1  0.52932186  0.93202457  0.88295879  1
