# generated using pymatgen
data_Li2MnPCO7
_symmetry_space_group_name_H-M   'P 1'
_cell_length_a   8.42840807
_cell_length_b   5.02914802
_cell_length_c   13.06263476
_cell_angle_alpha   90.02648751
_cell_angle_beta   89.69433799
_cell_angle_gamma   85.80663567
_symmetry_Int_Tables_number   1
_chemical_formula_structural   Li2MnPCO7
_chemical_formula_sum   'Li8 Mn4 P4 C4 O28'
_cell_volume   552.20486854
_cell_formula_units_Z   4
loop_
 _symmetry_equiv_pos_site_id
 _symmetry_equiv_pos_as_xyz
  1  'x, y, z'
loop_
 _atom_site_type_symbol
 _atom_site_label
 _atom_site_symmetry_multiplicity
 _atom_site_fract_x
 _atom_site_fract_y
 _atom_site_fract_z
 _atom_site_occupancy
  Li  Li0  1  0.26797926  0.26412664  0.01832430  1
  Li  Li1  1  0.25342529  0.27394258  0.73504081  1
  Li  Li2  1  0.25612049  0.23609641  0.24147701  1
  Li  Li3  1  0.24745126  0.24356192  0.51168519  1
  Li  Li4  1  0.76459964  0.75696809  0.24834205  1
  Li  Li5  1  0.75393175  0.75247207  0.49388986  1
  Li  Li6  1  0.73425886  0.74744573  0.76886576  1
  Li  Li7  1  0.89425782  0.22016044  0.88310974  1
  Mn  Mn8  1  0.34065113  0.78602037  0.37646052  1
  Mn  Mn9  1  0.34173072  0.81434409  0.87521156  1
  Mn  Mn10  1  0.66703821  0.20286853  0.12297531  1
  Mn  Mn11  1  0.65919211  0.19566533  0.62621830  1
  P  P12  1  0.42039501  0.73474908  0.12249761  1
  P  P13  1  0.41104331  0.73950333  0.63117879  1
  P  P14  1  0.57841394  0.26359586  0.37653619  1
  P  P15  1  0.58710557  0.28718293  0.87111019  1
  C  C16  1  0.05525903  0.71890905  0.37660251  1
  C  C17  1  0.04884046  0.70347931  0.86605831  1
  C  C18  1  0.94852665  0.26669764  0.62003316  1
  C  C19  1  0.95139777  0.27488461  0.13376899  1
  O  O20  1  0.06840823  0.95427190  0.87322895  1
  O  O21  1  0.11669217  0.95119130  0.37570672  1
  O  O22  1  0.09647080  0.32064588  0.13034235  1
  O  O23  1  0.08932571  0.33653197  0.62259055  1
  O  O24  1  0.16684684  0.51980204  0.37881183  1
  O  O25  1  0.18225917  0.54007987  0.87266208  1
  O  O26  1  0.32316532  0.84792443  0.53614882  1
  O  O27  1  0.32869631  0.84214569  0.02580638  1
  O  O28  1  0.31996386  0.83148851  0.21528660  1
  O  O29  1  0.31802047  0.86262767  0.72526717  1
  O  O30  1  0.40670794  0.16465149  0.37379884  1
  O  O31  1  0.42008814  0.17283310  0.87848600  1
  O  O32  1  0.42621868  0.42929801  0.63463302  1
  O  O33  1  0.44185297  0.42142618  0.11960594  1
  O  O34  1  0.55781067  0.58861937  0.85141895  1
  O  O35  1  0.55433816  0.57770755  0.37913343  1
  O  O36  1  0.58838485  0.84110532  0.12647336  1
  O  O37  1  0.58550784  0.83172339  0.63168380  1
  O  O38  1  0.66593066  0.15726464  0.47320740  1
  O  O39  1  0.67531516  0.16199378  0.28391838  1
  O  O40  1  0.68893142  0.15703273  0.78127182  1
  O  O41  1  0.69005417  0.22306411  0.96513425  1
  O  O42  1  0.83534721  0.46481246  0.14179765  1
  O  O43  1  0.82479078  0.45430608  0.61864430  1
  O  O44  1  0.90880505  0.68922046  0.37486998  1
  O  O45  1  0.91761704  0.60119476  0.85263451  1
  O  O46  1  0.89795743  0.03861666  0.12601997  1
  O  O47  1  0.90665065  0.02607961  0.62012082  1
