# generated using pymatgen
data_Fe10OF19
_symmetry_space_group_name_H-M   'P 1'
_cell_length_a   4.79519810
_cell_length_b   4.79519810
_cell_length_c   16.56307730
_cell_angle_alpha   90.00000000
_cell_angle_beta   90.00000000
_cell_angle_gamma   89.38328428
_symmetry_Int_Tables_number   1
_chemical_formula_structural   Fe10OF19
_chemical_formula_sum   'Fe10 O1 F19'
_cell_volume   380.82809298
_cell_formula_units_Z   1
loop_
 _symmetry_equiv_pos_site_id
 _symmetry_equiv_pos_as_xyz
  1  'x, y, z'
loop_
 _atom_site_type_symbol
 _atom_site_label
 _atom_site_symmetry_multiplicity
 _atom_site_fract_x
 _atom_site_fract_y
 _atom_site_fract_z
 _atom_site_occupancy
  Fe  Fe0  1  0.00936861  0.99063139  0.00471138  1
  Fe  Fe1  1  0.00936861  0.99063139  0.19528862  1
  Fe  Fe2  1  0.99950317  0.00049683  0.39914139  1
  Fe  Fe3  1  0.00008625  0.99991375  0.60000000  1
  Fe  Fe4  1  0.99950317  0.00049683  0.80085861  1
  Fe  Fe5  1  0.47524562  0.52475438  0.10000000  1
  Fe  Fe6  1  0.49985396  0.50014604  0.50012586  1
  Fe  Fe7  1  0.50238061  0.49761939  0.29986461  1
  Fe  Fe8  1  0.49985396  0.50014604  0.69987414  1
  Fe  Fe9  1  0.50238061  0.49761939  0.90013539  1
  O  O10  1  0.20471735  0.79528265  0.10000000  1
  F  F11  1  0.20100053  0.79899947  0.29997081  1
  F  F12  1  0.19885866  0.80114134  0.49986073  1
  F  F13  1  0.19885866  0.80114134  0.70013927  1
  F  F14  1  0.20100053  0.79899947  0.90002919  1
  F  F15  1  0.30836870  0.30531166  0.00366881  1
  F  F16  1  0.30836870  0.30531166  0.19633119  1
  F  F17  1  0.30045960  0.30022387  0.39989203  1
  F  F18  1  0.29990808  0.29996751  0.60000000  1
  F  F19  1  0.30045960  0.30022387  0.80010797  1
  F  F20  1  0.69468834  0.69163130  0.00366881  1
  F  F21  1  0.69468834  0.69163130  0.19633119  1
  F  F22  1  0.69977613  0.69954040  0.39989203  1
  F  F23  1  0.70003249  0.70009192  0.60000000  1
  F  F24  1  0.69977613  0.69954040  0.80010797  1
  F  F25  1  0.78205462  0.21794538  0.10000000  1
  F  F26  1  0.80090392  0.19909608  0.49982720  1
  F  F27  1  0.80381606  0.19618394  0.29739968  1
  F  F28  1  0.80381606  0.19618394  0.90260032  1
  F  F29  1  0.80090392  0.19909608  0.70017280  1
