# generated using pymatgen
data_La4Sm4Ni7AgO20
_symmetry_space_group_name_H-M   'P 1'
_cell_length_a   11.01800353
_cell_length_b   11.51833523
_cell_length_c   17.53365346
_cell_angle_alpha   109.59115035
_cell_angle_beta   108.22318009
_cell_angle_gamma   89.87854401
_symmetry_Int_Tables_number   1
_chemical_formula_structural   La4Sm4Ni7AgO20
_chemical_formula_sum   'La16 Sm16 Ni28 Ag4 O80'
_cell_volume   1978.05385716
_cell_formula_units_Z   4
loop_
 _symmetry_equiv_pos_site_id
 _symmetry_equiv_pos_as_xyz
  1  'x, y, z'
loop_
 _atom_site_type_symbol
 _atom_site_label
 _atom_site_symmetry_multiplicity
 _atom_site_fract_x
 _atom_site_fract_y
 _atom_site_fract_z
 _atom_site_occupancy
  La  La0  1  0.30665362  0.06152996  0.60781070  1
  La  La1  1  0.30968283  0.56495537  0.61061791  1
  La  La2  1  0.80438333  0.06297544  0.60872114  1
  La  La3  1  0.80598030  0.56408373  0.61106236  1
  La  La4  1  0.19770273  0.43651630  0.38901024  1
  La  La5  1  0.19242542  0.43840603  0.88770212  1
  La  La6  1  0.69464281  0.43588914  0.38880601  1
  La  La7  1  0.69364777  0.93607221  0.38840983  1
  La  La8  1  0.05524216  0.29575458  0.60905032  1
  La  La9  1  0.05466526  0.79798210  0.61020670  1
  La  La10  1  0.55727602  0.29690254  0.60952276  1
  La  La11  1  0.44466293  0.20159672  0.38808234  1
  La  La12  1  0.44172223  0.20440239  0.88940860  1
  La  La13  1  0.94700027  0.20172032  0.38849551  1
  La  La14  1  0.94244027  0.19971555  0.88642401  1
  La  La15  1  0.94790746  0.70520098  0.38962389  1
  Sm  Sm16  1  0.29777399  0.06816706  0.11272456  1
  Sm  Sm17  1  0.30811591  0.56528453  0.11579085  1
  Sm  Sm18  1  0.79513764  0.07068700  0.11164107  1
  Sm  Sm19  1  0.79832911  0.55937879  0.11529701  1
  Sm  Sm20  1  0.19556820  0.93419849  0.39021531  1
  Sm  Sm21  1  0.18893489  0.93368679  0.88780916  1
  Sm  Sm22  1  0.68085359  0.43399598  0.88731539  1
  Sm  Sm23  1  0.68315854  0.93289859  0.88134358  1
  Sm  Sm24  1  0.05335903  0.29809999  0.11396764  1
  Sm  Sm25  1  0.05814173  0.79543561  0.11702072  1
  Sm  Sm26  1  0.55348901  0.30047659  0.11199254  1
  Sm  Sm27  1  0.54057146  0.79384899  0.11202729  1
  Sm  Sm28  1  0.55414447  0.79252960  0.60633821  1
  Sm  Sm29  1  0.44422625  0.70795769  0.39248424  1
  Sm  Sm30  1  0.43409755  0.69951136  0.88827016  1
  Sm  Sm31  1  0.94273976  0.70735312  0.88713402  1
  Ni  Ni32  1  0.00495465  0.99965894  0.49887258  1
  Ni  Ni33  1  0.00512323  0.49997958  0.49968466  1
  Ni  Ni34  1  0.50420808  0.99869734  0.49874598  1
  Ni  Ni35  1  0.50202294  0.49947304  0.00177686  1
  Ni  Ni36  1  0.50400456  0.50025894  0.49844389  1
  Ni  Ni37  1  0.25570246  0.25397344  0.00191562  1
  Ni  Ni38  1  0.25493113  0.24888022  0.49930594  1
  Ni  Ni39  1  0.25327610  0.74954324  0.00299919  1
  Ni  Ni40  1  0.25557695  0.74968587  0.49931739  1
  Ni  Ni41  1  0.75144903  0.25226314  0.00042697  1
  Ni  Ni42  1  0.75381269  0.25002054  0.49905743  1
  Ni  Ni43  1  0.75307206  0.74894691  0.49828500  1
  Ni  Ni44  1  0.10809420  0.09612885  0.25117727  1
  Ni  Ni45  1  0.10914950  0.09599781  0.75149441  1
  Ni  Ni46  1  0.11042982  0.59995841  0.25028414  1
  Ni  Ni47  1  0.10921922  0.59989168  0.75118598  1
  Ni  Ni48  1  0.60819678  0.09526059  0.24939210  1
  Ni  Ni49  1  0.60631313  0.09649031  0.74952251  1
  Ni  Ni50  1  0.60588120  0.59873760  0.24965276  1
  Ni  Ni51  1  0.60902223  0.60142643  0.75084822  1
  Ni  Ni52  1  0.35708142  0.40292467  0.24763078  1
  Ni  Ni53  1  0.35952539  0.40373224  0.74929761  1
  Ni  Ni54  1  0.35568023  0.90135480  0.24976556  1
  Ni  Ni55  1  0.36131005  0.90062607  0.74878415  1
  Ni  Ni56  1  0.85676440  0.40054022  0.24853995  1
  Ni  Ni57  1  0.85493672  0.40417434  0.74949737  1
  Ni  Ni58  1  0.85934031  0.90105555  0.24778438  1
  Ni  Ni59  1  0.85544853  0.89846445  0.74769816  1
  Ag  Ag60  1  0.99870945  0.00209496  0.00228780  1
  Ag  Ag61  1  0.00280626  0.49903559  0.00123964  1
  Ag  Ag62  1  0.49626059  0.00260527  0.00242681  1
  Ag  Ag63  1  0.74650372  0.74644267  0.00258089  1
  O  O64  1  0.12020439  0.11585674  0.48145777  1
  O  O65  1  0.11785616  0.12530586  0.97940315  1
  O  O66  1  0.11930435  0.61897388  0.48293982  1
  O  O67  1  0.10995769  0.62481407  0.97314647  1
  O  O68  1  0.61682421  0.11870165  0.48156242  1
  O  O69  1  0.61569809  0.12507475  0.98069078  1
  O  O70  1  0.61278229  0.62093124  0.47885691  1
  O  O71  1  0.59820853  0.60623602  0.96641771  1
  O  O72  1  0.14878904  0.38476651  0.03860693  1
  O  O73  1  0.13656917  0.38166615  0.51895877  1
  O  O74  1  0.14018123  0.88008594  0.02869669  1
  O  O75  1  0.13638733  0.88090109  0.51641032  1
  O  O76  1  0.63524519  0.38377861  0.02308213  1
  O  O77  1  0.63621142  0.38316752  0.51699761  1
  O  O78  1  0.63439401  0.88613220  0.03709328  1
  O  O79  1  0.63190965  0.87726567  0.51673082  1
  O  O80  1  0.36388268  0.10704316  0.47868798  1
  O  O81  1  0.34911225  0.10977420  0.96920201  1
  O  O82  1  0.37043491  0.61526794  0.47957345  1
  O  O83  1  0.36769832  0.61478675  0.98483916  1
  O  O84  1  0.86872481  0.11371087  0.48234267  1
  O  O85  1  0.84762579  0.10769450  0.97088334  1
  O  O86  1  0.86814040  0.61280333  0.48142059  1
  O  O87  1  0.85098379  0.59814344  0.96257280  1
  O  O88  1  0.38774918  0.39166935  0.02489352  1
  O  O89  1  0.38610683  0.38618995  0.51679134  1
  O  O90  1  0.37967679  0.88762536  0.02804158  1
  O  O91  1  0.38893274  0.88302814  0.51626487  1
  O  O92  1  0.88276612  0.39028866  0.02976253  1
  O  O93  1  0.88610561  0.38701284  0.51729462  1
  O  O94  1  0.88497064  0.89235856  0.03295622  1
  O  O95  1  0.88533335  0.88594028  0.51610361  1
  O  O96  1  0.12845392  0.13744611  0.15792495  1
  O  O97  1  0.08458665  0.10659799  0.63866061  1
  O  O98  1  0.13462281  0.63474630  0.15687982  1
  O  O99  1  0.08304487  0.61102870  0.63862155  1
  O  O100  1  0.62616668  0.14049869  0.15786331  1
  O  O101  1  0.58480877  0.10800626  0.63738153  1
  O  O102  1  0.59671735  0.61280723  0.13851331  1
  O  O103  1  0.57785444  0.60899498  0.63536879  1
  O  O104  1  0.44283925  0.38987994  0.36043537  1
  O  O105  1  0.44959314  0.38951989  0.86078075  1
  O  O106  1  0.44598836  0.89003382  0.36176972  1
  O  O107  1  0.47072054  0.86338371  0.84664113  1
  O  O108  1  0.94492307  0.39161443  0.36164679  1
  O  O109  1  0.96390758  0.36571216  0.84462224  1
  O  O110  1  0.95338816  0.89541860  0.36243337  1
  O  O111  1  0.97591131  0.87076210  0.84403700  1
  O  O112  1  0.35918636  0.27558536  0.13983340  1
  O  O113  1  0.33675274  0.28023091  0.63697044  1
  O  O114  1  0.34841117  0.77627422  0.14024880  1
  O  O115  1  0.33997559  0.78062448  0.63459969  1
  O  O116  1  0.85095419  0.27726896  0.13798984  1
  O  O117  1  0.82677885  0.28123452  0.63465458  1
  O  O118  1  0.87968963  0.76122163  0.15510417  1
  O  O119  1  0.82584555  0.77751157  0.63296358  1
  O  O120  1  0.19301798  0.22093158  0.36494680  1
  O  O121  1  0.19992451  0.22470469  0.86266335  1
  O  O122  1  0.19997739  0.72290985  0.36448827  1
  O  O123  1  0.21504118  0.72270751  0.86278965  1
  O  O124  1  0.69311444  0.21890722  0.36386676  1
  O  O125  1  0.69541677  0.22558869  0.86162686  1
  O  O126  1  0.69778366  0.72069776  0.36160392  1
  O  O127  1  0.72761806  0.73367090  0.84438196  1
  O  O128  1  0.42227747  0.06272091  0.24555012  1
  O  O129  1  0.42408831  0.06619704  0.74948448  1
  O  O130  1  0.42484371  0.57120305  0.25270024  1
  O  O131  1  0.42646121  0.56930119  0.75378936  1
  O  O132  1  0.92072452  0.06585497  0.24446437  1
  O  O133  1  0.92444840  0.06128805  0.74789701  1
  O  O134  1  0.92398450  0.56293188  0.24772411  1
  O  O135  1  0.92809576  0.56828113  0.75341137  1
  O  O136  1  0.17268624  0.43302920  0.24705580  1
  O  O137  1  0.17778945  0.43593590  0.74893457  1
  O  O138  1  0.17372309  0.93237100  0.25283164  1
  O  O139  1  0.18089518  0.93334407  0.75427168  1
  O  O140  1  0.67265117  0.43475134  0.24594459  1
  O  O141  1  0.67136183  0.43483848  0.75348856  1
  O  O142  1  0.67171404  0.92770832  0.24614364  1
  O  O143  1  0.67098960  0.93119015  0.74706611  1
