# generated using pymatgen
data_LiAlH4
_symmetry_space_group_name_H-M   'P 1'
_cell_length_a   6.11718224
_cell_length_b   6.11718224
_cell_length_c   6.14227322
_cell_angle_alpha   136.74414343
_cell_angle_beta   135.92010540
_cell_angle_gamma   63.08904426
_symmetry_Int_Tables_number   1
_chemical_formula_structural   LiAlH4
_chemical_formula_sum   'Li2 Al2 H8'
_cell_volume   108.36013955
_cell_formula_units_Z   2
loop_
 _symmetry_equiv_pos_site_id
 _symmetry_equiv_pos_as_xyz
  1  'x, y, z'
loop_
 _atom_site_type_symbol
 _atom_site_label
 _atom_site_symmetry_multiplicity
 _atom_site_fract_x
 _atom_site_fract_y
 _atom_site_fract_z
 _atom_site_occupancy
  Li  Li0  1  0.36134654  0.11134654  0.25000000  1
  Li  Li1  1  0.63865346  0.88865346  0.75000000  1
  Al  Al2  1  0.87650488  0.62650488  0.25000000  1
  Al  Al3  1  0.12349512  0.37349512  0.75000000  1
  H  H4  1  0.62129832  0.28913292  0.82519758  1
  H  H5  1  0.37870168  0.71086708  0.17480242  1
  H  H6  1  0.03606467  0.20389927  0.32519758  1
  H  H7  1  0.96393533  0.79610073  0.67480242  1
  H  H8  1  0.79130366  0.48070316  0.68201978  1
  H  H9  1  0.20869634  0.51929684  0.31798022  1
  H  H10  1  0.70131663  0.89071613  0.18201978  1
  H  H11  1  0.29868337  0.10928387  0.81798022  1
