# generated using pymatgen
data_CoH8(ClO2)2
_symmetry_space_group_name_H-M   'P 1'
_cell_length_a   11.65468848
_cell_length_b   9.65586909
_cell_length_c   6.11804666
_cell_angle_alpha   90.00000000
_cell_angle_beta   110.81364260
_cell_angle_gamma   90.00000000
_symmetry_Int_Tables_number   1
_chemical_formula_structural   CoH8(ClO2)2
_chemical_formula_sum   'Co4 H32 Cl8 O16'
_cell_volume   643.57054740
_cell_formula_units_Z   4
loop_
 _symmetry_equiv_pos_site_id
 _symmetry_equiv_pos_as_xyz
  1  'x, y, z'
loop_
 _atom_site_type_symbol
 _atom_site_label
 _atom_site_symmetry_multiplicity
 _atom_site_fract_x
 _atom_site_fract_y
 _atom_site_fract_z
 _atom_site_occupancy
  Co  Co0  1  0.26919589  0.32221143  0.75280524  1
  Co  Co1  1  0.23080411  0.82221143  0.24719476  1
  Co  Co2  1  0.73080411  0.67778857  0.24719476  1
  Co  Co3  1  0.76919589  0.17778857  0.75280524  1
  H  H4  1  0.42805994  0.29844292  0.53431209  1
  H  H5  1  0.07194006  0.79844292  0.46568791  1
  H  H6  1  0.57194006  0.70155708  0.46568791  1
  H  H7  1  0.92805994  0.20155708  0.53431209  1
  H  H8  1  0.29710706  0.30646958  0.33149245  1
  H  H9  1  0.20289294  0.80646958  0.66850755  1
  H  H10  1  0.70289294  0.69353042  0.66850755  1
  H  H11  1  0.79710706  0.19353042  0.33149245  1
  H  H12  1  0.19468308  0.48073463  0.03451420  1
  H  H13  1  0.30531692  0.98073463  0.96548580  1
  H  H14  1  0.80531692  0.51926537  0.96548580  1
  H  H15  1  0.69468308  0.01926537  0.03451420  1
  H  H16  1  0.11414213  0.34795687  0.99064199  1
  H  H17  1  0.38585787  0.84795687  0.00935801  1
  H  H18  1  0.88585787  0.65204313  0.00935801  1
  H  H19  1  0.61414213  0.15204313  0.99064199  1
  H  H20  1  0.38248892  0.55980217  0.69029143  1
  H  H21  1  0.11751108  0.05980217  0.30970857  1
  H  H22  1  0.61751108  0.44019783  0.30970857  1
  H  H23  1  0.88248892  0.94019783  0.69029143  1
  H  H24  1  0.41044346  0.55537539  0.96689809  1
  H  H25  1  0.08955654  0.05537539  0.03310191  1
  H  H26  1  0.58955654  0.44462461  0.03310191  1
  H  H27  1  0.91044346  0.94462461  0.96689809  1
  H  H28  1  0.06301012  0.41078553  0.38493113  1
  H  H29  1  0.43698988  0.91078553  0.61506887  1
  H  H30  1  0.93698988  0.58921447  0.61506887  1
  H  H31  1  0.56301012  0.08921447  0.38493113  1
  H  H32  1  0.14985120  0.54164248  0.47331428  1
  H  H33  1  0.35014880  0.04164248  0.52668572  1
  H  H34  1  0.85014880  0.45835752  0.52668572  1
  H  H35  1  0.64985120  0.95835752  0.47331428  1
  Cl  Cl36  1  0.11855492  0.13604213  0.64332214  1
  Cl  Cl37  1  0.38144508  0.63604213  0.35667786  1
  Cl  Cl38  1  0.88144508  0.86395787  0.35667786  1
  Cl  Cl39  1  0.61855492  0.36395787  0.64332214  1
  Cl  Cl40  1  0.43411685  0.18481341  0.02286482  1
  Cl  Cl41  1  0.06588315  0.68481341  0.97713518  1
  Cl  Cl42  1  0.56588315  0.81518659  0.97713518  1
  Cl  Cl43  1  0.93411685  0.31518659  0.02286482  1
  O  O44  1  0.34060289  0.27058778  0.49111880  1
  O  O45  1  0.15939711  0.77058778  0.50888120  1
  O  O46  1  0.65939711  0.72941222  0.50888120  1
  O  O47  1  0.84060289  0.22941222  0.49111880  1
  O  O48  1  0.20035255  0.37878930  0.02692942  1
  O  O49  1  0.29964745  0.87878930  0.97307058  1
  O  O50  1  0.79964745  0.62121070  0.97307058  1
  O  O51  1  0.70035255  0.12121070  0.02692942  1
  O  O52  1  0.37021792  0.50705721  0.81914476  1
  O  O53  1  0.12978208  0.00705721  0.18085524  1
  O  O54  1  0.62978208  0.49294279  0.18085524  1
  O  O55  1  0.87021792  0.99294279  0.81914476  1
  O  O56  1  0.13165463  0.44878606  0.51640641  1
  O  O57  1  0.36834537  0.94878606  0.48359359  1
  O  O58  1  0.86834537  0.55121394  0.48359359  1
  O  O59  1  0.63165463  0.05121394  0.51640641  1
