# generated using pymatgen
data_Ca2Y3Si3O13
_symmetry_space_group_name_H-M   'P 1'
_cell_length_a   9.46454443
_cell_length_b   9.47038803
_cell_length_c   6.91020396
_cell_angle_alpha   90.00000000
_cell_angle_beta   90.00000000
_cell_angle_gamma   120.01584993
_symmetry_Int_Tables_number   1
_chemical_formula_structural   Ca2Y3Si3O13
_chemical_formula_sum   'Ca4 Y6 Si6 O26'
_cell_volume   536.31457637
_cell_formula_units_Z   2
loop_
 _symmetry_equiv_pos_site_id
 _symmetry_equiv_pos_as_xyz
  1  'x, y, z'
loop_
 _atom_site_type_symbol
 _atom_site_label
 _atom_site_symmetry_multiplicity
 _atom_site_fract_x
 _atom_site_fract_y
 _atom_site_fract_z
 _atom_site_occupancy
  Ca  Ca0  1  0.66675740  0.33128013  0.01767640  1
  Ca  Ca1  1  0.33324260  0.66871987  0.51767640  1
  Ca  Ca2  1  0.66528090  0.33148200  0.51261100  1
  Ca  Ca3  1  0.33471910  0.66851800  0.01261100  1
  Y  Y4  1  0.75461851  0.99349776  0.76682842  1
  Y  Y5  1  0.24538149  0.00650224  0.26682842  1
  Y  Y6  1  0.00425833  0.75760285  0.76632947  1
  Y  Y7  1  0.99574167  0.24239715  0.26632947  1
  Y  Y8  1  0.75915431  0.75365024  0.26619408  1
  Y  Y9  1  0.24084569  0.24634976  0.76619408  1
  Si  Si10  1  0.63106454  0.60796038  0.76576114  1
  Si  Si11  1  0.36893546  0.39203962  0.26576114  1
  Si  Si12  1  0.97782351  0.36741821  0.76612179  1
  Si  Si13  1  0.02217649  0.63258179  0.26612179  1
  Si  Si14  1  0.60928211  0.97747402  0.26655161  1
  Si  Si15  1  0.39071789  0.02252598  0.76655161  1
  O  O16  1  0.82378613  0.52483579  0.26693688  1
  O  O17  1  0.17621387  0.47516421  0.76693688  1
  O  O18  1  0.59050370  0.11372709  0.76388610  1
  O  O19  1  0.40949630  0.88627291  0.26388610  1
  O  O20  1  0.52464441  0.40817606  0.76331976  1
  O  O21  1  0.47535559  0.59182394  0.26331976  1
  O  O22  1  0.52420788  0.69957122  0.76629885  1
  O  O23  1  0.47579212  0.30042878  0.26629885  1
  O  O24  1  0.88447633  0.47407766  0.76273409  1
  O  O25  1  0.11552367  0.52592234  0.26273409  1
  O  O26  1  0.70237590  0.17625371  0.26739797  1
  O  O27  1  0.29762410  0.82374629  0.76739797  1
  O  O28  1  0.75682536  0.66715659  0.95224383  1
  O  O29  1  0.24317464  0.33284341  0.45224383  1
  O  O30  1  0.75903446  0.67170619  0.58106237  1
  O  O31  1  0.24096554  0.32829381  0.08106237  1
  O  O32  1  0.91027561  0.24191713  0.95276613  1
  O  O33  1  0.08972439  0.75808287  0.45276613  1
  O  O34  1  0.91416336  0.23896491  0.58191026  1
  O  O35  1  0.08583664  0.76103509  0.08191026  1
  O  O36  1  0.66698225  0.90963401  0.45308196  1
  O  O37  1  0.33301775  0.09036599  0.95308196  1
  O  O38  1  0.67102663  0.91212156  0.08109371  1
  O  O39  1  0.32897337  0.08787844  0.58109371  1
  O  O40  1  0.00115506  0.99939614  0.76989319  1
  O  O41  1  0.99884494  0.00060386  0.26989319  1
