# generated using pymatgen
data_Ca3V2O8
_symmetry_space_group_name_H-M   'P 1'
_cell_length_a   5.58496308
_cell_length_b   5.63223909
_cell_length_c   7.13439850
_cell_angle_alpha   66.80435956
_cell_angle_beta   66.95767439
_cell_angle_gamma   60.27728075
_symmetry_Int_Tables_number   1
_chemical_formula_structural   Ca3V2O8
_chemical_formula_sum   'Ca3 V2 O8'
_cell_volume   173.64738096
_cell_formula_units_Z   1
loop_
 _symmetry_equiv_pos_site_id
 _symmetry_equiv_pos_as_xyz
  1  'x, y, z'
loop_
 _atom_site_type_symbol
 _atom_site_label
 _atom_site_symmetry_multiplicity
 _atom_site_fract_x
 _atom_site_fract_y
 _atom_site_fract_z
 _atom_site_occupancy
  Ca  Ca0  1  0.19490916  0.20102184  0.40915983  1
  Ca  Ca1  1  0.80509084  0.79897816  0.59084017  1
  Ca  Ca2  1  0.00000000  -0.00000000  -0.00000000  1
  V  V3  1  0.40594963  0.40230404  0.78579669  1
  V  V4  1  0.59405037  0.59769596  0.21420331  1
  O  O5  1  0.77532169  0.26795025  0.69472672  1
  O  O6  1  0.32178229  0.30112226  0.05531316  1
  O  O7  1  0.73617449  0.22902096  0.29863005  1
  O  O8  1  0.26200134  0.26795025  0.69472672  1
  O  O9  1  0.22467831  0.73204975  0.30527328  1
  O  O10  1  0.73799866  0.73204975  0.30527328  1
  O  O11  1  0.67821771  0.69887774  0.94468684  1
  O  O12  1  0.26382551  0.77097904  0.70136995  1
