# generated using pymatgen
data_Rb2Co3S4
_symmetry_space_group_name_H-M   'P 1'
_cell_length_a   8.83904051
_cell_length_b   8.83904051
_cell_length_c   8.83904051
_cell_angle_alpha   144.56998123
_cell_angle_beta   104.75344940
_cell_angle_gamma   86.01562945
_symmetry_Int_Tables_number   1
_chemical_formula_structural   Rb2Co3S4
_chemical_formula_sum   'Rb4 Co6 S8'
_cell_volume   375.22078505
_cell_formula_units_Z   2
loop_
 _symmetry_equiv_pos_site_id
 _symmetry_equiv_pos_as_xyz
  1  'x, y, z'
loop_
 _atom_site_type_symbol
 _atom_site_label
 _atom_site_symmetry_multiplicity
 _atom_site_fract_x
 _atom_site_fract_y
 _atom_site_fract_z
 _atom_site_occupancy
  Rb  Rb0  1  0.62371547  0.25860508  0.88232054  1
  Rb  Rb1  1  0.37628453  0.74139492  0.11767946  1
  Rb  Rb2  1  0.12371547  0.24139492  0.36511039  1
  Rb  Rb3  1  0.87628453  0.75860508  0.63488961  1
  Co  Co4  1  0.75000000  0.25000000  0.50000000  1
  Co  Co5  1  0.25000000  0.75000000  0.50000000  1
  Co  Co6  1  0.00315839  0.75000000  0.25315839  1
  Co  Co7  1  0.49684161  0.75000000  0.74684161  1
  Co  Co8  1  0.99684161  0.25000000  0.74684161  1
  Co  Co9  1  0.50315839  0.25000000  0.25315839  1
  S  S10  1  0.03938641  0.41474083  0.12458351  1
  S  S11  1  0.29015731  0.91480290  0.87541649  1
  S  S12  1  0.20984269  0.08525917  0.62464559  1
  S  S13  1  0.46061359  0.58519710  0.37535441  1
  S  S14  1  0.96061359  0.58525917  0.87541649  1
  S  S15  1  0.70984269  0.08519710  0.12458351  1
  S  S16  1  0.79015731  0.91474083  0.37535441  1
  S  S17  1  0.53938641  0.41480290  0.62464559  1
