# generated using pymatgen
data_Li9Mn2Co5O16
_symmetry_space_group_name_H-M   'P 1'
_cell_length_a   4.99290861
_cell_length_b   9.87380285
_cell_length_c   6.02211090
_cell_angle_alpha   86.08014439
_cell_angle_beta   93.81092853
_cell_angle_gamma   102.05155054
_symmetry_Int_Tables_number   1
_chemical_formula_structural   Li9Mn2Co5O16
_chemical_formula_sum   'Li9 Mn2 Co5 O16'
_cell_volume   289.24680590
_cell_formula_units_Z   1
loop_
 _symmetry_equiv_pos_site_id
 _symmetry_equiv_pos_as_xyz
  1  'x, y, z'
loop_
 _atom_site_type_symbol
 _atom_site_label
 _atom_site_symmetry_multiplicity
 _atom_site_fract_x
 _atom_site_fract_y
 _atom_site_fract_z
 _atom_site_occupancy
  Li  Li0  1  0.74797756  0.25533109  0.00462141  1
  Li  Li1  1  0.74958592  0.74684407  0.25119261  1
  Li  Li2  1  0.75458304  0.25493782  0.49616831  1
  Li  Li3  1  0.25074905  0.25287092  0.25047762  1
  Li  Li4  1  0.24740282  0.74593147  0.49479775  1
  Li  Li5  1  0.25247939  0.25302979  0.75116827  1
  Li  Li6  1  0.74742570  0.74693312  0.74710472  1
  Li  Li7  1  0.24935433  0.74380452  0.00508004  1
  Li  Li8  1  0.99944533  0.49994040  0.24974933  1
  Mn  Mn9  1  0.00080119  0.00017720  0.00348829  1
  Mn  Mn10  1  0.49871081  0.99947501  0.74668193  1
  Co  Co11  1  0.99964652  0.99985435  0.49778651  1
  Co  Co12  1  0.00043123  0.49970995  0.74925804  1
  Co  Co13  1  0.49524040  0.49546804  0.49139937  1
  Co  Co14  1  0.50581722  0.50471316  0.00882955  1
  Co  Co15  1  0.50054673  0.00060477  0.25214434  1
  O  O16  1  0.86841567  0.11736753  0.76004923  1
  O  O17  1  0.84023638  0.61447867  0.99887112  1
  O  O18  1  0.86310199  0.11649496  0.26560493  1
  O  O19  1  0.36819970  0.11574145  0.01572366  1
  O  O20  1  0.38854381  0.61371646  0.26180570  1
  O  O21  1  0.36166229  0.11372976  0.50598323  1
  O  O22  1  0.84871136  0.60813301  0.51880474  1
  O  O23  1  0.36066779  0.61504749  0.76250911  1
  O  O24  1  0.61161000  0.38585171  0.23923790  1
  O  O25  1  0.63892587  0.88615191  0.48348946  1
  O  O26  1  0.63907152  0.38566547  0.73778426  1
  O  O27  1  0.16026117  0.38625471  0.50175106  1
  O  O28  1  0.12978279  0.88283474  0.73414433  1
  O  O29  1  0.15109281  0.39128378  0.98036975  1
  O  O30  1  0.63174630  0.88446733  0.99091844  1
  O  O31  1  0.13777329  0.88315532  0.24300498  1
