# generated using pymatgen
data_FeRe3
_symmetry_space_group_name_H-M   'P 1'
_cell_length_a   5.44586246
_cell_length_b   5.44585508
_cell_length_c   4.37106679
_cell_angle_alpha   89.99996027
_cell_angle_beta   90.00002410
_cell_angle_gamma   120.00002172
_symmetry_Int_Tables_number   1
_chemical_formula_structural   FeRe3
_chemical_formula_sum   'Fe2 Re6'
_cell_volume   112.26664073
_cell_formula_units_Z   2
loop_
 _symmetry_equiv_pos_site_id
 _symmetry_equiv_pos_as_xyz
  1  'x, y, z'
loop_
 _atom_site_type_symbol
 _atom_site_label
 _atom_site_symmetry_multiplicity
 _atom_site_fract_x
 _atom_site_fract_y
 _atom_site_fract_z
 _atom_site_occupancy
  Fe  Fe0  1  0.33333300  0.66666700  0.75000000  1
  Fe  Fe1  1  0.66666700  0.33333200  0.25000100  1
  Re  Re2  1  0.16767333  0.33534667  0.25000100  1
  Re  Re3  1  0.66465333  0.83232667  0.25000100  1
  Re  Re4  1  0.16767333  0.83232667  0.25000000  1
  Re  Re5  1  0.83230437  0.66460875  0.75000000  1
  Re  Re6  1  0.33539125  0.16769563  0.75000000  1
  Re  Re7  1  0.83230637  0.16769563  0.75000000  1
