# generated using pymatgen
data_Li9Mn2Co5O16
_symmetry_space_group_name_H-M   'P 1'
_cell_length_a   3.01587220
_cell_length_b   5.98294838
_cell_length_c   16.05164368
_cell_angle_alpha   89.37686393
_cell_angle_beta   89.02214527
_cell_angle_gamma   95.15607538
_symmetry_Int_Tables_number   1
_chemical_formula_structural   Li9Mn2Co5O16
_chemical_formula_sum   'Li9 Mn2 Co5 O16'
_cell_volume   288.39639322
_cell_formula_units_Z   1
loop_
 _symmetry_equiv_pos_site_id
 _symmetry_equiv_pos_as_xyz
  1  'x, y, z'
loop_
 _atom_site_type_symbol
 _atom_site_label
 _atom_site_symmetry_multiplicity
 _atom_site_fract_x
 _atom_site_fract_y
 _atom_site_fract_z
 _atom_site_occupancy
  Li  Li0  1  0.00020150  0.49980646  0.00007890  1
  Li  Li1  1  0.50002866  0.24988215  0.12474066  1
  Li  Li2  1  0.00119617  0.00000339  0.25069949  1
  Li  Li3  1  0.49961270  0.74808010  0.87389949  1
  Li  Li4  1  0.99901927  0.99985108  0.74946992  1
  Li  Li5  1  0.49796553  0.24489744  0.62334190  1
  Li  Li6  1  0.99933573  0.50046715  0.49981233  1
  Li  Li7  1  0.50273523  0.75640920  0.37806749  1
  Li  Li8  1  0.99982845  0.99911983  0.50040226  1
  Mn  Mn9  1  0.00025148  0.00061679  0.99936501  1
  Mn  Mn10  1  0.00114652  0.50005262  0.25150139  1
  Co  Co11  1  0.49974322  0.74959678  0.12517917  1
  Co  Co12  1  0.50454130  0.23757315  0.38071567  1
  Co  Co13  1  0.49793719  0.75964682  0.62055437  1
  Co  Co14  1  0.00159326  0.49922238  0.74842674  1
  Co  Co15  1  0.49849462  0.25322383  0.87374033  1
  O  O16  1  0.47790037  0.24436001  0.99385080  1
  O  O17  1  0.97652772  0.98839317  0.12146326  1
  O  O18  1  0.47854675  0.74254069  0.24441366  1
  O  O19  1  0.97626866  0.48954973  0.86809260  1
  O  O20  1  0.47696319  0.73577357  0.74025462  1
  O  O21  1  0.97816448  0.98121179  0.62558662  1
  O  O22  1  0.49499306  0.25339146  0.48862556  1
  O  O23  1  0.97673501  0.48790801  0.37191589  1
  O  O24  1  0.52347866  0.75627494  0.00533100  1
  O  O25  1  0.02369916  0.51055965  0.12932255  1
  O  O26  1  0.52037585  0.25718736  0.25967156  1
  O  O27  1  0.02414064  0.01223887  0.87751149  1
  O  O28  1  0.52261347  0.26528731  0.75538691  1
  O  O29  1  0.02280082  0.51355624  0.63073686  1
  O  O30  1  0.50338923  0.74533615  0.51246136  1
  O  O31  1  0.01977208  0.01798190  0.37537914  1
