# generated using pymatgen
data_Li9Mn2Co5O16
_symmetry_space_group_name_H-M   'P 1'
_cell_length_a   3.03280083
_cell_length_b   6.02646374
_cell_length_c   16.09377913
_cell_angle_alpha   89.36038260
_cell_angle_beta   89.28047139
_cell_angle_gamma   94.76694216
_symmetry_Int_Tables_number   1
_chemical_formula_structural   Li9Mn2Co5O16
_chemical_formula_sum   'Li9 Mn2 Co5 O16'
_cell_volume   293.08446507
_cell_formula_units_Z   1
loop_
 _symmetry_equiv_pos_site_id
 _symmetry_equiv_pos_as_xyz
  1  'x, y, z'
loop_
 _atom_site_type_symbol
 _atom_site_label
 _atom_site_symmetry_multiplicity
 _atom_site_fract_x
 _atom_site_fract_y
 _atom_site_fract_z
 _atom_site_occupancy
  Li  Li0  1  -0.00009145  0.49881901  0.99878210  1
  Li  Li1  1  0.50016192  0.25139122  0.12625898  1
  Li  Li2  1  0.00096682  0.00167897  0.25144018  1
  Li  Li3  1  0.50072695  0.74915422  0.87439000  1
  Li  Li4  1  0.99884720  0.99904854  0.74920261  1
  Li  Li5  1  0.49751432  0.24445276  0.62281005  1
  Li  Li6  1  0.00074569  0.50012403  0.50033941  1
  Li  Li7  1  0.50160600  0.75471181  0.37629871  1
  Li  Li8  1  0.00011930  0.00018879  0.49987649  1
  Mn  Mn9  1  0.99932748  0.00347027  0.99921411  1
  Mn  Mn10  1  0.49978520  0.74666187  0.12633559  1
  Co  Co11  1  0.99846625  0.49736142  0.25265818  1
  Co  Co12  1  0.50125315  0.23857780  0.38046662  1
  Co  Co13  1  0.50174562  0.76170201  0.62026440  1
  Co  Co14  1  -0.00075343  0.49878762  0.74819633  1
  Co  Co15  1  0.49641363  0.25178694  0.87323349  1
  O  O16  1  0.47799253  0.24494131  0.99312195  1
  O  O17  1  0.97326319  0.99383765  0.12143040  1
  O  O18  1  0.47100176  0.73550957  0.24729332  1
  O  O19  1  0.96780881  0.49062200  0.86901838  1
  O  O20  1  0.51046541  0.73917341  0.74028285  1
  O  O21  1  0.98145168  0.98086886  0.62488490  1
  O  O22  1  0.49716602  0.25473356  0.48780295  1
  O  O23  1  0.97579566  0.48494680  0.36968331  1
  O  O24  1  0.52670873  0.75716726  0.00409175  1
  O  O25  1  0.02331267  0.50329547  0.13213298  1
  O  O26  1  0.52788673  0.26300741  0.26036725  1
  O  O27  1  0.02823871  0.01337265  0.87760666  1
  O  O28  1  0.48540603  0.26323943  0.75537335  1
  O  O29  1  0.02933649  0.51129562  0.62972090  1
  O  O30  1  0.50407754  0.74609989  0.51247488  1
  O  O31  1  0.02325334  0.01997183  0.37494595  1
