# generated using pymatgen
data_Nd2Mg
_symmetry_space_group_name_H-M   'P 1'
_cell_length_a   5.44471464
_cell_length_b   5.47144346
_cell_length_c   6.93593651
_cell_angle_alpha   66.76975033
_cell_angle_beta   90.00000000
_cell_angle_gamma   90.00000000
_symmetry_Int_Tables_number   1
_chemical_formula_structural   Nd2Mg
_chemical_formula_sum   'Nd4 Mg2'
_cell_volume   189.87302421
_cell_formula_units_Z   2
loop_
 _symmetry_equiv_pos_site_id
 _symmetry_equiv_pos_as_xyz
  1  'x, y, z'
loop_
 _atom_site_type_symbol
 _atom_site_label
 _atom_site_symmetry_multiplicity
 _atom_site_fract_x
 _atom_site_fract_y
 _atom_site_fract_z
 _atom_site_occupancy
  Nd  Nd0  1  0.50000000  0.40302704  0.02769352  1
  Nd  Nd1  1  0.00000000  0.90261244  0.02769352  1
  Nd  Nd2  1  0.50000000  0.09738756  0.63897248  1
  Nd  Nd3  1  0.00000000  0.59697396  0.63897348  1
  Mg  Mg4  1  0.00000000  0.24949769  0.33333300  1
  Mg  Mg5  1  0.50000000  0.75050231  0.33333400  1
