# generated using pymatgen
data_Li9Mn2Co5O16
_symmetry_space_group_name_H-M   'P 1'
_cell_length_a   2.96340686
_cell_length_b   10.70841708
_cell_length_c   10.14748966
_cell_angle_alpha   114.31954754
_cell_angle_beta   88.69013843
_cell_angle_gamma   83.96603705
_symmetry_Int_Tables_number   1
_chemical_formula_structural   Li9Mn2Co5O16
_chemical_formula_sum   'Li9 Mn2 Co5 O16'
_cell_volume   291.03546527
_cell_formula_units_Z   1
loop_
 _symmetry_equiv_pos_site_id
 _symmetry_equiv_pos_as_xyz
  1  'x, y, z'
loop_
 _atom_site_type_symbol
 _atom_site_label
 _atom_site_symmetry_multiplicity
 _atom_site_fract_x
 _atom_site_fract_y
 _atom_site_fract_z
 _atom_site_occupancy
  Li  Li0  1  0.87326883  0.24929201  0.93499777  1
  Li  Li1  1  0.12341943  0.74930144  0.06101885  1
  Li  Li2  1  0.36644156  0.25750936  0.19015216  1
  Li  Li3  1  0.38108047  0.24179599  0.67916640  1
  Li  Li4  1  0.62420594  0.74736024  0.81016708  1
  Li  Li5  1  0.88476100  0.24516768  0.44198579  1
  Li  Li6  1  0.11967505  0.75229173  0.56581451  1
  Li  Li7  1  0.63153244  0.75122384  0.31707172  1
  Li  Li8  1  0.98686462  0.00858138  0.50295374  1
  Mn  Mn9  1  0.00678122  0.99758118  0.99616116  1
  Mn  Mn10  1  0.50250453  0.00093305  0.25862119  1
  Co  Co11  1  0.24781121  0.50030128  0.12472071  1
  Co  Co12  1  0.75171797  0.50008354  0.37525009  1
  Co  Co13  1  0.25113957  0.49855856  0.62434905  1
  Co  Co14  1  0.49316890  -0.00104431  0.73753213  1
  Co  Co15  1  0.74969236  0.50101455  0.87582673  1
  O  O16  1  0.41794811  0.11033013  0.95533433  1
  O  O17  1  0.68921118  0.61616526  0.09012059  1
  O  O18  1  0.96820134  0.10560841  0.21358522  1
  O  O19  1  0.90931251  0.11491034  0.72284990  1
  O  O20  1  0.18833896  0.61559671  0.83975231  1
  O  O21  1  0.43601039  0.11804026  0.45161244  1
  O  O22  1  0.68639140  0.61378241  0.58934227  1
  O  O23  1  0.18335652  0.61752819  0.33831334  1
  O  O24  1  0.31029817  0.38638452  0.91300779  1
  O  O25  1  0.59366803  0.88616640  0.03978457  1
  O  O26  1  0.81049267  0.38296581  0.16117090  1
  O  O27  1  0.81657983  0.38486315  0.66125590  1
  O  O28  1  0.08278916  0.88614723  0.78681045  1
  O  O29  1  0.31160669  0.38585017  0.40872997  1
  O  O30  1  0.56125909  0.88452057  0.55376104  1
  O  O31  1  0.04047083  0.89118891  0.27877991  1
