# generated using pymatgen
data_Mg17Al11Ga
_symmetry_space_group_name_H-M   'P 1'
_cell_length_a   9.10997577
_cell_length_b   9.11908299
_cell_length_c   9.11680003
_cell_angle_alpha   109.48815001
_cell_angle_beta   109.44767991
_cell_angle_gamma   109.46773841
_symmetry_Int_Tables_number   1
_chemical_formula_structural   Mg17Al11Ga
_chemical_formula_sum   'Mg17 Al11 Ga1'
_cell_volume   583.09991053
_cell_formula_units_Z   1
loop_
 _symmetry_equiv_pos_site_id
 _symmetry_equiv_pos_as_xyz
  1  'x, y, z'
loop_
 _atom_site_type_symbol
 _atom_site_label
 _atom_site_symmetry_multiplicity
 _atom_site_fract_x
 _atom_site_fract_y
 _atom_site_fract_z
 _atom_site_occupancy
  Mg  Mg0  1  0.34515890  0.99974804  0.00000000  1
  Mg  Mg1  1  0.00035124  0.00030483  0.99999900  1
  Mg  Mg2  1  0.00103077  0.34437819  0.00000000  1
  Mg  Mg3  1  0.31569891  0.60224844  0.00000100  1
  Mg  Mg4  1  0.60255993  0.31703295  0.00000100  1
  Mg  Mg5  1  0.68384405  0.68472644  0.28692086  1
  Mg  Mg6  1  0.00001616  0.60225905  0.31525105  1
  Mg  Mg7  1  0.60224901  0.99984301  0.31578893  1
  Mg  Mg8  1  0.99997677  0.00021319  0.34542195  1
  Mg  Mg9  1  0.39752004  0.71378425  0.39776893  1
  Mg  Mg10  1  0.71411443  0.39827710  0.39804361  1
  Mg  Mg11  1  0.31606982  0.00023148  0.60195639  1
  Mg  Mg12  1  0.99975110  0.31601432  0.60223107  1
  Mg  Mg13  1  0.65455482  0.65479025  0.65457805  1
  Mg  Mg14  1  0.28646008  0.68405508  0.68421107  1
  Mg  Mg15  1  0.68476510  0.28700800  0.68474795  1
  Mg  Mg16  1  0.39692519  0.39780758  0.71308014  1
  Al  Al17  1  0.63347593  0.81351338  0.99999900  1
  Al  Al18  1  0.36735202  0.36704313  0.18158911  1
  Al  Al19  1  0.18502859  0.81839792  0.18494693  1
  Al  Al20  1  0.81843989  0.18505007  0.18510086  1
  Al  Al21  1  0.36659949  0.18129414  0.36676683  1
  Al  Al22  1  0.18157738  0.36729052  0.36686672  1
  Al  Al23  1  0.81471066  0.00042480  0.63313428  1
  Al  Al24  1  0.99983366  0.81452731  0.63323317  1
  Al  Al25  1  0.63334003  0.99994920  0.81489914  1
  Al  Al26  1  0.00008166  0.63345199  0.81505207  1
  Al  Al27  1  0.18576191  0.18545302  0.81840989  1
  Ga  Ga28  1  0.81275544  0.63088332  0.00000000  1
