# generated using pymatgen
data_Li9Mn2Co5O16
_symmetry_space_group_name_H-M   'P 1'
_cell_length_a   3.01192962
_cell_length_b   10.24178951
_cell_length_c   9.89892252
_cell_angle_alpha   106.74814368
_cell_angle_beta   93.12738934
_cell_angle_gamma   82.89928571
_symmetry_Int_Tables_number   1
_chemical_formula_structural   Li9Mn2Co5O16
_chemical_formula_sum   'Li9 Mn2 Co5 O16'
_cell_volume   290.10420863
_cell_formula_units_Z   1
loop_
 _symmetry_equiv_pos_site_id
 _symmetry_equiv_pos_as_xyz
  1  'x, y, z'
loop_
 _atom_site_type_symbol
 _atom_site_label
 _atom_site_symmetry_multiplicity
 _atom_site_fract_x
 _atom_site_fract_y
 _atom_site_fract_z
 _atom_site_occupancy
  Li  Li0  1  0.93516938  0.12471806  0.31756240  1
  Li  Li1  1  0.44102887  0.12880979  0.80896891  1
  Li  Li2  1  0.31605409  0.37262425  0.44048073  1
  Li  Li3  1  0.81796416  0.37341799  0.93791535  1
  Li  Li4  1  0.68174768  0.62668339  0.56161492  1
  Li  Li5  1  0.18295773  0.62732657  0.06151515  1
  Li  Li6  1  0.06486045  0.87567001  0.68252683  1
  Li  Li7  1  0.55964461  0.87130387  0.19097066  1
  Li  Li8  1  0.49950929  0.00073563  0.50078368  1
  Mn  Mn9  1  0.00087575  0.99969866  0.99987687  1
  Mn  Mn10  1  0.74833296  0.50184882  0.25007955  1
  Co  Co11  1  0.37537550  0.25009071  0.12652163  1
  Co  Co12  1  0.87831901  0.24109394  0.61847477  1
  Co  Co13  1  0.25614701  0.49842731  0.75125593  1
  Co  Co14  1  0.11039548  0.76131412  0.38147684  1
  Co  Co15  1  0.63390203  0.74732566  0.87268762  1
  O  O16  1  0.43614754  0.06799020  0.15145264  1
  O  O17  1  0.95353508  0.08365617  0.65746725  1
  O  O18  1  0.81383869  0.31647842  0.27230067  1
  O  O19  1  0.30807795  0.31787332  0.77249030  1
  O  O20  1  0.18415479  0.57492064  0.40035404  1
  O  O21  1  0.73629126  0.56783669  0.89727918  1
  O  O22  1  0.56872150  0.80895728  0.51936748  1
  O  O23  1  0.06913152  0.81342299  0.01897385  1
  O  O24  1  0.42242307  0.19150470  0.48127557  1
  O  O25  1  0.93551107  0.18536270  0.97985232  1
  O  O26  1  0.77383461  0.42593669  0.60233582  1
  O  O27  1  0.31245281  0.43109478  0.09861550  1
  O  O28  1  0.19537570  0.68059966  0.72642611  1
  O  O29  1  0.67907789  0.68495141  0.22834130  1
  O  O30  1  0.56273894  0.93019757  0.84713660  1
  O  O31  1  0.04640357  0.91812801  0.34361952  1
