# generated using pymatgen
data_Sm3Lu
_symmetry_space_group_name_H-M   'P 1'
_cell_length_a   7.25480005
_cell_length_b   7.25479966
_cell_length_c   5.82235232
_cell_angle_alpha   90.00000000
_cell_angle_beta   90.00000000
_cell_angle_gamma   119.99999649
_symmetry_Int_Tables_number   1
_chemical_formula_structural   Sm3Lu
_chemical_formula_sum   'Sm6 Lu2'
_cell_volume   265.38721685
_cell_formula_units_Z   2
loop_
 _symmetry_equiv_pos_site_id
 _symmetry_equiv_pos_as_xyz
  1  'x, y, z'
loop_
 _atom_site_type_symbol
 _atom_site_label
 _atom_site_symmetry_multiplicity
 _atom_site_fract_x
 _atom_site_fract_y
 _atom_site_fract_z
 _atom_site_occupancy
  Sm  Sm0  1  0.16794968  0.33589937  0.24999800  1
  Sm  Sm1  1  0.66410263  0.83205232  0.24999800  1
  Sm  Sm2  1  0.16794868  0.83205232  0.24999800  1
  Sm  Sm3  1  0.83205032  0.66410163  0.75000100  1
  Sm  Sm4  1  0.33589937  0.16795068  0.75000100  1
  Sm  Sm5  1  0.83205132  0.16795068  0.75000100  1
  Lu  Lu6  1  0.33333400  0.66666800  0.75000100  1
  Lu  Lu7  1  0.66666600  0.33333300  0.24999800  1
