# generated using pymatgen
data_MnNi(BiO3)2
_symmetry_space_group_name_H-M   'P 1'
_cell_length_a   5.50885321
_cell_length_b   5.54024789
_cell_length_c   9.67016658
_cell_angle_alpha   105.62804623
_cell_angle_beta   90.00000000
_cell_angle_gamma   119.81272485
_symmetry_Int_Tables_number   1
_chemical_formula_structural   MnNi(BiO3)2
_chemical_formula_sum   'Mn2 Ni2 Bi4 O12'
_cell_volume   243.42198155
_cell_formula_units_Z   2
loop_
 _symmetry_equiv_pos_site_id
 _symmetry_equiv_pos_as_xyz
  1  'x, y, z'
loop_
 _atom_site_type_symbol
 _atom_site_label
 _atom_site_symmetry_multiplicity
 _atom_site_fract_x
 _atom_site_fract_y
 _atom_site_fract_z
 _atom_site_occupancy
  Mn  Mn0  1  0.25041945  0.50408531  0.74914401  1
  Mn  Mn1  1  0.74633414  0.49591469  0.25085599  1
  Ni  Ni2  1  0.00609543  0.00000000  0.00000000  1
  Ni  Ni3  1  0.48567247  0.00000000  0.50000000  1
  Bi  Bi4  1  0.16091975  0.26993626  0.37428301  1
  Bi  Bi5  1  0.89098349  0.73006374  0.62571699  1
  Bi  Bi6  1  0.32930310  0.73413481  0.12338153  1
  Bi  Bi7  1  0.59516828  0.26586519  0.87661847  1
  O  O8  1  0.14502060  0.18424662  0.83078122  1
  O  O9  1  0.96077398  0.81575338  0.16921878  1
  O  O10  1  0.35818935  0.82657313  0.67031156  1
  O  O11  1  0.53161622  0.17342687  0.32968844  1
  O  O12  1  0.87801876  0.31912179  0.63049103  1
  O  O13  1  0.55889697  0.68087821  0.36950897  1
  O  O14  1  0.06069930  0.68709794  0.40931500  1
  O  O15  1  0.37360136  0.31290206  0.59068500  1
  O  O16  1  0.13189779  0.70100447  0.90640106  1
  O  O17  1  0.43089332  0.29899553  0.09359894  1
  O  O18  1  0.93925752  0.31601880  0.13406800  1
  O  O19  1  0.62323873  0.68398120  0.86593200  1
