# generated using pymatgen
data_Ho5Pt3
_symmetry_space_group_name_H-M   'P 1'
_cell_length_a   6.15157945
_cell_length_b   8.42389473
_cell_length_c   8.42333608
_cell_angle_alpha   120.00219648
_cell_angle_beta   90.00000000
_cell_angle_gamma   90.00000000
_symmetry_Int_Tables_number   1
_chemical_formula_structural   Ho5Pt3
_chemical_formula_sum   'Ho10 Pt6'
_cell_volume   378.01124242
_cell_formula_units_Z   2
loop_
 _symmetry_equiv_pos_site_id
 _symmetry_equiv_pos_as_xyz
  1  'x, y, z'
loop_
 _atom_site_type_symbol
 _atom_site_label
 _atom_site_symmetry_multiplicity
 _atom_site_fract_x
 _atom_site_fract_y
 _atom_site_fract_z
 _atom_site_occupancy
  Ho  Ho0  1  0.50000212  0.33333264  0.66672682  1
  Ho  Ho1  1  0.50000212  0.66660583  0.33327318  1
  Ho  Ho2  1  0.00000212  0.66666736  0.33327318  1
  Ho  Ho3  1  0.00000212  0.33339417  0.66672682  1
  Ho  Ho4  1  0.75000416  0.24460630  0.00000000  1
  Ho  Ho5  1  0.74999356  0.75536845  0.75536039  1
  Ho  Ho6  1  0.74999356  0.00000806  0.24463961  1
  Ho  Ho7  1  0.25000416  0.75539370  1.00000000  1
  Ho  Ho8  1  0.24999356  0.24463155  0.24463961  1
  Ho  Ho9  1  0.24999356  -0.00000806  0.75536039  1
  Pt  Pt10  1  0.74999820  0.60743669  0.00000000  1
  Pt  Pt11  1  0.75000313  0.39253527  0.39252620  1
  Pt  Pt12  1  0.75000313  0.00000907  0.60747380  1
  Pt  Pt13  1  0.24999820  0.39256331  1.00000000  1
  Pt  Pt14  1  0.25000313  0.60746473  0.60747380  1
  Pt  Pt15  1  0.25000313  0.99999093  0.39252620  1
