# generated using pymatgen
data_Li9Mn2Co5O16
_symmetry_space_group_name_H-M   'P 1'
_cell_length_a   3.02594375
_cell_length_b   10.11494287
_cell_length_c   9.82236686
_cell_angle_alpha   103.11596200
_cell_angle_beta   86.70109151
_cell_angle_gamma   91.57500437
_symmetry_Int_Tables_number   1
_chemical_formula_structural   Li9Mn2Co5O16
_chemical_formula_sum   'Li9 Mn2 Co5 O16'
_cell_volume   292.27551054
_cell_formula_units_Z   1
loop_
 _symmetry_equiv_pos_site_id
 _symmetry_equiv_pos_as_xyz
  1  'x, y, z'
loop_
 _atom_site_type_symbol
 _atom_site_label
 _atom_site_symmetry_multiplicity
 _atom_site_fract_x
 _atom_site_fract_y
 _atom_site_fract_z
 _atom_site_occupancy
  Li  Li0  1  0.00207597  0.12574089  0.74980139  1
  Li  Li1  1  0.49960413  0.49829444  0.49930092  1
  Li  Li2  1  0.99729778  0.87329074  0.24970699  1
  Li  Li3  1  0.49959478  0.25736828  0.99891667  1
  Li  Li4  1  0.49953784  0.00223475  0.50109898  1
  Li  Li5  1  0.99579400  0.37821257  0.25031699  1
  Li  Li6  1  0.49913251  0.74288360  0.00159369  1
  Li  Li7  1  0.00482028  0.62256047  0.74923875  1
  Li  Li8  1  0.00002428  0.49974207  0.99932224  1
  Mn  Mn9  1  0.00584632  0.00074115  -0.00145523  1
  Mn  Mn10  1  -0.00213311  0.74849539  0.49880826  1
  Co  Co11  1  0.50052145  0.37815372  0.76057399  1
  Co  Co12  1  0.50227871  0.12741158  0.25208892  1
  Co  Co13  1  0.50098161  0.87397845  0.74944817  1
  Co  Co14  1  0.00078248  0.25172166  0.50356550  1
  Co  Co15  1  0.49260302  0.62046687  0.23829209  1
  O  O16  1  0.47344877  0.05052475  0.87238397  1
  O  O17  1  0.96881119  0.42652295  0.62552292  1
  O  O18  1  0.47326642  0.79573289  0.36919852  1
  O  O19  1  0.02014431  0.18014879  0.12548758  1
  O  O20  1  0.96893790  0.92769772  0.62642600  1
  O  O21  1  0.51150080  0.30283064  0.37591204  1
  O  O22  1  0.97383401  0.68144297  0.13385018  1
  O  O23  1  0.49767631  0.54483743  0.85996823  1
  O  O24  1  0.48398741  0.20439037  0.62980539  1
  O  O25  1  0.02434614  0.57196081  0.37260594  1
  O  O26  1  0.53551615  0.94911582  0.12798200  1
  O  O27  1  0.01978159  0.31769206  0.86478664  1
  O  O28  1  -0.01290559  0.07299684  0.38001641  1
  O  O29  1  0.50464310  0.45422363  0.13851598  1
  O  O30  1  0.03092541  0.82075603  0.87170152  1
  O  O31  1  0.52732402  0.69782466  0.62521838  1
