# generated using pymatgen
data_NdGa2Co3
_symmetry_space_group_name_H-M   'P 1'
_cell_length_a   3.84892624
_cell_length_b   9.08644636
_cell_length_c   9.09145854
_cell_angle_alpha   119.98176518
_cell_angle_beta   90.00000000
_cell_angle_gamma   90.00000000
_symmetry_Int_Tables_number   1
_chemical_formula_structural   NdGa2Co3
_chemical_formula_sum   'Nd3 Ga6 Co9'
_cell_volume   275.40867795
_cell_formula_units_Z   3
loop_
 _symmetry_equiv_pos_site_id
 _symmetry_equiv_pos_as_xyz
  1  'x, y, z'
loop_
 _atom_site_type_symbol
 _atom_site_label
 _atom_site_symmetry_multiplicity
 _atom_site_fract_x
 _atom_site_fract_y
 _atom_site_fract_z
 _atom_site_occupancy
  Nd  Nd0  1  -0.00000000  0.00001386  0.00000000  1
  Nd  Nd1  1  0.50000000  0.33332582  0.66666254  1
  Nd  Nd2  1  0.50000000  0.66666328  0.33333746  1
  Ga  Ga3  1  0.50000000  0.31230347  0.00000000  1
  Ga  Ga4  1  0.50000000  0.68793118  0.68798574  1
  Ga  Ga5  1  0.50000000  0.99994545  0.31201426  1
  Ga  Ga6  1  0.50000000  0.68769528  1.00000000  1
  Ga  Ga7  1  0.50000000  0.31206062  0.31202422  1
  Ga  Ga8  1  0.50000000  0.00003640  0.68797578  1
  Co  Co9  1  0.00000000  0.49999884  0.00000000  1
  Co  Co10  1  -0.00000000  0.49999199  0.50000854  1
  Co  Co11  1  -0.00000000  0.99998345  0.49999146  1
  Co  Co12  1  0.00000000  0.18240425  0.36481462  1
  Co  Co13  1  0.00000000  0.18262587  0.81766242  1
  Co  Co14  1  0.00000000  0.63500835  0.81764954  1
  Co  Co15  1  0.00000000  0.81758963  0.63518538  1
  Co  Co16  1  -0.00000000  0.36496345  0.18233758  1
  Co  Co17  1  0.00000000  0.81735881  0.18235046  1
