# generated using pymatgen
data_Gd2MgIrO6
_symmetry_space_group_name_H-M   'P 1'
_cell_length_a   5.41981220
_cell_length_b   5.74251842
_cell_length_c   7.77291964
_cell_angle_alpha   90.00000000
_cell_angle_beta   89.83051213
_cell_angle_gamma   90.00000000
_symmetry_Int_Tables_number   1
_chemical_formula_structural   Gd2MgIrO6
_chemical_formula_sum   'Gd4 Mg2 Ir2 O12'
_cell_volume   241.91840640
_cell_formula_units_Z   2
loop_
 _symmetry_equiv_pos_site_id
 _symmetry_equiv_pos_as_xyz
  1  'x, y, z'
loop_
 _atom_site_type_symbol
 _atom_site_label
 _atom_site_symmetry_multiplicity
 _atom_site_fract_x
 _atom_site_fract_y
 _atom_site_fract_z
 _atom_site_occupancy
  Gd  Gd0  1  0.01908687  0.56834501  0.24872332  1
  Gd  Gd1  1  0.51908687  0.93165499  0.74872332  1
  Gd  Gd2  1  0.98091313  0.43165499  0.75127668  1
  Gd  Gd3  1  0.48091313  0.06834501  0.25127668  1
  Mg  Mg4  1  0.50000000  0.50000000  0.50000000  1
  Mg  Mg5  1  -0.00000000  0.00000000  -0.00000000  1
  Ir  Ir6  1  -0.00000000  0.00000000  0.50000000  1
  Ir  Ir7  1  0.50000000  0.50000000  -0.00000000  1
  O  O8  1  0.30773896  0.80480706  0.44424280  1
  O  O9  1  0.80773896  0.69519294  0.94424280  1
  O  O10  1  0.69226104  0.19519294  0.55575720  1
  O  O11  1  0.19226104  0.30480706  0.05575720  1
  O  O12  1  0.88861165  0.96051927  0.25214984  1
  O  O13  1  0.38861165  0.53948073  0.75214984  1
  O  O14  1  0.11138835  0.03948073  0.74785016  1
  O  O15  1  0.61138835  0.46051927  0.24785016  1
  O  O16  1  0.18719432  0.30058713  0.44213024  1
  O  O17  1  0.68719432  0.19941287  0.94213024  1
  O  O18  1  0.81280568  0.69941287  0.55786976  1
  O  O19  1  0.31280568  0.80058713  0.05786976  1
