# generated using pymatgen
data_NaSi
_symmetry_space_group_name_H-M   'P 1'
_cell_length_a   6.31699737
_cell_length_b   6.31699737
_cell_length_c   10.86529718
_cell_angle_alpha   72.98289067
_cell_angle_beta   72.98289067
_cell_angle_gamma   62.79088319
_symmetry_Int_Tables_number   1
_chemical_formula_structural   NaSi
_chemical_formula_sum   'Na8 Si8'
_cell_volume   362.22463535
_cell_formula_units_Z   8
loop_
 _symmetry_equiv_pos_site_id
 _symmetry_equiv_pos_as_xyz
  1  'x, y, z'
loop_
 _atom_site_type_symbol
 _atom_site_label
 _atom_site_symmetry_multiplicity
 _atom_site_fract_x
 _atom_site_fract_y
 _atom_site_fract_z
 _atom_site_occupancy
  Na  Na0  1  0.88459532  0.34927688  0.88706843  1
  Na  Na1  1  0.65072312  0.11540468  0.61293157  1
  Na  Na2  1  0.11540468  0.65072312  0.11293157  1
  Na  Na3  1  0.34927688  0.88459532  0.38706843  1
  Na  Na4  1  0.41476462  0.24310150  0.90465193  1
  Na  Na5  1  0.75689850  0.58523538  0.59534807  1
  Na  Na6  1  0.58523538  0.75689850  0.09534807  1
  Na  Na7  1  0.24310150  0.41476462  0.40465193  1
  Si  Si8  1  0.15329147  0.05679055  0.65900395  1
  Si  Si9  1  0.94320945  0.84670853  0.84099605  1
  Si  Si10  1  0.84670853  0.94320945  0.34099605  1
  Si  Si11  1  0.05679055  0.15329147  0.15900395  1
  Si  Si12  1  0.23102523  0.63462508  0.67234611  1
  Si  Si13  1  0.36537492  0.76897477  0.82765389  1
  Si  Si14  1  0.76897477  0.36537492  0.32765389  1
  Si  Si15  1  0.63462508  0.23102523  0.17234611  1
