# generated using pymatgen
data_Gd(Tl3Te2)3
_symmetry_space_group_name_H-M   'P 1'
_cell_length_a   8.85831204
_cell_length_b   8.85831204
_cell_length_c   9.05035503
_cell_angle_alpha   119.30051307
_cell_angle_beta   119.30051307
_cell_angle_gamma   90.00000000
_symmetry_Int_Tables_number   1
_chemical_formula_structural   Gd(Tl3Te2)3
_chemical_formula_sum   'Gd1 Tl9 Te6'
_cell_volume   512.60645408
_cell_formula_units_Z   1
loop_
 _symmetry_equiv_pos_site_id
 _symmetry_equiv_pos_as_xyz
  1  'x, y, z'
loop_
 _atom_site_type_symbol
 _atom_site_label
 _atom_site_symmetry_multiplicity
 _atom_site_fract_x
 _atom_site_fract_y
 _atom_site_fract_z
 _atom_site_occupancy
  Gd  Gd0  1  -0.00000000  -0.00000000  -0.00000000  1
  Tl  Tl1  1  0.50000000  0.50000000  -0.00000000  1
  Tl  Tl2  1  0.79958404  0.31335414  0.31878024  1
  Tl  Tl3  1  0.51919619  0.00542609  0.31878024  1
  Tl  Tl4  1  0.00542609  0.79958404  0.31878024  1
  Tl  Tl5  1  0.31335414  0.51919619  0.31878024  1
  Tl  Tl6  1  0.20041596  0.68664586  0.68121976  1
  Tl  Tl7  1  0.48080381  0.99457391  0.68121976  1
  Tl  Tl8  1  0.99457391  0.20041596  0.68121976  1
  Tl  Tl9  1  0.68664586  0.48080381  0.68121976  1
  Te  Te10  1  0.23585724  0.23585724  0.47171448  1
  Te  Te11  1  0.76414276  0.76414276  0.52828552  1
  Te  Te12  1  0.84937935  0.32239220  0.00000000  1
  Te  Te13  1  0.15062065  0.67760780  1.00000000  1
  Te  Te14  1  0.67760780  0.84937935  1.00000000  1
  Te  Te15  1  0.32239220  0.15062065  0.00000000  1
