# generated using pymatgen
data_Tm2CuTe2(SO7)2
_symmetry_space_group_name_H-M   'P 1'
_cell_length_a   5.17744660
_cell_length_b   7.90646612
_cell_length_c   8.15683200
_cell_angle_alpha   62.26098627
_cell_angle_beta   74.06595946
_cell_angle_gamma   85.09900457
_symmetry_Int_Tables_number   1
_chemical_formula_structural   Tm2CuTe2(SO7)2
_chemical_formula_sum   'Tm2 Cu1 Te2 S2 O14'
_cell_volume   283.82264174
_cell_formula_units_Z   1
loop_
 _symmetry_equiv_pos_site_id
 _symmetry_equiv_pos_as_xyz
  1  'x, y, z'
loop_
 _atom_site_type_symbol
 _atom_site_label
 _atom_site_symmetry_multiplicity
 _atom_site_fract_x
 _atom_site_fract_y
 _atom_site_fract_z
 _atom_site_occupancy
  Tm  Tm0  1  0.92725998  0.74765590  0.98123259  1
  Tm  Tm1  1  0.07274002  0.25234410  0.01876741  1
  Cu  Cu2  1  -0.00000000  0.00000000  0.50000000  1
  Te  Te3  1  0.49027274  0.72616948  0.65623741  1
  Te  Te4  1  0.50972726  0.27383052  0.34376259  1
  S  S5  1  0.25349425  0.74885797  0.24842882  1
  S  S6  1  0.74650575  0.25114203  0.75157118  1
  O  O7  1  0.13805039  0.58905546  0.23702853  1
  O  O8  1  0.86194961  0.41094454  0.76297147  1
  O  O9  1  0.14219740  0.74561682  0.43589038  1
  O  O10  1  0.85780260  0.25438318  0.56410962  1
  O  O11  1  0.55071574  0.73688885  0.21133622  1
  O  O12  1  0.44928426  0.26311115  0.78866378  1
  O  O13  1  0.17541801  0.92542446  0.09090276  1
  O  O14  1  0.82458199  0.07457554  0.90909724  1
  O  O15  1  0.24633207  0.55898202  0.89256989  1
  O  O16  1  0.75366793  0.44101798  0.10743011  1
  O  O17  1  0.72946758  0.81082684  0.74846825  1
  O  O18  1  0.27053242  0.18917316  0.25153175  1
  O  O19  1  0.24897973  0.92708834  0.66083529  1
  O  O20  1  0.75102027  0.07291166  0.33916471  1
