# generated using pymatgen
data_Na3Ti6O13
_symmetry_space_group_name_H-M   'P 1'
_cell_length_a   3.77807638
_cell_length_b   7.71607749
_cell_length_c   9.52078906
_cell_angle_alpha   100.57542463
_cell_angle_beta   90.00000000
_cell_angle_gamma   104.17110539
_symmetry_Int_Tables_number   1
_chemical_formula_structural   Na3Ti6O13
_chemical_formula_sum   'Na3 Ti6 O13'
_cell_volume   264.23819654
_cell_formula_units_Z   1
loop_
 _symmetry_equiv_pos_site_id
 _symmetry_equiv_pos_as_xyz
  1  'x, y, z'
loop_
 _atom_site_type_symbol
 _atom_site_label
 _atom_site_symmetry_multiplicity
 _atom_site_fract_x
 _atom_site_fract_y
 _atom_site_fract_z
 _atom_site_occupancy
  Na  Na0  1  0.46492140  0.92984281  0.17766842  1
  Na  Na1  1  0.53507860  0.07015719  0.82233158  1
  Na  Na2  1  0.50000000  -0.00000000  0.50000000  1
  Ti  Ti3  1  0.12177229  0.24354459  0.09193122  1
  Ti  Ti4  1  0.87822771  0.75645541  0.90806878  1
  Ti  Ti5  1  0.16605415  0.33210830  0.42735190  1
  Ti  Ti6  1  0.83394585  0.66789170  0.57264810  1
  Ti  Ti7  1  0.22033718  0.44067437  0.76065273  1
  Ti  Ti8  1  0.77966282  0.55932563  0.23934727  1
  O  O9  1  0.24592604  0.49185209  0.25074283  1
  O  O10  1  0.75407396  0.50814791  0.74925717  1
  O  O11  1  0.06543274  0.13086549  0.29081348  1
  O  O12  1  0.93456726  0.86913451  0.70918652  1
  O  O13  1  0.29890697  0.59781394  0.57398271  1
  O  O14  1  0.70109303  0.40218606  0.42601729  1
  O  O15  1  0.11928995  0.23857990  0.59718286  1
  O  O16  1  0.88071005  0.76142010  0.40281714  1
  O  O17  1  0.35578163  0.71156326  0.87918417  1
  O  O18  1  0.64421837  0.28843674  0.12081583  1
  O  O19  1  0.15958293  0.31916585  0.90512585  1
  O  O20  1  0.84041707  0.68083415  0.09487415  1
  O  O21  1  -0.00000000  -0.00000000  0.00000000  1
