# generated using pymatgen
data_Li9Mn2Co5O16
_symmetry_space_group_name_H-M   'P 1'
_cell_length_a   3.01769287
_cell_length_b   8.06076763
_cell_length_c   12.13766148
_cell_angle_alpha   91.00340357
_cell_angle_beta   99.80817631
_cell_angle_gamma   89.15471109
_symmetry_Int_Tables_number   1
_chemical_formula_structural   Li9Mn2Co5O16
_chemical_formula_sum   'Li9 Mn2 Co5 O16'
_cell_volume   290.86682998
_cell_formula_units_Z   1
loop_
 _symmetry_equiv_pos_site_id
 _symmetry_equiv_pos_as_xyz
  1  'x, y, z'
loop_
 _atom_site_type_symbol
 _atom_site_label
 _atom_site_symmetry_multiplicity
 _atom_site_fract_x
 _atom_site_fract_y
 _atom_site_fract_z
 _atom_site_occupancy
  Li  Li0  1  0.75005438  0.99785972  0.75072929  1
  Li  Li1  1  0.87082052  0.25427435  0.37130590  1
  Li  Li2  1  0.00562711  0.49766344  0.00132864  1
  Li  Li3  1  0.12332563  0.74995715  0.62360043  1
  Li  Li4  1  0.25109238  0.00021230  0.25015103  1
  Li  Li5  1  0.37764004  0.25221308  0.87540249  1
  Li  Li6  1  0.49327931  0.50396967  0.49817116  1
  Li  Li7  1  0.62828712  0.74300969  0.12988426  1
  Li  Li8  1  0.25004733  0.50032043  0.25044785  1
  Mn  Mn9  1  0.00188974  0.00175021  0.00104289  1
  Mn  Mn10  1  0.13131404  0.24869053  0.62291486  1
  Co  Co11  1  0.36747113  0.74942112  0.87590930  1
  Co  Co12  1  0.49794993  0.99641718  0.49797531  1
  Co  Co13  1  0.63678962  0.26096051  0.13149911  1
  Co  Co14  1  0.75043651  0.50227305  0.75120790  1
  Co  Co15  1  0.86737354  0.74054104  0.36977947  1
  O  O16  1  0.35389970  0.98803003  0.87881735  1
  O  O17  1  0.47868867  0.23680022  0.50024379  1
  O  O18  1  0.61875710  0.47661248  0.12339839  1
  O  O19  1  0.72152991  0.74163686  0.75685976  1
  O  O20  1  0.85856193  0.97930229  0.38239089  1
  O  O21  1  0.98178333  0.24219807  0.00639760  1
  O  O22  1  0.14743097  0.49124996  0.63114739  1
  O  O23  1  0.23358310  0.75092707  0.25914459  1
  O  O24  1  0.14433198  0.00650443  0.61707150  1
  O  O25  1  0.26476964  0.25029286  0.24127034  1
  O  O26  1  0.35118388  0.51300442  0.86860598  1
  O  O27  1  0.51603896  0.76145432  0.49203026  1
  O  O28  1  0.64280639  0.01976856  0.12133476  1
  O  O29  1  0.78320831  0.25952674  0.74677327  1
  O  O30  1  0.88124629  0.52479777  0.37753735  1
  O  O31  1  0.01878849  0.75836042  0.99563091  1
