# generated using pymatgen
data_BaReH9
_symmetry_space_group_name_H-M   'P 1'
_cell_length_a   5.08667779
_cell_length_b   5.08667779
_cell_length_c   9.78175034
_cell_angle_alpha   90.00000000
_cell_angle_beta   90.00000000
_cell_angle_gamma   112.81586500
_symmetry_Int_Tables_number   1
_chemical_formula_structural   BaReH9
_chemical_formula_sum   'Ba2 Re2 H18'
_cell_volume   233.29257559
_cell_formula_units_Z   2
loop_
 _symmetry_equiv_pos_site_id
 _symmetry_equiv_pos_as_xyz
  1  'x, y, z'
loop_
 _atom_site_type_symbol
 _atom_site_label
 _atom_site_symmetry_multiplicity
 _atom_site_fract_x
 _atom_site_fract_y
 _atom_site_fract_z
 _atom_site_occupancy
  Ba  Ba0  1  0.00000000  -0.00000000  0.50000000  1
  Ba  Ba1  1  0.00000000  -0.00000000  -0.00000000  1
  Re  Re2  1  0.38672352  0.61327648  0.25000000  1
  Re  Re3  1  0.61327648  0.38672352  0.75000000  1
  H  H4  1  0.53450098  0.46549902  0.36989647  1
  H  H5  1  0.46549902  0.53450098  0.63010353  1
  H  H6  1  0.53450098  0.46549902  0.13010353  1
  H  H7  1  0.46549902  0.53450098  0.86989647  1
  H  H8  1  0.13140901  0.50223521  0.12445871  1
  H  H9  1  0.50223521  0.13140901  0.87554129  1
  H  H10  1  0.13140901  0.50223521  0.37554129  1
  H  H11  1  0.50223521  0.13140901  0.62445871  1
  H  H12  1  0.86859099  0.49776479  0.87554129  1
  H  H13  1  0.49776479  0.86859099  0.12445871  1
  H  H14  1  0.86859099  0.49776479  0.62445871  1
  H  H15  1  0.49776479  0.86859099  0.37554129  1
  H  H16  1  0.23955078  0.25483921  0.25000000  1
  H  H17  1  0.25483921  0.23955078  0.75000000  1
  H  H18  1  0.76044922  0.74516079  0.75000000  1
  H  H19  1  0.74516079  0.76044922  0.25000000  1
  H  H20  1  0.18843593  0.81156407  0.25000000  1
  H  H21  1  0.81156407  0.18843593  0.75000000  1
