# generated using pymatgen
data_Sm3AlNiS7
_symmetry_space_group_name_H-M   'P 1'
_cell_length_a   6.11513643
_cell_length_b   9.78166306
_cell_length_c   9.78034318
_cell_angle_alpha   119.98844307
_cell_angle_beta   90.00000000
_cell_angle_gamma   90.00000000
_symmetry_Int_Tables_number   1
_chemical_formula_structural   Sm3AlNiS7
_chemical_formula_sum   'Sm6 Al2 Ni2 S14'
_cell_volume   506.70377432
_cell_formula_units_Z   2
loop_
 _symmetry_equiv_pos_site_id
 _symmetry_equiv_pos_as_xyz
  1  'x, y, z'
loop_
 _atom_site_type_symbol
 _atom_site_label
 _atom_site_symmetry_multiplicity
 _atom_site_fract_x
 _atom_site_fract_y
 _atom_site_fract_z
 _atom_site_occupancy
  Sm  Sm0  1  0.26457739  0.22812481  0.37295174  1
  Sm  Sm1  1  0.26457302  0.62704883  0.85515656  1
  Sm  Sm2  1  0.26460686  0.14483361  0.77187675  1
  Sm  Sm3  1  0.76457739  0.77187519  0.62704826  1
  Sm  Sm4  1  0.76457302  0.37295117  0.14484344  1
  Sm  Sm5  1  0.76460686  0.85516639  0.22812325  1
  Al  Al6  1  0.83829045  0.33336051  0.66666089  1
  Al  Al7  1  0.33829045  0.66663949  0.33333911  1
  Ni  Ni8  1  0.46859339  -0.00000148  0.00001278  1
  Ni  Ni9  1  0.96859339  0.00000148  0.99998722  1
  S  S10  1  0.69730147  0.13767087  0.22903271  1
  S  S11  1  0.69733580  0.77100555  0.90863600  1
  S  S12  1  0.69731005  0.09133975  0.86238315  1
  S  S13  1  0.19730147  0.86232913  0.77096729  1
  S  S14  1  0.19733580  0.22899445  0.09136400  1
  S  S15  1  0.19731005  0.90866025  0.13761685  1
  S  S16  1  0.98977986  0.09431895  0.51840942  1
  S  S17  1  0.98975412  0.48159147  0.57596779  1
  S  S18  1  0.98976431  0.42403806  0.90565061  1
  S  S19  1  0.48977986  0.90568105  0.48159058  1
  S  S20  1  0.48975412  0.51840853  0.42403221  1
  S  S21  1  0.48976431  0.57596194  0.09434939  1
  S  S22  1  0.47411330  0.33332547  0.66666888  1
  S  S23  1  0.97411330  0.66667453  0.33333112  1
