# generated using pymatgen
data_Ba7In2(Se3F4)2
_symmetry_space_group_name_H-M   'P 1'
_cell_length_a   4.45893749
_cell_length_b   11.15852695
_cell_length_c   12.44535390
_cell_angle_alpha   106.92755290
_cell_angle_beta   100.31970893
_cell_angle_gamma   90.00000000
_symmetry_Int_Tables_number   1
_chemical_formula_structural   Ba7In2(Se3F4)2
_chemical_formula_sum   'Ba7 In2 Se6 F8'
_cell_volume   581.91371905
_cell_formula_units_Z   1
loop_
 _symmetry_equiv_pos_site_id
 _symmetry_equiv_pos_as_xyz
  1  'x, y, z'
loop_
 _atom_site_type_symbol
 _atom_site_label
 _atom_site_symmetry_multiplicity
 _atom_site_fract_x
 _atom_site_fract_y
 _atom_site_fract_z
 _atom_site_occupancy
  Ba  Ba0  1  -0.00000000  -0.00000000  -0.00000000  1
  Ba  Ba1  1  0.17210295  0.24002927  0.34420591  1
  Ba  Ba2  1  0.82789705  0.75997073  0.65579409  1
  Ba  Ba3  1  0.63497192  0.89857006  0.26994385  1
  Ba  Ba4  1  0.36502808  0.10142994  0.73005615  1
  Ba  Ba5  1  0.45734153  0.64432546  0.91468307  1
  Ba  Ba6  1  0.54265847  0.35567454  0.08531693  1
  In  In7  1  0.17225646  0.62342555  0.34451291  1
  In  In8  1  0.82774354  0.37657445  0.65548709  1
  Se  Se9  1  0.68969683  0.50207946  0.37939366  1
  Se  Se10  1  0.31030317  0.49792054  0.62060634  1
  Se  Se11  1  0.06799936  0.63134948  0.13599871  1
  Se  Se12  1  0.93200064  0.36865052  0.86400129  1
  Se  Se13  1  0.23851091  0.84902228  0.47702182  1
  Se  Se14  1  0.76148909  0.15097772  0.52297818  1
  F  F15  1  0.61618966  0.16646793  0.23237933  1
  F  F16  1  0.38381034  0.83353207  0.76762067  1
  F  F17  1  0.93542218  0.73662015  0.87084435  1
  F  F18  1  0.06457782  0.26337985  0.12915565  1
  F  F19  1  0.11420498  0.99654028  0.22840995  1
  F  F20  1  0.88579502  0.00345972  0.77159005  1
  F  F21  1  0.52363682  0.87818050  0.04727364  1
  F  F22  1  0.47636318  0.12181950  0.95272636  1
