# generated using pymatgen
data_YP(H2O3)2
_symmetry_space_group_name_H-M   'P 1'
_cell_length_a   5.61216751
_cell_length_b   6.24916764
_cell_length_c   8.14704953
_cell_angle_alpha   67.44789727
_cell_angle_beta   80.54409709
_cell_angle_gamma   64.63608270
_symmetry_Int_Tables_number   1
_chemical_formula_structural   YP(H2O3)2
_chemical_formula_sum   'Y2 P2 H8 O12'
_cell_volume   238.44237957
_cell_formula_units_Z   2
loop_
 _symmetry_equiv_pos_site_id
 _symmetry_equiv_pos_as_xyz
  1  'x, y, z'
loop_
 _atom_site_type_symbol
 _atom_site_label
 _atom_site_symmetry_multiplicity
 _atom_site_fract_x
 _atom_site_fract_y
 _atom_site_fract_z
 _atom_site_occupancy
  Y  Y0  1  0.25000000  0.17196326  0.65607348  1
  Y  Y1  1  0.75000000  0.82803674  0.34392652  1
  P  P2  1  0.25000000  0.66767364  0.66465271  1
  P  P3  1  0.75000000  0.33232636  0.33534729  1
  H  H4  1  0.74508148  0.32065224  0.83223362  1
  H  H5  1  0.75491852  0.84711414  0.83223362  1
  H  H6  1  0.25491852  0.67934776  0.16776638  1
  H  H7  1  0.24508148  0.15288586  0.16776638  1
  H  H8  1  0.92702962  0.24245823  0.99523100  1
  H  H9  1  0.57297038  0.76231077  0.99523100  1
  H  H10  1  0.07297038  0.75754177  0.00476900  1
  H  H11  1  0.42702962  0.23768923  0.00476900  1
  O  O12  1  0.07774651  0.83222053  0.77736275  1
  O  O13  1  0.42225349  0.39041672  0.77736275  1
  O  O14  1  0.92225349  0.16777947  0.22263725  1
  O  O15  1  0.57774651  0.60958328  0.22263725  1
  O  O16  1  0.41757546  0.81472257  0.54712544  1
  O  O17  1  0.08242454  0.63815199  0.54712544  1
  O  O18  1  0.58242454  0.18527743  0.45287456  1
  O  O19  1  0.91757546  0.36184801  0.45287456  1
  O  O20  1  0.92738309  0.27668260  0.86556982  1
  O  O21  1  0.57261691  0.85774758  0.86556982  1
  O  O22  1  0.07261691  0.72331740  0.13443018  1
  O  O23  1  0.42738309  0.14225242  0.13443018  1
