# generated using pymatgen
data_EuCO4
_symmetry_space_group_name_H-M   'P 1'
_cell_length_a   5.03476088
_cell_length_b   7.25808164
_cell_length_c   8.49745802
_cell_angle_alpha   90.00000000
_cell_angle_beta   90.00000000
_cell_angle_gamma   90.00000000
_symmetry_Int_Tables_number   1
_chemical_formula_structural   EuCO4
_chemical_formula_sum   'Eu4 C4 O16'
_cell_volume   310.52010597
_cell_formula_units_Z   4
loop_
 _symmetry_equiv_pos_site_id
 _symmetry_equiv_pos_as_xyz
  1  'x, y, z'
loop_
 _atom_site_type_symbol
 _atom_site_label
 _atom_site_symmetry_multiplicity
 _atom_site_fract_x
 _atom_site_fract_y
 _atom_site_fract_z
 _atom_site_occupancy
  Eu  Eu0  1  0.25386645  0.14731047  0.57236810  1
  Eu  Eu1  1  0.74613355  0.35268953  0.07236810  1
  Eu  Eu2  1  0.24613355  0.64731047  0.42763190  1
  Eu  Eu3  1  0.75386645  0.85268953  0.92763190  1
  C  C4  1  0.25141948  0.20003257  0.92597117  1
  C  C5  1  0.74858052  0.29996743  0.42597117  1
  C  C6  1  0.24858052  0.70003257  0.07402883  1
  C  C7  1  0.75141948  0.79996743  0.57402883  1
  O  O8  1  0.24796502  0.95003402  0.37314330  1
  O  O9  1  0.75203498  0.54996598  0.87314330  1
  O  O10  1  0.25203498  0.45003402  0.62685670  1
  O  O11  1  0.74796502  0.04996598  0.12685670  1
  O  O12  1  0.75557396  0.20269114  0.55175144  1
  O  O13  1  0.24442604  0.29730886  0.05175144  1
  O  O14  1  0.74442604  0.70269114  0.44824856  1
  O  O15  1  0.25557396  0.79730886  0.94824856  1
  O  O16  1  0.97751668  0.84157735  0.63750482  1
  O  O17  1  0.02248332  0.65842265  0.13750482  1
  O  O18  1  0.52248332  0.34157735  0.36249518  1
  O  O19  1  0.47751668  0.15842265  0.86249518  1
  O  O20  1  0.53379030  0.84951118  0.64292178  1
  O  O21  1  0.46620970  0.65048882  0.14292178  1
  O  O22  1  0.96620970  0.34951118  0.35707822  1
  O  O23  1  0.03379030  0.15048882  0.85707822  1
