# generated using pymatgen
data_PWO5
_symmetry_space_group_name_H-M   'P 1'
_cell_length_a   5.43537268
_cell_length_b   6.66413183
_cell_length_c   11.46078925
_cell_angle_alpha   90.01886291
_cell_angle_beta   90.00000000
_cell_angle_gamma   90.00000000
_symmetry_Int_Tables_number   1
_chemical_formula_structural   PWO5
_chemical_formula_sum   'P4 W4 O20'
_cell_volume   415.13314546
_cell_formula_units_Z   4
loop_
 _symmetry_equiv_pos_site_id
 _symmetry_equiv_pos_as_xyz
  1  'x, y, z'
loop_
 _atom_site_type_symbol
 _atom_site_label
 _atom_site_symmetry_multiplicity
 _atom_site_fract_x
 _atom_site_fract_y
 _atom_site_fract_z
 _atom_site_occupancy
  P  P0  1  0.75000000  0.97258958  0.65551116  1
  P  P1  1  0.25000000  0.02741042  0.34448884  1
  P  P2  1  0.75000000  0.52812661  0.15610868  1
  P  P3  1  0.25000000  0.47187339  0.84389132  1
  W  W4  1  0.75000000  0.32840008  0.43799497  1
  W  W5  1  0.25000000  0.67159992  0.56200503  1
  W  W6  1  0.75000000  0.17065160  0.93695616  1
  W  W7  1  0.25000000  0.82934840  0.06304384  1
  O  O8  1  0.75000000  0.32942264  0.08827370  1
  O  O9  1  0.25000000  0.67057736  0.91172630  1
  O  O10  1  0.75000000  0.17392729  0.59061686  1
  O  O11  1  0.25000000  0.82607271  0.40938314  1
  O  O12  1  0.75000000  0.00906463  0.78743763  1
  O  O13  1  0.25000000  0.99093537  0.21256237  1
  O  O14  1  0.75000000  0.48641361  0.28716491  1
  O  O15  1  0.25000000  0.51358639  0.71283509  1
  O  O16  1  0.48278792  0.34946803  0.87316397  1
  O  O17  1  0.98278792  0.65053197  0.12683603  1
  O  O18  1  0.51721208  0.65053197  0.12683603  1
  O  O19  1  0.01721208  0.34946803  0.87316397  1
  O  O20  1  0.51696056  0.85209747  0.62453691  1
  O  O21  1  0.01696056  0.14790253  0.37546309  1
  O  O22  1  0.48303944  0.14790253  0.37546309  1
  O  O23  1  0.98303944  0.85209747  0.62453691  1
  O  O24  1  0.50000000  -0.00000000  0.00000000  1
  O  O25  1  0.00000000  -0.00000000  0.00000000  1
  O  O26  1  0.50000000  0.50000000  0.50000000  1
  O  O27  1  0.00000000  0.50000000  0.50000000  1
