# generated using pymatgen
data_Bi2Te2SeO10
_symmetry_space_group_name_H-M   'P 1'
_cell_length_a   7.81605480
_cell_length_b   8.25637257
_cell_length_c   9.01098883
_cell_angle_alpha   109.56094518
_cell_angle_beta   115.70233339
_cell_angle_gamma   90.00000005
_symmetry_Int_Tables_number   1
_chemical_formula_structural   Bi2Te2SeO10
_chemical_formula_sum   'Bi4 Te4 Se2 O20'
_cell_volume   486.45156895
_cell_formula_units_Z   2
loop_
 _symmetry_equiv_pos_site_id
 _symmetry_equiv_pos_as_xyz
  1  'x, y, z'
loop_
 _atom_site_type_symbol
 _atom_site_label
 _atom_site_symmetry_multiplicity
 _atom_site_fract_x
 _atom_site_fract_y
 _atom_site_fract_z
 _atom_site_occupancy
  Bi  Bi0  1  0.52601559  0.14834324  0.36397646  1
  Bi  Bi1  1  0.16203913  0.35165676  0.63602354  1
  Bi  Bi2  1  0.47398441  0.85165676  0.63602354  1
  Bi  Bi3  1  0.83796087  0.64834324  0.36397646  1
  Te  Te4  1  0.81120836  0.52728557  0.76443778  1
  Te  Te5  1  0.04677058  0.97271443  0.23556222  1
  Te  Te6  1  0.18879164  0.47271443  0.23556222  1
  Te  Te7  1  0.95322942  0.02728557  0.76443778  1
  Se  Se8  1  0.39123745  0.75000000  1.00000000  1
  Se  Se9  1  0.60876255  0.25000000  0.00000000  1
  O  O10  1  0.28550520  0.92676803  0.03320146  1
  O  O11  1  0.25230374  0.57323197  0.96679854  1
  O  O12  1  0.71449480  0.07323197  0.96679854  1
  O  O13  1  0.74769626  0.42676803  0.03320146  1
  O  O14  1  0.41902276  0.69285792  0.81532915  1
  O  O15  1  0.60369361  0.80714208  0.18467085  1
  O  O16  1  0.58097724  0.30714208  0.18467085  1
  O  O17  1  0.39630639  0.19285792  0.81532915  1
  O  O18  1  0.57089863  0.37693703  0.60776061  1
  O  O19  1  0.96313802  0.12306297  0.39223939  1
  O  O20  1  0.42910137  0.62306297  0.39223939  1
  O  O21  1  0.03686198  0.87693703  0.60776061  1
  O  O22  1  0.74855029  0.74753914  0.74654059  1
  O  O23  1  0.00200970  0.75246086  0.25345941  1
  O  O24  1  0.25144971  0.25246086  0.25345941  1
  O  O25  1  0.99799030  0.24753914  0.74654059  1
  O  O26  1  0.90555658  0.48838966  0.59133786  1
  O  O27  1  0.31421873  0.01161034  0.40866214  1
  O  O28  1  0.09444342  0.51161034  0.40866214  1
  O  O29  1  0.68578127  0.98838966  0.59133786  1
