# generated using pymatgen
data_Ba2Cu2Te2P2O13
_symmetry_space_group_name_H-M   'P 1'
_cell_length_a   7.45734005
_cell_length_b   9.29134119
_cell_length_c   9.67486832
_cell_angle_alpha   99.19289305
_cell_angle_beta   112.66841642
_cell_angle_gamma   90.00000000
_symmetry_Int_Tables_number   1
_chemical_formula_structural   Ba2Cu2Te2P2O13
_chemical_formula_sum   'Ba4 Cu4 Te4 P4 O26'
_cell_volume   609.23273784
_cell_formula_units_Z   2
loop_
 _symmetry_equiv_pos_site_id
 _symmetry_equiv_pos_as_xyz
  1  'x, y, z'
loop_
 _atom_site_type_symbol
 _atom_site_label
 _atom_site_symmetry_multiplicity
 _atom_site_fract_x
 _atom_site_fract_y
 _atom_site_fract_z
 _atom_site_occupancy
  Ba  Ba0  1  0.51268958  0.10737913  0.28877090  1
  Ba  Ba1  1  0.22391868  0.39262087  0.71122910  1
  Ba  Ba2  1  0.48731042  0.89262087  0.71122910  1
  Ba  Ba3  1  0.77608132  0.60737913  0.28877090  1
  Cu  Cu4  1  0.30546714  0.75000000  0.00000000  1
  Cu  Cu5  1  0.69453286  0.25000000  1.00000000  1
  Cu  Cu6  1  0.50000000  0.50000000  0.50000000  1
  Cu  Cu7  1  0.00000000  0.00000000  0.50000000  1
  Te  Te8  1  0.21487767  0.42954060  0.11830060  1
  Te  Te9  1  0.09657707  0.07045940  0.88169940  1
  Te  Te10  1  0.78512233  0.57045940  0.88169940  1
  Te  Te11  1  0.90342293  0.92954060  0.11830060  1
  P  P12  1  0.32513832  0.76763667  0.32647401  1
  P  P13  1  0.99866431  0.73236333  0.67352599  1
  P  P14  1  0.67486168  0.23236333  0.67352599  1
  P  P15  1  0.00133569  0.26763667  0.32647401  1
  O  O16  1  0.13836257  0.66503558  0.22925084  1
  O  O17  1  0.90911174  0.83496442  0.77074916  1
  O  O18  1  0.86163743  0.33496442  0.77074916  1
  O  O19  1  0.09088826  0.16503558  0.22925084  1
  O  O20  1  0.46674386  0.69857830  0.46196600  1
  O  O21  1  0.00477786  0.80142170  0.53803400  1
  O  O22  1  0.53325614  0.30142170  0.53803400  1
  O  O23  1  0.99522214  0.19857830  0.46196600  1
  O  O24  1  0.28021439  0.91768213  0.39372316  1
  O  O25  1  0.88649122  0.58231787  0.60627684  1
  O  O26  1  0.71978561  0.08231787  0.60627684  1
  O  O27  1  0.11350878  0.41768213  0.39372316  1
  O  O28  1  0.45768222  0.43007154  0.28287884  1
  O  O29  1  0.17480338  0.06992846  0.71712116  1
  O  O30  1  0.54231778  0.56992846  0.71712116  1
  O  O31  1  0.82519662  0.93007154  0.28287884  1
  O  O32  1  0.43885740  0.78883078  0.22286866  1
  O  O33  1  0.21598873  0.71116922  0.77713134  1
  O  O34  1  0.56114260  0.21116922  0.77713134  1
  O  O35  1  0.78401127  0.28883078  0.22286866  1
  O  O36  1  0.28355566  0.25000000  0.00000000  1
  O  O37  1  0.71644434  0.75000000  1.00000000  1
  O  O38  1  0.29281144  0.53980585  0.99910807  1
  O  O39  1  0.29370337  0.96019415  0.00089193  1
  O  O40  1  0.70718856  0.46019415  0.00089193  1
  O  O41  1  0.70629663  0.03980585  0.99910807  1
