# generated using pymatgen
data_AgPd(IO3)3
_symmetry_space_group_name_H-M   'P 1'
_cell_length_a   7.47337184
_cell_length_b   8.19668859
_cell_length_c   8.78743883
_cell_angle_alpha   62.86723637
_cell_angle_beta   76.42233521
_cell_angle_gamma   82.22718241
_symmetry_Int_Tables_number   1
_chemical_formula_structural   AgPd(IO3)3
_chemical_formula_sum   'Ag2 Pd2 I6 O18'
_cell_volume   465.41803558
_cell_formula_units_Z   2
loop_
 _symmetry_equiv_pos_site_id
 _symmetry_equiv_pos_as_xyz
  1  'x, y, z'
loop_
 _atom_site_type_symbol
 _atom_site_label
 _atom_site_symmetry_multiplicity
 _atom_site_fract_x
 _atom_site_fract_y
 _atom_site_fract_z
 _atom_site_occupancy
  Ag  Ag0  1  0.31816172  0.17413431  0.16138695  1
  Ag  Ag1  1  0.68183828  0.82586569  0.83861305  1
  Pd  Pd2  1  0.00000000  -0.00000000  0.50000000  1
  Pd  Pd3  1  0.00000000  -0.00000000  0.00000000  1
  I  I4  1  0.27885749  0.20601035  0.60256894  1
  I  I5  1  0.72114251  0.79398965  0.39743106  1
  I  I6  1  0.25127420  0.64542424  0.76701309  1
  I  I7  1  0.74872580  0.35457576  0.23298691  1
  I  I8  1  0.69430971  0.28347704  0.78565123  1
  I  I9  1  0.30569029  0.71652296  0.21434877  1
  O  O10  1  0.13966274  0.22272763  0.44282653  1
  O  O11  1  0.86033726  0.77727237  0.55717347  1
  O  O12  1  0.07828601  0.22189725  0.77183693  1
  O  O13  1  0.92171399  0.77810275  0.22816307  1
  O  O14  1  0.31574411  0.44833037  0.50772439  1
  O  O15  1  0.68425589  0.55166963  0.49227561  1
  O  O16  1  0.09076750  0.85791352  0.72975915  1
  O  O17  1  0.90923250  0.14208648  0.27024085  1
  O  O18  1  0.21526517  0.55983231  0.00099518  1
  O  O19  1  0.78473483  0.44016769  0.99900482  1
  O  O20  1  0.46883995  0.76716919  0.68562334  1
  O  O21  1  0.53116005  0.23283081  0.31437666  1
  O  O22  1  0.72841100  0.06702300  0.98673994  1
  O  O23  1  0.27158900  0.93297700  0.01326006  1
  O  O24  1  0.66993934  0.16362568  0.65917078  1
  O  O25  1  0.33006066  0.83637432  0.34082922  1
  O  O26  1  0.44917441  0.32343716  0.86299468  1
  O  O27  1  0.55082559  0.67656284  0.13700532  1
