# generated using pymatgen
data_Sr2GdCu2RuO8
_symmetry_space_group_name_H-M   'P 1'
_cell_length_a   5.47357070
_cell_length_b   5.47133134
_cell_length_c   11.74070158
_cell_angle_alpha   90.00000000
_cell_angle_beta   90.00000000
_cell_angle_gamma   90.00000000
_symmetry_Int_Tables_number   1
_chemical_formula_structural   Sr2GdCu2RuO8
_chemical_formula_sum   'Sr4 Gd2 Cu4 Ru2 O16'
_cell_volume   351.60723075
_cell_formula_units_Z   2
loop_
 _symmetry_equiv_pos_site_id
 _symmetry_equiv_pos_as_xyz
  1  'x, y, z'
loop_
 _atom_site_type_symbol
 _atom_site_label
 _atom_site_symmetry_multiplicity
 _atom_site_fract_x
 _atom_site_fract_y
 _atom_site_fract_z
 _atom_site_occupancy
  Sr  Sr0  1  0.50000000  0.00000000  0.81013553  1
  Sr  Sr1  1  -0.00000000  0.50000000  0.18986447  1
  Sr  Sr2  1  0.50000000  -0.00000000  0.18986447  1
  Sr  Sr3  1  -0.00000000  0.50000000  0.81013553  1
  Gd  Gd4  1  0.50000000  0.00000000  0.50000000  1
  Gd  Gd5  1  -0.00000000  0.50000000  0.50000000  1
  Cu  Cu6  1  0.50000000  0.50000000  0.64302086  1
  Cu  Cu7  1  -0.00000000  -0.00000000  0.35697914  1
  Cu  Cu8  1  0.50000000  0.50000000  0.35697914  1
  Cu  Cu9  1  0.00000000  -0.00000000  0.64302086  1
  Ru  Ru10  1  0.50000000  0.50000000  0.00000000  1
  Ru  Ru11  1  0.00000000  0.00000000  0.00000000  1
  O  O12  1  0.50000000  0.50000000  0.83280811  1
  O  O13  1  0.00000000  0.00000000  0.16719189  1
  O  O14  1  0.50000000  0.50000000  0.16719189  1
  O  O15  1  0.00000000  0.00000000  0.83280811  1
  O  O16  1  0.81703632  0.31705111  0.00000000  1
  O  O17  1  0.18296368  0.68294889  0.00000000  1
  O  O18  1  0.31703632  0.18294889  0.00000000  1
  O  O19  1  0.68296368  0.81705111  0.00000000  1
  O  O20  1  0.74954456  0.24954316  0.37319252  1
  O  O21  1  0.25045544  0.75045684  0.37319252  1
  O  O22  1  0.24954456  0.25045684  0.62680748  1
  O  O23  1  0.75045544  0.74954316  0.62680748  1
  O  O24  1  0.25045544  0.75045684  0.62680748  1
  O  O25  1  0.74954456  0.24954316  0.62680748  1
  O  O26  1  0.75045544  0.74954316  0.37319252  1
  O  O27  1  0.24954456  0.25045684  0.37319252  1
