# generated using pymatgen
data_Li9Mn2Co5O16
_symmetry_space_group_name_H-M   'P 1'
_cell_length_a   3.03070099
_cell_length_b   10.11650921
_cell_length_c   9.99341710
_cell_angle_alpha   73.59934727
_cell_angle_beta   87.54381968
_cell_angle_gamma   91.55214518
_symmetry_Int_Tables_number   1
_chemical_formula_structural   Li9Mn2Co5O16
_chemical_formula_sum   'Li9 Mn2 Co5 O16'
_cell_volume   293.41655427
_cell_formula_units_Z   1
loop_
 _symmetry_equiv_pos_site_id
 _symmetry_equiv_pos_as_xyz
  1  'x, y, z'
loop_
 _atom_site_type_symbol
 _atom_site_label
 _atom_site_symmetry_multiplicity
 _atom_site_fract_x
 _atom_site_fract_y
 _atom_site_fract_z
 _atom_site_occupancy
  Li  Li0  1  -0.00081997  0.25605346  0.74733349  1
  Li  Li1  1  0.50429503  0.74639256  0.49967097  1
  Li  Li2  1  0.99717581  0.25181399  0.24962380  1
  Li  Li3  1  0.50358058  0.25201895  0.49892384  1
  Li  Li4  1  0.00284610  0.74760291  0.25119393  1
  Li  Li5  1  0.49493697  0.25505393  0.00129493  1
  Li  Li6  1  0.49700540  0.74638652  0.00051108  1
  Li  Li7  1  0.00058317  0.74476583  0.75191160  1
  Li  Li8  1  0.49994955  0.49994835  0.74996774  1
  Mn  Mn9  1  -0.00121481  0.00154144  0.99658807  1
  Mn  Mn10  1  0.50362420  0.00011521  0.25175838  1
  Co  Co11  1  0.00167729  0.99852545  0.50469098  1
  Co  Co12  1  0.50005793  0.49980014  0.25019852  1
  Co  Co13  1  0.00160365  0.49810198  0.50921601  1
  Co  Co14  1  0.99831523  0.50199417  0.99071743  1
  Co  Co15  1  0.49606665  -0.00074651  0.74856412  1
  O  O16  1  0.47282486  0.11649358  0.87072280  1
  O  O17  1  0.99684505  0.61446511  0.60926993  1
  O  O18  1  0.50644841  0.11638613  0.37635564  1
  O  O19  1  0.96957544  0.11249375  0.62733955  1
  O  O20  1  0.47082965  0.61291186  0.37412384  1
  O  O21  1  0.97050026  0.11565426  0.12421689  1
  O  O22  1  0.00373229  0.61017673  0.12027458  1
  O  O23  1  0.47861217  0.61376014  0.88583754  1
  O  O24  1  0.52333930  0.38587319  0.61397085  1
  O  O25  1  0.03207119  0.88434501  0.37805424  1
  O  O26  1  0.52799840  0.38731092  0.12602657  1
  O  O27  1  -0.00408647  0.39025234  0.37932198  1
  O  O28  1  0.53155527  0.88326941  0.12501773  1
  O  O29  1  0.00344856  0.38505285  0.89108085  1
  O  O30  1  0.02689117  0.88794159  0.86940463  1
  O  O31  1  0.48973166  0.88424474  0.62681751  1
