# generated using pymatgen
data_Cu3Mo2O9
_symmetry_space_group_name_H-M   'P 1'
_cell_length_a   7.43041546
_cell_length_b   7.79603709
_cell_length_c   8.08165648
_cell_angle_alpha   66.34593560
_cell_angle_beta   88.95841047
_cell_angle_gamma   66.17340511
_symmetry_Int_Tables_number   1
_chemical_formula_structural   Cu3Mo2O9
_chemical_formula_sum   'Cu6 Mo4 O18'
_cell_volume   386.44513170
_cell_formula_units_Z   2
loop_
 _symmetry_equiv_pos_site_id
 _symmetry_equiv_pos_as_xyz
  1  'x, y, z'
loop_
 _atom_site_type_symbol
 _atom_site_label
 _atom_site_symmetry_multiplicity
 _atom_site_fract_x
 _atom_site_fract_y
 _atom_site_fract_z
 _atom_site_occupancy
  Cu  Cu0  1  0.12824691  0.29316113  0.91127157  1
  Cu  Cu1  1  0.87175309  0.70683887  0.08872843  1
  Cu  Cu2  1  0.08076249  0.64764893  0.47259789  1
  Cu  Cu3  1  0.91923751  0.35235107  0.52740211  1
  Cu  Cu4  1  0.70789338  0.61031095  0.73557770  1
  Cu  Cu5  1  0.29210662  0.38968905  0.26442230  1
  Mo  Mo6  1  0.20581538  0.78318206  0.81486408  1
  Mo  Mo7  1  0.79418462  0.21681794  0.18513592  1
  Mo  Mo8  1  0.56536044  0.16606962  0.70904654  1
  Mo  Mo9  1  0.43463956  0.83393038  0.29095346  1
  O  O10  1  0.96938770  0.49018551  0.66533259  1
  O  O11  1  0.03061230  0.50981449  0.33466741  1
  O  O12  1  0.13454954  0.61009271  0.01851215  1
  O  O13  1  0.86545046  0.38990729  0.98148785  1
  O  O14  1  0.11223595  0.03889434  0.79671974  1
  O  O15  1  0.88776405  0.96110566  0.20328026  1
  O  O16  1  0.11746828  0.78979340  0.60737921  1
  O  O17  1  0.88253172  0.21020660  0.39262079  1
  O  O18  1  0.43617726  0.19698813  0.50690401  1
  O  O19  1  0.56382274  0.80301187  0.49309599  1
  O  O20  1  0.38344919  0.25159361  0.84138172  1
  O  O21  1  0.61655081  0.74840639  0.15861828  1
  O  O22  1  0.69162631  0.33107430  0.65558317  1
  O  O23  1  0.30837369  0.66892570  0.34441683  1
  O  O24  1  0.46980463  0.68637174  0.84019589  1
  O  O25  1  0.53019537  0.31362826  0.15980411  1
  O  O26  1  0.74680938  0.89643867  0.83224957  1
  O  O27  1  0.25319062  0.10356133  0.16775043  1
