# generated using pymatgen
data_Al2(PS3)3
_symmetry_space_group_name_H-M   'P 1'
_cell_length_a   7.26185126
_cell_length_b   10.27667692
_cell_length_c   10.27667692
_cell_angle_alpha   59.97640739
_cell_angle_beta   76.49335726
_cell_angle_gamma   76.49335726
_symmetry_Int_Tables_number   1
_chemical_formula_structural   Al2(PS3)3
_chemical_formula_sum   'Al4 P6 S18'
_cell_volume   639.42064715
_cell_formula_units_Z   2
loop_
 _symmetry_equiv_pos_site_id
 _symmetry_equiv_pos_as_xyz
  1  'x, y, z'
loop_
 _atom_site_type_symbol
 _atom_site_label
 _atom_site_symmetry_multiplicity
 _atom_site_fract_x
 _atom_site_fract_y
 _atom_site_fract_z
 _atom_site_occupancy
  Al  Al0  1  0.50086117  0.48783489  0.16380675  1
  Al  Al1  1  0.49913883  0.83619325  0.51216511  1
  Al  Al2  1  0.50000000  0.18392747  0.81607253  1
  Al  Al3  1  0.50000000  0.83521119  0.16478881  1
  P  P4  1  0.34486144  0.86107630  0.84392604  1
  P  P5  1  0.65513856  0.15607396  0.13892370  1
  P  P6  1  0.34412221  0.51517746  0.51068409  1
  P  P7  1  0.65587779  0.48931591  0.48482254  1
  P  P8  1  0.34357794  0.18203479  0.19009890  1
  P  P9  1  0.65642206  0.80990110  0.81796521  1
  S  S10  1  0.26184209  0.41218880  0.73733275  1
  S  S11  1  0.73815791  0.26266725  0.58781120  1
  S  S12  1  0.28634843  0.73910126  0.08240989  1
  S  S13  1  0.71365157  0.91759011  0.26089874  1
  S  S14  1  0.26901427  0.06587033  0.41648392  1
  S  S15  1  0.73098573  0.58351608  0.93412967  1
  S  S16  1  0.26303762  0.76354389  0.74227574  1
  S  S17  1  0.73696238  0.25772426  0.23645611  1
  S  S18  1  0.27123857  0.42920274  0.39449357  1
  S  S19  1  0.72876143  0.60550643  0.57079726  1
  S  S20  1  0.28509749  0.08396121  0.06919508  1
  S  S21  1  0.71490251  0.93080492  0.91603879  1
  S  S22  1  0.28549879  0.75349951  0.41319864  1
  S  S23  1  0.71450121  0.58680136  0.24650049  1
  S  S24  1  0.26312154  0.40872417  0.09269152  1
  S  S25  1  0.73687846  0.90730848  0.59127583  1
  S  S26  1  0.27136093  0.08770485  0.75756199  1
  S  S27  1  0.72863907  0.24243801  0.91229515  1
