# generated using pymatgen
data_Sc6Ga16Os7
_symmetry_space_group_name_H-M   'P 1'
_cell_length_a   8.81463512
_cell_length_b   8.81463512
_cell_length_c   8.81463512
_cell_angle_alpha   60.00000000
_cell_angle_beta   60.00000000
_cell_angle_gamma   60.00000000
_symmetry_Int_Tables_number   1
_chemical_formula_structural   Sc6Ga16Os7
_chemical_formula_sum   'Sc6 Ga16 Os7'
_cell_volume   484.28165868
_cell_formula_units_Z   1
loop_
 _symmetry_equiv_pos_site_id
 _symmetry_equiv_pos_as_xyz
  1  'x, y, z'
loop_
 _atom_site_type_symbol
 _atom_site_label
 _atom_site_symmetry_multiplicity
 _atom_site_fract_x
 _atom_site_fract_y
 _atom_site_fract_z
 _atom_site_occupancy
  Sc  Sc0  1  0.71660719  0.28339281  0.28339281  1
  Sc  Sc1  1  0.71660719  0.28339281  0.71660719  1
  Sc  Sc2  1  0.71660719  0.71660719  0.28339281  1
  Sc  Sc3  1  0.28339281  0.71660719  0.71660719  1
  Sc  Sc4  1  0.28339281  0.71660719  0.28339281  1
  Sc  Sc5  1  0.28339281  0.28339281  0.71660719  1
  Ga  Ga6  1  0.63442866  0.12185711  0.12185711  1
  Ga  Ga7  1  0.12185711  0.63442866  0.12185711  1
  Ga  Ga8  1  0.12185711  0.12185711  0.63442866  1
  Ga  Ga9  1  0.12185711  0.12185711  0.12185711  1
  Ga  Ga10  1  0.36557134  0.87814289  0.87814289  1
  Ga  Ga11  1  0.87814289  0.36557134  0.87814289  1
  Ga  Ga12  1  0.87814289  0.87814289  0.36557134  1
  Ga  Ga13  1  0.87814289  0.87814289  0.87814289  1
  Ga  Ga14  1  0.97224967  0.34258344  0.34258344  1
  Ga  Ga15  1  0.34258344  0.97224967  0.34258344  1
  Ga  Ga16  1  0.34258344  0.34258344  0.97224967  1
  Ga  Ga17  1  0.34258344  0.34258344  0.34258344  1
  Ga  Ga18  1  0.02775033  0.65741656  0.65741656  1
  Ga  Ga19  1  0.65741656  0.02775033  0.65741656  1
  Ga  Ga20  1  0.65741656  0.65741656  0.02775033  1
  Ga  Ga21  1  0.65741656  0.65741656  0.65741656  1
  Os  Os22  1  0.00000000  0.00000000  0.00000000  1
  Os  Os23  1  0.50000000  0.00000000  0.00000000  1
  Os  Os24  1  0.50000000  0.00000000  0.50000000  1
  Os  Os25  1  0.50000000  0.50000000  0.00000000  1
  Os  Os26  1  0.00000000  0.50000000  0.50000000  1
  Os  Os27  1  0.00000000  0.50000000  0.00000000  1
  Os  Os28  1  0.00000000  0.00000000  0.50000000  1
