# generated using pymatgen
data_H29Pd3S3N9O10
_symmetry_space_group_name_H-M   'P 1'
_cell_length_a   6.93365785
_cell_length_b   10.48486279
_cell_length_c   14.22684651
_cell_angle_alpha   93.15862208
_cell_angle_beta   101.18224208
_cell_angle_gamma   91.84137737
_symmetry_Int_Tables_number   1
_chemical_formula_structural   H29Pd3S3N9O10
_chemical_formula_sum   'H58 Pd6 S6 N18 O20'
_cell_volume   1012.12460391
_cell_formula_units_Z   2
loop_
 _symmetry_equiv_pos_site_id
 _symmetry_equiv_pos_as_xyz
  1  'x, y, z'
loop_
 _atom_site_type_symbol
 _atom_site_label
 _atom_site_symmetry_multiplicity
 _atom_site_fract_x
 _atom_site_fract_y
 _atom_site_fract_z
 _atom_site_occupancy
  H  H0  1  0.67978390  0.43161475  0.55430387  1
  H  H1  1  0.32021610  0.56838525  0.44569613  1
  H  H2  1  0.73151099  0.49432094  0.46342189  1
  H  H3  1  0.26848901  0.50567906  0.53657811  1
  H  H4  1  0.01226131  0.00492213  0.11190614  1
  H  H5  1  0.98773869  0.99507787  0.88809386  1
  H  H6  1  0.92180850  0.99492082  0.21220215  1
  H  H7  1  0.07819150  0.00507918  0.78779785  1
  H  H8  1  0.16160910  0.99498333  0.21737776  1
  H  H9  1  0.83839090  0.00501667  0.78262224  1
  H  H10  1  0.98695699  0.51987127  0.09737528  1
  H  H11  1  0.01304301  0.48012873  0.90262472  1
  H  H12  1  0.88638637  0.53727846  0.19510772  1
  H  H13  1  0.11361363  0.46272154  0.80489228  1
  H  H14  1  0.13289130  0.53933281  0.20577185  1
  H  H15  1  0.86710870  0.46066719  0.79422815  1
  H  H16  1  0.13232736  0.85249257  0.34866654  1
  H  H17  1  0.86767264  0.14750743  0.65133346  1
  H  H18  1  0.97899740  0.72631643  0.34634643  1
  H  H19  1  0.02100260  0.27368357  0.65365357  1
  H  H20  1  0.21219719  0.70682238  0.33221752  1
  H  H21  1  0.78780281  0.29317762  0.66778248  1
  H  H22  1  0.48880574  0.99040196  0.11277290  1
  H  H23  1  0.51119426  0.00959804  0.88722710  1
  H  H24  1  0.58956382  0.89276446  0.03982195  1
  H  H25  1  0.41043618  0.10723554  0.96017805  1
  H  H26  1  0.34721631  0.87734199  0.03934377  1
  H  H27  1  0.65278369  0.12265801  0.96065623  1
  H  H28  1  0.46750188  0.53660822  0.10274394  1
  H  H29  1  0.53249812  0.46339178  0.89725606  1
  H  H30  1  0.57792705  0.62996656  0.03609659  1
  H  H31  1  0.42207295  0.37003344  0.96390341  1
  H  H32  1  0.33745060  0.64361539  0.03596820  1
  H  H33  1  0.66254940  0.35638461  0.96403180  1
  H  H34  1  0.09539528  0.73366191  0.82203323  1
  H  H35  1  0.90460472  0.26633809  0.17796677  1
  H  H36  1  0.17192394  0.64936436  0.73460204  1
  H  H37  1  0.82807606  0.35063564  0.26539796  1
  H  H38  1  0.20888566  0.80722411  0.74664964  1
  H  H39  1  0.79111434  0.19277589  0.25335036  1
  H  H40  1  0.61683287  0.78651016  0.48946756  1
  H  H41  1  0.38316713  0.21348984  0.51053244  1
  H  H42  1  0.48065275  0.72359533  0.55842468  1
  H  H43  1  0.51934725  0.27640467  0.44157532  1
  H  H44  1  0.54963001  0.88221864  0.57477196  1
  H  H45  1  0.45036999  0.11778136  0.42522804  1
  H  H46  1  0.74112928  0.70714930  0.82212618  1
  H  H47  1  0.25887072  0.29285070  0.17787382  1
  H  H48  1  0.58624437  0.63636675  0.73056208  1
  H  H49  1  0.41375563  0.36363325  0.26943792  1
  H  H50  1  0.57630773  0.79367788  0.75631502  1
  H  H51  1  0.42369227  0.20632212  0.24368498  1
  H  H52  1  0.91769826  0.81697012  0.48838111  1
  H  H53  1  0.08230174  0.18302988  0.51161889  1
  H  H54  1  0.10162597  0.73271930  0.54123673  1
  H  H55  1  0.89837403  0.26728070  0.45876327  1
  H  H56  1  0.08800325  0.88969864  0.57530991  1
  H  H57  1  0.91199675  0.11030136  0.42469009  1
  Pd  Pd58  1  0.01101590  0.76365700  0.16557140  1
  Pd  Pd59  1  0.98898410  0.23634300  0.83442860  1
  Pd  Pd60  1  0.54192288  0.77094414  0.19266637  1
  Pd  Pd61  1  0.45807712  0.22905586  0.80733363  1
  Pd  Pd62  1  0.84621515  0.75911906  0.65505235  1
  Pd  Pd63  1  0.15378485  0.24088094  0.34494765  1
  S  S64  1  0.92801318  0.75776431  0.00329721  1
  S  S65  1  0.07198682  0.24223569  0.99670279  1
  S  S66  1  0.58699414  0.61305441  0.30032383  1
  S  S67  1  0.41300586  0.38694559  0.69967617  1
  S  S68  1  0.60554002  0.94276696  0.30513057  1
  S  S69  1  0.39445998  0.05723304  0.69486943  1
  N  N70  1  0.02828982  0.96332515  0.17661000  1
  N  N71  1  0.97171018  0.03667485  0.82339000  1
  N  N72  1  0.00345664  0.56518524  0.16420104  1
  N  N73  1  0.99654336  0.43481476  0.83579896  1
  N  N74  1  0.09232651  0.76315604  0.31754801  1
  N  N75  1  0.90767349  0.23684396  0.68245199  1
  N  N76  1  0.48344613  0.89949041  0.08153522  1
  N  N77  1  0.51655387  0.10050959  0.91846478  1
  N  N78  1  0.47126852  0.62602300  0.07768366  1
  N  N79  1  0.52873148  0.37397700  0.92231634  1
  N  N80  1  0.10816381  0.73340297  0.75072381  1
  N  N81  1  0.89183619  0.26659703  0.24927619  1
  N  N82  1  0.59243898  0.79128096  0.55844831  1
  N  N83  1  0.40756102  0.20871904  0.44155169  1
  N  N84  1  0.66983893  0.71936979  0.75303959  1
  N  N85  1  0.33016107  0.28063021  0.24696041  1
  N  N86  1  0.00859403  0.80431840  0.55302422  1
  N  N87  1  0.99140597  0.19568160  0.44697578  1
  O  O88  1  0.81758273  0.87382126  0.97256482  1
  O  O89  1  0.18241727  0.12617874  0.02743518  1
  O  O90  1  0.80207694  0.63881671  0.96582933  1
  O  O91  1  0.19792306  0.36118329  0.03417067  1
  O  O92  1  0.11320966  0.75425058  0.96211421  1
  O  O93  1  0.88679034  0.24574942  0.03788579  1
  O  O94  1  0.38811333  0.57159990  0.32061361  1
  O  O95  1  0.61188667  0.42840010  0.67938639  1
  O  O96  1  0.66254388  0.49951342  0.25007980  1
  O  O97  1  0.33745612  0.50048658  0.74992020  1
  O  O98  1  0.72601239  0.64750511  0.39333993  1
  O  O99  1  0.27398761  0.35249489  0.60666007  1
  O  O100  1  0.59933465  0.06234105  0.24817116  1
  O  O101  1  0.40066535  0.93765895  0.75182884  1
  O  O102  1  0.44831735  0.94783914  0.36357415  1
  O  O103  1  0.55168265  0.05216086  0.63642585  1
  O  O104  1  0.80478880  0.94293328  0.36893756  1
  O  O105  1  0.19521120  0.05706672  0.63106244  1
  O  O106  1  0.72274323  0.41181904  0.49326500  1
  O  O107  1  0.27725677  0.58818096  0.50673500  1
