# generated using pymatgen
data_NaNbO3
_symmetry_space_group_name_H-M   'P 1'
_cell_length_a   5.61367665
_cell_length_b   5.65392403
_cell_length_c   23.80524220
_cell_angle_alpha   90.00000000
_cell_angle_beta   90.00000000
_cell_angle_gamma   90.00000000
_symmetry_Int_Tables_number   1
_chemical_formula_structural   NaNbO3
_chemical_formula_sum   'Na12 Nb12 O36'
_cell_volume   755.56175490
_cell_formula_units_Z   12
loop_
 _symmetry_equiv_pos_site_id
 _symmetry_equiv_pos_as_xyz
  1  'x, y, z'
loop_
 _atom_site_type_symbol
 _atom_site_label
 _atom_site_symmetry_multiplicity
 _atom_site_fract_x
 _atom_site_fract_y
 _atom_site_fract_z
 _atom_site_occupancy
  Na  Na0  1  0.98855009  0.00527735  0.25000000  1
  Na  Na1  1  0.51144991  0.50527735  0.25000000  1
  Na  Na2  1  0.01144991  0.99472265  0.75000000  1
  Na  Na3  1  0.48855009  0.49472265  0.75000000  1
  Na  Na4  1  0.50383472  0.51734643  0.08435968  1
  Na  Na5  1  0.99616528  0.01734643  0.41564032  1
  Na  Na6  1  0.49616528  0.48265357  0.58435968  1
  Na  Na7  1  0.00383472  0.98265357  0.91564032  1
  Na  Na8  1  0.49616528  0.48265357  0.91564032  1
  Na  Na9  1  0.00383472  0.98265357  0.58435968  1
  Na  Na10  1  0.50383472  0.51734643  0.41564032  1
  Na  Na11  1  0.99616528  0.01734643  0.08435968  1
  Nb  Nb12  1  -0.00000000  0.50000000  0.00000000  1
  Nb  Nb13  1  0.50000000  0.00000000  0.50000000  1
  Nb  Nb14  1  -0.00000000  0.50000000  0.50000000  1
  Nb  Nb15  1  0.50000000  0.00000000  0.00000000  1
  Nb  Nb16  1  0.00587526  0.52188638  0.33326113  1
  Nb  Nb17  1  0.49412474  0.02188638  0.16673887  1
  Nb  Nb18  1  0.99412474  0.47811362  0.83326113  1
  Nb  Nb19  1  0.50587526  0.97811362  0.66673887  1
  Nb  Nb20  1  0.99412474  0.47811362  0.66673887  1
  Nb  Nb21  1  0.50587526  0.97811362  0.83326113  1
  Nb  Nb22  1  0.00587526  0.52188638  0.16673887  1
  Nb  Nb23  1  0.49412474  0.02188638  0.33326113  1
  O  O24  1  0.95018318  0.49418210  0.25000000  1
  O  O25  1  0.54981682  0.99418210  0.25000000  1
  O  O26  1  0.04981682  0.50581790  0.75000000  1
  O  O27  1  0.45018318  0.00581790  0.75000000  1
  O  O28  1  0.44744932  0.98798169  0.08370431  1
  O  O29  1  0.05255068  0.48798169  0.41629569  1
  O  O30  1  0.55255068  0.01201831  0.58370431  1
  O  O31  1  0.94744932  0.51201831  0.91629569  1
  O  O32  1  0.55255068  0.01201831  0.91629569  1
  O  O33  1  0.94744932  0.51201831  0.58370431  1
  O  O34  1  0.44744932  0.98798169  0.41629569  1
  O  O35  1  0.05255068  0.48798169  0.08370431  1
  O  O36  1  0.74448006  0.74392908  0.00951003  1
  O  O37  1  0.75551994  0.24392908  0.49048997  1
  O  O38  1  0.25551994  0.25607092  0.50951003  1
  O  O39  1  0.24448006  0.75607092  0.99048997  1
  O  O40  1  0.25551994  0.25607092  0.99048997  1
  O  O41  1  0.24448006  0.75607092  0.50951003  1
  O  O42  1  0.74448006  0.74392908  0.49048997  1
  O  O43  1  0.75551994  0.24392908  0.00951003  1
  O  O44  1  0.79251936  0.78232912  0.34121176  1
  O  O45  1  0.70748064  0.28232912  0.15878824  1
  O  O46  1  0.20748064  0.21767088  0.84121176  1
  O  O47  1  0.29251936  0.71767088  0.65878824  1
  O  O48  1  0.20748064  0.21767088  0.65878824  1
  O  O49  1  0.29251936  0.71767088  0.84121176  1
  O  O50  1  0.79251936  0.78232912  0.15878824  1
  O  O51  1  0.70748064  0.28232912  0.34121176  1
  O  O52  1  0.79436094  0.80121293  0.67501538  1
  O  O53  1  0.70563906  0.30121293  0.82498462  1
  O  O54  1  0.20563906  0.19878707  0.17501538  1
  O  O55  1  0.29436094  0.69878707  0.32498462  1
  O  O56  1  0.20563906  0.19878707  0.32498462  1
  O  O57  1  0.29436094  0.69878707  0.17501538  1
  O  O58  1  0.79436094  0.80121293  0.82498462  1
  O  O59  1  0.70563906  0.30121293  0.67501538  1
