# generated using pymatgen
data_BaFePHO5
_symmetry_space_group_name_H-M   'P 1'
_cell_length_a   5.10546052
_cell_length_b   8.95122830
_cell_length_c   10.08688641
_cell_angle_alpha   90.00000000
_cell_angle_beta   90.00000000
_cell_angle_gamma   90.00000000
_symmetry_Int_Tables_number   1
_chemical_formula_structural   BaFePHO5
_chemical_formula_sum   'Ba4 Fe4 P4 H4 O20'
_cell_volume   460.97214825
_cell_formula_units_Z   4
loop_
 _symmetry_equiv_pos_site_id
 _symmetry_equiv_pos_as_xyz
  1  'x, y, z'
loop_
 _atom_site_type_symbol
 _atom_site_label
 _atom_site_symmetry_multiplicity
 _atom_site_fract_x
 _atom_site_fract_y
 _atom_site_fract_z
 _atom_site_occupancy
  Ba  Ba0  1  0.21467877  0.51636548  0.96848970  1
  Ba  Ba1  1  0.71467877  0.48363452  0.53151030  1
  Ba  Ba2  1  0.78532123  0.98363452  0.46848970  1
  Ba  Ba3  1  0.28532123  0.01636548  0.03151030  1
  Fe  Fe4  1  0.22249959  0.28551013  0.32769655  1
  Fe  Fe5  1  0.72249959  0.71448987  0.17230345  1
  Fe  Fe6  1  0.77750041  0.21448987  0.82769655  1
  Fe  Fe7  1  0.27750041  0.78551013  0.67230345  1
  P  P8  1  0.72746565  0.32846435  0.15409209  1
  P  P9  1  0.22746565  0.67153565  0.34590791  1
  P  P10  1  0.27253435  0.17153565  0.65409209  1
  P  P11  1  0.77253435  0.82846435  0.84590791  1
  H  H12  1  0.60985277  0.48973056  0.79096673  1
  H  H13  1  0.10985277  0.51026944  0.70903327  1
  H  H14  1  0.39014723  0.01026944  0.29096673  1
  H  H15  1  0.89014723  0.98973056  0.20903327  1
  O  O16  1  0.29219585  0.50304202  0.37030566  1
  O  O17  1  0.79219585  0.49695798  0.12969434  1
  O  O18  1  0.70780415  0.99695798  0.87030566  1
  O  O19  1  0.20780415  0.00304202  0.62969434  1
  O  O20  1  0.80437235  0.28615452  0.29970644  1
  O  O21  1  0.30437235  0.71384548  0.20029356  1
  O  O22  1  0.19562765  0.21384548  0.79970644  1
  O  O23  1  0.69562765  0.78615452  0.70029356  1
  O  O24  1  0.42661214  0.30408718  0.13724111  1
  O  O25  1  0.92661214  0.69591282  0.36275889  1
  O  O26  1  0.57338786  0.19591282  0.63724111  1
  O  O27  1  0.07338786  0.80408718  0.86275889  1
  O  O28  1  0.12104600  0.26380796  0.54905901  1
  O  O29  1  0.62104600  0.73619204  0.95094099  1
  O  O30  1  0.87895400  0.23619204  0.04905901  1
  O  O31  1  0.37895400  0.76380796  0.45094099  1
  O  O32  1  0.77433540  0.43687040  0.80864018  1
  O  O33  1  0.27433540  0.56312960  0.69135982  1
  O  O34  1  0.22566460  0.06312960  0.30864018  1
  O  O35  1  0.72566460  0.93687040  0.19135982  1
