# generated using pymatgen
data_KB3O5
_symmetry_space_group_name_H-M   'P 1'
_cell_length_a   6.56611953
_cell_length_b   6.56611953
_cell_length_c   9.19094554
_cell_angle_alpha   79.59477367
_cell_angle_beta   79.59477367
_cell_angle_gamma   84.74175513
_symmetry_Int_Tables_number   1
_chemical_formula_structural   KB3O5
_chemical_formula_sum   'K4 B12 O20'
_cell_volume   382.61776821
_cell_formula_units_Z   4
loop_
 _symmetry_equiv_pos_site_id
 _symmetry_equiv_pos_as_xyz
  1  'x, y, z'
loop_
 _atom_site_type_symbol
 _atom_site_label
 _atom_site_symmetry_multiplicity
 _atom_site_fract_x
 _atom_site_fract_y
 _atom_site_fract_z
 _atom_site_occupancy
  K  K0  1  0.74012240  0.41620592  0.05870678  1
  K  K1  1  0.58379408  0.25987760  0.44129322  1
  K  K2  1  0.25987760  0.58379408  0.94129322  1
  K  K3  1  0.41620592  0.74012240  0.55870678  1
  B  B4  1  0.20652134  0.20950160  0.26034386  1
  B  B5  1  0.79049840  0.79347866  0.23965614  1
  B  B6  1  0.79347866  0.79049840  0.73965614  1
  B  B7  1  0.20950160  0.20652134  0.76034386  1
  B  B8  1  0.08400828  0.56867713  0.31789832  1
  B  B9  1  0.43132287  0.91599172  0.18210168  1
  B  B10  1  0.91599172  0.43132287  0.68210168  1
  B  B11  1  0.56867713  0.08400828  0.81789832  1
  B  B12  1  0.96547326  0.88188046  0.43583236  1
  B  B13  1  0.11811954  0.03452674  0.06416764  1
  B  B14  1  0.03452674  0.11811954  0.56416764  1
  B  B15  1  0.88188046  0.96547326  0.93583236  1
  O  O16  1  0.06772483  0.09509369  0.39924780  1
  O  O17  1  0.90490631  0.93227517  0.10075220  1
  O  O18  1  0.93227517  0.90490631  0.60075220  1
  O  O19  1  0.09509369  0.06772483  0.89924780  1
  O  O20  1  0.11352198  0.21834528  0.12695413  1
  O  O21  1  0.78165472  0.88647802  0.37304587  1
  O  O22  1  0.88647802  0.78165472  0.87304587  1
  O  O23  1  0.21834528  0.11352198  0.62695413  1
  O  O24  1  0.90710417  0.58815741  0.25343388  1
  O  O25  1  0.41184259  0.09289583  0.24656612  1
  O  O26  1  0.09289583  0.41184259  0.74656612  1
  O  O27  1  0.58815741  0.90710417  0.75343388  1
  O  O28  1  0.23588752  0.41235995  0.29495756  1
  O  O29  1  0.58764005  0.76411248  0.20504244  1
  O  O30  1  0.76411248  0.58764005  0.70504244  1
  O  O31  1  0.41235995  0.23588752  0.79495756  1
  O  O32  1  0.11513895  0.71080455  0.40540992  1
  O  O33  1  0.28919545  0.88486105  0.09459008  1
  O  O34  1  0.88486105  0.28919545  0.59459008  1
  O  O35  1  0.71080455  0.11513895  0.90540992  1
