# generated using pymatgen
data_Cu3Sn
_symmetry_space_group_name_H-M   'P 1'
_cell_length_a   4.33293312
_cell_length_b   5.63910973
_cell_length_c   24.06793504
_cell_angle_alpha   96.72764043
_cell_angle_beta   90.00000000
_cell_angle_gamma   90.00000000
_symmetry_Int_Tables_number   1
_chemical_formula_structural   Cu3Sn
_chemical_formula_sum   'Cu30 Sn10'
_cell_volume   584.02383987
_cell_formula_units_Z   10
loop_
 _symmetry_equiv_pos_site_id
 _symmetry_equiv_pos_as_xyz
  1  'x, y, z'
loop_
 _atom_site_type_symbol
 _atom_site_label
 _atom_site_symmetry_multiplicity
 _atom_site_fract_x
 _atom_site_fract_y
 _atom_site_fract_z
 _atom_site_occupancy
  Cu  Cu0  1  0.25000000  0.06960365  0.13920730  1
  Cu  Cu1  1  0.75000000  0.93039635  0.86079270  1
  Cu  Cu2  1  0.25000000  0.17029936  0.34059873  1
  Cu  Cu3  1  0.75000000  0.82970064  0.65940127  1
  Cu  Cu4  1  0.25000000  0.27052176  0.54104353  1
  Cu  Cu5  1  0.75000000  0.72947824  0.45895647  1
  Cu  Cu6  1  0.25000000  0.37080213  0.74160427  1
  Cu  Cu7  1  0.75000000  0.62919787  0.25839573  1
  Cu  Cu8  1  0.25000000  0.46981785  0.93963570  1
  Cu  Cu9  1  0.75000000  0.53018215  0.06036430  1
  Cu  Cu10  1  0.25000000  0.75336393  0.03117471  1
  Cu  Cu11  1  0.75000000  0.72218922  0.96882529  1
  Cu  Cu12  1  0.75000000  0.24663607  0.96882529  1
  Cu  Cu13  1  0.25000000  0.27781078  0.03117471  1
  Cu  Cu14  1  0.25000000  0.86423782  0.23080016  1
  Cu  Cu15  1  0.75000000  0.63343766  0.76919984  1
  Cu  Cu16  1  0.75000000  0.13576218  0.76919984  1
  Cu  Cu17  1  0.25000000  0.36656234  0.23080016  1
  Cu  Cu18  1  0.25000000  0.96207376  0.43081243  1
  Cu  Cu19  1  0.75000000  0.53126133  0.56918757  1
  Cu  Cu20  1  0.75000000  0.03792624  0.56918757  1
  Cu  Cu21  1  0.25000000  0.46873867  0.43081243  1
  Cu  Cu22  1  0.25000000  0.06157966  0.63097329  1
  Cu  Cu23  1  0.75000000  0.43060637  0.36902671  1
  Cu  Cu24  1  0.75000000  0.93842034  0.36902671  1
  Cu  Cu25  1  0.25000000  0.56939363  0.63097329  1
  Cu  Cu26  1  0.25000000  0.15937390  0.83129707  1
  Cu  Cu27  1  0.75000000  0.32807683  0.16870293  1
  Cu  Cu28  1  0.75000000  0.84062610  0.16870293  1
  Cu  Cu29  1  0.25000000  0.67192317  0.83129707  1
  Sn  Sn30  1  0.25000000  0.96586607  0.93173214  1
  Sn  Sn31  1  0.75000000  0.03413393  0.06826786  1
  Sn  Sn32  1  0.25000000  0.86546127  0.73092255  1
  Sn  Sn33  1  0.75000000  0.13453873  0.26907745  1
  Sn  Sn34  1  0.25000000  0.76547752  0.53095505  1
  Sn  Sn35  1  0.75000000  0.23452248  0.46904495  1
  Sn  Sn36  1  0.25000000  0.66547029  0.33094058  1
  Sn  Sn37  1  0.75000000  0.33452971  0.66905942  1
  Sn  Sn38  1  0.25000000  0.56619246  0.13238492  1
  Sn  Sn39  1  0.75000000  0.43380754  0.86761508  1
