# generated using pymatgen
data_Ca2Co2O5
_symmetry_space_group_name_H-M   'P 1'
_cell_length_a   5.36656105
_cell_length_b   11.14595789
_cell_length_c   14.77482658
_cell_angle_alpha   90.07534877
_cell_angle_beta   90.00000000
_cell_angle_gamma   90.00000000
_symmetry_Int_Tables_number   1
_chemical_formula_structural   Ca2Co2O5
_chemical_formula_sum   'Ca16 Co16 O40'
_cell_volume   883.76233571
_cell_formula_units_Z   8
loop_
 _symmetry_equiv_pos_site_id
 _symmetry_equiv_pos_as_xyz
  1  'x, y, z'
loop_
 _atom_site_type_symbol
 _atom_site_label
 _atom_site_symmetry_multiplicity
 _atom_site_fract_x
 _atom_site_fract_y
 _atom_site_fract_z
 _atom_site_occupancy
  Ca  Ca0  1  0.01324308  0.23920524  0.60511613  1
  Ca  Ca1  1  0.01324308  0.26079476  0.39488387  1
  Ca  Ca2  1  0.98675692  0.76079476  0.39488387  1
  Ca  Ca3  1  0.98675692  0.73920524  0.60511613  1
  Ca  Ca4  1  0.01638389  0.23699321  0.88992077  1
  Ca  Ca5  1  0.01638389  0.26300679  0.11007923  1
  Ca  Ca6  1  0.98361611  0.76300679  0.11007923  1
  Ca  Ca7  1  0.98361611  0.73699321  0.88992077  1
  Ca  Ca8  1  0.48580401  0.01069517  0.89012637  1
  Ca  Ca9  1  0.48580401  0.48930483  0.10987363  1
  Ca  Ca10  1  0.51419599  0.98930483  0.10987363  1
  Ca  Ca11  1  0.51419599  0.51069517  0.89012637  1
  Ca  Ca12  1  0.48734978  0.01073889  0.60508436  1
  Ca  Ca13  1  0.48734978  0.48926111  0.39491564  1
  Ca  Ca14  1  0.51265022  0.98926111  0.39491564  1
  Ca  Ca15  1  0.51265022  0.51073889  0.60508436  1
  Co  Co16  1  0.55260146  0.28299743  0.74599995  1
  Co  Co17  1  0.55260146  0.21700257  0.25400005  1
  Co  Co18  1  0.44739854  0.71700257  0.25400005  1
  Co  Co19  1  0.44739854  0.78299743  0.74599995  1
  Co  Co20  1  0.04557357  0.46900825  0.74735605  1
  Co  Co21  1  0.04557357  0.03099175  0.25264395  1
  Co  Co22  1  0.95442643  0.53099175  0.25264395  1
  Co  Co23  1  0.95442643  0.96900825  0.74735605  1
  Co  Co24  1  -0.00000000  0.50000000  -0.00000000  1
  Co  Co25  1  -0.00000000  0.00000000  -0.00000000  1
  Co  Co26  1  -0.00000000  0.50000000  0.50000000  1
  Co  Co27  1  -0.00000000  0.00000000  0.50000000  1
  Co  Co28  1  0.50607468  0.25000000  -0.00000000  1
  Co  Co29  1  0.49392532  0.75000000  -0.00000000  1
  Co  Co30  1  0.50580590  0.25000000  0.50000000  1
  Co  Co31  1  0.49419410  0.75000000  0.50000000  1
  O  O32  1  0.40864473  0.44194976  0.74822894  1
  O  O33  1  0.40864473  0.05805024  0.25177106  1
  O  O34  1  0.59135527  0.55805024  0.25177106  1
  O  O35  1  0.59135527  0.94194976  0.74822894  1
  O  O36  1  0.91327976  0.30717722  0.74843925  1
  O  O37  1  0.91327976  0.19282278  0.25156075  1
  O  O38  1  0.08672024  0.69282278  0.25156075  1
  O  O39  1  0.08672024  0.80717722  0.74843925  1
  O  O40  1  0.48421944  0.21487318  0.85420937  1
  O  O41  1  0.48421944  0.28512682  0.14579063  1
  O  O42  1  0.51578056  0.78512682  0.14579063  1
  O  O43  1  0.51578056  0.71487318  0.85420937  1
  O  O44  1  0.49601219  0.22081587  0.63347788  1
  O  O45  1  0.49601219  0.27918413  0.36652212  1
  O  O46  1  0.50398781  0.77918413  0.36652212  1
  O  O47  1  0.50398781  0.72081587  0.63347788  1
  O  O48  1  0.97627845  0.53077131  0.63655170  1
  O  O49  1  0.97627845  0.96922869  0.36344830  1
  O  O50  1  0.02372155  0.46922869  0.36344830  1
  O  O51  1  0.02372155  0.03077131  0.63655170  1
  O  O52  1  0.23953214  0.62650842  0.48630913  1
  O  O53  1  0.23953214  0.87349158  0.51369087  1
  O  O54  1  0.76046786  0.37349158  0.51369087  1
  O  O55  1  0.76046786  0.12650842  0.48630913  1
  O  O56  1  0.25497701  0.37814929  0.51683853  1
  O  O57  1  0.25497701  0.12185071  0.48316147  1
  O  O58  1  0.74502299  0.62185071  0.48316147  1
  O  O59  1  0.74502299  0.87814929  0.51683853  1
  O  O60  1  0.24670083  0.63069945  0.01089829  1
  O  O61  1  0.24670083  0.86930055  0.98910171  1
  O  O62  1  0.75329917  0.36930055  0.98910171  1
  O  O63  1  0.75329917  0.13069945  0.01089829  1
  O  O64  1  0.26051376  0.37167907  0.98453123  1
  O  O65  1  0.26051376  0.12832093  0.01546877  1
  O  O66  1  0.73948624  0.62832093  0.01546877  1
  O  O67  1  0.73948624  0.87167907  0.98453123  1
  O  O68  1  0.97554998  0.53079851  0.85820001  1
  O  O69  1  0.97554998  0.96920149  0.14179999  1
  O  O70  1  0.02445002  0.46920149  0.14179999  1
  O  O71  1  0.02445002  0.03079851  0.85820001  1
