# generated using pymatgen
data_NaIn3P5H13O19
_symmetry_space_group_name_H-M   'P 1'
_cell_length_a   12.50731193
_cell_length_b   12.79759707
_cell_length_c   13.23318567
_cell_angle_alpha   90.00000000
_cell_angle_beta   116.99601631
_cell_angle_gamma   90.00000000
_symmetry_Int_Tables_number   1
_chemical_formula_structural   NaIn3P5H13O19
_chemical_formula_sum   'Na4 In12 P20 H52 O76'
_cell_volume   1887.35279170
_cell_formula_units_Z   4
loop_
 _symmetry_equiv_pos_site_id
 _symmetry_equiv_pos_as_xyz
  1  'x, y, z'
loop_
 _atom_site_type_symbol
 _atom_site_label
 _atom_site_symmetry_multiplicity
 _atom_site_fract_x
 _atom_site_fract_y
 _atom_site_fract_z
 _atom_site_occupancy
  Na  Na0  1  0.33226364  0.27649485  0.42338513  1
  Na  Na1  1  0.66773636  0.77649485  0.07661487  1
  Na  Na2  1  0.66773636  0.72350515  0.57661487  1
  Na  Na3  1  0.33226364  0.22350515  0.92338513  1
  In  In4  1  0.09288598  0.28128499  0.97495942  1
  In  In5  1  0.90711402  0.78128499  0.52504058  1
  In  In6  1  0.90711402  0.71871501  0.02504058  1
  In  In7  1  0.09288598  0.21871501  0.47495942  1
  In  In8  1  0.67356116  0.48279505  0.71903950  1
  In  In9  1  0.32643884  0.98279505  0.78096050  1
  In  In10  1  0.32643884  0.51720495  0.28096050  1
  In  In11  1  0.67356116  0.01720495  0.21903950  1
  In  In12  1  0.72375167  0.51048280  0.24266059  1
  In  In13  1  0.27624833  0.01048280  0.25733941  1
  In  In14  1  0.27624833  0.48951720  0.75733941  1
  In  In15  1  0.72375167  0.98951720  0.74266059  1
  P  P16  1  0.36508545  0.25325338  0.20587550  1
  P  P17  1  0.63491455  0.75325338  0.29412450  1
  P  P18  1  0.63491455  0.74674662  0.79412450  1
  P  P19  1  0.36508545  0.24674662  0.70587550  1
  P  P20  1  0.05930452  0.19058722  0.20189985  1
  P  P21  1  0.94069548  0.69058722  0.29810015  1
  P  P22  1  0.94069548  0.80941278  0.79810015  1
  P  P23  1  0.05930452  0.30941278  0.70189985  1
  P  P24  1  0.78897357  0.25016170  0.80075346  1
  P  P25  1  0.21102643  0.75016170  0.69924654  1
  P  P26  1  0.21102643  0.74983830  0.19924654  1
  P  P27  1  0.78897357  0.24983830  0.30075346  1
  P  P28  1  0.62701374  0.48898326  0.44029246  1
  P  P29  1  0.37298626  0.98898326  0.05970754  1
  P  P30  1  0.37298626  0.51101674  0.55970754  1
  P  P31  1  0.62701374  0.01101674  0.94029246  1
  P  P32  1  0.77438882  0.48344808  0.00900030  1
  P  P33  1  0.22561118  0.98344808  0.49099970  1
  P  P34  1  0.22561118  0.51655192  0.99099970  1
  P  P35  1  0.77438882  0.01655192  0.50900030  1
  H  H36  1  0.60663764  0.24101181  0.55960597  1
  H  H37  1  0.39336236  0.74101181  0.94039403  1
  H  H38  1  0.39336236  0.75898819  0.44039403  1
  H  H39  1  0.60663764  0.25898819  0.05960597  1
  H  H40  1  0.54448569  0.16965900  0.44699716  1
  H  H41  1  0.45551431  0.66965900  0.05300284  1
  H  H42  1  0.45551431  0.83034100  0.55300284  1
  H  H43  1  0.54448569  0.33034100  0.94699716  1
  H  H44  1  0.98311170  0.08437808  0.88448119  1
  H  H45  1  0.01688830  0.58437808  0.61551881  1
  H  H46  1  0.01688830  0.91562192  0.11551881  1
  H  H47  1  0.98311170  0.41562192  0.38448119  1
  H  H48  1  0.09870111  0.06484895  0.00588171  1
  H  H49  1  0.90129889  0.56484895  0.49411829  1
  H  H50  1  0.90129889  0.93515105  0.99411829  1
  H  H51  1  0.09870111  0.43515105  0.50588171  1
  H  H52  1  0.91618831  0.46438956  0.84655499  1
  H  H53  1  0.08381169  0.96438956  0.65344501  1
  H  H54  1  0.08381169  0.53561044  0.15344501  1
  H  H55  1  0.91618831  0.03561044  0.34655499  1
  H  H56  1  0.89485225  0.58613202  0.81764477  1
  H  H57  1  0.10514775  0.08613202  0.68235523  1
  H  H58  1  0.10514775  0.41386798  0.18235523  1
  H  H59  1  0.89485225  0.91386798  0.31764477  1
  H  H60  1  0.53044583  0.38910265  0.09481565  1
  H  H61  1  0.46955417  0.88910265  0.40518435  1
  H  H62  1  0.46955417  0.61089735  0.90518435  1
  H  H63  1  0.53044583  0.11089735  0.59481565  1
  H  H64  1  0.46985448  0.47313310  0.14543317  1
  H  H65  1  0.53014552  0.97313310  0.35456683  1
  H  H66  1  0.53014552  0.52686690  0.85456683  1
  H  H67  1  0.46985448  0.02686690  0.64543317  1
  H  H68  1  0.48139025  0.25327811  0.21538811  1
  H  H69  1  0.51860975  0.75327811  0.28461189  1
  H  H70  1  0.51860975  0.74672189  0.78461189  1
  H  H71  1  0.48139025  0.24672189  0.71538811  1
  H  H72  1  0.93710158  0.17850472  0.17382414  1
  H  H73  1  0.06289842  0.67850472  0.32617586  1
  H  H74  1  0.06289842  0.82149528  0.82617586  1
  H  H75  1  0.93710158  0.32149528  0.67382414  1
  H  H76  1  0.72894851  0.23576290  0.86770426  1
  H  H77  1  0.27105149  0.73576290  0.63229574  1
  H  H78  1  0.27105149  0.76423710  0.13229574  1
  H  H79  1  0.72894851  0.26423710  0.36770426  1
  H  H80  1  0.59591029  0.38349791  0.44220788  1
  H  H81  1  0.40408971  0.88349791  0.05779212  1
  H  H82  1  0.40408971  0.61650209  0.55779212  1
  H  H83  1  0.59591029  0.11650209  0.94220788  1
  H  H84  1  0.82933715  0.38786458  0.05796679  1
  H  H85  1  0.17066285  0.88786458  0.44203321  1
  H  H86  1  0.17066285  0.61213542  0.94203321  1
  H  H87  1  0.82933715  0.11213542  0.55796679  1
  O  O88  1  0.35823414  0.16133563  0.27795160  1
  O  O89  1  0.64176586  0.66133563  0.22204840  1
  O  O90  1  0.64176586  0.83866437  0.72204840  1
  O  O91  1  0.35823414  0.33866437  0.77795160  1
  O  O92  1  0.34858611  0.35281524  0.26178373  1
  O  O93  1  0.65141389  0.85281524  0.23821627  1
  O  O94  1  0.65141389  0.64718476  0.73821627  1
  O  O95  1  0.34858611  0.14718476  0.76178373  1
  O  O96  1  0.28203869  0.24544580  0.07667876  1
  O  O97  1  0.71796131  0.74544580  0.42332124  1
  O  O98  1  0.71796131  0.75455420  0.92332124  1
  O  O99  1  0.28203869  0.25455420  0.57667876  1
  O  O100  1  0.12695296  0.22323985  0.32725777  1
  O  O101  1  0.87304704  0.72323985  0.17274223  1
  O  O102  1  0.87304704  0.77676015  0.67274223  1
  O  O103  1  0.12695296  0.27676015  0.82725777  1
  O  O104  1  0.06641334  0.28078934  0.12644045  1
  O  O105  1  0.93358666  0.78078934  0.37355955  1
  O  O106  1  0.93358666  0.71921066  0.87355955  1
  O  O107  1  0.06641334  0.21921066  0.62644045  1
  O  O108  1  0.09984415  0.08435566  0.17537978  1
  O  O109  1  0.90015585  0.58435566  0.32462022  1
  O  O110  1  0.90015585  0.91564434  0.82462022  1
  O  O111  1  0.09984415  0.41564434  0.67537978  1
  O  O112  1  0.81346290  0.14147759  0.76634662  1
  O  O113  1  0.18653710  0.64147759  0.73365338  1
  O  O114  1  0.18653710  0.85852241  0.23365338  1
  O  O115  1  0.81346290  0.35852241  0.26634662  1
  O  O116  1  0.90484548  0.31177654  0.87298356  1
  O  O117  1  0.09515452  0.81177654  0.62701644  1
  O  O118  1  0.09515452  0.68822346  0.12701644  1
  O  O119  1  0.90484548  0.18822346  0.37298356  1
  O  O120  1  0.70509415  0.31716567  0.69684080  1
  O  O121  1  0.29490585  0.81716567  0.80315920  1
  O  O122  1  0.29490585  0.68283433  0.30315920  1
  O  O123  1  0.70509415  0.18283433  0.19684080  1
  O  O124  1  0.66772536  0.53318168  0.56038438  1
  O  O125  1  0.33227464  0.03318168  0.93961562  1
  O  O126  1  0.33227464  0.46681832  0.43961562  1
  O  O127  1  0.66772536  0.96681832  0.06038438  1
  O  O128  1  0.51485610  0.54601461  0.35260251  1
  O  O129  1  0.48514390  0.04601461  0.14739749  1
  O  O130  1  0.48514390  0.45398539  0.64739749  1
  O  O131  1  0.51485610  0.95398539  0.85260251  1
  O  O132  1  0.73061015  0.49004485  0.40730599  1
  O  O133  1  0.26938985  0.99004485  0.09269401  1
  O  O134  1  0.26938985  0.50995515  0.59269401  1
  O  O135  1  0.73061015  0.00995515  0.90730599  1
  O  O136  1  0.67710927  0.45945207  0.88578251  1
  O  O137  1  0.32289073  0.95945207  0.61421749  1
  O  O138  1  0.32289073  0.54054793  0.11421749  1
  O  O139  1  0.67710927  0.04054793  0.38578251  1
  O  O140  1  0.87722948  0.55284897  0.01349843  1
  O  O141  1  0.12277052  0.05284897  0.48650157  1
  O  O142  1  0.12277052  0.44715103  0.98650157  1
  O  O143  1  0.87722948  0.94715103  0.51349843  1
  O  O144  1  0.70998429  0.52485063  0.07567764  1
  O  O145  1  0.29001571  0.02485063  0.42432236  1
  O  O146  1  0.29001571  0.47514937  0.92432236  1
  O  O147  1  0.70998429  0.97514937  0.57567764  1
  O  O148  1  0.53348453  0.20240924  0.50825920  1
  O  O149  1  0.46651547  0.70240924  0.99174080  1
  O  O150  1  0.46651547  0.79759076  0.49174080  1
  O  O151  1  0.53348453  0.29759076  0.00825920  1
  O  O152  1  0.06090667  0.11177990  0.94062939  1
  O  O153  1  0.93909333  0.61177990  0.55937061  1
  O  O154  1  0.93909333  0.88822010  0.05937061  1
  O  O155  1  0.06090667  0.38822010  0.44062939  1
  O  O156  1  0.86995907  0.51450588  0.78609049  1
  O  O157  1  0.13004093  0.01450588  0.71390951  1
  O  O158  1  0.13004093  0.48549412  0.21390951  1
  O  O159  1  0.86995907  0.98549412  0.28609049  1
  O  O160  1  0.54391480  0.43325234  0.16246565  1
  O  O161  1  0.45608520  0.93325234  0.33753435  1
  O  O162  1  0.45608520  0.56674766  0.83753435  1
  O  O163  1  0.54391480  0.06674766  0.66246565  1
