# generated using pymatgen
data_Li9Mn2Co5O16
_symmetry_space_group_name_H-M   'P 1'
_cell_length_a   3.01877192
_cell_length_b   15.57951846
_cell_length_c   6.42240173
_cell_angle_alpha   88.63141513
_cell_angle_beta   76.59937113
_cell_angle_gamma   82.37515626
_symmetry_Int_Tables_number   1
_chemical_formula_structural   Li9Mn2Co5O16
_chemical_formula_sum   'Li9 Mn2 Co5 O16'
_cell_volume   291.22280173
_cell_formula_units_Z   1
loop_
 _symmetry_equiv_pos_site_id
 _symmetry_equiv_pos_as_xyz
  1  'x, y, z'
loop_
 _atom_site_type_symbol
 _atom_site_label
 _atom_site_symmetry_multiplicity
 _atom_site_fract_x
 _atom_site_fract_y
 _atom_site_fract_z
 _atom_site_occupancy
  Li  Li0  1  0.75004474  0.18744893  0.12526447  1
  Li  Li1  1  0.74204729  0.43949232  0.63059012  1
  Li  Li2  1  0.74280333  0.68987328  0.12909548  1
  Li  Li3  1  0.25227493  0.31345565  0.87221735  1
  Li  Li4  1  0.24053314  0.56315056  0.37978033  1
  Li  Li5  1  0.26180564  0.80869480  0.87118379  1
  Li  Li6  1  0.76339169  0.93632059  0.61329639  1
  Li  Li7  1  0.25043626  0.06108115  0.37797687  1
  Li  Li8  1  0.99955602  0.74917398  0.50140703  1
  Mn  Mn9  1  -0.01047816  0.99744333  0.00120932  1
  Mn  Mn10  1  0.51440606  0.37741541  0.24827463  1
  Co  Co11  1  0.00785713  0.24998553  0.50201142  1
  Co  Co12  1  -0.00205994  0.50276718  0.99690279  1
  Co  Co13  1  0.49184297  0.62989785  0.74042266  1
  Co  Co14  1  0.51064503  0.86792770  0.26055648  1
  Co  Co15  1  0.49167159  0.12505089  0.74875255  1
  O  O16  1  0.33627527  0.09201354  0.04865643  1
  O  O17  1  0.41790502  0.34070601  0.54779427  1
  O  O18  1  0.35662162  0.59104893  0.03660118  1
  O  O19  1  0.89666410  0.21631883  0.79653872  1
  O  O20  1  0.85822782  0.46958985  0.29468420  1
  O  O21  1  0.84818430  0.70969357  0.80829789  1
  O  O22  1  0.38219209  0.84821682  0.53378049  1
  O  O23  1  0.85850235  0.96388145  0.29783572  1
  O  O24  1  0.16786408  0.28322185  0.20183010  1
  O  O25  1  0.13286037  0.53661317  0.70662099  1
  O  O26  1  0.14719112  0.78825534  0.19398843  1
  O  O27  1  0.65121341  0.41197768  0.94821590  1
  O  O28  1  0.61567125  0.65067852  0.46708714  1
  O  O29  1  0.63994678  0.90497862  0.96171801  1
  O  O30  1  0.08098587  0.03475634  0.70340108  1
  O  O31  1  0.60291679  0.15887332  0.45400776  1
