# generated using pymatgen
data_Dy2Fe6Co8B
_symmetry_space_group_name_H-M   'P 1'
_cell_length_a   8.68036152
_cell_length_b   8.68036152
_cell_length_c   11.64387173
_cell_angle_alpha   90.00000000
_cell_angle_beta   90.00000000
_cell_angle_gamma   90.00000000
_symmetry_Int_Tables_number   1
_chemical_formula_structural   Dy2Fe6Co8B
_chemical_formula_sum   'Dy8 Fe24 Co32 B4'
_cell_volume   877.35031974
_cell_formula_units_Z   4
loop_
 _symmetry_equiv_pos_site_id
 _symmetry_equiv_pos_as_xyz
  1  'x, y, z'
loop_
 _atom_site_type_symbol
 _atom_site_label
 _atom_site_symmetry_multiplicity
 _atom_site_fract_x
 _atom_site_fract_y
 _atom_site_fract_z
 _atom_site_occupancy
  Dy  Dy0  1  0.23016050  0.76983950  0.50000000  1
  Dy  Dy1  1  0.76983950  0.23016050  0.50000000  1
  Dy  Dy2  1  0.26983950  0.26983950  0.00000000  1
  Dy  Dy3  1  0.73016050  0.73016050  0.00000000  1
  Dy  Dy4  1  0.64470555  0.64470555  0.50000000  1
  Dy  Dy5  1  0.35529445  0.35529445  0.50000000  1
  Dy  Dy6  1  0.85529445  0.14470555  0.00000000  1
  Dy  Dy7  1  0.14470555  0.85529445  0.00000000  1
  Fe  Fe8  1  -0.00000000  0.50000000  0.50000000  1
  Fe  Fe9  1  0.50000000  -0.00000000  0.00000000  1
  Fe  Fe10  1  0.50000000  -0.00000000  0.50000000  1
  Fe  Fe11  1  -0.00000000  0.50000000  0.00000000  1
  Fe  Fe12  1  0.50000000  0.50000000  0.11586707  1
  Fe  Fe13  1  -0.00000000  -0.00000000  0.61586707  1
  Fe  Fe14  1  0.50000000  0.50000000  0.88413293  1
  Fe  Fe15  1  -0.00000000  -0.00000000  0.38413293  1
  Fe  Fe16  1  0.93297973  0.72321689  0.37157456  1
  Fe  Fe17  1  0.06702027  0.27678311  0.37157456  1
  Fe  Fe18  1  0.56702027  0.22321689  0.87157456  1
  Fe  Fe19  1  0.43297973  0.77678311  0.87157456  1
  Fe  Fe20  1  0.06702027  0.27678311  0.62842544  1
  Fe  Fe21  1  0.93297973  0.72321689  0.62842544  1
  Fe  Fe22  1  0.43297973  0.77678311  0.12842544  1
  Fe  Fe23  1  0.56702027  0.22321689  0.12842544  1
  Fe  Fe24  1  0.72321689  0.93297973  0.37157456  1
  Fe  Fe25  1  0.27678311  0.06702027  0.37157456  1
  Fe  Fe26  1  0.22321689  0.56702027  0.87157456  1
  Fe  Fe27  1  0.77678311  0.43297973  0.87157456  1
  Fe  Fe28  1  0.27678311  0.06702027  0.62842544  1
  Fe  Fe29  1  0.72321689  0.93297973  0.62842544  1
  Fe  Fe30  1  0.77678311  0.43297973  0.12842544  1
  Fe  Fe31  1  0.22321689  0.56702027  0.12842544  1
  Co  Co32  1  0.18249442  0.81750558  0.25255066  1
  Co  Co33  1  0.81750558  0.18249442  0.25255066  1
  Co  Co34  1  0.31750558  0.31750558  0.75255066  1
  Co  Co35  1  0.68249442  0.68249442  0.75255066  1
  Co  Co36  1  0.81750558  0.18249442  0.74744934  1
  Co  Co37  1  0.18249442  0.81750558  0.74744934  1
  Co  Co38  1  0.68249442  0.68249442  0.24744934  1
  Co  Co39  1  0.31750558  0.31750558  0.24744934  1
  Co  Co40  1  0.40166057  0.59833943  0.29714550  1
  Co  Co41  1  0.59833943  0.40166057  0.29714550  1
  Co  Co42  1  0.09833943  0.09833943  0.79714550  1
  Co  Co43  1  0.90166057  0.90166057  0.79714550  1
  Co  Co44  1  0.59833943  0.40166057  0.70285450  1
  Co  Co45  1  0.40166057  0.59833943  0.70285450  1
  Co  Co46  1  0.90166057  0.90166057  0.20285450  1
  Co  Co47  1  0.09833943  0.09833943  0.20285450  1
  Co  Co48  1  0.14219308  0.53695456  0.32327360  1
  Co  Co49  1  0.85780692  0.46304544  0.32327360  1
  Co  Co50  1  0.35780692  0.03695456  0.82327360  1
  Co  Co51  1  0.64219308  0.96304544  0.82327360  1
  Co  Co52  1  0.85780692  0.46304544  0.67672640  1
  Co  Co53  1  0.14219308  0.53695456  0.67672640  1
  Co  Co54  1  0.64219308  0.96304544  0.17672640  1
  Co  Co55  1  0.35780692  0.03695456  0.17672640  1
  Co  Co56  1  0.53695456  0.14219308  0.32327360  1
  Co  Co57  1  0.46304544  0.85780692  0.32327360  1
  Co  Co58  1  0.03695456  0.35780692  0.82327360  1
  Co  Co59  1  0.96304544  0.64219308  0.82327360  1
  Co  Co60  1  0.46304544  0.85780692  0.67672640  1
  Co  Co61  1  0.53695456  0.14219308  0.67672640  1
  Co  Co62  1  0.96304544  0.64219308  0.17672640  1
  Co  Co63  1  0.03695456  0.35780692  0.17672640  1
  B  B64  1  0.87387207  0.87387207  0.50000000  1
  B  B65  1  0.12612793  0.12612793  0.50000000  1
  B  B66  1  0.62612793  0.37387207  0.00000000  1
  B  B67  1  0.37387207  0.62612793  0.00000000  1
