# generated using pymatgen
data_Cs3Cu3Cl8O
_symmetry_space_group_name_H-M   'P 1'
_cell_length_a   9.80334772
_cell_length_b   13.82655699
_cell_length_c   13.81870216
_cell_angle_alpha   114.08986207
_cell_angle_beta   90.00000000
_cell_angle_gamma   90.00000000
_symmetry_Int_Tables_number   1
_chemical_formula_structural   Cs3Cu3Cl8O
_chemical_formula_sum   'Cs12 Cu12 Cl32 O4'
_cell_volume   1709.94432169
_cell_formula_units_Z   4
loop_
 _symmetry_equiv_pos_site_id
 _symmetry_equiv_pos_as_xyz
  1  'x, y, z'
loop_
 _atom_site_type_symbol
 _atom_site_label
 _atom_site_symmetry_multiplicity
 _atom_site_fract_x
 _atom_site_fract_y
 _atom_site_fract_z
 _atom_site_occupancy
  Cs  Cs0  1  0.90223146  0.69152307  0.07438965  1
  Cs  Cs1  1  0.40223146  0.30847693  0.42561035  1
  Cs  Cs2  1  0.09776854  0.30847693  0.92561035  1
  Cs  Cs3  1  0.59776854  0.69152307  0.57438965  1
  Cs  Cs4  1  0.88096203  0.43447925  0.30185612  1
  Cs  Cs5  1  0.38096203  0.56552075  0.19814388  1
  Cs  Cs6  1  0.11903797  0.56552075  0.69814388  1
  Cs  Cs7  1  0.61903797  0.43447925  0.80185612  1
  Cs  Cs8  1  0.59497792  0.93254351  0.31163431  1
  Cs  Cs9  1  0.09497792  0.06745649  0.18836569  1
  Cs  Cs10  1  0.40502208  0.06745649  0.68836569  1
  Cs  Cs11  1  0.90502208  0.93254351  0.81163431  1
  Cu  Cu12  1  0.89209975  0.77447637  0.41099971  1
  Cu  Cu13  1  0.39209975  0.22552363  0.08900029  1
  Cu  Cu14  1  0.10790025  0.22552363  0.58900029  1
  Cu  Cu15  1  0.60790025  0.77447637  0.91099971  1
  Cu  Cu16  1  0.15447713  0.73044533  0.49006268  1
  Cu  Cu17  1  0.65447713  0.26955467  0.00993732  1
  Cu  Cu18  1  0.84552287  0.26955467  0.50993732  1
  Cu  Cu19  1  0.34552287  0.73044533  0.99006268  1
  Cu  Cu20  1  0.15295845  0.86540063  0.36517710  1
  Cu  Cu21  1  0.65295845  0.13459937  0.13482290  1
  Cu  Cu22  1  0.84704155  0.13459937  0.63482290  1
  Cu  Cu23  1  0.34704155  0.86540063  0.86517710  1
  Cl  Cl24  1  0.03415288  0.64766730  0.28188958  1
  Cl  Cl25  1  0.53415288  0.35233270  0.21811042  1
  Cl  Cl26  1  0.96584712  0.35233270  0.71811042  1
  Cl  Cl27  1  0.46584712  0.64766730  0.78188958  1
  Cl  Cl28  1  0.95797976  0.91499533  0.30978868  1
  Cl  Cl29  1  0.45797976  0.08500467  0.19021132  1
  Cl  Cl30  1  0.04202024  0.08500467  0.69021132  1
  Cl  Cl31  1  0.54202024  0.91499533  0.80978868  1
  Cl  Cl32  1  0.70585425  0.68604018  0.32497632  1
  Cl  Cl33  1  0.20585425  0.31395982  0.17502368  1
  Cl  Cl34  1  0.29414575  0.31395982  0.67502368  1
  Cl  Cl35  1  0.79414575  0.68604018  0.82497632  1
  Cl  Cl36  1  0.23562630  0.85127493  0.71818164  1
  Cl  Cl37  1  0.73562630  0.14872507  0.78181836  1
  Cl  Cl38  1  0.76437370  0.14872507  0.28181836  1
  Cl  Cl39  1  0.26437370  0.85127493  0.21818164  1
  Cl  Cl40  1  0.33744951  0.81582839  0.43582092  1
  Cl  Cl41  1  0.83744951  0.18417161  0.06417908  1
  Cl  Cl42  1  0.66255049  0.18417161  0.56417908  1
  Cl  Cl43  1  0.16255049  0.81582839  0.93582092  1
  Cl  Cl44  1  0.76423706  0.90369912  0.53565660  1
  Cl  Cl45  1  0.26423706  0.09630088  0.96434340  1
  Cl  Cl46  1  0.23576294  0.09630088  0.46434340  1
  Cl  Cl47  1  0.73576294  0.90369912  0.03565660  1
  Cl  Cl48  1  0.28110372  0.58664929  0.47272863  1
  Cl  Cl49  1  0.78110372  0.41335071  0.02727137  1
  Cl  Cl50  1  0.71889628  0.41335071  0.52727137  1
  Cl  Cl51  1  0.21889628  0.58664929  0.97272863  1
  Cl  Cl52  1  0.95777530  0.67849083  0.55069905  1
  Cl  Cl53  1  0.45777530  0.32150917  0.94930095  1
  Cl  Cl54  1  0.04222470  0.32150917  0.44930095  1
  Cl  Cl55  1  0.54222470  0.67849083  0.05069905  1
  O  O56  1  0.05607315  0.84428425  0.47468464  1
  O  O57  1  0.55607315  0.15571575  0.02531536  1
  O  O58  1  0.94392685  0.15571575  0.52531536  1
  O  O59  1  0.44392685  0.84428425  0.97468464  1
