# generated using pymatgen
data_Tb11Ge10
_symmetry_space_group_name_H-M   'P 1'
_cell_length_a   10.98372445
_cell_length_b   10.98372445
_cell_length_c   11.35561689
_cell_angle_alpha   118.92243690
_cell_angle_beta   118.92243690
_cell_angle_gamma   90.00000000
_symmetry_Int_Tables_number   1
_chemical_formula_structural   Tb11Ge10
_chemical_formula_sum   'Tb22 Ge20'
_cell_volume   999.43115655
_cell_formula_units_Z   2
loop_
 _symmetry_equiv_pos_site_id
 _symmetry_equiv_pos_as_xyz
  1  'x, y, z'
loop_
 _atom_site_type_symbol
 _atom_site_label
 _atom_site_symmetry_multiplicity
 _atom_site_fract_x
 _atom_site_fract_y
 _atom_site_fract_z
 _atom_site_occupancy
  Tb  Tb0  1  0.93811494  0.19036876  0.38073751  1
  Tb  Tb1  1  0.44262257  0.19036876  0.38073751  1
  Tb  Tb2  1  0.19036876  0.44262257  0.38073751  1
  Tb  Tb3  1  0.19036876  0.93811494  0.38073751  1
  Tb  Tb4  1  0.06188506  0.80963124  0.61926249  1
  Tb  Tb5  1  0.55737743  0.80963124  0.61926249  1
  Tb  Tb6  1  0.80963124  0.55737743  0.61926249  1
  Tb  Tb7  1  0.80963124  0.06188506  0.61926249  1
  Tb  Tb8  1  0.82233014  0.17766986  0.00000000  1
  Tb  Tb9  1  0.17766986  0.82233014  0.00000000  1
  Tb  Tb10  1  0.17766986  0.17766986  0.00000000  1
  Tb  Tb11  1  0.82233014  0.82233014  0.00000000  1
  Tb  Tb12  1  0.34009742  0.34009742  0.68019484  1
  Tb  Tb13  1  0.65990258  0.65990258  0.31980516  1
  Tb  Tb14  1  0.07388715  0.39755190  0.79510379  1
  Tb  Tb15  1  0.72121664  0.39755190  0.79510379  1
  Tb  Tb16  1  0.39755190  0.72121664  0.79510379  1
  Tb  Tb17  1  0.39755190  0.07388715  0.79510379  1
  Tb  Tb18  1  0.92611285  0.60244810  0.20489621  1
  Tb  Tb19  1  0.27878336  0.60244810  0.20489621  1
  Tb  Tb20  1  0.60244810  0.27878336  0.20489621  1
  Tb  Tb21  1  0.60244810  0.92611285  0.20489621  1
  Ge  Ge22  1  0.00000000  0.36124287  0.00000000  1
  Ge  Ge23  1  0.00000000  0.63875713  0.00000000  1
  Ge  Ge24  1  0.36124287  0.00000000  0.00000000  1
  Ge  Ge25  1  0.63875713  0.00000000  0.00000000  1
  Ge  Ge26  1  0.11285181  0.11285181  0.22570362  1
  Ge  Ge27  1  0.88714819  0.88714819  0.77429638  1
  Ge  Ge28  1  0.61942730  0.38057270  0.00000000  1
  Ge  Ge29  1  0.38057270  0.61942730  0.00000000  1
  Ge  Ge30  1  0.38057270  0.38057270  0.00000000  1
  Ge  Ge31  1  0.61942730  0.61942730  0.00000000  1
  Ge  Ge32  1  0.75000000  0.25000000  0.50000000  1
  Ge  Ge33  1  0.25000000  0.75000000  0.50000000  1
  Ge  Ge34  1  0.10830034  0.52841587  0.63671621  1
  Ge  Ge35  1  0.52841587  0.10830034  0.63671621  1
  Ge  Ge36  1  0.52841587  0.52841587  0.63671621  1
  Ge  Ge37  1  0.10830034  0.10830034  0.63671621  1
  Ge  Ge38  1  0.89169966  0.47158413  0.36328379  1
  Ge  Ge39  1  0.47158413  0.89169966  0.36328379  1
  Ge  Ge40  1  0.47158413  0.47158413  0.36328379  1
  Ge  Ge41  1  0.89169966  0.89169966  0.36328379  1
