# generated using pymatgen
data_La4PClO8
_symmetry_space_group_name_H-M   'P 1'
_cell_length_a   11.10719845
_cell_length_b   11.80836165
_cell_length_c   14.77848503
_cell_angle_alpha   90.00000000
_cell_angle_beta   103.84257511
_cell_angle_gamma   90.00000000
_symmetry_Int_Tables_number   1
_chemical_formula_structural   La4PClO8
_chemical_formula_sum   'La32 P8 Cl8 O64'
_cell_volume   1882.01891744
_cell_formula_units_Z   8
loop_
 _symmetry_equiv_pos_site_id
 _symmetry_equiv_pos_as_xyz
  1  'x, y, z'
loop_
 _atom_site_type_symbol
 _atom_site_label
 _atom_site_symmetry_multiplicity
 _atom_site_fract_x
 _atom_site_fract_y
 _atom_site_fract_z
 _atom_site_occupancy
  La  La0  1  0.15954357  0.26400242  0.74052042  1
  La  La1  1  0.84045643  0.76400242  0.75947958  1
  La  La2  1  0.84045643  0.73599758  0.25947958  1
  La  La3  1  0.15954357  0.23599758  0.24052042  1
  La  La4  1  0.67108379  0.25226213  0.50139769  1
  La  La5  1  0.32891621  0.75226213  0.99860231  1
  La  La6  1  0.32891621  0.74773787  0.49860231  1
  La  La7  1  0.67108379  0.24773787  0.00139769  1
  La  La8  1  0.42802342  0.99575415  0.86575411  1
  La  La9  1  0.57197658  0.49575415  0.63424589  1
  La  La10  1  0.57197658  0.00424585  0.13424589  1
  La  La11  1  0.42802342  0.50424585  0.36575411  1
  La  La12  1  0.90853857  0.50022984  0.63414651  1
  La  La13  1  0.09146143  0.00022984  0.86585349  1
  La  La14  1  0.09146143  0.49977016  0.36585349  1
  La  La15  1  0.90853857  -0.00022984  0.13414651  1
  La  La16  1  0.57748960  0.99946012  0.62657796  1
  La  La17  1  0.42251040  0.49946012  0.87342204  1
  La  La18  1  0.42251040  0.00053988  0.37342204  1
  La  La19  1  0.57748960  0.50053988  0.12657796  1
  La  La20  1  0.91796681  0.00238651  0.61432699  1
  La  La21  1  0.08203319  0.50238651  0.88567301  1
  La  La22  1  0.08203319  0.99761349  0.38567301  1
  La  La23  1  0.91796681  0.49761349  0.11432699  1
  La  La24  1  0.16785446  0.73905226  0.73577913  1
  La  La25  1  0.83214554  0.23905226  0.76422087  1
  La  La26  1  0.83214554  0.26094774  0.26422087  1
  La  La27  1  0.16785446  0.76094774  0.23577913  1
  La  La28  1  0.67635311  0.73654422  0.50941017  1
  La  La29  1  0.32364689  0.23654422  0.99058983  1
  La  La30  1  0.32364689  0.26345578  0.49058983  1
  La  La31  1  0.67635311  0.76345578  0.00941017  1
  P  P32  1  -0.00160096  0.76234119  0.49964950  1
  P  P33  1  0.00160096  0.26234119  0.00035050  1
  P  P34  1  0.00160096  0.23765881  0.50035050  1
  P  P35  1  -0.00160096  0.73765881  -0.00035050  1
  P  P36  1  0.73191357  0.01631165  0.86685684  1
  P  P37  1  0.26808643  0.51631165  0.63314316  1
  P  P38  1  0.26808643  0.98368835  0.13314316  1
  P  P39  1  0.73191357  0.48368835  0.36685684  1
  Cl  Cl40  1  0.42811222  0.19642980  0.69703393  1
  Cl  Cl41  1  0.57188778  0.69642980  0.80296607  1
  Cl  Cl42  1  0.57188778  0.80357020  0.30296607  1
  Cl  Cl43  1  0.42811222  0.30357020  0.19703393  1
  Cl  Cl44  1  0.33688328  0.92758071  0.65973660  1
  Cl  Cl45  1  0.66311672  0.42758071  0.84026340  1
  Cl  Cl46  1  0.66311672  0.07241929  0.34026340  1
  Cl  Cl47  1  0.33688328  0.57241929  0.15973660  1
  O  O48  1  0.00916813  0.69053603  0.41412635  1
  O  O49  1  0.99083187  0.19053603  0.08587365  1
  O  O50  1  0.99083187  0.30946397  0.58587365  1
  O  O51  1  0.00916813  0.80946397  0.91412635  1
  O  O52  1  0.12955949  0.79278861  0.55773664  1
  O  O53  1  0.87044051  0.29278861  0.94226336  1
  O  O54  1  0.87044051  0.20721139  0.44226336  1
  O  O55  1  0.12955949  0.70721139  0.05773664  1
  O  O56  1  0.92839703  0.87615745  0.46517381  1
  O  O57  1  0.07160297  0.37615745  0.03482619  1
  O  O58  1  0.07160297  0.12384255  0.53482619  1
  O  O59  1  0.92839703  0.62384255  0.96517381  1
  O  O60  1  0.92497625  0.69768111  0.56017143  1
  O  O61  1  0.07502375  0.19768111  0.93982857  1
  O  O62  1  0.07502375  0.30231889  0.43982857  1
  O  O63  1  0.92497625  0.80231889  0.06017143  1
  O  O64  1  0.85195833  0.00629250  0.83164519  1
  O  O65  1  0.14804167  0.50629250  0.66835481  1
  O  O66  1  0.14804167  0.99370750  0.16835481  1
  O  O67  1  0.85195833  0.49370750  0.33164519  1
  O  O68  1  0.75034535  0.97511772  0.96879677  1
  O  O69  1  0.24965465  0.47511772  0.53120323  1
  O  O70  1  0.24965465  0.02488228  0.03120323  1
  O  O71  1  0.75034535  0.52488228  0.46879677  1
  O  O72  1  0.68804831  0.14204826  0.85766670  1
  O  O73  1  0.31195169  0.64204826  0.64233330  1
  O  O74  1  0.31195169  0.85795174  0.14233330  1
  O  O75  1  0.68804831  0.35795174  0.35766670  1
  O  O76  1  0.62623595  0.94623915  0.80219472  1
  O  O77  1  0.37376405  0.44623915  0.69780528  1
  O  O78  1  0.37376405  0.05376085  0.19780528  1
  O  O79  1  0.62623595  0.55376085  0.30219472  1
  O  O80  1  0.26308431  0.86864135  0.86040754  1
  O  O81  1  0.73691569  0.36864135  0.63959246  1
  O  O82  1  0.73691569  0.13135865  0.13959246  1
  O  O83  1  0.26308431  0.63135865  0.36040754  1
  O  O84  1  0.74893168  0.12057652  0.62515507  1
  O  O85  1  0.25106832  0.62057652  0.87484493  1
  O  O86  1  0.25106832  0.87942348  0.37484493  1
  O  O87  1  0.74893168  0.37942348  0.12515507  1
  O  O88  1  0.50152494  0.62317256  0.50325004  1
  O  O89  1  0.49847506  0.12317256  0.99674996  1
  O  O90  1  0.49847506  0.37682744  0.49674996  1
  O  O91  1  0.50152494  0.87682744  0.00325004  1
  O  O92  1  0.74931319  0.87399728  0.62615268  1
  O  O93  1  0.25068681  0.37399728  0.87384732  1
  O  O94  1  0.25068681  0.12600272  0.37384732  1
  O  O95  1  0.74931319  0.62600272  0.12615268  1
  O  O96  1  0.49711321  0.12756641  0.49669981  1
  O  O97  1  0.50288679  0.62756641  0.00330019  1
  O  O98  1  0.50288679  0.87243359  0.50330019  1
  O  O99  1  0.49711321  0.37243359  0.99669981  1
  O  O100  1  0.73555365  0.62502720  0.64825088  1
  O  O101  1  0.26444635  0.12502720  0.85174912  1
  O  O102  1  0.26444635  0.37497280  0.35174912  1
  O  O103  1  0.73555365  0.87497280  0.14825088  1
  O  O104  1  0.00870262  0.12752145  0.73740246  1
  O  O105  1  0.99129738  0.62752145  0.76259754  1
  O  O106  1  0.99129738  0.87247855  0.26259754  1
  O  O107  1  0.00870262  0.37247855  0.23740246  1
  O  O108  1  0.01111505  0.87640920  0.72912673  1
  O  O109  1  0.98888495  0.37640920  0.77087327  1
  O  O110  1  0.98888495  0.12359080  0.27087327  1
  O  O111  1  0.01111505  0.62359080  0.22912673  1
