# generated using pymatgen
data_Li9Mn2Co5O16
_symmetry_space_group_name_H-M   'P 1'
_cell_length_a   3.01644588
_cell_length_b   15.57842499
_cell_length_c   6.40991856
_cell_angle_alpha   88.60543345
_cell_angle_beta   76.64119888
_cell_angle_gamma   82.26033214
_symmetry_Int_Tables_number   1
_chemical_formula_structural   Li9Mn2Co5O16
_chemical_formula_sum   'Li9 Mn2 Co5 O16'
_cell_volume   290.38452336
_cell_formula_units_Z   1
loop_
 _symmetry_equiv_pos_site_id
 _symmetry_equiv_pos_as_xyz
  1  'x, y, z'
loop_
 _atom_site_type_symbol
 _atom_site_label
 _atom_site_symmetry_multiplicity
 _atom_site_fract_x
 _atom_site_fract_y
 _atom_site_fract_z
 _atom_site_occupancy
  Li  Li0  1  0.74666664  0.18869695  0.12196495  1
  Li  Li1  1  0.74249813  0.43904355  0.62828634  1
  Li  Li2  1  0.76172455  0.68645511  0.11459822  1
  Li  Li3  1  0.24380107  0.31333110  0.88144537  1
  Li  Li4  1  0.25881012  0.55930205  0.37143254  1
  Li  Li5  1  0.25125869  0.81142012  0.87865329  1
  Li  Li6  1  0.75119467  0.93751517  0.62176486  1
  Li  Li7  1  0.24651722  0.06349842  0.38021975  1
  Li  Li8  1  0.00028533  0.49924777  0.00054485  1
  Mn  Mn9  1  0.00615388  0.00188110  0.00051131  1
  Mn  Mn10  1  -0.00577000  0.74762059  0.50193528  1
  Co  Co11  1  -0.00004282  0.25053479  0.49610308  1
  Co  Co12  1  0.49981067  0.38047048  0.24299214  1
  Co  Co13  1  0.50914267  0.61803969  0.76063487  1
  Co  Co14  1  0.49993089  0.87467931  0.25057724  1
  Co  Co15  1  0.49176264  0.12680430  0.74673790  1
  O  O16  1  0.35856103  0.09413499  0.04578623  1
  O  O17  1  0.40155151  0.34224226  0.53746717  1
  O  O18  1  0.38099161  0.59829109  0.03428420  1
  O  O19  1  0.84379241  0.21611656  0.79384062  1
  O  O20  1  0.86444246  0.46056087  0.30677288  1
  O  O21  1  0.85876421  0.71389212  0.79850482  1
  O  O22  1  0.34502020  0.84231347  0.54838680  1
  O  O23  1  0.90719292  0.96570258  0.29929797  1
  O  O24  1  0.14774615  0.28473488  0.20485579  1
  O  O25  1  0.14282930  0.53891446  0.69381449  1
  O  O26  1  0.09140838  0.78410827  0.20344843  1
  O  O27  1  0.62016529  0.40042538  0.96778655  1
  O  O28  1  0.63770145  0.65506760  0.46135951  1
  O  O29  1  0.65778703  0.90754335  0.95297453  1
  O  O30  1  0.14700667  0.03651291  0.69971351  1
  O  O31  1  0.59129500  0.16090170  0.45330455  1
