# generated using pymatgen
data_NaH4ClO6
_symmetry_space_group_name_H-M   'P 1'
_cell_length_a   7.96713122
_cell_length_b   10.49207419
_cell_length_c   14.17907310
_cell_angle_alpha   90.00000000
_cell_angle_beta   90.00000000
_cell_angle_gamma   90.00000000
_symmetry_Int_Tables_number   1
_chemical_formula_structural   NaH4ClO6
_chemical_formula_sum   'Na8 H32 Cl8 O48'
_cell_volume   1185.25327634
_cell_formula_units_Z   8
loop_
 _symmetry_equiv_pos_site_id
 _symmetry_equiv_pos_as_xyz
  1  'x, y, z'
loop_
 _atom_site_type_symbol
 _atom_site_label
 _atom_site_symmetry_multiplicity
 _atom_site_fract_x
 _atom_site_fract_y
 _atom_site_fract_z
 _atom_site_occupancy
  Na  Na0  1  0.07558592  0.83736131  0.99109398  1
  Na  Na1  1  0.42441408  0.33736131  0.00890602  1
  Na  Na2  1  0.57558592  0.16263869  0.50890602  1
  Na  Na3  1  0.92441408  0.66263869  0.49109398  1
  Na  Na4  1  0.92441408  0.16263869  0.00890602  1
  Na  Na5  1  0.57558592  0.66263869  0.99109398  1
  Na  Na6  1  0.42441408  0.83736131  0.49109398  1
  Na  Na7  1  0.07558592  0.33736131  0.50890602  1
  H  H8  1  0.93858281  0.95500862  0.15500963  1
  H  H9  1  0.56141719  0.45500862  0.84499037  1
  H  H10  1  0.43858281  0.04499138  0.34499037  1
  H  H11  1  0.06141719  0.54499138  0.65500963  1
  H  H12  1  0.06141719  0.04499138  0.84499037  1
  H  H13  1  0.43858281  0.54499138  0.15500963  1
  H  H14  1  0.56141719  0.95500862  0.65500963  1
  H  H15  1  0.93858281  0.45500862  0.34499037  1
  H  H16  1  0.78285249  0.93111891  0.09079045  1
  H  H17  1  0.71714751  0.43111891  0.90920955  1
  H  H18  1  0.28285249  0.06888109  0.40920955  1
  H  H19  1  0.21714751  0.56888109  0.59079045  1
  H  H20  1  0.21714751  0.06888109  0.90920955  1
  H  H21  1  0.28285249  0.56888109  0.09079045  1
  H  H22  1  0.71714751  0.93111891  0.59079045  1
  H  H23  1  0.78285249  0.43111891  0.40920955  1
  H  H24  1  0.84806196  0.71365934  0.85589472  1
  H  H25  1  0.65193804  0.21365934  0.14410528  1
  H  H26  1  0.34806196  0.28634066  0.64410528  1
  H  H27  1  0.15193804  0.78634066  0.35589472  1
  H  H28  1  0.15193804  0.28634066  0.14410528  1
  H  H29  1  0.34806196  0.78634066  0.85589472  1
  H  H30  1  0.65193804  0.71365934  0.35589472  1
  H  H31  1  0.84806196  0.21365934  0.64410528  1
  H  H32  1  0.76761482  0.84511837  0.87733563  1
  H  H33  1  0.73238518  0.34511837  0.12266437  1
  H  H34  1  0.26761482  0.15488163  0.62266437  1
  H  H35  1  0.23238518  0.65488163  0.37733563  1
  H  H36  1  0.23238518  0.15488163  0.12266437  1
  H  H37  1  0.26761482  0.65488163  0.87733563  1
  H  H38  1  0.73238518  0.84511837  0.37733563  1
  H  H39  1  0.76761482  0.34511837  0.62266437  1
  Cl  Cl40  1  0.93221288  0.59143705  0.15060882  1
  Cl  Cl41  1  0.56778712  0.09143705  0.84939118  1
  Cl  Cl42  1  0.43221288  0.40856295  0.34939118  1
  Cl  Cl43  1  0.06778712  0.90856295  0.65060882  1
  Cl  Cl44  1  0.06778712  0.40856295  0.84939118  1
  Cl  Cl45  1  0.43221288  0.90856295  0.15060882  1
  Cl  Cl46  1  0.56778712  0.59143705  0.65060882  1
  Cl  Cl47  1  0.93221288  0.09143705  0.34939118  1
  O  O48  1  0.05702009  0.63735347  0.08173423  1
  O  O49  1  0.44297991  0.13735347  0.91826577  1
  O  O50  1  0.55702009  0.36264653  0.41826577  1
  O  O51  1  0.94297991  0.86264653  0.58173423  1
  O  O52  1  0.94297991  0.36264653  0.91826577  1
  O  O53  1  0.55702009  0.86264653  0.08173423  1
  O  O54  1  0.44297991  0.63735347  0.58173423  1
  O  O55  1  0.05702009  0.13735347  0.41826577  1
  O  O56  1  0.90460198  0.68792001  0.22236630  1
  O  O57  1  0.59539802  0.18792001  0.77763370  1
  O  O58  1  0.40460198  0.31207999  0.27763370  1
  O  O59  1  0.09539802  0.81207999  0.72236630  1
  O  O60  1  0.09539802  0.31207999  0.77763370  1
  O  O61  1  0.40460198  0.81207999  0.22236630  1
  O  O62  1  0.59539802  0.68792001  0.72236630  1
  O  O63  1  0.90460198  0.18792001  0.27763370  1
  O  O64  1  0.77533672  0.56324488  0.10120451  1
  O  O65  1  0.72466328  0.06324488  0.89879549  1
  O  O66  1  0.27533672  0.43675512  0.39879549  1
  O  O67  1  0.22466328  0.93675512  0.60120451  1
  O  O68  1  0.22466328  0.43675512  0.89879549  1
  O  O69  1  0.27533672  0.93675512  0.10120451  1
  O  O70  1  0.72466328  0.56324488  0.60120451  1
  O  O71  1  0.77533672  0.06324488  0.39879549  1
  O  O72  1  0.99467477  0.47389310  0.19399644  1
  O  O73  1  0.50532523  0.97389310  0.80600356  1
  O  O74  1  0.49467477  0.52610690  0.30600356  1
  O  O75  1  0.00532523  0.02610690  0.69399644  1
  O  O76  1  0.00532523  0.52610690  0.80600356  1
  O  O77  1  0.49467477  0.02610690  0.19399644  1
  O  O78  1  0.50532523  0.47389310  0.69399644  1
  O  O79  1  0.99467477  0.97389310  0.30600356  1
  O  O80  1  0.81372690  0.76908129  0.90778008  1
  O  O81  1  0.68627310  0.26908129  0.09221992  1
  O  O82  1  0.31372690  0.23091871  0.59221992  1
  O  O83  1  0.18627310  0.73091871  0.40778008  1
  O  O84  1  0.18627310  0.23091871  0.09221992  1
  O  O85  1  0.31372690  0.73091871  0.90778008  1
  O  O86  1  0.68627310  0.76908129  0.40778008  1
  O  O87  1  0.81372690  0.26908129  0.59221992  1
  O  O88  1  0.89944257  0.96122432  0.08969766  1
  O  O89  1  0.60055743  0.46122432  0.91030234  1
  O  O90  1  0.39944257  0.03877568  0.41030234  1
  O  O91  1  0.10055743  0.53877568  0.58969766  1
  O  O92  1  0.10055743  0.03877568  0.91030234  1
  O  O93  1  0.39944257  0.53877568  0.08969766  1
  O  O94  1  0.60055743  0.96122432  0.58969766  1
  O  O95  1  0.89944257  0.46122432  0.41030234  1
