# generated using pymatgen
data_Ca5Cr3O12
_symmetry_space_group_name_H-M   'P 1'
_cell_length_a   6.80110217
_cell_length_b   10.41697296
_cell_length_c   16.22068562
_cell_angle_alpha   90.00000000
_cell_angle_beta   90.00000000
_cell_angle_gamma   90.00000000
_symmetry_Int_Tables_number   1
_chemical_formula_structural   Ca5Cr3O12
_chemical_formula_sum   'Ca20 Cr12 O48'
_cell_volume   1149.18524993
_cell_formula_units_Z   4
loop_
 _symmetry_equiv_pos_site_id
 _symmetry_equiv_pos_as_xyz
  1  'x, y, z'
loop_
 _atom_site_type_symbol
 _atom_site_label
 _atom_site_symmetry_multiplicity
 _atom_site_fract_x
 _atom_site_fract_y
 _atom_site_fract_z
 _atom_site_occupancy
  Ca  Ca0  1  0.96108837  0.32319461  0.25000000  1
  Ca  Ca1  1  0.46108837  0.17680539  0.25000000  1
  Ca  Ca2  1  0.03891163  0.67680539  0.75000000  1
  Ca  Ca3  1  0.53891163  0.82319461  0.75000000  1
  Ca  Ca4  1  0.37464814  0.56661169  0.59252380  1
  Ca  Ca5  1  0.87464814  0.93338831  0.90747620  1
  Ca  Ca6  1  0.62535186  0.43338831  0.09252380  1
  Ca  Ca7  1  0.12535186  0.06661169  0.40747620  1
  Ca  Ca8  1  0.62535186  0.43338831  0.40747620  1
  Ca  Ca9  1  0.12535186  0.06661169  0.09252380  1
  Ca  Ca10  1  0.37464814  0.56661169  0.90747620  1
  Ca  Ca11  1  0.87464814  0.93338831  0.59252380  1
  Ca  Ca12  1  0.31935760  0.16640243  0.60636669  1
  Ca  Ca13  1  0.81935760  0.33359757  0.89363331  1
  Ca  Ca14  1  0.68064240  0.83359757  0.10636669  1
  Ca  Ca15  1  0.18064240  0.66640243  0.39363331  1
  Ca  Ca16  1  0.68064240  0.83359757  0.39363331  1
  Ca  Ca17  1  0.18064240  0.66640243  0.10636669  1
  Ca  Ca18  1  0.31935760  0.16640243  0.89363331  1
  Ca  Ca19  1  0.81935760  0.33359757  0.60636669  1
  Cr  Cr20  1  0.63886154  0.12965492  0.42849840  1
  Cr  Cr21  1  0.13886154  0.37034508  0.07150160  1
  Cr  Cr22  1  0.36113846  0.87034508  0.92849840  1
  Cr  Cr23  1  0.86113846  0.62965492  0.57150160  1
  Cr  Cr24  1  0.36113846  0.87034508  0.57150160  1
  Cr  Cr25  1  0.86113846  0.62965492  0.92849840  1
  Cr  Cr26  1  0.63886154  0.12965492  0.07150160  1
  Cr  Cr27  1  0.13886154  0.37034508  0.42849840  1
  Cr  Cr28  1  0.47473777  0.57839586  0.25000000  1
  Cr  Cr29  1  0.97473777  0.92160414  0.25000000  1
  Cr  Cr30  1  0.52526223  0.42160414  0.75000000  1
  Cr  Cr31  1  0.02526223  0.07839586  0.75000000  1
  O  O32  1  0.22428997  0.58738677  0.25000000  1
  O  O33  1  0.72428997  0.91261323  0.25000000  1
  O  O34  1  0.77571003  0.41261323  0.75000000  1
  O  O35  1  0.27571003  0.08738677  0.75000000  1
  O  O36  1  0.57879943  0.42707151  0.25000000  1
  O  O37  1  0.07879943  0.07292849  0.25000000  1
  O  O38  1  0.42120057  0.57292849  0.75000000  1
  O  O39  1  0.92120057  0.92707151  0.75000000  1
  O  O40  1  0.81252242  0.01418244  0.46122946  1
  O  O41  1  0.31252242  0.48581756  0.03877054  1
  O  O42  1  0.18747758  0.98581756  0.96122946  1
  O  O43  1  0.68747758  0.51418244  0.53877054  1
  O  O44  1  0.18747758  0.98581756  0.53877054  1
  O  O45  1  0.68747758  0.51418244  0.96122946  1
  O  O46  1  0.81252242  0.01418244  0.03877054  1
  O  O47  1  0.31252242  0.48581756  0.46122946  1
  O  O48  1  0.72733323  0.22819183  0.34762037  1
  O  O49  1  0.22733323  0.27180817  0.15237963  1
  O  O50  1  0.27266677  0.77180817  0.84762037  1
  O  O51  1  0.77266677  0.72819183  0.65237963  1
  O  O52  1  0.27266677  0.77180817  0.65237963  1
  O  O53  1  0.77266677  0.72819183  0.84762037  1
  O  O54  1  0.72733323  0.22819183  0.15237963  1
  O  O55  1  0.22733323  0.27180817  0.34762037  1
  O  O56  1  0.45879991  0.03451747  0.37999978  1
  O  O57  1  0.95879991  0.46548253  0.12000022  1
  O  O58  1  0.54120009  0.96548253  0.87999978  1
  O  O59  1  0.04120009  0.53451747  0.62000022  1
  O  O60  1  0.54120009  0.96548253  0.62000022  1
  O  O61  1  0.04120009  0.53451747  0.87999978  1
  O  O62  1  0.45879991  0.03451747  0.12000022  1
  O  O63  1  0.95879991  0.46548253  0.37999978  1
  O  O64  1  0.57349118  0.23217145  0.50959661  1
  O  O65  1  0.07349118  0.26782855  0.99040339  1
  O  O66  1  0.42650882  0.76782855  0.00959661  1
  O  O67  1  0.92650882  0.73217145  0.49040339  1
  O  O68  1  0.42650882  0.76782855  0.49040339  1
  O  O69  1  0.92650882  0.73217145  0.00959661  1
  O  O70  1  0.57349118  0.23217145  0.99040339  1
  O  O71  1  0.07349118  0.26782855  0.50959661  1
  O  O72  1  0.54357502  0.64540532  0.15677523  1
  O  O73  1  0.04357502  0.85459468  0.34322477  1
  O  O74  1  0.45642498  0.35459468  0.65677523  1
  O  O75  1  0.95642498  0.14540532  0.84322477  1
  O  O76  1  0.45642498  0.35459468  0.84322477  1
  O  O77  1  0.95642498  0.14540532  0.65677523  1
  O  O78  1  0.54357502  0.64540532  0.34322477  1
  O  O79  1  0.04357502  0.85459468  0.15677523  1
