# generated using pymatgen
data_CsNO3
_symmetry_space_group_name_H-M   'P 1'
_cell_length_a   9.30429759
_cell_length_b   9.30429759
_cell_length_c   9.30429759
_cell_angle_alpha   90.00000000
_cell_angle_beta   90.00000000
_cell_angle_gamma   90.00000000
_symmetry_Int_Tables_number   1
_chemical_formula_structural   CsNO3
_chemical_formula_sum   'Cs8 N8 O24'
_cell_volume   805.47261105
_cell_formula_units_Z   8
loop_
 _symmetry_equiv_pos_site_id
 _symmetry_equiv_pos_as_xyz
  1  'x, y, z'
loop_
 _atom_site_type_symbol
 _atom_site_label
 _atom_site_symmetry_multiplicity
 _atom_site_fract_x
 _atom_site_fract_y
 _atom_site_fract_z
 _atom_site_occupancy
  Cs  Cs0  1  0.50000000  0.50000000  0.00000000  1
  Cs  Cs1  1  0.50000000  -0.00000000  0.50000000  1
  Cs  Cs2  1  -0.00000000  0.50000000  0.50000000  1
  Cs  Cs3  1  -0.00000000  -0.00000000  0.00000000  1
  Cs  Cs4  1  -0.00000000  -0.00000000  0.50000000  1
  Cs  Cs5  1  -0.00000000  0.50000000  0.00000000  1
  Cs  Cs6  1  0.50000000  -0.00000000  0.00000000  1
  Cs  Cs7  1  0.50000000  0.50000000  0.50000000  1
  N  N8  1  0.22408719  0.77591281  0.27591281  1
  N  N9  1  0.77591281  0.27591281  0.22408719  1
  N  N10  1  0.27591281  0.22408719  0.77591281  1
  N  N11  1  0.72408719  0.72408719  0.72408719  1
  N  N12  1  0.77591281  0.22408719  0.72408719  1
  N  N13  1  0.22408719  0.72408719  0.77591281  1
  N  N14  1  0.72408719  0.77591281  0.22408719  1
  N  N15  1  0.27591281  0.27591281  0.27591281  1
  O  O16  1  0.11150724  0.72181751  0.22090273  1
  O  O17  1  0.88849276  0.22181751  0.27909727  1
  O  O18  1  0.38849276  0.27818249  0.72090273  1
  O  O19  1  0.61150724  0.77818249  0.77909727  1
  O  O20  1  0.22090273  0.11150724  0.72181751  1
  O  O21  1  0.27909727  0.88849276  0.22181751  1
  O  O22  1  0.72090273  0.38849276  0.27818249  1
  O  O23  1  0.77909727  0.61150724  0.77818249  1
  O  O24  1  0.72181751  0.22090273  0.11150724  1
  O  O25  1  0.22181751  0.27909727  0.88849276  1
  O  O26  1  0.27818249  0.72090273  0.38849276  1
  O  O27  1  0.77818249  0.77909727  0.61150724  1
  O  O28  1  0.88849276  0.27818249  0.77909727  1
  O  O29  1  0.11150724  0.77818249  0.72090273  1
  O  O30  1  0.61150724  0.72181751  0.27909727  1
  O  O31  1  0.38849276  0.22181751  0.22090273  1
  O  O32  1  0.77909727  0.88849276  0.27818249  1
  O  O33  1  0.72090273  0.11150724  0.77818249  1
  O  O34  1  0.27909727  0.61150724  0.72181751  1
  O  O35  1  0.22090273  0.38849276  0.22181751  1
  O  O36  1  0.27818249  0.77909727  0.88849276  1
  O  O37  1  0.77818249  0.72090273  0.11150724  1
  O  O38  1  0.72181751  0.27909727  0.61150724  1
  O  O39  1  0.22181751  0.22090273  0.38849276  1
