# generated using pymatgen
data_ZrU2S5
_symmetry_space_group_name_H-M   'P 1'
_cell_length_a   7.25008981
_cell_length_b   7.77357561
_cell_length_c   11.44948924
_cell_angle_alpha   90.00000000
_cell_angle_beta   90.00000000
_cell_angle_gamma   90.00000000
_symmetry_Int_Tables_number   1
_chemical_formula_structural   ZrU2S5
_chemical_formula_sum   'Zr4 U8 S20'
_cell_volume   645.28315310
_cell_formula_units_Z   4
loop_
 _symmetry_equiv_pos_site_id
 _symmetry_equiv_pos_as_xyz
  1  'x, y, z'
loop_
 _atom_site_type_symbol
 _atom_site_label
 _atom_site_symmetry_multiplicity
 _atom_site_fract_x
 _atom_site_fract_y
 _atom_site_fract_z
 _atom_site_occupancy
  Zr  Zr0  1  0.41893037  0.75000000  0.00609742  1
  Zr  Zr1  1  0.08106963  0.75000000  0.50609742  1
  Zr  Zr2  1  0.58106963  0.25000000  0.99390258  1
  Zr  Zr3  1  0.91893037  0.25000000  0.49390258  1
  U  U4  1  0.97047771  0.00056382  0.17898710  1
  U  U5  1  0.52952229  0.49943618  0.67898710  1
  U  U6  1  0.02952229  0.50056382  0.82101290  1
  U  U7  1  0.47047771  0.99943618  0.32101290  1
  U  U8  1  0.02952229  0.99943618  0.82101290  1
  U  U9  1  0.47047771  0.50056382  0.32101290  1
  U  U10  1  0.97047771  0.49943618  0.17898710  1
  U  U11  1  0.52952229  0.00056382  0.67898710  1
  S  S12  1  0.66609007  0.54090486  0.90833720  1
  S  S13  1  0.83390993  0.95909514  0.40833720  1
  S  S14  1  0.33390993  0.04090486  0.09166280  1
  S  S15  1  0.16609007  0.45909514  0.59166280  1
  S  S16  1  0.33390993  0.45909514  0.09166280  1
  S  S17  1  0.16609007  0.04090486  0.59166280  1
  S  S18  1  0.66609007  0.95909514  0.90833720  1
  S  S19  1  0.83390993  0.54090486  0.40833720  1
  S  S20  1  0.66414686  0.75000000  0.18451371  1
  S  S21  1  0.83585314  0.75000000  0.68451371  1
  S  S22  1  0.33585314  0.25000000  0.81548629  1
  S  S23  1  0.16414686  0.25000000  0.31548629  1
  S  S24  1  0.04491543  0.75000000  0.00177698  1
  S  S25  1  0.45508457  0.75000000  0.50177698  1
  S  S26  1  0.95508457  0.25000000  0.99822302  1
  S  S27  1  0.54491543  0.25000000  0.49822302  1
  S  S28  1  0.31119692  0.75000000  0.78805707  1
  S  S29  1  0.18880308  0.75000000  0.28805707  1
  S  S30  1  0.68880308  0.25000000  0.21194293  1
  S  S31  1  0.81119692  0.25000000  0.71194293  1
