# generated using pymatgen
data_HoSnAu
_symmetry_space_group_name_H-M   'P 1'
_cell_length_a   4.71787932
_cell_length_b   4.71787932
_cell_length_c   7.39311799
_cell_angle_alpha   90.00000000
_cell_angle_beta   90.00000000
_cell_angle_gamma   119.99929210
_symmetry_Int_Tables_number   1
_chemical_formula_structural   HoSnAu
_chemical_formula_sum   'Ho2 Sn2 Au2'
_cell_volume   142.51317718
_cell_formula_units_Z   2
loop_
 _symmetry_equiv_pos_site_id
 _symmetry_equiv_pos_as_xyz
  1  'x, y, z'
loop_
 _atom_site_type_symbol
 _atom_site_label
 _atom_site_symmetry_multiplicity
 _atom_site_fract_x
 _atom_site_fract_y
 _atom_site_fract_z
 _atom_site_occupancy
  Ho  Ho0  1  -0.00000000  -0.00000000  0.50000000  1
  Ho  Ho1  1  -0.00000000  -0.00000000  0.00000000  1
  Sn  Sn2  1  0.66663959  0.33336041  0.25000000  1
  Sn  Sn3  1  0.33336041  0.66663959  0.75000000  1
  Au  Au4  1  0.66664108  0.33335892  0.75000000  1
  Au  Au5  1  0.33335892  0.66664108  0.25000000  1
