# generated using pymatgen
data_Na4Th(WO4)4
_symmetry_space_group_name_H-M   'P 1'
_cell_length_a   10.21866619
_cell_length_b   10.21866619
_cell_length_c   10.21866619
_cell_angle_alpha   107.80202996
_cell_angle_beta   110.31220809
_cell_angle_gamma   110.31220809
_symmetry_Int_Tables_number   1
_chemical_formula_structural   Na4Th(WO4)4
_chemical_formula_sum   'Na8 Th2 W8 O32'
_cell_volume   820.89044760
_cell_formula_units_Z   2
loop_
 _symmetry_equiv_pos_site_id
 _symmetry_equiv_pos_as_xyz
  1  'x, y, z'
loop_
 _atom_site_type_symbol
 _atom_site_label
 _atom_site_symmetry_multiplicity
 _atom_site_fract_x
 _atom_site_fract_y
 _atom_site_fract_z
 _atom_site_occupancy
  Na  Na0  1  0.14783872  0.68450582  0.27360860  1
  Na  Na1  1  0.35216128  0.12576988  0.03666710  1
  Na  Na2  1  0.08910278  0.77360860  0.62576988  1
  Na  Na3  1  0.41089722  0.53666710  0.18450582  1
  Na  Na4  1  0.85216128  0.31549418  0.72639140  1
  Na  Na5  1  0.64783872  0.87423012  0.96333290  1
  Na  Na6  1  0.91089722  0.22639140  0.37423012  1
  Na  Na7  1  0.58910278  0.46333290  0.81549418  1
  Th  Th8  1  0.75000000  0.87500000  0.62500000  1
  Th  Th9  1  0.25000000  0.12500000  0.37500000  1
  W  W10  1  0.47739116  0.03910469  0.69888752  1
  W  W11  1  0.02260884  0.22149636  0.06171353  1
  W  W12  1  0.15978282  0.19888752  0.72149636  1
  W  W13  1  0.34021718  0.56171353  0.53910469  1
  W  W14  1  0.52260884  0.96089531  0.30111248  1
  W  W15  1  0.97739116  0.77850364  0.93828647  1
  W  W16  1  0.84021718  0.80111248  0.27850364  1
  W  W17  1  0.65978282  0.43828647  0.46089531  1
  O  O18  1  0.57732393  0.92123928  0.72415872  1
  O  O19  1  0.92267607  0.14683479  0.84391535  1
  O  O20  1  0.30291945  0.22415872  0.64683479  1
  O  O21  1  0.19708055  0.34391535  0.42123928  1
  O  O22  1  0.42267607  0.07876072  0.27584128  1
  O  O23  1  0.07732393  0.85316521  0.15608465  1
  O  O24  1  0.69708055  0.77584128  0.35316521  1
  O  O25  1  0.80291945  0.65608465  0.57876072  1
  O  O26  1  0.48734260  0.63338460  0.47355984  1
  O  O27  1  0.01265740  0.98621723  0.64604200  1
  O  O28  1  0.34017524  0.97355984  0.48621723  1
  O  O29  1  0.15982476  0.14604200  0.13338460  1
  O  O30  1  0.51265740  0.36661540  0.52644016  1
  O  O31  1  0.98734260  0.01378277  0.35395800  1
  O  O32  1  0.65982476  0.02644016  0.51378277  1
  O  O33  1  0.84017524  0.85395800  0.86661540  1
  O  O34  1  0.36463226  0.02159581  0.79982332  1
  O  O35  1  0.13536774  0.43519106  0.15696355  1
  O  O36  1  0.27822751  0.29982332  0.93519106  1
  O  O37  1  0.22177249  0.65696355  0.52159581  1
  O  O38  1  0.63536774  0.97840419  0.20017668  1
  O  O39  1  0.86463226  0.56480894  0.84303645  1
  O  O40  1  0.72177249  0.70017668  0.06480894  1
  O  O41  1  0.77822751  0.34303645  0.47840419  1
  O  O42  1  0.36735486  0.75770080  0.20636825  1
  O  O43  1  0.13264514  0.83901339  0.89034594  1
  O  O44  1  0.94866745  0.70636825  0.33901339  1
  O  O45  1  0.55133255  0.39034594  0.25770080  1
  O  O46  1  0.63264514  0.24229920  0.79363175  1
  O  O47  1  0.86735486  0.16098661  0.10965406  1
  O  O48  1  0.05133255  0.29363175  0.66098661  1
  O  O49  1  0.44866745  0.60965406  0.74229920  1
