# generated using pymatgen
data_Y5Si4
_symmetry_space_group_name_H-M   'P 1'
_cell_length_a   7.44310646
_cell_length_b   7.71029101
_cell_length_c   14.62712060
_cell_angle_alpha   90.00000000
_cell_angle_beta   90.00000000
_cell_angle_gamma   90.00000000
_symmetry_Int_Tables_number   1
_chemical_formula_structural   Y5Si4
_chemical_formula_sum   'Y20 Si16'
_cell_volume   839.42875665
_cell_formula_units_Z   4
loop_
 _symmetry_equiv_pos_site_id
 _symmetry_equiv_pos_as_xyz
  1  'x, y, z'
loop_
 _atom_site_type_symbol
 _atom_site_label
 _atom_site_symmetry_multiplicity
 _atom_site_fract_x
 _atom_site_fract_y
 _atom_site_fract_z
 _atom_site_occupancy
  Y  Y0  1  0.31874540  0.82040667  0.87720988  1
  Y  Y1  1  0.81874540  0.67959333  0.62279012  1
  Y  Y2  1  0.68125460  0.17959333  0.37720988  1
  Y  Y3  1  0.18125460  0.32040667  0.12279012  1
  Y  Y4  1  0.68125460  0.17959333  0.12279012  1
  Y  Y5  1  0.18125460  0.32040667  0.37720988  1
  Y  Y6  1  0.31874540  0.82040667  0.62279012  1
  Y  Y7  1  0.81874540  0.67959333  0.87720988  1
  Y  Y8  1  0.47242186  0.31719452  0.90151955  1
  Y  Y9  1  0.97242186  0.18280548  0.59848045  1
  Y  Y10  1  0.52757814  0.68280548  0.40151955  1
  Y  Y11  1  0.02757814  0.81719452  0.09848045  1
  Y  Y12  1  0.52757814  0.68280548  0.09848045  1
  Y  Y13  1  0.02757814  0.81719452  0.40151955  1
  Y  Y14  1  0.47242186  0.31719452  0.59848045  1
  Y  Y15  1  0.97242186  0.18280548  0.90151955  1
  Y  Y16  1  0.15023572  0.48876750  0.75000000  1
  Y  Y17  1  0.65023572  0.01123250  0.75000000  1
  Y  Y18  1  0.84976428  0.51123250  0.25000000  1
  Y  Y19  1  0.34976428  0.98876750  0.25000000  1
  Si  Si20  1  0.35335962  0.02857392  0.04026964  1
  Si  Si21  1  0.85335962  0.47142608  0.45973036  1
  Si  Si22  1  0.64664038  0.97142608  0.54026964  1
  Si  Si23  1  0.14664038  0.52857392  0.95973036  1
  Si  Si24  1  0.64664038  0.97142608  0.95973036  1
  Si  Si25  1  0.14664038  0.52857392  0.54026964  1
  Si  Si26  1  0.35335962  0.02857392  0.45973036  1
  Si  Si27  1  0.85335962  0.47142608  0.04026964  1
  Si  Si28  1  0.52471220  0.60425551  0.75000000  1
  Si  Si29  1  0.02471220  0.89574449  0.75000000  1
  Si  Si30  1  0.47528780  0.39574449  0.25000000  1
  Si  Si31  1  0.97528780  0.10425551  0.25000000  1
  Si  Si32  1  0.26720252  0.12684693  0.75000000  1
  Si  Si33  1  0.76720252  0.37315307  0.75000000  1
  Si  Si34  1  0.73279748  0.87315307  0.25000000  1
  Si  Si35  1  0.23279748  0.62684693  0.25000000  1
