# generated using pymatgen
data_Na3V5H26O27
_symmetry_space_group_name_H-M   'P 1'
_cell_length_a   9.74245462
_cell_length_b   11.83448081
_cell_length_c   12.03551731
_cell_angle_alpha   91.89138773
_cell_angle_beta   114.04596005
_cell_angle_gamma   100.01094949
_symmetry_Int_Tables_number   1
_chemical_formula_structural   Na3V5H26O27
_chemical_formula_sum   'Na6 V10 H52 O54'
_cell_volume   1239.59448597
_cell_formula_units_Z   2
loop_
 _symmetry_equiv_pos_site_id
 _symmetry_equiv_pos_as_xyz
  1  'x, y, z'
loop_
 _atom_site_type_symbol
 _atom_site_label
 _atom_site_symmetry_multiplicity
 _atom_site_fract_x
 _atom_site_fract_y
 _atom_site_fract_z
 _atom_site_occupancy
  Na  Na0  1  0.31795978  0.79439721  0.04159555  1
  Na  Na1  1  0.68204022  0.20560279  0.95840445  1
  Na  Na2  1  0.98906295  0.06662808  0.62991765  1
  Na  Na3  1  0.01093705  0.93337192  0.37008235  1
  Na  Na4  1  0.79275328  0.48194383  0.09269351  1
  Na  Na5  1  0.20724672  0.51805617  0.90730649  1
  V  V6  1  0.67036648  0.50083144  0.50278218  1
  V  V7  1  0.32963352  0.49916856  0.49721782  1
  V  V8  1  0.63369685  0.56798762  0.74900873  1
  V  V9  1  0.36630315  0.43201238  0.25099127  1
  V  V10  1  0.47794567  0.68867630  0.37143627  1
  V  V11  1  0.52205433  0.31132370  0.62856373  1
  V  V12  1  0.77553570  0.75703778  0.62330035  1
  V  V13  1  0.22446430  0.24296222  0.37669965  1
  V  V14  1  0.45006456  0.75623611  0.61719842  1
  V  V15  1  0.54993544  0.24376389  0.38280158  1
  H  H16  1  0.01048729  0.34110639  0.09885741  1
  H  H17  1  0.98951271  0.65889361  0.90114259  1
  H  H18  1  0.94313821  0.36075783  0.95947158  1
  H  H19  1  0.05686179  0.63924217  0.04052842  1
  H  H20  1  0.53653932  0.32663750  0.10280165  1
  H  H21  1  0.46346068  0.67336250  0.89719835  1
  H  H22  1  0.48105412  0.35858502  0.96733343  1
  H  H23  1  0.51894588  0.64141498  0.03266657  1
  H  H24  1  0.81263899  0.39597420  0.33329629  1
  H  H25  1  0.18736101  0.60402580  0.66670371  1
  H  H26  1  0.97009926  0.39158496  0.33036118  1
  H  H27  1  0.02990074  0.60841504  0.66963882  1
  H  H28  1  0.64226213  0.59347967  0.22600680  1
  H  H29  1  0.35773787  0.40652033  0.77399320  1
  H  H30  1  0.73048709  0.69817987  0.18527200  1
  H  H31  1  0.26951291  0.30182013  0.81472800  1
  H  H32  1  0.12641820  0.59071075  0.23918432  1
  H  H33  1  0.87358180  0.40928925  0.76081568  1
  H  H34  1  0.01731151  0.66944415  0.24536943  1
  H  H35  1  0.98268849  0.33055585  0.75463057  1
  H  H36  1  0.24628283  0.96274625  0.61333647  1
  H  H37  1  0.75371717  0.03725375  0.38666353  1
  H  H38  1  0.24722788  0.08888786  0.57320660  1
  H  H39  1  0.75277212  0.91111214  0.42679340  1
  H  H40  1  0.13471661  0.87081272  0.80221609  1
  H  H41  1  0.86528339  0.12918728  0.19778391  1
  H  H42  1  0.21932121  0.77474863  0.79643124  1
  H  H43  1  0.78067879  0.22525137  0.20356876  1
  H  H44  1  0.19480615  0.14874837  0.90108519  1
  H  H45  1  0.80519385  0.85125163  0.09891481  1
  H  H46  1  0.29165444  0.11708839  0.83044840  1
  H  H47  1  0.70834556  0.88291161  0.16955160  1
  H  H48  1  0.70881447  0.99333496  0.64883364  1
  H  H49  1  0.29118553  0.00666504  0.35116636  1
  H  H50  1  0.70581380  0.12577247  0.62576656  1
  H  H51  1  0.29418620  0.87422753  0.37423344  1
  H  H52  1  0.89602111  0.29114391  0.53591319  1
  H  H53  1  0.10397889  0.70885609  0.46408681  1
  H  H54  1  0.06826871  0.30362301  0.56578598  1
  H  H55  1  0.93173129  0.69637699  0.43421402  1
  H  H56  1  0.18565192  0.91576295  0.17507034  1
  H  H57  1  0.81434808  0.08423705  0.82492966  1
  H  H58  1  0.05772721  0.88782416  0.03952686  1
  H  H59  1  0.94227279  0.11217584  0.96047314  1
  H  H60  1  0.60068278  0.03194977  0.12421690  1
  H  H61  1  0.39931722  0.96805023  0.87578310  1
  H  H62  1  0.49210482  0.98994549  0.18392065  1
  H  H63  1  0.50789518  0.01005451  0.81607935  1
  H  H64  1  0.19760722  0.19674717  0.10302615  1
  H  H65  1  0.80239278  0.80325283  0.89697385  1
  H  H66  1  0.17001417  0.06237316  0.06175706  1
  H  H67  1  0.82998583  0.93762684  0.93824294  1
  O  O68  1  0.69190851  0.52428308  0.88529076  1
  O  O69  1  0.30809149  0.47571692  0.11470924  1
  O  O70  1  0.41902590  0.73032064  0.23414957  1
  O  O71  1  0.58097410  0.26967936  0.76585043  1
  O  O72  1  0.93621015  0.85419842  0.66958946  1
  O  O73  1  0.06378985  0.14580158  0.33041054  1
  O  O74  1  0.56368554  0.55124901  0.34387272  1
  O  O75  1  0.43631446  0.44875099  0.65612728  1
  O  O76  1  0.69537261  0.45077483  0.65996091  1
  O  O77  1  0.30462739  0.54922517  0.34003909  1
  O  O78  1  0.67450783  0.77415234  0.45482554  1
  O  O79  1  0.32549217  0.22584766  0.54517446  1
  O  O80  1  0.39255194  0.77192620  0.44878192  1
  O  O81  1  0.60744806  0.22807380  0.55121808  1
  O  O82  1  0.52106488  0.67516344  0.75575406  1
  O  O83  1  0.47893512  0.32483656  0.24424594  1
  O  O84  1  0.80210729  0.67745990  0.76162499  1
  O  O85  1  0.19789271  0.32254010  0.23837501  1
  O  O86  1  0.82871181  0.61597789  0.55837258  1
  O  O87  1  0.17128819  0.38402211  0.44162742  1
  O  O88  1  0.64649560  0.83795347  0.65577429  1
  O  O89  1  0.35350440  0.16204653  0.34422571  1
  O  O90  1  0.54671566  0.60819991  0.55018485  1
  O  O91  1  0.45328434  0.39180009  0.44981515  1
  O  O92  1  0.27107267  0.61297654  0.54934877  1
  O  O93  1  0.72892733  0.38702346  0.45065123  1
  O  O94  1  0.36702147  0.85011660  0.65509896  1
  O  O95  1  0.63297853  0.14988340  0.34490104  1
  O  O96  1  0.91692133  0.35137899  0.03023579  1
  O  O97  1  0.08307867  0.64862101  0.96976421  1
  O  O98  1  0.56774695  0.33534169  0.03522644  1
  O  O99  1  0.43225305  0.66465831  0.96477356  1
  O  O100  1  0.86000859  0.38303295  0.27711465  1
  O  O101  1  0.13999141  0.61696705  0.72288535  1
  O  O102  1  0.67793675  0.61544528  0.16257660  1
  O  O103  1  0.32206325  0.38455472  0.83742340  1
  O  O104  1  0.03278178  0.61838398  0.18760144  1
  O  O105  1  0.96721822  0.38161602  0.81239856  1
  O  O106  1  0.17949063  0.01711981  0.57532712  1
  O  O107  1  0.82050937  0.98288019  0.42467288  1
  O  O108  1  0.23422490  0.84881564  0.84454095  1
  O  O109  1  0.76577510  0.15118436  0.15545905  1
  O  O110  1  0.20216726  0.15055445  0.82112182  1
  O  O111  1  0.79783274  0.84944555  0.17887818  1
  O  O112  1  0.77150154  0.07266648  0.67266191  1
  O  O113  1  0.22849846  0.92733352  0.32733809  1
  O  O114  1  0.98949245  0.26787007  0.59181140  1
  O  O115  1  0.01050755  0.73212993  0.40818860  1
  O  O116  1  0.16871860  0.92124442  0.08779801  1
  O  O117  1  0.83128140  0.07875558  0.91220199  1
  O  O118  1  0.53174364  0.96148119  0.12869327  1
  O  O119  1  0.46825636  0.03851881  0.87130673  1
  O  O120  1  0.15031379  0.13865562  0.03101160  1
  O  O121  1  0.84968621  0.86134438  0.96898840  1
