# generated using pymatgen
data_KHSO4
_symmetry_space_group_name_H-M   'P 1'
_cell_length_a   8.64825623
_cell_length_b   9.86248708
_cell_length_c   19.99344938
_cell_angle_alpha   90.00000000
_cell_angle_beta   90.00000000
_cell_angle_gamma   90.00000000
_symmetry_Int_Tables_number   1
_chemical_formula_structural   KHSO4
_chemical_formula_sum   'K16 H16 S16 O64'
_cell_volume   1705.30758256
_cell_formula_units_Z   16
loop_
 _symmetry_equiv_pos_site_id
 _symmetry_equiv_pos_as_xyz
  1  'x, y, z'
loop_
 _atom_site_type_symbol
 _atom_site_label
 _atom_site_symmetry_multiplicity
 _atom_site_fract_x
 _atom_site_fract_y
 _atom_site_fract_z
 _atom_site_occupancy
  K  K0  1  0.88404861  0.18451700  0.37675770  1
  K  K1  1  0.38404861  0.31548300  0.62324230  1
  K  K2  1  0.11595139  0.68451700  0.12324230  1
  K  K3  1  0.61595139  0.81548300  0.87675770  1
  K  K4  1  0.11595139  0.81548300  0.62324230  1
  K  K5  1  0.61595139  0.68451700  0.37675770  1
  K  K6  1  0.88404861  0.31548300  0.87675770  1
  K  K7  1  0.38404861  0.18451700  0.12324230  1
  K  K8  1  0.35692538  0.32159535  0.37498285  1
  K  K9  1  0.85692538  0.17840465  0.62501715  1
  K  K10  1  0.64307462  0.82159535  0.12501715  1
  K  K11  1  0.14307462  0.67840465  0.87498285  1
  K  K12  1  0.64307462  0.67840465  0.62501715  1
  K  K13  1  0.14307462  0.82159535  0.37498285  1
  K  K14  1  0.35692538  0.17840465  0.87498285  1
  K  K15  1  0.85692538  0.32159535  0.12501715  1
  H  H16  1  0.90866080  0.75133041  0.97461968  1
  H  H17  1  0.40866080  0.74866959  0.02538032  1
  H  H18  1  0.09133920  0.25133041  0.52538032  1
  H  H19  1  0.59133920  0.24866959  0.47461968  1
  H  H20  1  0.09133920  0.24866959  0.02538032  1
  H  H21  1  0.59133920  0.25133041  0.97461968  1
  H  H22  1  0.90866080  0.74866959  0.47461968  1
  H  H23  1  0.40866080  0.75133041  0.52538032  1
  H  H24  1  0.24554040  0.05887432  0.27038225  1
  H  H25  1  0.74554040  0.44112568  0.72961775  1
  H  H26  1  0.75445960  0.55887432  0.22961775  1
  H  H27  1  0.25445960  0.94112568  0.77038225  1
  H  H28  1  0.75445960  0.94112568  0.72961775  1
  H  H29  1  0.25445960  0.55887432  0.27038225  1
  H  H30  1  0.24554040  0.44112568  0.77038225  1
  H  H31  1  0.74554040  0.05887432  0.22961775  1
  S  S32  1  0.74689395  0.41051771  0.50822413  1
  S  S33  1  0.24689395  0.08948229  0.49177587  1
  S  S34  1  0.25310605  0.91051771  0.99177587  1
  S  S35  1  0.75310605  0.58948229  0.00822413  1
  S  S36  1  0.25310605  0.58948229  0.49177587  1
  S  S37  1  0.75310605  0.91051771  0.50822413  1
  S  S38  1  0.74689395  0.08948229  0.00822413  1
  S  S39  1  0.24689395  0.41051771  0.99177587  1
  S  S40  1  0.49418566  0.02001388  0.29078250  1
  S  S41  1  0.99418566  0.47998612  0.70921750  1
  S  S42  1  0.50581434  0.52001388  0.20921750  1
  S  S43  1  0.00581434  0.97998612  0.79078250  1
  S  S44  1  0.50581434  0.97998612  0.70921750  1
  S  S45  1  0.00581434  0.52001388  0.29078250  1
  S  S46  1  0.49418566  0.47998612  0.79078250  1
  S  S47  1  0.99418566  0.02001388  0.20921750  1
  O  O48  1  0.74490485  0.54977535  0.48450271  1
  O  O49  1  0.24490485  0.95022465  0.51549729  1
  O  O50  1  0.25509515  0.04977535  0.01549729  1
  O  O51  1  0.75509515  0.45022465  0.98450271  1
  O  O52  1  0.25509515  0.45022465  0.51549729  1
  O  O53  1  0.75509515  0.04977535  0.48450271  1
  O  O54  1  0.74490485  0.95022465  0.98450271  1
  O  O55  1  0.24490485  0.54977535  0.01549729  1
  O  O56  1  0.89543310  0.34041653  0.50196632  1
  O  O57  1  0.39543310  0.15958347  0.49803368  1
  O  O58  1  0.10456690  0.84041653  -0.00196632  1
  O  O59  1  0.60456690  0.65958347  0.00196632  1
  O  O60  1  0.10456690  0.65958347  0.49803368  1
  O  O61  1  0.60456690  0.84041653  0.50196632  1
  O  O62  1  0.89543310  0.15958347  0.00196632  1
  O  O63  1  0.39543310  0.34041653  -0.00196632  1
  O  O64  1  0.67623321  0.39248509  0.57488724  1
  O  O65  1  0.17623321  0.10751491  0.42511276  1
  O  O66  1  0.32376679  0.89248509  0.92511276  1
  O  O67  1  0.82376679  0.60751491  0.07488724  1
  O  O68  1  0.32376679  0.60751491  0.42511276  1
  O  O69  1  0.82376679  0.89248509  0.57488724  1
  O  O70  1  0.67623321  0.10751491  0.07488724  1
  O  O71  1  0.17623321  0.39248509  0.92511276  1
  O  O72  1  0.63181468  0.33408159  0.45506112  1
  O  O73  1  0.13181468  0.16591841  0.54493888  1
  O  O74  1  0.36818532  0.83408159  0.04493888  1
  O  O75  1  0.86818532  0.66591841  0.95506112  1
  O  O76  1  0.36818532  0.66591841  0.54493888  1
  O  O77  1  0.86818532  0.83408159  0.45506112  1
  O  O78  1  0.63181468  0.16591841  0.95506112  1
  O  O79  1  0.13181468  0.33408159  0.04493888  1
  O  O80  1  0.58189065  0.99609891  0.22744653  1
  O  O81  1  0.08189065  0.50390109  0.77255347  1
  O  O82  1  0.41810935  0.49609891  0.27255347  1
  O  O83  1  0.91810935  0.00390109  0.72744653  1
  O  O84  1  0.41810935  0.00390109  0.77255347  1
  O  O85  1  0.91810935  0.49609891  0.22744653  1
  O  O86  1  0.58189065  0.50390109  0.72744653  1
  O  O87  1  0.08189065  0.99609891  0.27255347  1
  O  O88  1  0.34953563  0.11034254  0.26856100  1
  O  O89  1  0.84953563  0.38965746  0.73143900  1
  O  O90  1  0.65046437  0.61034254  0.23143900  1
  O  O91  1  0.15046437  0.88965746  0.76856100  1
  O  O92  1  0.65046437  0.88965746  0.73143900  1
  O  O93  1  0.15046437  0.61034254  0.26856100  1
  O  O94  1  0.34953563  0.38965746  0.76856100  1
  O  O95  1  0.84953563  0.11034254  0.23143900  1
  O  O96  1  0.43342299  0.89399614  0.31893183  1
  O  O97  1  0.93342299  0.60600386  0.68106817  1
  O  O98  1  0.56657701  0.39399614  0.18106817  1
  O  O99  1  0.06657701  0.10600386  0.81893183  1
  O  O100  1  0.56657701  0.10600386  0.68106817  1
  O  O101  1  0.06657701  0.39399614  0.31893183  1
  O  O102  1  0.43342299  0.60600386  0.81893183  1
  O  O103  1  0.93342299  0.89399614  0.18106817  1
  O  O104  1  0.58159890  0.10567468  0.33663368  1
  O  O105  1  0.08159890  0.39432532  0.66336632  1
  O  O106  1  0.41840110  0.60567468  0.16336632  1
  O  O107  1  0.91840110  0.89432532  0.83663368  1
  O  O108  1  0.41840110  0.89432532  0.66336632  1
  O  O109  1  0.91840110  0.60567468  0.33663368  1
  O  O110  1  0.58159890  0.39432532  0.83663368  1
  O  O111  1  0.08159890  0.10567468  0.16336632  1
