# generated using pymatgen
data_Er5B2(O2F3)3
_symmetry_space_group_name_H-M   'P 1'
_cell_length_a   6.08459673
_cell_length_b   8.26824877
_cell_length_c   10.67922849
_cell_angle_alpha   99.68823258
_cell_angle_beta   106.55167439
_cell_angle_gamma   90.00000000
_symmetry_Int_Tables_number   1
_chemical_formula_structural   Er5B2(O2F3)3
_chemical_formula_sum   'Er10 B4 O12 F18'
_cell_volume   506.99976830
_cell_formula_units_Z   2
loop_
 _symmetry_equiv_pos_site_id
 _symmetry_equiv_pos_as_xyz
  1  'x, y, z'
loop_
 _atom_site_type_symbol
 _atom_site_label
 _atom_site_symmetry_multiplicity
 _atom_site_fract_x
 _atom_site_fract_y
 _atom_site_fract_z
 _atom_site_occupancy
  Er  Er0  1  0.18580127  0.68022437  0.61216203  1
  Er  Er1  1  0.57363925  0.81977563  0.38783797  1
  Er  Er2  1  0.81419873  0.31977563  0.38783797  1
  Er  Er3  1  0.42636075  0.18022437  0.61216203  1
  Er  Er4  1  0.00090665  0.09374057  0.78080758  1
  Er  Er5  1  0.22009907  0.40625943  0.21919242  1
  Er  Er6  1  0.99909335  0.90625943  0.21919242  1
  Er  Er7  1  0.77990093  0.59374057  0.78080758  1
  Er  Er8  1  0.38814478  0.75000000  -0.00000000  1
  Er  Er9  1  0.61185522  0.25000000  -0.00000000  1
  B  B10  1  0.48421210  0.93699375  0.77738869  1
  B  B11  1  0.70682341  0.56300625  0.22261131  1
  B  B12  1  0.51578790  0.06300625  0.22261131  1
  B  B13  1  0.29317659  0.43699375  0.77738869  1
  O  O14  1  0.64780142  0.06510177  0.81733658  1
  O  O15  1  0.83046484  0.43489823  0.18266342  1
  O  O16  1  0.35219858  0.93489823  0.18266342  1
  O  O17  1  0.16953516  0.56510177  0.81733658  1
  O  O18  1  0.27979344  0.96072262  0.68218540  1
  O  O19  1  0.59760804  0.53927738  0.31781460  1
  O  O20  1  0.72020656  0.03927738  0.31781460  1
  O  O21  1  0.40239196  0.46072262  0.68218540  1
  O  O22  1  0.30399711  0.28372605  0.81463531  1
  O  O23  1  0.48936180  0.21627395  0.18536469  1
  O  O24  1  0.69600289  0.71627395  0.18536469  1
  O  O25  1  0.51063820  0.78372605  0.81463531  1
  F  F26  1  0.86444086  0.51970165  0.57850188  1
  F  F27  1  0.28593898  0.98029835  0.42149812  1
  F  F28  1  0.13555914  0.48029835  0.42149812  1
  F  F29  1  0.71406102  0.01970165  0.57850188  1
  F  F30  1  0.79373968  0.31436962  0.73677282  1
  F  F31  1  0.05696686  0.18563038  0.26322718  1
  F  F32  1  0.20626032  0.68563038  0.26322718  1
  F  F33  1  0.94303314  0.81436962  0.73677282  1
  F  F34  1  0.01427931  0.75000000  -0.00000000  1
  F  F35  1  0.98572069  0.25000000  0.00000000  1
  F  F36  1  0.49546823  0.71469324  0.54976938  1
  F  F37  1  0.94569885  0.78530676  0.45023062  1
  F  F38  1  0.50453177  0.28530676  0.45023062  1
  F  F39  1  0.05430115  0.21469324  0.54976938  1
  F  F40  1  0.28420620  0.01320305  0.93738048  1
  F  F41  1  0.34682573  0.48679695  0.06261952  1
  F  F42  1  0.71579380  0.98679695  0.06261952  1
  F  F43  1  0.65317427  0.51320305  0.93738048  1
