# generated using pymatgen
data_Li9Mn2Co5O16
_symmetry_space_group_name_H-M   'P 1'
_cell_length_a   3.02108085
_cell_length_b   5.99858496
_cell_length_c   16.08201261
_cell_angle_alpha   89.31304744
_cell_angle_beta   89.00235031
_cell_angle_gamma   95.12057612
_symmetry_Int_Tables_number   1
_chemical_formula_structural   Li9Mn2Co5O16
_chemical_formula_sum   'Li9 Mn2 Co5 O16'
_cell_volume   290.20764752
_cell_formula_units_Z   1
loop_
 _symmetry_equiv_pos_site_id
 _symmetry_equiv_pos_as_xyz
  1  'x, y, z'
loop_
 _atom_site_type_symbol
 _atom_site_label
 _atom_site_symmetry_multiplicity
 _atom_site_fract_x
 _atom_site_fract_y
 _atom_site_fract_z
 _atom_site_occupancy
  Li  Li0  1  0.00187676  0.49979267  0.00105791  1
  Li  Li1  1  0.50295804  0.25694234  0.12837947  1
  Li  Li2  1  0.99900824  0.00020327  0.24965228  1
  Li  Li3  1  0.49976972  0.74826375  0.87340643  1
  Li  Li4  1  0.00030573  0.00159689  0.75130101  1
  Li  Li5  1  0.49971732  0.24978762  0.62499687  1
  Li  Li6  1  0.99859449  0.49835849  0.49816684  1
  Li  Li7  1  0.49805649  0.74429179  0.37355469  1
  Li  Li8  1  0.99986670  0.49919853  0.25046391  1
  Mn  Mn9  1  0.00105917  0.00072626  0.00118424  1
  Mn  Mn10  1  0.50041132  0.75072136  0.62442374  1
  Co  Co11  1  0.50565574  0.73762296  0.13063260  1
  Co  Co12  1  0.49713571  0.25996642  0.37011172  1
  Co  Co13  1  -0.00062874  0.00153901  0.49794529  1
  Co  Co14  1  0.00209198  0.49765935  0.75030187  1
  Co  Co15  1  0.49777433  0.25178181  0.87490785  1
  O  O16  1  0.47848387  0.24372498  0.99403209  1
  O  O17  1  0.97716524  0.98835152  0.12166049  1
  O  O18  1  0.49539095  0.75311376  0.23823936  1
  O  O19  1  0.97574859  0.48691823  0.86920298  1
  O  O20  1  0.47585958  0.73646068  0.74630051  1
  O  O21  1  0.97534054  0.99622261  0.61844237  1
  O  O22  1  0.47557519  0.23626839  0.48982873  1
  O  O23  1  0.97801874  0.48006311  0.37511438  1
  O  O24  1  0.52273048  0.75740895  0.00960716  1
  O  O25  1  0.02138655  0.51852751  0.12552638  1
  O  O26  1  0.50308744  0.24527596  0.26241505  1
  O  O27  1  0.02426908  0.01181306  0.87910519  1
  O  O28  1  0.52406948  0.26334059  0.75600797  1
  O  O29  1  0.02421154  0.50536634  0.63031012  1
  O  O30  1  0.52223292  0.76438769  0.50315738  1
  O  O31  1  0.02277679  0.01430411  0.38056213  1
