# generated using pymatgen
data_Ca2Y3Si3O13
_symmetry_space_group_name_H-M   'P 1'
_cell_length_a   6.91221966
_cell_length_b   9.47010168
_cell_length_c   9.44281097
_cell_angle_alpha   120.08705663
_cell_angle_beta   90.00000000
_cell_angle_gamma   90.00000000
_symmetry_Int_Tables_number   1
_chemical_formula_structural   Ca2Y3Si3O13
_chemical_formula_sum   'Ca4 Y6 Si6 O26'
_cell_volume   534.83824010
_cell_formula_units_Z   2
loop_
 _symmetry_equiv_pos_site_id
 _symmetry_equiv_pos_as_xyz
  1  'x, y, z'
loop_
 _atom_site_type_symbol
 _atom_site_label
 _atom_site_symmetry_multiplicity
 _atom_site_fract_x
 _atom_site_fract_y
 _atom_site_fract_z
 _atom_site_occupancy
  Ca  Ca0  1  0.01804543  0.66459694  0.33349662  1
  Ca  Ca1  1  0.51804543  0.33540306  0.66650338  1
  Ca  Ca2  1  0.51299307  0.66592801  0.33459703  1
  Ca  Ca3  1  0.01299307  0.33407199  0.66540297  1
  Y  Y4  1  0.76734118  0.24006552  0.24690390  1
  Y  Y5  1  0.26734118  0.75993448  0.75309610  1
  Y  Y6  1  0.76661270  0.75210535  0.99571097  1
  Y  Y7  1  0.26661270  0.24789465  0.00428903  1
  Y  Y8  1  0.26652600  0.99389754  0.24100426  1
  Y  Y9  1  0.76652600  0.00610246  0.75899574  1
  Si  Si10  1  0.76601782  0.97683260  0.36905539  1
  Si  Si11  1  0.26601782  0.02316740  0.63094461  1
  Si  Si12  1  0.76614789  0.38936399  0.02223548  1
  Si  Si13  1  0.26614789  0.61063601  0.97776452  1
  Si  Si14  1  0.26698995  0.36808146  0.39062633  1
  Si  Si15  1  0.76698995  0.63191854  0.60937367  1
  O  O16  1  0.26715118  0.70033260  0.17635913  1
  O  O17  1  0.76715118  0.29966740  0.82364087  1
  O  O18  1  0.76345542  0.52449424  0.40931136  1
  O  O19  1  0.26345542  0.47550576  0.59068864  1
  O  O20  1  0.76318282  0.88383314  0.47567185  1
  O  O21  1  0.26318282  0.11616686  0.52432815  1
  O  O22  1  0.76683518  0.17491924  0.47575824  1
  O  O23  1  0.26683518  0.82508076  0.52424176  1
  O  O24  1  0.76274911  0.58888652  0.11565241  1
  O  O25  1  0.26274911  0.41111348  0.88434759  1
  O  O26  1  0.26742465  0.47455082  0.29857612  1
  O  O27  1  0.76742465  0.52544918  0.70142388  1
  O  O28  1  0.95215551  0.90970881  0.24266317  1
  O  O29  1  0.45215551  0.09029119  0.75733683  1
  O  O30  1  0.58141915  0.91205819  0.24093429  1
  O  O31  1  0.08141915  0.08794181  0.75906571  1
  O  O32  1  0.95229957  0.33088251  0.08955456  1
  O  O33  1  0.45229957  0.66911749  0.91044544  1
  O  O34  1  0.58229630  0.32466113  0.08582538  1
  O  O35  1  0.08229630  0.67533887  0.91417462  1
  O  O36  1  0.45272741  0.24226664  0.33188880  1
  O  O37  1  0.95272741  0.75773336  0.66811120  1
  O  O38  1  0.08143716  0.24085293  0.32796282  1
  O  O39  1  0.58143716  0.75914707  0.67203718  1
  O  O40  1  0.76689251  0.99832680  0.99935859  1
  O  O41  1  0.26689251  0.00167320  0.00064141  1
