# generated using pymatgen
data_Ni2As2O7
_symmetry_space_group_name_H-M   'P 1'
_cell_length_a   5.37009906
_cell_length_b   7.68322795
_cell_length_c   10.32536446
_cell_angle_alpha   72.44889494
_cell_angle_beta   76.01295427
_cell_angle_gamma   84.73366468
_symmetry_Int_Tables_number   1
_chemical_formula_structural   Ni2As2O7
_chemical_formula_sum   'Ni6 As6 O21'
_cell_volume   394.06380086
_cell_formula_units_Z   3
loop_
 _symmetry_equiv_pos_site_id
 _symmetry_equiv_pos_as_xyz
  1  'x, y, z'
loop_
 _atom_site_type_symbol
 _atom_site_label
 _atom_site_symmetry_multiplicity
 _atom_site_fract_x
 _atom_site_fract_y
 _atom_site_fract_z
 _atom_site_occupancy
  Ni  Ni0  1  0.55895579  0.86506908  0.09924112  1
  Ni  Ni1  1  0.90491988  0.47933873  0.77069586  1
  Ni  Ni2  1  0.24675432  0.13278098  0.43694434  1
  Ni  Ni3  1  0.11550802  0.53182528  0.22591031  1
  Ni  Ni4  1  0.39862237  0.24143991  0.88519836  1
  Ni  Ni5  1  0.75027614  0.89222084  0.56034554  1
  As  As6  1  0.30748948  0.69799674  0.45320786  1
  As  As7  1  0.66360038  0.31466392  0.12697870  1
  As  As8  1  0.97514405  0.03948204  0.78875057  1
  As  As9  1  0.36699940  0.66846536  0.88393221  1
  As  As10  1  0.68966722  0.32799577  0.53744273  1
  As  As11  1  0.00008240  0.94610214  0.21338190  1
  O  O12  1  0.28099562  0.73711933  0.28147750  1
  O  O13  1  0.63663725  0.36613226  0.95555585  1
  O  O14  1  0.99073810  0.02375344  0.62476589  1
  O  O15  1  0.40607881  0.65194006  0.04813914  1
  O  O16  1  0.66544653  0.35030307  0.69975161  1
  O  O17  1  0.98967603  0.99958047  0.36653806  1
  O  O18  1  0.50728606  0.50692084  0.44985495  1
  O  O19  1  0.71904415  0.07260471  0.16088649  1
  O  O20  1  0.15931985  0.86262862  0.87243336  1
  O  O21  1  0.92136475  0.40566345  0.14003467  1
  O  O22  1  0.12296779  0.23095412  0.78269891  1
  O  O23  1  0.46580206  0.87184738  0.46492679  1
  O  O24  1  0.86712363  0.75558369  0.19902161  1
  O  O25  1  0.20250892  0.50488516  0.85955812  1
  O  O26  1  0.53289597  0.14182733  0.54159404  1
  O  O27  1  0.38266322  0.31606848  0.24799148  1
  O  O28  1  0.67334790  0.00872533  0.89384991  1
  O  O29  1  0.02142491  0.65197869  0.56987585  1
  O  O30  1  0.25170711  0.04413831  0.07960217  1
  O  O31  1  0.64735962  0.71626724  0.75951073  1
  O  O32  1  0.99050726  0.36383619  0.43231336  1
