# generated using pymatgen
data_Li9Mn2Co5O16
_symmetry_space_group_name_H-M   'P 1'
_cell_length_a   3.02385697
_cell_length_b   10.25816025
_cell_length_c   9.91646307
_cell_angle_alpha   106.65239309
_cell_angle_beta   92.86639614
_cell_angle_gamma   82.67105151
_symmetry_Int_Tables_number   1
_chemical_formula_structural   Li9Mn2Co5O16
_chemical_formula_sum   'Li9 Mn2 Co5 O16'
_cell_volume   292.26339636
_cell_formula_units_Z   1
loop_
 _symmetry_equiv_pos_site_id
 _symmetry_equiv_pos_as_xyz
  1  'x, y, z'
loop_
 _atom_site_type_symbol
 _atom_site_label
 _atom_site_symmetry_multiplicity
 _atom_site_fract_x
 _atom_site_fract_y
 _atom_site_fract_z
 _atom_site_occupancy
  Li  Li0  1  0.93260759  0.12662909  0.31239585  1
  Li  Li1  1  0.43534693  0.12514958  0.81183789  1
  Li  Li2  1  0.31171939  0.37904100  0.43013355  1
  Li  Li3  1  0.80937035  0.37257760  0.93938299  1
  Li  Li4  1  0.69419611  0.62600765  0.55991970  1
  Li  Li5  1  0.18640780  0.62505738  0.06983265  1
  Li  Li6  1  0.06642830  0.87493072  0.68554140  1
  Li  Li7  1  0.56361132  0.87239795  0.19089661  1
  Li  Li8  1  0.74983846  0.50144995  0.25089970  1
  Mn  Mn9  1  0.00706828  0.00335239  0.00164922  1
  Mn  Mn10  1  0.86484439  0.24670681  0.62030652  1
  Co  Co11  1  0.50097577  0.99594987  0.49912851  1
  Co  Co12  1  0.36093356  0.26185403  0.13215882  1
  Co  Co13  1  0.24254313  0.50057682  0.74979637  1
  Co  Co14  1  0.13439081  0.74112348  0.37083640  1
  Co  Co15  1  0.63233933  0.74897914  0.87656534  1
  O  O16  1  0.43710123  0.07637150  0.15125957  1
  O  O17  1  0.93060471  0.06313899  0.64703779  1
  O  O18  1  0.81500497  0.30873432  0.26960294  1
  O  O19  1  0.29619020  0.31784851  0.77340451  1
  O  O20  1  0.20868751  0.58380964  0.40728081  1
  O  O21  1  0.72597153  0.56762613  0.89939984  1
  O  O22  1  0.57350057  0.81688064  0.51961407  1
  O  O23  1  0.11795510  0.81859064  0.02387871  1
  O  O24  1  0.43540532  0.17544591  0.47107450  1
  O  O25  1  0.93141778  0.18580674  0.97879558  1
  O  O26  1  0.75662895  0.43313922  0.59966769  1
  O  O27  1  0.29355387  0.41855084  0.09481685  1
  O  O28  1  0.14843006  0.68212481  0.72898525  1
  O  O29  1  0.68997985  0.69272112  0.23147673  1
  O  O30  1  0.57514942  0.93184565  0.84924573  1
  O  O31  1  0.07179738  0.92558189  0.35317789  1
