# generated using pymatgen
data_Co2H2CO5
_symmetry_space_group_name_H-M   'P 1'
_cell_length_a   3.19535084
_cell_length_b   11.30583541
_cell_length_c   12.30609039
_cell_angle_alpha   90.00000000
_cell_angle_beta   90.00000000
_cell_angle_gamma   121.31253088
_symmetry_Int_Tables_number   1
_chemical_formula_structural   Co2H2CO5
_chemical_formula_sum   'Co8 H8 C4 O20'
_cell_volume   379.81725113
_cell_formula_units_Z   4
loop_
 _symmetry_equiv_pos_site_id
 _symmetry_equiv_pos_as_xyz
  1  'x, y, z'
loop_
 _atom_site_type_symbol
 _atom_site_label
 _atom_site_symmetry_multiplicity
 _atom_site_fract_x
 _atom_site_fract_y
 _atom_site_fract_z
 _atom_site_occupancy
  Co  Co0  1  0.78317090  0.98270923  0.21350748  1
  Co  Co1  1  0.21682910  0.51729077  0.71350748  1
  Co  Co2  1  0.21682910  0.01729077  0.78649252  1
  Co  Co3  1  0.78317090  0.48270923  0.28649252  1
  Co  Co4  1  -0.06122905  0.71467513  0.11283356  1
  Co  Co5  1  0.06122905  0.78532487  0.61283356  1
  Co  Co6  1  0.06122905  0.28532487  0.88716644  1
  Co  Co7  1  -0.06122905  0.21467513  0.38716644  1
  H  H8  1  0.24796356  0.10815263  0.98141682  1
  H  H9  1  0.75203644  0.39184737  0.48141682  1
  H  H10  1  0.75203644  0.89184737  0.01858318  1
  H  H11  1  0.24796356  0.60815263  0.51858318  1
  H  H12  1  -0.06461436  0.50054490  0.89925497  1
  H  H13  1  0.06461436  0.99945510  0.39925497  1
  H  H14  1  0.06461436  0.49945510  0.10074503  1
  H  H15  1  -0.06461436  0.00054490  0.60074503  1
  C  C16  1  0.02127328  0.75883635  0.36808178  1
  C  C17  1  0.97872672  0.74116365  0.86808178  1
  C  C18  1  0.97872672  0.24116365  0.63191822  1
  C  C19  1  0.02127328  0.25883635  0.13191822  1
  O  O20  1  0.75086266  0.62516396  0.37980603  1
  O  O21  1  0.24913734  0.87483604  0.87980603  1
  O  O22  1  0.24913734  0.37483604  0.62019397  1
  O  O23  1  0.75086266  0.12516396  0.12019397  1
  O  O24  1  0.14771899  0.81021723  0.26922113  1
  O  O25  1  0.85228101  0.68978277  0.76922113  1
  O  O26  1  0.85228101  0.18978277  0.73077887  1
  O  O27  1  0.14771899  0.31021723  0.23077887  1
  O  O28  1  0.16183553  0.84170360  0.44883141  1
  O  O29  1  0.83816447  0.65829640  0.94883141  1
  O  O30  1  0.83816447  0.15829640  0.55116859  1
  O  O31  1  0.16183553  0.34170360  0.05116859  1
  O  O32  1  0.16685318  0.57496117  0.15376935  1
  O  O33  1  -0.16685318  0.92503883  0.65376935  1
  O  O34  1  -0.16685318  0.42503883  0.84623065  1
  O  O35  1  0.16685318  0.07496117  0.34623065  1
  O  O36  1  0.69748871  0.85615504  0.09261945  1
  O  O37  1  0.30251129  0.64384496  0.59261945  1
  O  O38  1  0.30251129  0.14384496  0.90738055  1
  O  O39  1  0.69748871  0.35615504  0.40738055  1
