# generated using pymatgen
data_Na2Mn(SiO3)2
_symmetry_space_group_name_H-M   'P 1'
_cell_length_a   7.46025493
_cell_length_b   10.41894772
_cell_length_c   10.46338389
_cell_angle_alpha   90.00000000
_cell_angle_beta   90.00000000
_cell_angle_gamma   90.00000000
_symmetry_Int_Tables_number   1
_chemical_formula_structural   Na2Mn(SiO3)2
_chemical_formula_sum   'Na12 Mn6 Si12 O36'
_cell_volume   813.29796676
_cell_formula_units_Z   6
loop_
 _symmetry_equiv_pos_site_id
 _symmetry_equiv_pos_as_xyz
  1  'x, y, z'
loop_
 _atom_site_type_symbol
 _atom_site_label
 _atom_site_symmetry_multiplicity
 _atom_site_fract_x
 _atom_site_fract_y
 _atom_site_fract_z
 _atom_site_occupancy
  Na  Na0  1  0.01973245  0.76513865  0.76623496  1
  Na  Na1  1  0.98026755  0.76513865  0.23376504  1
  Na  Na2  1  0.48026755  0.73486135  0.26623496  1
  Na  Na3  1  0.51973245  0.73486135  0.73376504  1
  Na  Na4  1  0.98026755  0.23486135  0.23376504  1
  Na  Na5  1  0.01973245  0.23486135  0.76623496  1
  Na  Na6  1  0.51973245  0.26513865  0.73376504  1
  Na  Na7  1  0.48026755  0.26513865  0.26623496  1
  Na  Na8  1  0.50000000  -0.00000000  -0.00000000  1
  Na  Na9  1  0.00000000  0.50000000  0.50000000  1
  Na  Na10  1  0.00000000  0.50000000  -0.00000000  1
  Na  Na11  1  0.50000000  -0.00000000  0.50000000  1
  Mn  Mn12  1  0.50000000  0.50000000  0.50000000  1
  Mn  Mn13  1  0.00000000  -0.00000000  -0.00000000  1
  Mn  Mn14  1  0.23275609  0.50000000  0.26293188  1
  Mn  Mn15  1  0.76724391  0.50000000  0.73706812  1
  Mn  Mn16  1  0.26724391  -0.00000000  0.76293188  1
  Mn  Mn17  1  0.73275609  -0.00000000  0.23706812  1
  Si  Si18  1  0.21742693  0.77235460  0.49295297  1
  Si  Si19  1  0.78257307  0.77235460  0.50704703  1
  Si  Si20  1  0.28257307  0.72764540  0.99295297  1
  Si  Si21  1  0.71742693  0.72764540  0.00704703  1
  Si  Si22  1  0.78257307  0.22764540  0.50704703  1
  Si  Si23  1  0.21742693  0.22764540  0.49295297  1
  Si  Si24  1  0.71742693  0.27235460  0.00704703  1
  Si  Si25  1  0.28257307  0.27235460  0.99295297  1
  Si  Si26  1  0.25201369  0.50000000  0.77958404  1
  Si  Si27  1  0.74798631  0.50000000  0.22041596  1
  Si  Si28  1  0.24798631  -0.00000000  0.27958404  1
  Si  Si29  1  0.75201369  -0.00000000  0.72041596  1
  O  O30  1  0.44468027  0.50000000  0.70819335  1
  O  O31  1  0.55531973  0.50000000  0.29180665  1
  O  O32  1  0.05531973  -0.00000000  0.20819335  1
  O  O33  1  0.94468027  -0.00000000  0.79180665  1
  O  O34  1  0.05986499  0.50000000  0.70694468  1
  O  O35  1  0.94013501  0.50000000  0.29305532  1
  O  O36  1  0.44013501  -0.00000000  0.20694468  1
  O  O37  1  0.55986499  -0.00000000  0.79305532  1
  O  O38  1  0.24405117  0.62704855  0.87407724  1
  O  O39  1  0.75594883  0.62704855  0.12592276  1
  O  O40  1  0.25594883  0.87295145  0.37407724  1
  O  O41  1  0.74405117  0.87295145  0.62592276  1
  O  O42  1  0.75594883  0.37295145  0.12592276  1
  O  O43  1  0.24405117  0.37295145  0.87407724  1
  O  O44  1  0.74405117  0.12704855  0.62592276  1
  O  O45  1  0.25594883  0.12704855  0.37407724  1
  O  O46  1  0.21282574  0.66262158  0.12541631  1
  O  O47  1  0.78717426  0.66262158  0.87458369  1
  O  O48  1  0.28717426  0.83737842  0.62541631  1
  O  O49  1  0.71282574  0.83737842  0.37458369  1
  O  O50  1  0.78717426  0.33737842  0.87458369  1
  O  O51  1  0.21282574  0.33737842  0.12541631  1
  O  O52  1  0.71282574  0.16262158  0.37458369  1
  O  O53  1  0.28717426  0.16262158  0.62541631  1
  O  O54  1  0.20268096  0.86266245  0.94081864  1
  O  O55  1  0.79731904  0.86266245  0.05918136  1
  O  O56  1  0.29731904  0.63733755  0.44081864  1
  O  O57  1  0.70268096  0.63733755  0.55918136  1
  O  O58  1  0.79731904  0.13733755  0.05918136  1
  O  O59  1  0.20268096  0.13733755  0.94081864  1
  O  O60  1  0.70268096  0.36266245  0.55918136  1
  O  O61  1  0.29731904  0.36266245  0.44081864  1
  O  O62  1  0.50000000  0.75082632  -0.00000000  1
  O  O63  1  0.00000000  0.74917368  0.50000000  1
  O  O64  1  0.50000000  0.24917368  0.00000000  1
  O  O65  1  0.00000000  0.25082632  0.50000000  1
