# generated using pymatgen
data_AgH8C2S2BrN4
_symmetry_space_group_name_H-M   'P 1'
_cell_length_a   6.21599834
_cell_length_b   8.59012037
_cell_length_c   38.57459051
_cell_angle_alpha   90.00000000
_cell_angle_beta   92.70107799
_cell_angle_gamma   90.00000000
_symmetry_Int_Tables_number   1
_chemical_formula_structural   AgH8C2S2BrN4
_chemical_formula_sum   'Ag8 H64 C16 S16 Br8 N32'
_cell_volume   2057.44715623
_cell_formula_units_Z   8
loop_
 _symmetry_equiv_pos_site_id
 _symmetry_equiv_pos_as_xyz
  1  'x, y, z'
loop_
 _atom_site_type_symbol
 _atom_site_label
 _atom_site_symmetry_multiplicity
 _atom_site_fract_x
 _atom_site_fract_y
 _atom_site_fract_z
 _atom_site_occupancy
  Ag  Ag0  1  0.71007998  0.80984359  0.59170464  1
  Ag  Ag1  1  0.28992002  0.30984359  0.90829536  1
  Ag  Ag2  1  0.28992002  0.19015641  0.40829536  1
  Ag  Ag3  1  0.71007998  0.69015641  0.09170464  1
  Ag  Ag4  1  0.37852379  0.74887039  0.65666208  1
  Ag  Ag5  1  0.62147621  0.24887039  0.84333792  1
  Ag  Ag6  1  0.62147621  0.25112961  0.34333792  1
  Ag  Ag7  1  0.37852379  0.75112961  0.15666208  1
  H  H8  1  0.35284641  0.99068307  0.78716136  1
  H  H9  1  0.64715359  0.49068307  0.71283864  1
  H  H10  1  0.64715359  0.00931693  0.21283864  1
  H  H11  1  0.35284641  0.50931693  0.28716136  1
  H  H12  1  0.61838863  0.98816982  0.77375933  1
  H  H13  1  0.38161137  0.48816982  0.72624067  1
  H  H14  1  0.38161137  0.01183018  0.22624067  1
  H  H15  1  0.61838863  0.51183018  0.27375933  1
  H  H16  1  0.07827509  0.89687558  0.75284283  1
  H  H17  1  0.92172491  0.39687558  0.74715717  1
  H  H18  1  0.92172491  0.10312442  0.24715717  1
  H  H19  1  0.07827509  0.60312442  0.25284283  1
  H  H20  1  0.12265041  0.82167154  0.71141345  1
  H  H21  1  0.87734959  0.32167154  0.78858655  1
  H  H22  1  0.87734959  0.17832846  0.28858655  1
  H  H23  1  0.12265041  0.67832846  0.21141345  1
  H  H24  1  0.01869262  0.46130903  0.57971606  1
  H  H25  1  0.98130738  0.96130903  0.92028394  1
  H  H26  1  0.98130738  0.53869097  0.42028394  1
  H  H27  1  0.01869262  0.03869097  0.07971606  1
  H  H28  1  0.11325644  0.49466774  0.62271950  1
  H  H29  1  0.88674356  0.99466774  0.87728050  1
  H  H30  1  0.88674356  0.50533226  0.37728050  1
  H  H31  1  0.11325644  0.00533226  0.12271950  1
  H  H32  1  0.26290880  0.46012827  0.53472482  1
  H  H33  1  0.73709120  0.96012827  0.96527518  1
  H  H34  1  0.73709120  0.53987173  0.46527518  1
  H  H35  1  0.26290880  0.03987173  0.03472482  1
  H  H36  1  0.52748860  0.52403907  0.54462476  1
  H  H37  1  0.47251140  0.02403907  0.95537524  1
  H  H38  1  0.47251140  0.47596093  0.45537524  1
  H  H39  1  0.52748860  0.97596093  0.04462476  1
  H  H40  1  0.85419022  0.27338165  0.64971473  1
  H  H41  1  0.14580978  0.77338165  0.85028527  1
  H  H42  1  0.14580978  0.72661835  0.35028527  1
  H  H43  1  0.85419022  0.22661835  0.14971473  1
  H  H44  1  0.74493705  0.12666601  0.62186939  1
  H  H45  1  0.25506295  0.62666601  0.87813061  1
  H  H46  1  0.25506295  0.87333399  0.37813061  1
  H  H47  1  0.74493705  0.37333399  0.12186939  1
  H  H48  1  0.18639462  0.24919479  0.67506483  1
  H  H49  1  0.81360538  0.74919479  0.82493517  1
  H  H50  1  0.81360538  0.75080521  0.32493517  1
  H  H51  1  0.18639462  0.25080521  0.17506483  1
  H  H52  1  0.33619033  0.07471513  0.67074213  1
  H  H53  1  0.66380967  0.57471513  0.82925787  1
  H  H54  1  0.66380967  0.92528487  0.32925787  1
  H  H55  1  0.33619033  0.42528487  0.17074213  1
  H  H56  1  0.76768535  0.23111659  0.49331580  1
  H  H57  1  0.23231465  0.73111659  0.00668420  1
  H  H58  1  0.23231465  0.76888341  0.50668420  1
  H  H59  1  0.76768535  0.26888341  0.99331580  1
  H  H60  1  0.49756583  0.19363098  0.50234220  1
  H  H61  1  0.50243417  0.69363098  0.99765780  1
  H  H62  1  0.50243417  0.80636902  0.49765780  1
  H  H63  1  0.49756583  0.30636902  0.00234220  1
  H  H64  1  0.03951447  0.15635965  0.53001579  1
  H  H65  1  0.96048553  0.65635965  0.96998421  1
  H  H66  1  0.96048553  0.84364035  0.46998421  1
  H  H67  1  0.03951447  0.34364035  0.03001579  1
  H  H68  1  0.99108201  0.06009431  0.56898628  1
  H  H69  1  0.00891799  0.56009431  0.93101372  1
  H  H70  1  0.00891799  0.93990569  0.43101372  1
  H  H71  1  0.99108201  0.43990569  0.06898628  1
  C  C72  1  0.39066118  0.90511084  0.73810169  1
  C  C73  1  0.60933882  0.40511084  0.76189831  1
  C  C74  1  0.60933882  0.09488916  0.26189831  1
  C  C75  1  0.39066118  0.59488916  0.23810169  1
  C  C76  1  0.34049958  0.50967353  0.58631730  1
  C  C77  1  0.65950042  0.00967353  0.91368270  1
  C  C78  1  0.65950042  0.49032647  0.41368270  1
  C  C79  1  0.34049958  0.99032647  0.08631730  1
  C  C80  1  0.04283189  0.08033030  0.64452434  1
  C  C81  1  0.95716811  0.58033030  0.85547566  1
  C  C82  1  0.95716811  0.91966970  0.35547566  1
  C  C83  1  0.04283189  0.41966970  0.14452434  1
  C  C84  1  0.72130020  0.12489949  0.54003921  1
  C  C85  1  0.27869980  0.62489949  0.95996079  1
  C  C86  1  0.27869980  0.87510051  0.45996079  1
  C  C87  1  0.72130020  0.37510051  0.04003921  1
  S  S88  1  0.57232062  0.87544387  0.70655748  1
  S  S89  1  0.42767938  0.37544387  0.79344252  1
  S  S90  1  0.42767938  0.12455613  0.29344252  1
  S  S91  1  0.57232062  0.62455613  0.20655748  1
  S  S92  1  0.54905638  0.56040695  0.61602313  1
  S  S93  1  0.45094362  0.06040695  0.88397687  1
  S  S94  1  0.45094362  0.43959305  0.38397687  1
  S  S95  1  0.54905638  0.93959305  0.11602313  1
  S  S96  1  0.06753577  0.89996840  0.62531127  1
  S  S97  1  0.93246423  0.39996840  0.87468873  1
  S  S98  1  0.93246423  0.10003160  0.37468873  1
  S  S99  1  0.06753577  0.60003160  0.12531127  1
  S  S100  1  0.53337091  0.05598175  0.56756798  1
  S  S101  1  0.46662909  0.55598175  0.93243202  1
  S  S102  1  0.46662909  0.94401825  0.43243202  1
  S  S103  1  0.53337091  0.44401825  0.06756798  1
  Br  Br104  1  0.84882569  0.67520192  0.52589588  1
  Br  Br105  1  0.15117431  0.17520192  0.97410412  1
  Br  Br106  1  0.15117431  0.32479808  0.47410412  1
  Br  Br107  1  0.84882569  0.82479808  0.02589588  1
  Br  Br108  1  0.03876073  0.50927937  0.68579112  1
  Br  Br109  1  0.96123927  0.00927937  0.81420888  1
  Br  Br110  1  0.96123927  0.49072063  0.31420888  1
  Br  Br111  1  0.03876073  0.99072063  0.18579112  1
  N  N112  1  0.46005448  0.96192349  0.76896004  1
  N  N113  1  0.53994552  0.46192349  0.73103996  1
  N  N114  1  0.53994552  0.03807651  0.23103996  1
  N  N115  1  0.46005448  0.53807651  0.26896004  1
  N  N116  1  0.18002690  0.87561457  0.73337879  1
  N  N117  1  0.81997310  0.37561457  0.76662121  1
  N  N118  1  0.81997310  0.12438543  0.26662121  1
  N  N119  1  0.18002690  0.62438543  0.23337879  1
  N  N120  1  0.14473075  0.47927750  0.59716231  1
  N  N121  1  0.85526925  0.97927750  0.90283769  1
  N  N122  1  0.85526925  0.52072250  0.40283769  1
  N  N123  1  0.14473075  0.02072250  0.09716231  1
  N  N124  1  0.37919410  0.49448137  0.55285197  1
  N  N125  1  0.62080590  0.99448137  0.94714803  1
  N  N126  1  0.62080590  0.50551863  0.44714803  1
  N  N127  1  0.37919410  0.00551863  0.05285197  1
  N  N128  1  0.86290777  0.16434408  0.63934014  1
  N  N129  1  0.13709223  0.66434408  0.86065986  1
  N  N130  1  0.13709223  0.83565592  0.36065986  1
  N  N131  1  0.86290777  0.33565592  0.13934014  1
  N  N132  1  0.20367160  0.14083715  0.66427813  1
  N  N133  1  0.79632840  0.64083715  0.83572187  1
  N  N134  1  0.79632840  0.85916285  0.33572187  1
  N  N135  1  0.20367160  0.35916285  0.16427813  1
  N  N136  1  0.65718115  0.18858038  0.50968559  1
  N  N137  1  0.34281885  0.68858038  0.99031441  1
  N  N138  1  0.34281885  0.81141962  0.49031441  1
  N  N139  1  0.65718115  0.31141962  0.00968559  1
  N  N140  1  0.93391285  0.12203672  0.54799963  1
  N  N141  1  0.06608715  0.62203672  0.95200037  1
  N  N142  1  0.06608715  0.87796328  0.45200037  1
  N  N143  1  0.93391285  0.37796328  0.04799963  1
