# generated using pymatgen
data_Li4BH10N3
_symmetry_space_group_name_H-M   'P 1'
_cell_length_a   9.29891864
_cell_length_b   9.29891864
_cell_length_c   9.29891864
_cell_angle_alpha   109.47122063
_cell_angle_beta   109.47122063
_cell_angle_gamma   109.47122063
_symmetry_Int_Tables_number   1
_chemical_formula_structural   Li4BH10N3
_chemical_formula_sum   'Li16 B4 H40 N12'
_cell_volume   618.97834147
_cell_formula_units_Z   4
loop_
 _symmetry_equiv_pos_site_id
 _symmetry_equiv_pos_as_xyz
  1  'x, y, z'
loop_
 _atom_site_type_symbol
 _atom_site_label
 _atom_site_symmetry_multiplicity
 _atom_site_fract_x
 _atom_site_fract_y
 _atom_site_fract_z
 _atom_site_occupancy
  Li  Li0  1  0.03687688  0.25000000  0.78687688  1
  Li  Li1  1  0.75000000  0.71312312  0.46312312  1
  Li  Li2  1  0.78687688  0.03687688  0.25000000  1
  Li  Li3  1  0.46312312  0.75000000  0.71312312  1
  Li  Li4  1  0.25000000  0.78687688  0.03687688  1
  Li  Li5  1  0.71312312  0.46312312  0.75000000  1
  Li  Li6  1  0.27363822  0.25000000  0.02363822  1
  Li  Li7  1  0.75000000  0.47636178  0.22636178  1
  Li  Li8  1  0.02363822  0.27363822  0.25000000  1
  Li  Li9  1  0.22636178  0.75000000  0.47636178  1
  Li  Li10  1  0.25000000  0.02363822  0.27363822  1
  Li  Li11  1  0.47636178  0.22636178  0.75000000  1
  Li  Li12  1  0.46314563  0.00000000  0.50000000  1
  Li  Li13  1  0.50000000  0.46314563  -0.00000000  1
  Li  Li14  1  -0.00000000  0.50000000  0.46314563  1
  Li  Li15  1  0.03685437  0.03685437  0.03685437  1
  B  B16  1  0.73050131  -0.00000000  0.50000000  1
  B  B17  1  0.50000000  0.73050131  -0.00000000  1
  B  B18  1  -0.00000000  0.50000000  0.73050131  1
  B  B19  1  0.76949869  0.76949869  0.76949869  1
  H  H20  1  0.08590876  0.09120498  0.38904029  1
  H  H21  1  0.19686848  0.11095971  0.70216470  1
  H  H22  1  0.99470378  0.79783530  0.40879502  1
  H  H23  1  0.70216470  0.19686848  0.11095971  1
  H  H24  1  0.40879502  0.99470378  0.79783530  1
  H  H25  1  0.38904029  0.08590876  0.09120498  1
  H  H26  1  0.79783530  0.40879502  0.99470378  1
  H  H27  1  0.09120498  0.38904029  0.08590876  1
  H  H28  1  0.11095971  0.70216470  0.19686848  1
  H  H29  1  0.41409124  0.30313152  0.50529622  1
  H  H30  1  0.30313152  0.50529622  0.41409124  1
  H  H31  1  0.50529622  0.41409124  0.30313152  1
  H  H32  1  0.94235888  0.91433074  0.20054047  1
  H  H33  1  0.24181841  0.29945953  0.71379027  1
  H  H34  1  0.02802815  0.78620973  0.58566926  1
  H  H35  1  0.71379027  0.24181841  0.29945953  1
  H  H36  1  0.58566926  0.02802815  0.78620973  1
  H  H37  1  0.20054047  0.94235888  0.91433074  1
  H  H38  1  0.78620973  0.58566926  0.02802815  1
  H  H39  1  0.91433074  0.20054047  0.94235888  1
  H  H40  1  0.29945953  0.71379027  0.24181841  1
  H  H41  1  0.55764112  0.25818159  0.47197185  1
  H  H42  1  0.25818159  0.47197185  0.55764112  1
  H  H43  1  0.47197185  0.55764112  0.25818159  1
  H  H44  1  0.65635230  0.03066370  0.38678364  1
  H  H45  1  0.76956865  0.11321636  0.64388006  1
  H  H46  1  0.62568859  0.85611994  0.46933630  1
  H  H47  1  0.64388006  0.76956865  0.11321636  1
  H  H48  1  0.46933630  0.62568859  0.85611994  1
  H  H49  1  0.38678364  0.65635230  0.03066370  1
  H  H50  1  0.85611994  0.46933630  0.62568859  1
  H  H51  1  0.03066370  0.38678364  0.65635230  1
  H  H52  1  0.11321636  0.64388006  0.76956865  1
  H  H53  1  0.84364770  0.73043135  0.87431141  1
  H  H54  1  0.73043135  0.87431141  0.84364770  1
  H  H55  1  0.87431141  0.84364770  0.73043135  1
  H  H56  1  0.86284276  0.00000000  0.50000000  1
  H  H57  1  0.50000000  0.86284276  0.00000000  1
  H  H58  1  -0.00000000  0.50000000  0.86284276  1
  H  H59  1  0.63715724  0.63715724  0.63715724  1
  N  N60  1  0.02057720  0.04817426  0.25658526  1
  N  N61  1  0.26399194  0.24341474  0.79158900  1
  N  N62  1  0.97240293  0.70841100  0.45182574  1
  N  N63  1  0.79158900  0.26399194  0.24341474  1
  N  N64  1  0.45182574  0.97240293  0.70841100  1
  N  N65  1  0.25658526  0.02057720  0.04817426  1
  N  N66  1  0.70841100  0.45182574  0.97240293  1
  N  N67  1  0.04817426  0.25658526  0.02057720  1
  N  N68  1  0.24341474  0.79158900  0.26399194  1
  N  N69  1  0.47942280  0.23600806  0.52759707  1
  N  N70  1  0.23600806  0.52759707  0.47942280  1
  N  N71  1  0.52759707  0.47942280  0.23600806  1
