# generated using pymatgen
data_Cu2H6Pb5C(SO7)3
_symmetry_space_group_name_H-M   'P 1'
_cell_length_a   6.68258880
_cell_length_b   7.28716347
_cell_length_c   20.26729230
_cell_angle_alpha   90.00000000
_cell_angle_beta   90.00000000
_cell_angle_gamma   90.00000000
_symmetry_Int_Tables_number   1
_chemical_formula_structural   Cu2H6Pb5C(SO7)3
_chemical_formula_sum   'Cu4 H12 Pb10 C2 S6 O42'
_cell_volume   986.95870417
_cell_formula_units_Z   2
loop_
 _symmetry_equiv_pos_site_id
 _symmetry_equiv_pos_as_xyz
  1  'x, y, z'
loop_
 _atom_site_type_symbol
 _atom_site_label
 _atom_site_symmetry_multiplicity
 _atom_site_fract_x
 _atom_site_fract_y
 _atom_site_fract_z
 _atom_site_occupancy
  Cu  Cu0  1  0.19939948  0.49187829  0.24938668  1
  Cu  Cu1  1  0.19939948  0.49187829  0.75061332  1
  Cu  Cu2  1  0.69939948  0.50812171  0.25061332  1
  Cu  Cu3  1  0.69939948  0.50812171  0.74938668  1
  H  H4  1  0.27875404  0.34203007  0.36315440  1
  H  H5  1  0.27875404  0.34203007  0.63684560  1
  H  H6  1  0.77875404  0.65796993  0.13684560  1
  H  H7  1  0.77875404  0.65796993  0.86315440  1
  H  H8  1  0.11698449  0.62853487  0.13368305  1
  H  H9  1  0.11698449  0.62853487  0.86631695  1
  H  H10  1  0.61698449  0.37146513  0.36631695  1
  H  H11  1  0.61698449  0.37146513  0.63368305  1
  H  H12  1  0.46132999  0.24653341  0.24931400  1
  H  H13  1  0.46132999  0.24653341  0.75068600  1
  H  H14  1  0.96132999  0.75346659  0.25068600  1
  H  H15  1  0.96132999  0.75346659  0.74931400  1
  Pb  Pb16  1  0.00501654  0.09868486  0.00000000  1
  Pb  Pb17  1  0.50501654  0.90131514  0.50000000  1
  Pb  Pb18  1  0.45942994  0.41651835  0.10081197  1
  Pb  Pb19  1  0.45942994  0.41651835  0.89918803  1
  Pb  Pb20  1  0.95942994  0.58348165  0.39918803  1
  Pb  Pb21  1  0.95942994  0.58348165  0.60081197  1
  Pb  Pb22  1  0.42911266  0.88552386  0.16193448  1
  Pb  Pb23  1  0.42911266  0.88552386  0.83806552  1
  Pb  Pb24  1  0.92911266  0.11447614  0.33806552  1
  Pb  Pb25  1  0.92911266  0.11447614  0.66193448  1
  C  C26  1  0.41507161  0.84283497  0.00000000  1
  C  C27  1  0.91507161  0.15716503  0.50000000  1
  S  S28  1  0.95060883  0.12259384  0.16331196  1
  S  S29  1  0.95060883  0.12259384  0.83668804  1
  S  S30  1  0.45060883  0.87740616  0.33668804  1
  S  S31  1  0.45060883  0.87740616  0.66331196  1
  S  S32  1  0.95794405  0.55827627  0.00000000  1
  S  S33  1  0.45794405  0.44172373  0.50000000  1
  O  O34  1  0.16052238  0.37213254  0.33606278  1
  O  O35  1  0.16052238  0.37213254  0.66393722  1
  O  O36  1  0.66052238  0.62786746  0.16393722  1
  O  O37  1  0.66052238  0.62786746  0.83606278  1
  O  O38  1  0.23535982  0.60558125  0.16188486  1
  O  O39  1  0.23535982  0.60558125  0.83811514  1
  O  O40  1  0.73535982  0.39441875  0.33811514  1
  O  O41  1  0.73535982  0.39441875  0.66188486  1
  O  O42  1  0.45412234  0.36817345  0.22772525  1
  O  O43  1  0.45412234  0.36817345  0.77227475  1
  O  O44  1  0.95412234  0.63182655  0.27227475  1
  O  O45  1  0.95412234  0.63182655  0.72772525  1
  O  O46  1  0.96184106  0.67716159  0.05993796  1
  O  O47  1  0.96184106  0.67716159  0.94006204  1
  O  O48  1  0.46184106  0.32283841  0.44006204  1
  O  O49  1  0.46184106  0.32283841  0.55993796  1
  O  O50  1  0.77790618  0.43489247  0.00000000  1
  O  O51  1  0.27790618  0.56510753  0.50000000  1
  O  O52  1  0.13962709  0.43087786  0.00000000  1
  O  O53  1  0.63962709  0.56912214  0.50000000  1
  O  O54  1  0.93447937  0.27105222  0.21367229  1
  O  O55  1  0.93447937  0.27105222  0.78632771  1
  O  O56  1  0.43447937  0.72894778  0.28632771  1
  O  O57  1  0.43447937  0.72894778  0.71367229  1
  O  O58  1  0.99923479  0.94618806  0.19691366  1
  O  O59  1  0.99923479  0.94618806  0.80308634  1
  O  O60  1  0.49923479  0.05381194  0.30308634  1
  O  O61  1  0.49923479  0.05381194  0.69691366  1
  O  O62  1  0.76197349  0.10841033  0.12410824  1
  O  O63  1  0.76197349  0.10841033  0.87589176  1
  O  O64  1  0.26197349  0.89158967  0.37589176  1
  O  O65  1  0.26197349  0.89158967  0.62410824  1
  O  O66  1  0.11976630  0.16688800  0.11622211  1
  O  O67  1  0.11976630  0.16688800  0.88377789  1
  O  O68  1  0.61976630  0.83311200  0.38377789  1
  O  O69  1  0.61976630  0.83311200  0.61622211  1
  O  O70  1  0.44775474  0.75516147  0.05491473  1
  O  O71  1  0.44775474  0.75516147  0.94508527  1
  O  O72  1  0.94775474  0.24483853  0.44508527  1
  O  O73  1  0.94775474  0.24483853  0.55491473  1
  O  O74  1  0.35488704  0.01193443  0.00000000  1
  O  O75  1  0.85488704  0.98806557  0.50000000  1
