# generated using pymatgen
data_KNaPH8O7
_symmetry_space_group_name_H-M   'P 1'
_cell_length_a   10.85567805
_cell_length_b   11.61105080
_cell_length_c   11.78627052
_cell_angle_alpha   90.00000000
_cell_angle_beta   90.00000000
_cell_angle_gamma   90.00000000
_symmetry_Int_Tables_number   1
_chemical_formula_structural   KNaPH8O7
_chemical_formula_sum   'K8 Na8 P8 H64 O56'
_cell_volume   1485.61024213
_cell_formula_units_Z   8
loop_
 _symmetry_equiv_pos_site_id
 _symmetry_equiv_pos_as_xyz
  1  'x, y, z'
loop_
 _atom_site_type_symbol
 _atom_site_label
 _atom_site_symmetry_multiplicity
 _atom_site_fract_x
 _atom_site_fract_y
 _atom_site_fract_z
 _atom_site_occupancy
  K  K0  1  0.18956472  0.17452260  0.84112152  1
  K  K1  1  0.68956472  0.32547740  0.15887848  1
  K  K2  1  0.81043528  0.67452260  0.65887848  1
  K  K3  1  0.31043528  0.82547740  0.34112152  1
  K  K4  1  0.81043528  0.82547740  0.15887848  1
  K  K5  1  0.31043528  0.67452260  0.84112152  1
  K  K6  1  0.18956472  0.32547740  0.34112152  1
  K  K7  1  0.68956472  0.17452260  0.65887848  1
  Na  Na8  1  0.49407512  0.02295378  0.85159326  1
  Na  Na9  1  0.99407512  0.47704622  0.14840674  1
  Na  Na10  1  0.50592488  0.52295378  0.64840674  1
  Na  Na11  1  0.00592488  0.97704622  0.35159326  1
  Na  Na12  1  0.50592488  0.97704622  0.14840674  1
  Na  Na13  1  0.00592488  0.52295378  0.85159326  1
  Na  Na14  1  0.49407512  0.47704622  0.35159326  1
  Na  Na15  1  0.99407512  0.02295378  0.64840674  1
  P  P16  1  0.99321164  0.08069365  0.05007335  1
  P  P17  1  0.49321164  0.41930635  0.94992665  1
  P  P18  1  0.00678836  0.58069365  0.44992665  1
  P  P19  1  0.50678836  0.91930635  0.55007335  1
  P  P20  1  0.00678836  0.91930635  0.94992665  1
  P  P21  1  0.50678836  0.58069365  0.05007335  1
  P  P22  1  0.99321164  0.41930635  0.55007335  1
  P  P23  1  0.49321164  0.08069365  0.44992665  1
  H  H24  1  0.22451975  0.92647381  0.81243705  1
  H  H25  1  0.72451975  0.57352619  0.18756295  1
  H  H26  1  0.77548025  0.42647381  0.68756295  1
  H  H27  1  0.27548025  0.07352619  0.31243705  1
  H  H28  1  0.77548025  0.07352619  0.18756295  1
  H  H29  1  0.27548025  0.42647381  0.81243705  1
  H  H30  1  0.22451975  0.57352619  0.31243705  1
  H  H31  1  0.72451975  0.92647381  0.68756295  1
  H  H32  1  0.32782039  0.91019424  0.71687538  1
  H  H33  1  0.82782039  0.58980576  0.28312462  1
  H  H34  1  0.67217961  0.41019424  0.78312462  1
  H  H35  1  0.17217961  0.08980576  0.21687538  1
  H  H36  1  0.67217961  0.08980576  0.28312462  1
  H  H37  1  0.17217961  0.41019424  0.71687538  1
  H  H38  1  0.32782039  0.58980576  0.21687538  1
  H  H39  1  0.82782039  0.91019424  0.78312462  1
  H  H40  1  0.30568175  0.09246109  0.04207175  1
  H  H41  1  0.80568175  0.40753891  0.95792825  1
  H  H42  1  0.69431825  0.59246109  0.45792825  1
  H  H43  1  0.19431825  0.90753891  0.54207175  1
  H  H44  1  0.69431825  0.90753891  0.95792825  1
  H  H45  1  0.19431825  0.59246109  0.04207175  1
  H  H46  1  0.30568175  0.40753891  0.54207175  1
  H  H47  1  0.80568175  0.09246109  0.45792825  1
  H  H48  1  0.40537348  0.18780081  0.01863155  1
  H  H49  1  0.90537348  0.31219919  0.98136845  1
  H  H50  1  0.59462652  0.68780081  0.48136845  1
  H  H51  1  0.09462652  0.81219919  0.51863155  1
  H  H52  1  0.59462652  0.81219919  0.98136845  1
  H  H53  1  0.09462652  0.68780081  0.01863155  1
  H  H54  1  0.40537348  0.31219919  0.51863155  1
  H  H55  1  0.90537348  0.18780081  0.48136845  1
  H  H56  1  0.43965833  0.27929585  0.77001994  1
  H  H57  1  0.93965833  0.22070415  0.22998006  1
  H  H58  1  0.56034167  0.77929585  0.72998006  1
  H  H59  1  0.06034167  0.72070415  0.27001994  1
  H  H60  1  0.56034167  0.72070415  0.22998006  1
  H  H61  1  0.06034167  0.77929585  0.77001994  1
  H  H62  1  0.43965833  0.22070415  0.27001994  1
  H  H63  1  0.93965833  0.27929585  0.72998006  1
  H  H64  1  0.42376565  0.18919980  0.66899325  1
  H  H65  1  0.92376565  0.31080020  0.33100675  1
  H  H66  1  0.57623435  0.68919980  0.83100675  1
  H  H67  1  0.07623435  0.81080020  0.16899325  1
  H  H68  1  0.57623435  0.81080020  0.33100675  1
  H  H69  1  0.07623435  0.68919980  0.66899325  1
  H  H70  1  0.42376565  0.31080020  0.16899325  1
  H  H71  1  0.92376565  0.18919980  0.83100675  1
  H  H72  1  0.35539364  0.77428461  0.09158914  1
  H  H73  1  0.85539364  0.72571539  0.90841086  1
  H  H74  1  0.64460636  0.27428461  0.40841086  1
  H  H75  1  0.14460636  0.22571539  0.59158914  1
  H  H76  1  0.64460636  0.22571539  0.90841086  1
  H  H77  1  0.14460636  0.27428461  0.09158914  1
  H  H78  1  0.35539364  0.72571539  0.59158914  1
  H  H79  1  0.85539364  0.77428461  0.40841086  1
  H  H80  1  0.25295339  0.86631528  0.07250569  1
  H  H81  1  0.75295339  0.63368472  0.92749431  1
  H  H82  1  0.74704661  0.36631528  0.42749431  1
  H  H83  1  0.24704661  0.13368472  0.57250569  1
  H  H84  1  0.74704661  0.13368472  0.92749431  1
  H  H85  1  0.24704661  0.36631528  0.07250569  1
  H  H86  1  0.25295339  0.63368472  0.57250569  1
  H  H87  1  0.75295339  0.86631528  0.42749431  1
  O  O88  1  0.93094659  0.05387927  0.16501905  1
  O  O89  1  0.43094659  0.44612073  0.83498095  1
  O  O90  1  0.06905341  0.55387927  0.33498095  1
  O  O91  1  0.56905341  0.94612073  0.66501905  1
  O  O92  1  0.06905341  0.94612073  0.83498095  1
  O  O93  1  0.56905341  0.55387927  0.16501905  1
  O  O94  1  0.93094659  0.44612073  0.66501905  1
  O  O95  1  0.43094659  0.05387927  0.33498095  1
  O  O96  1  0.12748725  0.12415019  0.06705670  1
  O  O97  1  0.62748725  0.37584981  0.93294330  1
  O  O98  1  0.87251275  0.62415019  0.43294330  1
  O  O99  1  0.37251275  0.87584981  0.56705670  1
  O  O100  1  0.87251275  0.87584981  0.93294330  1
  O  O101  1  0.37251275  0.62415019  0.06705670  1
  O  O102  1  0.12748725  0.37584981  0.56705670  1
  O  O103  1  0.62748725  0.12415019  0.43294330  1
  O  O104  1  0.91654535  0.16526491  0.97635642  1
  O  O105  1  0.41654535  0.33473509  0.02364358  1
  O  O106  1  0.08345465  0.66526491  0.52364358  1
  O  O107  1  0.58345465  0.83473509  0.47635642  1
  O  O108  1  0.08345465  0.83473509  0.02364358  1
  O  O109  1  0.58345465  0.66526491  0.97635642  1
  O  O110  1  0.91654535  0.33473509  0.47635642  1
  O  O111  1  0.41654535  0.16526491  0.52364358  1
  O  O112  1  0.31516789  0.91731981  0.79974827  1
  O  O113  1  0.81516789  0.58268019  0.20025173  1
  O  O114  1  0.68483211  0.41731981  0.70025173  1
  O  O115  1  0.18483211  0.08268019  0.29974827  1
  O  O116  1  0.68483211  0.08268019  0.20025173  1
  O  O117  1  0.18483211  0.41731981  0.79974827  1
  O  O118  1  0.31516789  0.58268019  0.29974827  1
  O  O119  1  0.81516789  0.91731981  0.70025173  1
  O  O120  1  0.39244018  0.10244791  0.02038701  1
  O  O121  1  0.89244018  0.39755209  0.97961299  1
  O  O122  1  0.60755982  0.60244791  0.47961299  1
  O  O123  1  0.10755982  0.89755209  0.52038701  1
  O  O124  1  0.60755982  0.89755209  0.97961299  1
  O  O125  1  0.10755982  0.60244791  0.02038701  1
  O  O126  1  0.39244018  0.39755209  0.52038701  1
  O  O127  1  0.89244018  0.10244791  0.47961299  1
  O  O128  1  0.43370346  0.19677403  0.75282711  1
  O  O129  1  0.93370346  0.30322597  0.24717289  1
  O  O130  1  0.56629654  0.69677403  0.74717289  1
  O  O131  1  0.06629654  0.80322597  0.25282711  1
  O  O132  1  0.56629654  0.80322597  0.24717289  1
  O  O133  1  0.06629654  0.69677403  0.75282711  1
  O  O134  1  0.43370346  0.30322597  0.25282711  1
  O  O135  1  0.93370346  0.19677403  0.74717289  1
  O  O136  1  0.33306055  0.85545482  0.10982794  1
  O  O137  1  0.83306055  0.64454518  0.89017206  1
  O  O138  1  0.66693945  0.35545482  0.39017206  1
  O  O139  1  0.16693945  0.14454518  0.60982794  1
  O  O140  1  0.66693945  0.14454518  0.89017206  1
  O  O141  1  0.16693945  0.35545482  0.10982794  1
  O  O142  1  0.33306055  0.64454518  0.60982794  1
  O  O143  1  0.83306055  0.85545482  0.39017206  1
