# generated using pymatgen
data_Cu4As3PbO12
_symmetry_space_group_name_H-M   'P 1'
_cell_length_a   5.30281776
_cell_length_b   8.56325419
_cell_length_c   11.51995024
_cell_angle_alpha   89.52680761
_cell_angle_beta   90.10291775
_cell_angle_gamma   86.25310341
_symmetry_Int_Tables_number   1
_chemical_formula_structural   Cu4As3PbO12
_chemical_formula_sum   'Cu8 As6 Pb2 O24'
_cell_volume   521.97634990
_cell_formula_units_Z   2
loop_
 _symmetry_equiv_pos_site_id
 _symmetry_equiv_pos_as_xyz
  1  'x, y, z'
loop_
 _atom_site_type_symbol
 _atom_site_label
 _atom_site_symmetry_multiplicity
 _atom_site_fract_x
 _atom_site_fract_y
 _atom_site_fract_z
 _atom_site_occupancy
  Cu  Cu0  1  0.27230031  0.94979907  0.97672733  1
  Cu  Cu1  1  0.72769969  0.05020093  0.02327267  1
  Cu  Cu2  1  0.50000000  0.50000000  -0.00000000  1
  Cu  Cu3  1  0.50000000  0.00000000  0.50000000  1
  Cu  Cu4  1  0.98337504  0.70504241  0.16870526  1
  Cu  Cu5  1  0.01662496  0.29495759  0.83129474  1
  Cu  Cu6  1  0.96574648  0.08110869  0.32045853  1
  Cu  Cu7  1  0.03425352  0.91889131  0.67954147  1
  As  As8  1  0.48157424  0.90285769  0.23193825  1
  As  As9  1  0.51842576  0.09714231  0.76806175  1
  As  As10  1  0.96071940  0.72936306  0.44920483  1
  As  As11  1  0.03928060  0.27063694  0.55079517  1
  As  As12  1  0.04136034  0.33961708  0.11059357  1
  As  As13  1  0.95863966  0.66038292  0.88940643  1
  Pb  Pb14  1  0.49749723  0.45913543  0.33114704  1
  Pb  Pb15  1  0.50250277  0.54086457  0.66885296  1
  O  O16  1  0.32477837  0.97440597  0.35566452  1
  O  O17  1  0.67522163  0.02559403  0.64433548  1
  O  O18  1  0.63287332  0.71856992  0.23701374  1
  O  O19  1  0.36712668  0.28143008  0.76298626  1
  O  O20  1  0.23549355  0.89460273  0.13290744  1
  O  O21  1  0.76450645  0.10539727  0.86709256  1
  O  O22  1  0.69712306  0.03690576  0.18649242  1
  O  O23  1  0.30287694  0.96309424  0.81350758  1
  O  O24  1  0.17514375  0.75152553  0.55889636  1
  O  O25  1  0.82485625  0.24847447  0.44110364  1
  O  O26  1  0.81143527  0.91809225  0.41727638  1
  O  O27  1  0.18856473  0.08190775  0.58272362  1
  O  O28  1  0.11821701  0.65953903  0.32549781  1
  O  O29  1  0.88178299  0.34046097  0.67450219  1
  O  O30  1  0.72589146  0.60924011  0.48585201  1
  O  O31  1  0.27410854  0.39075989  0.51414799  1
  O  O32  1  0.13419461  0.24277419  0.23585350  1
  O  O33  1  0.86580539  0.75722581  0.76414650  1
  O  O34  1  0.13594305  0.23364472  0.98862234  1
  O  O35  1  0.86405695  0.76635528  0.01137766  1
  O  O36  1  0.21608648  0.50861840  0.11175504  1
  O  O37  1  0.78391352  0.49138160  0.88824496  1
  O  O38  1  0.72141856  0.39579917  0.11847347  1
  O  O39  1  0.27858144  0.60420083  0.88152653  1
