# generated using pymatgen
data_Yb5(Ge5Rh2)2
_symmetry_space_group_name_H-M   'P 1'
_cell_length_a   4.37132481
_cell_length_b   13.02053365
_cell_length_c   13.02053365
_cell_angle_alpha   90.00000000
_cell_angle_beta   90.00000000
_cell_angle_gamma   90.00000000
_symmetry_Int_Tables_number   1
_chemical_formula_structural   Yb5(Ge5Rh2)2
_chemical_formula_sum   'Yb10 Ge20 Rh8'
_cell_volume   741.08947657
_cell_formula_units_Z   2
loop_
 _symmetry_equiv_pos_site_id
 _symmetry_equiv_pos_as_xyz
  1  'x, y, z'
loop_
 _atom_site_type_symbol
 _atom_site_label
 _atom_site_symmetry_multiplicity
 _atom_site_fract_x
 _atom_site_fract_y
 _atom_site_fract_z
 _atom_site_occupancy
  Yb  Yb0  1  0.00000000  0.50000000  0.50000000  1
  Yb  Yb1  1  0.00000000  0.00000000  -0.00000000  1
  Yb  Yb2  1  0.50000000  0.17517064  0.67517064  1
  Yb  Yb3  1  0.50000000  0.82482936  0.32482936  1
  Yb  Yb4  1  0.50000000  0.32482936  0.17517064  1
  Yb  Yb5  1  0.50000000  0.67517064  0.82482936  1
  Yb  Yb6  1  0.50000000  0.38834538  0.88834538  1
  Yb  Yb7  1  0.50000000  0.61165462  0.11165462  1
  Yb  Yb8  1  0.50000000  0.11165462  0.38834538  1
  Yb  Yb9  1  0.50000000  0.88834538  0.61165462  1
  Ge  Ge10  1  0.00000000  0.06547955  0.56547955  1
  Ge  Ge11  1  -0.00000000  0.93452045  0.43452045  1
  Ge  Ge12  1  0.00000000  0.43452045  0.06547955  1
  Ge  Ge13  1  -0.00000000  0.56547955  0.93452045  1
  Ge  Ge14  1  -0.00000000  0.70063758  0.65646388  1
  Ge  Ge15  1  0.00000000  0.29936242  0.34353612  1
  Ge  Ge16  1  -0.00000000  0.79936242  0.15646388  1
  Ge  Ge17  1  0.00000000  0.20063758  0.84353612  1
  Ge  Ge18  1  -0.00000000  0.65646388  0.29936242  1
  Ge  Ge19  1  0.00000000  0.34353612  0.70063758  1
  Ge  Ge20  1  0.00000000  0.15646388  0.20063758  1
  Ge  Ge21  1  -0.00000000  0.84353612  0.79936242  1
  Ge  Ge22  1  0.50000000  0.50269830  0.65608281  1
  Ge  Ge23  1  0.50000000  0.49730170  0.34391719  1
  Ge  Ge24  1  0.50000000  0.99730170  0.15608281  1
  Ge  Ge25  1  0.50000000  0.00269830  0.84391719  1
  Ge  Ge26  1  0.50000000  0.65608281  0.49730170  1
  Ge  Ge27  1  0.50000000  0.34391719  0.50269830  1
  Ge  Ge28  1  0.50000000  0.15608281  0.00269830  1
  Ge  Ge29  1  0.50000000  0.84391719  0.99730170  1
  Rh  Rh30  1  0.00000000  0.52623019  0.74714776  1
  Rh  Rh31  1  -0.00000000  0.47376981  0.25285224  1
  Rh  Rh32  1  0.00000000  0.97376981  0.24714776  1
  Rh  Rh33  1  -0.00000000  0.02623019  0.75285224  1
  Rh  Rh34  1  0.00000000  0.74714776  0.47376981  1
  Rh  Rh35  1  -0.00000000  0.25285224  0.52623019  1
  Rh  Rh36  1  -0.00000000  0.24714776  0.02623019  1
  Rh  Rh37  1  0.00000000  0.75285224  0.97376981  1
