# generated using pymatgen
data_PrMn7O12
_symmetry_space_group_name_H-M   'P 1'
_cell_length_a   6.55986364
_cell_length_b   6.58054391
_cell_length_c   6.58054300
_cell_angle_alpha   70.46520774
_cell_angle_beta   70.59242642
_cell_angle_gamma   109.40757038
_symmetry_Int_Tables_number   1
_chemical_formula_structural   PrMn7O12
_chemical_formula_sum   'Pr1 Mn7 O12'
_cell_volume   218.84518406
_cell_formula_units_Z   1
loop_
 _symmetry_equiv_pos_site_id
 _symmetry_equiv_pos_as_xyz
  1  'x, y, z'
loop_
 _atom_site_type_symbol
 _atom_site_label
 _atom_site_symmetry_multiplicity
 _atom_site_fract_x
 _atom_site_fract_y
 _atom_site_fract_z
 _atom_site_occupancy
  Pr  Pr0  1  -0.00000000  0.00000000  0.00000000  1
  Mn  Mn1  1  -0.00000000  0.50000000  0.50000000  1
  Mn  Mn2  1  0.50000000  0.50000000  0.00000000  1
  Mn  Mn3  1  0.50000000  0.00000000  0.50000000  1
  Mn  Mn4  1  0.50000000  0.00000000  0.00000000  1
  Mn  Mn5  1  0.50000000  0.50000000  0.50000000  1
  Mn  Mn6  1  -0.00000000  0.50000000  0.00000000  1
  Mn  Mn7  1  -0.00000000  0.00000000  0.50000000  1
  O  O8  1  0.86934893  0.17484356  0.31192357  1
  O  O9  1  0.18127250  0.31192357  0.51323287  1
  O  O10  1  0.69450537  0.51323287  0.17484356  1
  O  O11  1  0.13065107  0.82515644  0.68807643  1
  O  O12  1  0.81872750  0.68807643  0.48676713  1
  O  O13  1  0.30549463  0.48676713  0.82515644  1
  O  O14  1  0.52370513  0.83842105  0.29791187  1
  O  O15  1  0.82161701  0.29791187  0.86366708  1
  O  O16  1  0.68528409  0.86366708  0.83842105  1
  O  O17  1  0.47629487  0.16157895  0.70208813  1
  O  O18  1  0.17838299  0.70208813  0.13633292  1
  O  O19  1  0.31471591  0.13633292  0.16157895  1
