# generated using pymatgen
data_CeMgCu
_symmetry_space_group_name_H-M   'P 1'
_cell_length_a   4.16673909
_cell_length_b   7.67850226
_cell_length_c   7.67850226
_cell_angle_alpha   119.99998950
_cell_angle_beta   90.00000000
_cell_angle_gamma   90.00000000
_symmetry_Int_Tables_number   1
_chemical_formula_structural   CeMgCu
_chemical_formula_sum   'Ce3 Mg3 Cu3'
_cell_volume   212.75511871
_cell_formula_units_Z   3
loop_
 _symmetry_equiv_pos_site_id
 _symmetry_equiv_pos_as_xyz
  1  'x, y, z'
loop_
 _atom_site_type_symbol
 _atom_site_label
 _atom_site_symmetry_multiplicity
 _atom_site_fract_x
 _atom_site_fract_y
 _atom_site_fract_z
 _atom_site_occupancy
  Ce  Ce0  1  0.00000000  0.42076189  0.42076189  1
  Ce  Ce1  1  0.00000000  0.00000000  0.57923811  1
  Ce  Ce2  1  -0.00000000  0.57923811  0.00000000  1
  Mg  Mg3  1  0.50000000  0.76165860  0.76165860  1
  Mg  Mg4  1  0.50000000  0.00000000  0.23834140  1
  Mg  Mg5  1  0.50000000  0.23834140  0.00000000  1
  Cu  Cu6  1  0.50000000  0.66666700  0.33333300  1
  Cu  Cu7  1  0.50000000  0.33333300  0.66666700  1
  Cu  Cu8  1  0.00000000  0.00000000  -0.00000000  1
