# generated using pymatgen
data_K2CaV4H14O19
_symmetry_space_group_name_H-M   'P 1'
_cell_length_a   8.08135747
_cell_length_b   14.89771978
_cell_length_c   15.62701698
_cell_angle_alpha   90.00000000
_cell_angle_beta   98.17154011
_cell_angle_gamma   90.00000000
_symmetry_Int_Tables_number   1
_chemical_formula_structural   K2CaV4H14O19
_chemical_formula_sum   'K8 Ca4 V16 H56 O76'
_cell_volume   1862.29404308
_cell_formula_units_Z   4
loop_
 _symmetry_equiv_pos_site_id
 _symmetry_equiv_pos_as_xyz
  1  'x, y, z'
loop_
 _atom_site_type_symbol
 _atom_site_label
 _atom_site_symmetry_multiplicity
 _atom_site_fract_x
 _atom_site_fract_y
 _atom_site_fract_z
 _atom_site_occupancy
  K  K0  1  0.65601961  0.68265704  0.29743958  1
  K  K1  1  0.15601961  0.81734296  0.79743958  1
  K  K2  1  0.34398039  0.31734296  0.70256042  1
  K  K3  1  0.84398039  0.18265704  0.20256042  1
  K  K4  1  0.64621749  0.93889007  0.30272366  1
  K  K5  1  0.14621749  0.56110993  0.80272366  1
  K  K6  1  0.35378251  0.06110993  0.69727634  1
  K  K7  1  0.85378251  0.43889007  0.19727634  1
  Ca  Ca8  1  0.10335389  0.81545297  0.21889114  1
  Ca  Ca9  1  0.60335389  0.68454703  0.71889114  1
  Ca  Ca10  1  0.89664611  0.18454703  0.78110886  1
  Ca  Ca11  1  0.39664611  0.31545297  0.28110886  1
  V  V12  1  0.03602171  0.56129873  0.42149374  1
  V  V13  1  0.53602171  0.93870127  0.92149374  1
  V  V14  1  0.96397829  0.43870127  0.57850626  1
  V  V15  1  0.46397829  0.06129873  0.07850626  1
  V  V16  1  0.03585877  0.81314906  0.42134572  1
  V  V17  1  0.53585877  0.68685094  0.92134572  1
  V  V18  1  0.96414123  0.18685094  0.57865428  1
  V  V19  1  0.46414123  0.31314906  0.07865428  1
  V  V20  1  0.95517893  0.93690258  0.57493439  1
  V  V21  1  0.45517893  0.56309742  0.07493439  1
  V  V22  1  0.04482107  0.06309742  0.42506561  1
  V  V23  1  0.54482107  0.43690258  0.92506561  1
  V  V24  1  0.94207131  0.68691687  0.56937357  1
  V  V25  1  0.44207131  0.81308313  0.06937357  1
  V  V26  1  0.05792869  0.31308313  0.43062643  1
  V  V27  1  0.55792869  0.18691687  0.93062643  1
  H  H28  1  0.25111197  0.64433014  0.30100034  1
  H  H29  1  0.75111197  0.85566986  0.80100034  1
  H  H30  1  0.74888803  0.35566986  0.69899966  1
  H  H31  1  0.24888803  0.14433014  0.19899966  1
  H  H32  1  0.26685328  0.63903357  0.20075972  1
  H  H33  1  0.76685328  0.86096643  0.70075972  1
  H  H34  1  0.73314672  0.36096643  0.79924028  1
  H  H35  1  0.23314672  0.13903357  0.29924028  1
  H  H36  1  0.25216103  0.98642858  0.30186153  1
  H  H37  1  0.75216103  0.51357142  0.80186153  1
  H  H38  1  0.74783897  0.01357142  0.69813847  1
  H  H39  1  0.24783897  0.48642858  0.19813847  1
  H  H40  1  0.26883363  0.99104751  0.20168355  1
  H  H41  1  0.76883363  0.50895249  0.70168355  1
  H  H42  1  0.73116637  0.00895249  0.79831645  1
  H  H43  1  0.23116637  0.49104751  0.29831645  1
  H  H44  1  0.90289427  0.97409493  0.11449456  1
  H  H45  1  0.40289427  0.52590507  0.61449456  1
  H  H46  1  0.09710573  0.02590507  0.88550544  1
  H  H47  1  0.59710573  0.47409493  0.38550544  1
  H  H48  1  0.78332699  0.89458725  0.13636580  1
  H  H49  1  0.28332699  0.60541275  0.63636580  1
  H  H50  1  0.21667301  0.10541275  0.86363420  1
  H  H51  1  0.71667301  0.39458725  0.36363420  1
  H  H52  1  0.89431861  0.65796231  0.12164237  1
  H  H53  1  0.39431861  0.84203769  0.62164237  1
  H  H54  1  0.10568139  0.34203769  0.87835763  1
  H  H55  1  0.60568139  0.15796231  0.37835763  1
  H  H56  1  0.77814219  0.74120818  0.14035572  1
  H  H57  1  0.27814219  0.75879182  0.64035572  1
  H  H58  1  0.22185781  0.25879182  0.85964428  1
  H  H59  1  0.72185781  0.24120818  0.35964428  1
  H  H60  1  0.44361417  0.80185054  0.41962911  1
  H  H61  1  0.94361417  0.69814946  0.91962911  1
  H  H62  1  0.55638583  0.19814946  0.58037089  1
  H  H63  1  0.05638583  0.30185054  0.08037089  1
  H  H64  1  0.61497485  0.78767152  0.48002727  1
  H  H65  1  0.11497485  0.71232848  0.98002727  1
  H  H66  1  0.38502515  0.21232848  0.51997273  1
  H  H67  1  0.88502515  0.28767152  0.01997273  1
  H  H68  1  0.44275391  0.57955336  0.43167960  1
  H  H69  1  0.94275391  0.92044664  0.93167960  1
  H  H70  1  0.55724609  0.42044664  0.56832040  1
  H  H71  1  0.05724609  0.07955336  0.06832040  1
  H  H72  1  0.62028486  0.59238198  0.48932306  1
  H  H73  1  0.12028486  0.90761802  0.98932306  1
  H  H74  1  0.37971514  0.40761802  0.51067694  1
  H  H75  1  0.87971514  0.09238198  0.01067694  1
  H  H76  1  0.43960298  0.06053484  0.42229119  1
  H  H77  1  0.93960298  0.43946516  0.92229119  1
  H  H78  1  0.56039702  0.93946516  0.57770881  1
  H  H79  1  0.06039702  0.56053484  0.07770881  1
  H  H80  1  0.60938904  0.05760864  0.48758447  1
  H  H81  1  0.10938904  0.44239136  0.98758447  1
  H  H82  1  0.39061096  0.94239136  0.51241553  1
  H  H83  1  0.89061096  0.55760864  0.01241553  1
  O  O84  1  0.95198523  0.56211905  0.53687112  1
  O  O85  1  0.45198523  0.93788095  0.03687112  1
  O  O86  1  0.04801477  0.43788095  0.46312888  1
  O  O87  1  0.54801477  0.06211905  0.96312888  1
  O  O88  1  0.00536259  0.68742739  0.45061887  1
  O  O89  1  0.50536259  0.81257261  0.95061887  1
  O  O90  1  0.99463741  0.31257261  0.54938113  1
  O  O91  1  0.49463741  0.18742739  0.04938113  1
  O  O92  1  0.22869458  0.56894864  0.38848789  1
  O  O93  1  0.72869458  0.93105136  0.88848789  1
  O  O94  1  0.77130542  0.43105136  0.61151211  1
  O  O95  1  0.27130542  0.06894864  0.11151211  1
  O  O96  1  0.89700255  0.55156250  0.33381671  1
  O  O97  1  0.39700255  0.94843750  0.83381671  1
  O  O98  1  0.10299745  0.44843750  0.66618329  1
  O  O99  1  0.60299745  0.05156250  0.16618329  1
  O  O100  1  0.95278646  0.81277296  0.53670597  1
  O  O101  1  0.45278646  0.68722704  0.03670597  1
  O  O102  1  0.04721354  0.18722704  0.46329403  1
  O  O103  1  0.54721354  0.31277296  0.96329403  1
  O  O104  1  0.22932194  0.80922752  0.39524229  1
  O  O105  1  0.72932194  0.69077248  0.89524229  1
  O  O106  1  0.77067806  0.19077248  0.60475771  1
  O  O107  1  0.27067806  0.30922752  0.10475771  1
  O  O108  1  0.03148873  0.93763780  0.45789663  1
  O  O109  1  0.53148873  0.56236220  0.95789663  1
  O  O110  1  0.96851127  0.06236220  0.54210337  1
  O  O111  1  0.46851127  0.43763780  0.04210337  1
  O  O112  1  0.91098443  0.81841091  0.32525299  1
  O  O113  1  0.41098443  0.68158909  0.82525299  1
  O  O114  1  0.08901557  0.18158909  0.67474701  1
  O  O115  1  0.58901557  0.31841091  0.17474701  1
  O  O116  1  0.09798917  0.93362991  0.66147455  1
  O  O117  1  0.59798917  0.56637009  0.16147455  1
  O  O118  1  0.90201083  0.06637009  0.33852545  1
  O  O119  1  0.40201083  0.43362991  0.83852545  1
  O  O120  1  0.76325265  0.94025034  0.61050522  1
  O  O121  1  0.26325265  0.55974966  0.11050522  1
  O  O122  1  0.23674735  0.05974966  0.38949478  1
  O  O123  1  0.73674735  0.44025034  0.88949478  1
  O  O124  1  0.74654147  0.68643460  0.59595839  1
  O  O125  1  0.24654147  0.81356540  0.09595839  1
  O  O126  1  0.25345853  0.31356540  0.40404161  1
  O  O127  1  0.75345853  0.18643460  0.90404161  1
  O  O128  1  0.09021691  0.68660193  0.65720927  1
  O  O129  1  0.59021691  0.81339807  0.15720927  1
  O  O130  1  0.90978309  0.31339807  0.34279073  1
  O  O131  1  0.40978309  0.18660193  0.84279073  1
  O  O132  1  0.26975519  0.68117459  0.25011071  1
  O  O133  1  0.76975519  0.81882541  0.75011071  1
  O  O134  1  0.73024481  0.31882541  0.74988929  1
  O  O135  1  0.23024481  0.18117459  0.24988929  1
  O  O136  1  0.27025346  0.94901470  0.25120849  1
  O  O137  1  0.77025346  0.55098530  0.75120849  1
  O  O138  1  0.72974654  0.05098530  0.74879151  1
  O  O139  1  0.22974654  0.44901470  0.24879151  1
  O  O140  1  0.89983585  0.91460339  0.14363220  1
  O  O141  1  0.39983585  0.58539661  0.64363220  1
  O  O142  1  0.10016415  0.08539661  0.85636780  1
  O  O143  1  0.60016415  0.41460339  0.35636780  1
  O  O144  1  0.89101675  0.71561831  0.15372124  1
  O  O145  1  0.39101675  0.78438169  0.65372124  1
  O  O146  1  0.10898325  0.28438169  0.84627876  1
  O  O147  1  0.60898325  0.21561831  0.34627876  1
  O  O148  1  0.56696671  0.80674846  0.42210537  1
  O  O149  1  0.06696671  0.69325154  0.92210537  1
  O  O150  1  0.43303329  0.19325154  0.57789463  1
  O  O151  1  0.93303329  0.30674846  0.07789463  1
  O  O152  1  0.56569047  0.57689978  0.43132546  1
  O  O153  1  0.06569047  0.92310022  0.93132546  1
  O  O154  1  0.43430953  0.42310022  0.56867454  1
  O  O155  1  0.93430953  0.07689978  0.06867454  1
  O  O156  1  0.56492612  0.05782528  0.42636501  1
  O  O157  1  0.06492612  0.44217472  0.92636501  1
  O  O158  1  0.43507388  0.94217472  0.57363499  1
  O  O159  1  0.93507388  0.55782528  0.07363499  1
