# generated using pymatgen
data_Co(W3Cl7)2
_symmetry_space_group_name_H-M   'P 1'
_cell_length_a   12.77919895
_cell_length_b   12.77919895
_cell_length_c   12.77919895
_cell_angle_alpha   90.00000000
_cell_angle_beta   90.00000000
_cell_angle_gamma   90.00000000
_symmetry_Int_Tables_number   1
_chemical_formula_structural   Co(W3Cl7)2
_chemical_formula_sum   'Co4 W24 Cl56'
_cell_volume   2086.94447396
_cell_formula_units_Z   4
loop_
 _symmetry_equiv_pos_site_id
 _symmetry_equiv_pos_as_xyz
  1  'x, y, z'
loop_
 _atom_site_type_symbol
 _atom_site_label
 _atom_site_symmetry_multiplicity
 _atom_site_fract_x
 _atom_site_fract_y
 _atom_site_fract_z
 _atom_site_occupancy
  Co  Co0  1  0.00000000  0.50000000  0.50000000  1
  Co  Co1  1  0.50000000  0.50000000  0.00000000  1
  Co  Co2  1  0.50000000  -0.00000000  0.50000000  1
  Co  Co3  1  0.00000000  -0.00000000  0.00000000  1
  W  W4  1  0.35865918  0.47280793  0.52271807  1
  W  W5  1  0.14134082  0.47280793  0.97728193  1
  W  W6  1  0.14134082  0.02719207  0.52271807  1
  W  W7  1  0.35865918  0.02719207  0.97728193  1
  W  W8  1  0.52271807  0.35865918  0.47280793  1
  W  W9  1  0.97728193  0.14134082  0.47280793  1
  W  W10  1  0.52271807  0.14134082  0.02719207  1
  W  W11  1  0.97728193  0.35865918  0.02719207  1
  W  W12  1  0.47280793  0.52271807  0.35865918  1
  W  W13  1  0.47280793  0.97728193  0.14134082  1
  W  W14  1  0.02719207  0.52271807  0.14134082  1
  W  W15  1  0.02719207  0.97728193  0.35865918  1
  W  W16  1  0.64134082  0.52719207  0.47728193  1
  W  W17  1  0.85865918  0.52719207  0.02271807  1
  W  W18  1  0.85865918  0.97280793  0.47728193  1
  W  W19  1  0.64134082  0.97280793  0.02271807  1
  W  W20  1  0.47728193  0.64134082  0.52719207  1
  W  W21  1  0.02271807  0.85865918  0.52719207  1
  W  W22  1  0.47728193  0.85865918  0.97280793  1
  W  W23  1  0.02271807  0.64134082  0.97280793  1
  W  W24  1  0.52719207  0.47728193  0.64134082  1
  W  W25  1  0.52719207  0.02271807  0.85865918  1
  W  W26  1  0.97280793  0.47728193  0.85865918  1
  W  W27  1  0.97280793  0.02271807  0.64134082  1
  Cl  Cl28  1  0.17199020  0.43089919  0.55965010  1
  Cl  Cl29  1  0.32800980  0.43089919  0.94034990  1
  Cl  Cl30  1  0.32800980  0.06910081  0.55965010  1
  Cl  Cl31  1  0.17199020  0.06910081  0.94034990  1
  Cl  Cl32  1  0.55965010  0.17199020  0.43089919  1
  Cl  Cl33  1  0.94034990  0.32800980  0.43089919  1
  Cl  Cl34  1  0.55965010  0.32800980  0.06910081  1
  Cl  Cl35  1  0.94034990  0.17199020  0.06910081  1
  Cl  Cl36  1  0.43089919  0.55965010  0.17199020  1
  Cl  Cl37  1  0.43089919  0.94034990  0.32800980  1
  Cl  Cl38  1  0.06910081  0.55965010  0.32800980  1
  Cl  Cl39  1  0.06910081  0.94034990  0.17199020  1
  Cl  Cl40  1  0.82800980  0.56910081  0.44034990  1
  Cl  Cl41  1  0.67199020  0.56910081  0.05965010  1
  Cl  Cl42  1  0.67199020  0.93089919  0.44034990  1
  Cl  Cl43  1  0.82800980  0.93089919  0.05965010  1
  Cl  Cl44  1  0.44034990  0.82800980  0.56910081  1
  Cl  Cl45  1  0.05965010  0.67199020  0.56910081  1
  Cl  Cl46  1  0.44034990  0.67199020  0.93089919  1
  Cl  Cl47  1  0.05965010  0.82800980  0.93089919  1
  Cl  Cl48  1  0.56910081  0.44034990  0.82800980  1
  Cl  Cl49  1  0.56910081  0.05965010  0.67199020  1
  Cl  Cl50  1  0.93089919  0.44034990  0.67199020  1
  Cl  Cl51  1  0.93089919  0.05965010  0.82800980  1
  Cl  Cl52  1  0.63916388  0.86083612  0.86083612  1
  Cl  Cl53  1  0.86083612  0.86083612  0.63916388  1
  Cl  Cl54  1  0.86083612  0.63916388  0.86083612  1
  Cl  Cl55  1  0.63916388  0.63916388  0.63916388  1
  Cl  Cl56  1  0.36083612  0.13916388  0.13916388  1
  Cl  Cl57  1  0.13916388  0.13916388  0.36083612  1
  Cl  Cl58  1  0.13916388  0.36083612  0.13916388  1
  Cl  Cl59  1  0.36083612  0.36083612  0.36083612  1
  Cl  Cl60  1  0.31811004  0.62982405  0.41390416  1
  Cl  Cl61  1  0.18188996  0.62982405  0.08609584  1
  Cl  Cl62  1  0.18188996  0.87017595  0.41390416  1
  Cl  Cl63  1  0.31811004  0.87017595  0.08609584  1
  Cl  Cl64  1  0.41390416  0.31811004  0.62982405  1
  Cl  Cl65  1  0.08609584  0.18188996  0.62982405  1
  Cl  Cl66  1  0.41390416  0.18188996  0.87017595  1
  Cl  Cl67  1  0.08609584  0.31811004  0.87017595  1
  Cl  Cl68  1  0.62982405  0.41390416  0.31811004  1
  Cl  Cl69  1  0.62982405  0.08609584  0.18188996  1
  Cl  Cl70  1  0.87017595  0.41390416  0.18188996  1
  Cl  Cl71  1  0.87017595  0.08609584  0.31811004  1
  Cl  Cl72  1  0.68188996  0.37017595  0.58609584  1
  Cl  Cl73  1  0.81811004  0.37017595  0.91390416  1
  Cl  Cl74  1  0.81811004  0.12982405  0.58609584  1
  Cl  Cl75  1  0.68188996  0.12982405  0.91390416  1
  Cl  Cl76  1  0.58609584  0.68188996  0.37017595  1
  Cl  Cl77  1  0.91390416  0.81811004  0.37017595  1
  Cl  Cl78  1  0.58609584  0.81811004  0.12982405  1
  Cl  Cl79  1  0.91390416  0.68188996  0.12982405  1
  Cl  Cl80  1  0.37017595  0.58609584  0.68188996  1
  Cl  Cl81  1  0.37017595  0.91390416  0.81811004  1
  Cl  Cl82  1  0.12982405  0.58609584  0.81811004  1
  Cl  Cl83  1  0.12982405  0.91390416  0.68188996  1
