# generated using pymatgen
data_AgH8C2S2N4Cl
_symmetry_space_group_name_H-M   'P 1'
_cell_length_a   6.12921692
_cell_length_b   8.55598771
_cell_length_c   37.24421207
_cell_angle_alpha   90.00000000
_cell_angle_beta   93.07454438
_cell_angle_gamma   90.00000000
_symmetry_Int_Tables_number   1
_chemical_formula_structural   AgH8C2S2N4Cl
_chemical_formula_sum   'Ag8 H64 C16 S16 N32 Cl8'
_cell_volume   1950.33116239
_cell_formula_units_Z   8
loop_
 _symmetry_equiv_pos_site_id
 _symmetry_equiv_pos_as_xyz
  1  'x, y, z'
loop_
 _atom_site_type_symbol
 _atom_site_label
 _atom_site_symmetry_multiplicity
 _atom_site_fract_x
 _atom_site_fract_y
 _atom_site_fract_z
 _atom_site_occupancy
  Ag  Ag0  1  0.71676057  0.81176314  0.59138025  1
  Ag  Ag1  1  0.28323943  0.31176314  0.90861975  1
  Ag  Ag2  1  0.28323943  0.18823686  0.40861975  1
  Ag  Ag3  1  0.71676057  0.68823686  0.09138025  1
  Ag  Ag4  1  0.39910156  0.75290933  0.65785598  1
  Ag  Ag5  1  0.60089844  0.25290933  0.84214402  1
  Ag  Ag6  1  0.60089844  0.24709067  0.34214402  1
  Ag  Ag7  1  0.39910156  0.74709067  0.15785598  1
  H  H8  1  0.32665916  0.96312941  0.79407336  1
  H  H9  1  0.67334084  0.46312941  0.70592664  1
  H  H10  1  0.67334084  0.03687059  0.20592664  1
  H  H11  1  0.32665916  0.53687059  0.29407336  1
  H  H12  1  0.60013831  0.96815097  0.78272252  1
  H  H13  1  0.39986169  0.46815097  0.71727748  1
  H  H14  1  0.39986169  0.03184903  0.21727748  1
  H  H15  1  0.60013831  0.53184903  0.28272252  1
  H  H16  1  0.06095012  0.87144363  0.75500498  1
  H  H17  1  0.93904988  0.37144363  0.74499502  1
  H  H18  1  0.93904988  0.12855637  0.24499502  1
  H  H19  1  0.06095012  0.62855637  0.25500498  1
  H  H20  1  0.12012317  0.80131982  0.71251903  1
  H  H21  1  0.87987683  0.30131982  0.78748097  1
  H  H22  1  0.87987683  0.19868018  0.28748097  1
  H  H23  1  0.12012317  0.69868018  0.21251903  1
  H  H24  1  0.01729342  0.47252176  0.57905050  1
  H  H25  1  0.98270658  0.97252176  0.92094950  1
  H  H26  1  0.98270658  0.52747824  0.42094950  1
  H  H27  1  0.01729342  0.02747824  0.07905050  1
  H  H28  1  0.11455142  0.49868506  0.62382351  1
  H  H29  1  0.88544858  0.99868506  0.87617649  1
  H  H30  1  0.88544858  0.50131494  0.37617649  1
  H  H31  1  0.11455142  0.00131494  0.12382351  1
  H  H32  1  0.26492163  0.46116925  0.53215424  1
  H  H33  1  0.73507837  0.96116925  0.96784576  1
  H  H34  1  0.73507837  0.53883075  0.46784576  1
  H  H35  1  0.26492163  0.03883075  0.03215424  1
  H  H36  1  0.53372511  0.52437885  0.54229724  1
  H  H37  1  0.46627489  0.02437885  0.95770276  1
  H  H38  1  0.46627489  0.47562115  0.45770276  1
  H  H39  1  0.53372511  0.97562115  0.04229724  1
  H  H40  1  0.86972661  0.27656504  0.65115272  1
  H  H41  1  0.13027339  0.77656504  0.84884728  1
  H  H42  1  0.13027339  0.72343496  0.34884728  1
  H  H43  1  0.86972661  0.22343496  0.15115272  1
  H  H44  1  0.75532645  0.13010203  0.62235267  1
  H  H45  1  0.24467355  0.63010203  0.87764733  1
  H  H46  1  0.24467355  0.86989797  0.37764733  1
  H  H47  1  0.75532645  0.36989797  0.12235267  1
  H  H48  1  0.20046366  0.24967359  0.67835190  1
  H  H49  1  0.79953634  0.74967359  0.82164810  1
  H  H50  1  0.79953634  0.75032641  0.32164810  1
  H  H51  1  0.20046366  0.25032641  0.17835190  1
  H  H52  1  0.35116012  0.07314472  0.67528152  1
  H  H53  1  0.64883988  0.57314472  0.82471848  1
  H  H54  1  0.64883988  0.92685528  0.32471848  1
  H  H55  1  0.35116012  0.42685528  0.17528152  1
  H  H56  1  0.77749589  0.24375262  0.49090158  1
  H  H57  1  0.22250411  0.74375262  0.00909842  1
  H  H58  1  0.22250411  0.75624738  0.50909842  1
  H  H59  1  0.77749589  0.25624738  0.99090158  1
  H  H60  1  0.50389858  0.20961247  0.50028154  1
  H  H61  1  0.49610142  0.70961247  0.99971846  1
  H  H62  1  0.49610142  0.79038753  0.49971846  1
  H  H63  1  0.50389858  0.29038753  0.00028154  1
  H  H64  1  0.05443155  0.15440437  0.52724897  1
  H  H65  1  0.94556845  0.65440437  0.97275103  1
  H  H66  1  0.94556845  0.84559563  0.47275103  1
  H  H67  1  0.05443155  0.34559563  0.02724897  1
  H  H68  1  0.00873361  0.05195448  0.56689964  1
  H  H69  1  0.99126639  0.55195448  0.93310036  1
  H  H70  1  0.99126639  0.94804552  0.43310036  1
  H  H71  1  0.00873361  0.44804552  0.06689964  1
  C  C72  1  0.38370361  0.88347070  0.74345417  1
  C  C73  1  0.61629639  0.38347070  0.75654583  1
  C  C74  1  0.61629639  0.11652930  0.25654583  1
  C  C75  1  0.38370361  0.61652930  0.24345417  1
  C  C76  1  0.34495882  0.51374873  0.58560293  1
  C  C77  1  0.65504118  0.01374873  0.91439707  1
  C  C78  1  0.65504118  0.48625127  0.41439707  1
  C  C79  1  0.34495882  0.98625127  0.08560293  1
  C  C80  1  0.05510934  0.07959650  0.64688932  1
  C  C81  1  0.94489066  0.57959650  0.85311068  1
  C  C82  1  0.94489066  0.92040350  0.35311068  1
  C  C83  1  0.05510934  0.42040350  0.14688932  1
  C  C84  1  0.73199531  0.12709406  0.53807989  1
  C  C85  1  0.26800469  0.62709406  0.96192011  1
  C  C86  1  0.26800469  0.87290594  0.46192011  1
  C  C87  1  0.73199531  0.37290594  0.03807989  1
  S  S88  1  0.58015096  0.86344607  0.71254281  1
  S  S89  1  0.41984904  0.36344607  0.78745719  1
  S  S90  1  0.41984904  0.13655393  0.28745719  1
  S  S91  1  0.58015096  0.63655393  0.21254281  1
  S  S92  1  0.56089418  0.55992447  0.61609568  1
  S  S93  1  0.43910582  0.05992447  0.88390432  1
  S  S94  1  0.43910582  0.44007553  0.38390432  1
  S  S95  1  0.56089418  0.94007553  0.11609568  1
  S  S96  1  0.07790673  0.89756679  0.62713274  1
  S  S97  1  0.92209327  0.39756679  0.87286726  1
  S  S98  1  0.92209327  0.10243321  0.37286726  1
  S  S99  1  0.07790673  0.60243321  0.12713274  1
  S  S100  1  0.54089256  0.05723910  0.56628706  1
  S  S101  1  0.45910744  0.55723910  0.93371294  1
  S  S102  1  0.45910744  0.94276090  0.43371294  1
  S  S103  1  0.54089256  0.44276090  0.06628706  1
  N  N104  1  0.44309268  0.93370611  0.77660115  1
  N  N105  1  0.55690732  0.43370611  0.72339885  1
  N  N106  1  0.55690732  0.06629389  0.22339885  1
  N  N107  1  0.44309268  0.56629389  0.27660115  1
  N  N108  1  0.17217093  0.85181610  0.73610271  1
  N  N109  1  0.82782907  0.35181610  0.76389729  1
  N  N110  1  0.82782907  0.14818390  0.26389729  1
  N  N111  1  0.17217093  0.64818390  0.23610271  1
  N  N112  1  0.14578255  0.48758528  0.59710772  1
  N  N113  1  0.85421745  0.98758528  0.90289228  1
  N  N114  1  0.85421745  0.51241472  0.40289228  1
  N  N115  1  0.14578255  0.01241472  0.09710772  1
  N  N116  1  0.38189208  0.49814892  0.55093700  1
  N  N117  1  0.61810792  0.99814892  0.94906300  1
  N  N118  1  0.61810792  0.50185108  0.44906300  1
  N  N119  1  0.38189208  0.00185108  0.05093700  1
  N  N120  1  0.87422673  0.16552858  0.64093845  1
  N  N121  1  0.12577327  0.66552858  0.85906155  1
  N  N122  1  0.12577327  0.83447142  0.35906155  1
  N  N123  1  0.87422673  0.33447142  0.14093845  1
  N  N124  1  0.21767323  0.13929140  0.66788782  1
  N  N125  1  0.78232677  0.63929140  0.83211218  1
  N  N126  1  0.78232677  0.86070860  0.33211218  1
  N  N127  1  0.21767323  0.36070860  0.16788782  1
  N  N128  1  0.66586264  0.20177459  0.50792868  1
  N  N129  1  0.33413736  0.70177459  0.99207132  1
  N  N130  1  0.33413736  0.79822541  0.49207132  1
  N  N131  1  0.66586264  0.29822541  0.00792868  1
  N  N132  1  0.94814186  0.11417065  0.54532111  1
  N  N133  1  0.05185814  0.61417065  0.95467889  1
  N  N134  1  0.05185814  0.88582935  0.45467889  1
  N  N135  1  0.94814186  0.38582935  0.04532111  1
  Cl  Cl136  1  0.84180058  0.67177936  0.52536200  1
  Cl  Cl137  1  0.15819942  0.17177936  0.97463800  1
  Cl  Cl138  1  0.15819942  0.32822064  0.47463800  1
  Cl  Cl139  1  0.84180058  0.82822064  0.02536200  1
  Cl  Cl140  1  0.05196091  0.49134665  0.68439409  1
  Cl  Cl141  1  0.94803909  0.99134665  0.81560591  1
  Cl  Cl142  1  0.94803909  0.50865335  0.31560591  1
  Cl  Cl143  1  0.05196091  0.00865335  0.18439409  1
