# generated using pymatgen
data_Cu3NiP2O9
_symmetry_space_group_name_H-M   'P 1'
_cell_length_a   8.32817330
_cell_length_b   8.31630472
_cell_length_c   10.00062952
_cell_angle_alpha   90.00000000
_cell_angle_beta   90.00000000
_cell_angle_gamma   107.14304132
_symmetry_Int_Tables_number   1
_chemical_formula_structural   Cu3NiP2O9
_chemical_formula_sum   'Cu12 Ni4 P8 O36'
_cell_volume   661.86716681
_cell_formula_units_Z   4
loop_
 _symmetry_equiv_pos_site_id
 _symmetry_equiv_pos_as_xyz
  1  'x, y, z'
loop_
 _atom_site_type_symbol
 _atom_site_label
 _atom_site_symmetry_multiplicity
 _atom_site_fract_x
 _atom_site_fract_y
 _atom_site_fract_z
 _atom_site_occupancy
  Cu  Cu0  1  0.12445160  0.54222350  0.39284056  1
  Cu  Cu1  1  0.62445160  0.04222350  0.10715944  1
  Cu  Cu2  1  0.87554840  0.45777650  0.60715944  1
  Cu  Cu3  1  0.37554840  0.95777650  0.89284056  1
  Cu  Cu4  1  0.75399380  0.49449232  0.31158603  1
  Cu  Cu5  1  0.25399380  0.99449232  0.18841397  1
  Cu  Cu6  1  0.24600620  0.50550768  0.68841397  1
  Cu  Cu7  1  0.74600620  0.00550768  0.81158603  1
  Cu  Cu8  1  0.90199356  0.82364953  0.44481164  1
  Cu  Cu9  1  0.40199356  0.32364953  0.05518836  1
  Cu  Cu10  1  0.09800644  0.17635047  0.55518836  1
  Cu  Cu11  1  0.59800644  0.67635047  0.94481164  1
  Ni  Ni12  1  0.49914264  0.76983863  0.36090838  1
  Ni  Ni13  1  0.99914264  0.26983863  0.13909162  1
  Ni  Ni14  1  0.50085736  0.23016137  0.63909162  1
  Ni  Ni15  1  0.00085736  0.73016137  0.86090838  1
  P  P16  1  0.25769385  0.64462558  0.10001232  1
  P  P17  1  0.75769385  0.14462558  0.39998768  1
  P  P18  1  0.74230615  0.35537442  0.89998768  1
  P  P19  1  0.24230615  0.85537442  0.60001232  1
  P  P20  1  0.86606267  0.83284601  0.15970475  1
  P  P21  1  0.36606267  0.33284601  0.34029525  1
  P  P22  1  0.13393733  0.16715399  0.84029525  1
  P  P23  1  0.63393733  0.66715399  0.65970475  1
  O  O24  1  0.30069184  0.78531823  0.47356526  1
  O  O25  1  0.80069184  0.28531823  0.02643474  1
  O  O26  1  0.69930816  0.21468177  0.52643474  1
  O  O27  1  0.19930816  0.71468177  0.97356526  1
  O  O28  1  0.34910770  0.51204749  0.36705321  1
  O  O29  1  0.84910770  0.01204749  0.13294679  1
  O  O30  1  0.65089230  0.48795251  0.63294679  1
  O  O31  1  0.15089230  0.98795251  0.86705321  1
  O  O32  1  0.64825392  0.76193174  0.52506917  1
  O  O33  1  0.14825392  0.26193174  0.97493083  1
  O  O34  1  0.35174608  0.23806826  0.47493083  1
  O  O35  1  0.85174608  0.73806826  0.02506917  1
  O  O36  1  0.60999060  0.02159920  0.32289039  1
  O  O37  1  0.10999060  0.52159920  0.17710961  1
  O  O38  1  0.39000940  0.97840080  0.67710961  1
  O  O39  1  0.89000940  0.47840080  0.82289039  1
  O  O40  1  0.34943759  0.79545692  0.19457083  1
  O  O41  1  0.84943759  0.29545692  0.30542917  1
  O  O42  1  0.65056241  0.20454308  0.80542917  1
  O  O43  1  0.15056241  0.70454308  0.69457083  1
  O  O44  1  0.72009083  0.72642495  0.25447297  1
  O  O45  1  0.22009083  0.22642495  0.24552703  1
  O  O46  1  0.27990917  0.27357505  0.74552703  1
  O  O47  1  0.77990917  0.77357505  0.75447297  1
  O  O48  1  0.92392331  0.60183193  0.43856331  1
  O  O49  1  0.42392331  0.10183193  0.06143669  1
  O  O50  1  0.07607669  0.39816807  0.56143669  1
  O  O51  1  0.57607669  0.89816807  0.93856331  1
  O  O52  1  0.89594472  0.05928726  0.43747501  1
  O  O53  1  0.39594472  0.55928726  0.06252499  1
  O  O54  1  0.10405528  0.94071274  0.56252499  1
  O  O55  1  0.60405528  0.44071274  0.93747501  1
  O  O56  1  0.03173395  0.85307320  0.23751409  1
  O  O57  1  0.53173395  0.35307320  0.26248591  1
  O  O58  1  0.96826605  0.14692680  0.76248591  1
  O  O59  1  0.46826605  0.64692680  0.73751409  1
