# generated using pymatgen
data_Ho4In20Ni11
_symmetry_space_group_name_H-M   'P 1'
_cell_length_a   4.32396327
_cell_length_b   11.50971020
_cell_length_c   14.09477992
_cell_angle_alpha   80.60078504
_cell_angle_beta   81.17663509
_cell_angle_gamma   79.17325600
_symmetry_Int_Tables_number   1
_chemical_formula_structural   Ho4In20Ni11
_chemical_formula_sum   'Ho4 In20 Ni11'
_cell_volume   674.25434175
_cell_formula_units_Z   1
loop_
 _symmetry_equiv_pos_site_id
 _symmetry_equiv_pos_as_xyz
  1  'x, y, z'
loop_
 _atom_site_type_symbol
 _atom_site_label
 _atom_site_symmetry_multiplicity
 _atom_site_fract_x
 _atom_site_fract_y
 _atom_site_fract_z
 _atom_site_occupancy
  Ho  Ho0  1  0.11924218  0.09229514  0.66922050  1
  Ho  Ho1  1  0.88075782  0.90770486  0.33077950  1
  Ho  Ho2  1  0.77086533  0.63169436  0.82657498  1
  Ho  Ho3  1  0.22913467  0.36830564  0.17342502  1
  In  In4  1  0.01054987  0.07419608  0.90470418  1
  In  In5  1  0.98945013  0.92580392  0.09529582  1
  In  In6  1  0.06312351  0.66389497  0.20985801  1
  In  In7  1  0.93687649  0.33610503  0.79014199  1
  In  In8  1  0.11512372  0.32131864  0.44843391  1
  In  In9  1  0.88487628  0.67868136  0.55156609  1
  In  In10  1  0.20247969  0.59790031  0.99714031  1
  In  In11  1  0.79752031  0.40209969  0.00285969  1
  In  In12  1  0.24702953  0.79687204  0.70906890  1
  In  In13  1  0.75297047  0.20312796  0.29093110  1
  In  In14  1  0.29673223  0.90412420  0.50241134  1
  In  In15  1  0.70326777  0.09587580  0.49758866  1
  In  In16  1  0.38869277  0.53152937  0.69108509  1
  In  In17  1  0.61130723  0.46847063  0.30891491  1
  In  In18  1  0.39825445  0.21317917  0.99031193  1
  In  In19  1  0.60174555  0.78682083  0.00968807  1
  In  In20  1  0.54103443  0.29546926  0.62246188  1
  In  In21  1  0.45896557  0.70453074  0.37753812  1
  In  In22  1  0.62881533  0.93830723  0.80406211  1
  In  In23  1  0.37118467  0.06169277  0.19593789  1
  Ni  Ni24  1  0.02237411  0.55505907  0.40019271  1
  Ni  Ni25  1  0.97762589  0.44494093  0.59980729  1
  Ni  Ni26  1  0.13681291  0.82894490  0.89742928  1
  Ni  Ni27  1  0.86318709  0.17105510  0.10257072  1
  Ni  Ni28  1  0.25420035  0.10922447  0.38237483  1
  Ni  Ni29  1  0.74579965  0.89077553  0.61762517  1
  Ni  Ni30  1  0.34679894  0.42805004  0.87835208  1
  Ni  Ni31  1  0.65320106  0.57194996  0.12164792  1
  Ni  Ni32  1  0.50750815  0.18011863  0.80486507  1
  Ni  Ni33  1  0.49249185  0.81988137  0.19513493  1
  Ni  Ni34  1  0.50000000  0.50000000  0.50000000  1
