# generated using pymatgen
data_Ba3U2(PO5)4
_symmetry_space_group_name_H-M   'P 1'
_cell_length_a   8.90392856
_cell_length_b   9.63509009
_cell_length_c   10.73029884
_cell_angle_alpha   97.43381444
_cell_angle_beta   90.00000000
_cell_angle_gamma   90.00000000
_symmetry_Int_Tables_number   1
_chemical_formula_structural   Ba3U2(PO5)4
_chemical_formula_sum   'Ba6 U4 P8 O40'
_cell_volume   912.81671161
_cell_formula_units_Z   2
loop_
 _symmetry_equiv_pos_site_id
 _symmetry_equiv_pos_as_xyz
  1  'x, y, z'
loop_
 _atom_site_type_symbol
 _atom_site_label
 _atom_site_symmetry_multiplicity
 _atom_site_fract_x
 _atom_site_fract_y
 _atom_site_fract_z
 _atom_site_occupancy
  Ba  Ba0  1  0.50000000  0.50000000  0.50000000  1
  Ba  Ba1  1  -0.00000000  0.50000000  -0.00000000  1
  Ba  Ba2  1  0.67070378  0.19286491  0.08374644  1
  Ba  Ba3  1  0.17070378  0.80713509  0.41625356  1
  Ba  Ba4  1  0.32929622  0.80713509  0.91625356  1
  Ba  Ba5  1  0.82929622  0.19286491  0.58374644  1
  U  U6  1  0.71677779  0.83953738  0.31266820  1
  U  U7  1  0.21677779  0.16046262  0.18733180  1
  U  U8  1  0.28322221  0.16046262  0.68733180  1
  U  U9  1  0.78322221  0.83953738  0.81266820  1
  P  P10  1  0.46543705  0.13031618  0.38340822  1
  P  P11  1  0.96543705  0.86968382  0.11659178  1
  P  P12  1  0.53456295  0.86968382  0.61659178  1
  P  P13  1  0.03456295  0.13031618  0.88340822  1
  P  P14  1  0.83493211  0.47825897  0.33569036  1
  P  P15  1  0.33493211  0.52174103  0.16430964  1
  P  P16  1  0.16506789  0.52174103  0.66430964  1
  P  P17  1  0.66506789  0.47825897  0.83569036  1
  O  O18  1  0.83692043  0.97295262  0.16073268  1
  O  O19  1  0.33692043  0.02704738  0.33926732  1
  O  O20  1  0.16307957  0.02704738  0.83926732  1
  O  O21  1  0.66307957  0.97295262  0.66073268  1
  O  O22  1  0.93734119  0.74215966  0.18947076  1
  O  O23  1  0.43734119  0.25784034  0.31052924  1
  O  O24  1  0.06265881  0.25784034  0.81052924  1
  O  O25  1  0.56265881  0.74215966  0.68947076  1
  O  O26  1  0.53557671  0.82107382  0.47294778  1
  O  O27  1  0.03557671  0.17892618  0.02705222  1
  O  O28  1  0.46442329  0.17892618  0.52705222  1
  O  O29  1  0.96442329  0.82107382  0.97294778  1
  O  O30  1  0.62343588  0.06797778  0.34859336  1
  O  O31  1  0.12343588  0.93202222  0.15140664  1
  O  O32  1  0.37656412  0.93202222  0.65140664  1
  O  O33  1  0.87656412  0.06797778  0.84859336  1
  O  O34  1  0.73082436  0.61005386  0.35202085  1
  O  O35  1  0.23082436  0.38994614  0.14797915  1
  O  O36  1  0.26917564  0.38994614  0.64797915  1
  O  O37  1  0.76917564  0.61005386  0.85202085  1
  O  O38  1  0.99882150  0.52526178  0.36936966  1
  O  O39  1  0.49882150  0.47473822  0.13063034  1
  O  O40  1  0.00117850  0.47473822  0.63063034  1
  O  O41  1  0.50117850  0.52526178  0.86936966  1
  O  O42  1  0.77029115  0.37326095  0.41692047  1
  O  O43  1  0.27029115  0.62673905  0.08307953  1
  O  O44  1  0.22970885  0.62673905  0.58307953  1
  O  O45  1  0.72970885  0.37326095  0.91692047  1
  O  O46  1  0.84427718  0.41601890  0.19608918  1
  O  O47  1  0.34427718  0.58398110  0.30391082  1
  O  O48  1  0.15572282  0.58398110  0.80391082  1
  O  O49  1  0.65572282  0.41601890  0.69608918  1
  O  O50  1  0.86441835  0.90023987  0.42893427  1
  O  O51  1  0.36441835  0.09976013  0.07106573  1
  O  O52  1  0.13558165  0.09976013  0.57106573  1
  O  O53  1  0.63558165  0.90023987  0.92893427  1
  O  O54  1  0.57632122  0.79147820  0.19285353  1
  O  O55  1  0.07632122  0.20852180  0.30714647  1
  O  O56  1  0.42367878  0.20852180  0.80714647  1
  O  O57  1  0.92367878  0.79147820  0.69285353  1
