# generated using pymatgen
data_Li9Mn2Co5O16
_symmetry_space_group_name_H-M   'P 1'
_cell_length_a   3.02238225
_cell_length_b   8.03230452
_cell_length_c   12.10396952
_cell_angle_alpha   90.89429546
_cell_angle_beta   99.16692985
_cell_angle_gamma   89.03527422
_symmetry_Int_Tables_number   1
_chemical_formula_structural   Li9Mn2Co5O16
_chemical_formula_sum   'Li9 Mn2 Co5 O16'
_cell_volume   290.02551498
_cell_formula_units_Z   1
loop_
 _symmetry_equiv_pos_site_id
 _symmetry_equiv_pos_as_xyz
  1  'x, y, z'
loop_
 _atom_site_type_symbol
 _atom_site_label
 _atom_site_symmetry_multiplicity
 _atom_site_fract_x
 _atom_site_fract_y
 _atom_site_fract_z
 _atom_site_occupancy
  Li  Li0  1  0.74632680  0.00137262  0.74916179  1
  Li  Li1  1  0.87749908  0.24400552  0.37925102  1
  Li  Li2  1  0.99916728  0.50014935  0.99945520  1
  Li  Li3  1  0.12348236  0.75370445  0.62237814  1
  Li  Li4  1  0.25294084  0.99824539  0.25063928  1
  Li  Li5  1  0.37308793  0.25175433  0.87330151  1
  Li  Li6  1  0.50101476  0.50008332  0.50051866  1
  Li  Li7  1  0.62655988  0.75041195  0.12536657  1
  Li  Li8  1  0.50013109  0.00045346  0.50060260  1
  Mn  Mn9  1  0.99960467  0.99932845  0.99939518  1
  Mn  Mn10  1  0.25172979  0.50189318  0.25096369  1
  Co  Co11  1  0.11805510  0.24093592  0.62002064  1
  Co  Co12  1  0.37198373  0.74795832  0.87310692  1
  Co  Co13  1  0.62507262  0.25004618  0.12527989  1
  Co  Co14  1  0.75103444  0.49789234  0.74946435  1
  Co  Co15  1  0.88568905  0.76109296  0.38164652  1
  O  O16  1  0.35615401  0.98776139  0.87797330  1
  O  O17  1  0.48683200  0.25128931  0.50958110  1
  O  O18  1  0.60602804  0.48843709  0.12858107  1
  O  O19  1  0.73058532  0.73700320  0.75499928  1
  O  O20  1  0.86780602  0.97606504  0.37334717  1
  O  O21  1  0.98226632  0.24284308  0.00629174  1
  O  O22  1  0.11023965  0.47982976  0.63285604  1
  O  O23  1  0.23327295  0.74206241  0.25673423  1
  O  O24  1  0.13170340  0.02535004  0.62775757  1
  O  O25  1  0.26953043  0.25787239  0.24499151  1
  O  O26  1  0.39078539  0.51131780  0.86700600  1
  O  O27  1  0.51092955  0.74993238  0.49127141  1
  O  O28  1  0.64439789  0.01178845  0.12105619  1
  O  O29  1  0.76654034  0.26269009  0.74258180  1
  O  O30  1  0.89133391  0.51998686  0.37134925  1
  O  O31  1  0.01822233  0.75644298  0.99307439  1
