# generated using pymatgen
data_Ba5(GaSe4)2
_symmetry_space_group_name_H-M   'P 1'
_cell_length_a   12.42941210
_cell_length_b   12.69250028
_cell_length_c   13.51106948
_cell_angle_alpha   118.01530657
_cell_angle_beta   90.00000000
_cell_angle_gamma   90.00000000
_symmetry_Int_Tables_number   1
_chemical_formula_structural   Ba5(GaSe4)2
_chemical_formula_sum   'Ba20 Ga8 Se32'
_cell_volume   1881.74475138
_cell_formula_units_Z   4
loop_
 _symmetry_equiv_pos_site_id
 _symmetry_equiv_pos_as_xyz
  1  'x, y, z'
loop_
 _atom_site_type_symbol
 _atom_site_label
 _atom_site_symmetry_multiplicity
 _atom_site_fract_x
 _atom_site_fract_y
 _atom_site_fract_z
 _atom_site_occupancy
  Ba  Ba0  1  0.15659118  0.60319905  0.20017048  1
  Ba  Ba1  1  0.84340882  0.59697143  0.20017048  1
  Ba  Ba2  1  0.65659118  0.09697143  0.20017048  1
  Ba  Ba3  1  0.34340882  0.10319905  0.20017048  1
  Ba  Ba4  1  0.84340882  0.39680095  0.79982952  1
  Ba  Ba5  1  0.15659118  0.40302857  0.79982952  1
  Ba  Ba6  1  0.34340882  0.90302857  0.79982952  1
  Ba  Ba7  1  0.65659118  0.89680095  0.79982952  1
  Ba  Ba8  1  0.49515196  0.75514466  0.19368461  1
  Ba  Ba9  1  0.50484804  0.43853995  0.19368461  1
  Ba  Ba10  1  0.99515196  0.93853995  0.19368461  1
  Ba  Ba11  1  0.00484804  0.25514466  0.19368461  1
  Ba  Ba12  1  0.50484804  0.24485534  0.80631539  1
  Ba  Ba13  1  0.49515196  0.56146005  0.80631539  1
  Ba  Ba14  1  0.00484804  0.06146005  0.80631539  1
  Ba  Ba15  1  0.99515196  0.74485534  0.80631539  1
  Ba  Ba16  1  0.25000000  0.00475325  0.50000000  1
  Ba  Ba17  1  0.75000000  0.49524675  0.50000000  1
  Ba  Ba18  1  0.75000000  0.99524675  0.50000000  1
  Ba  Ba19  1  0.25000000  0.50475325  0.50000000  1
  Ga  Ga20  1  0.26989806  0.81372662  1.00000000  1
  Ga  Ga21  1  0.73010194  0.18627338  0.00000000  1
  Ga  Ga22  1  0.76989806  0.68627338  0.00000000  1
  Ga  Ga23  1  0.23010194  0.31372662  1.00000000  1
  Ga  Ga24  1  0.50000000  0.75014269  0.50028537  1
  Ga  Ga25  1  0.00000000  0.25014269  0.50028537  1
  Ga  Ga26  1  0.50000000  0.24985731  0.49971463  1
  Ga  Ga27  1  0.00000000  0.74985731  0.49971463  1
  Se  Se28  1  0.15185707  0.97607797  0.00000000  1
  Se  Se29  1  0.84814293  0.02392203  1.00000000  1
  Se  Se30  1  0.65185707  0.52392203  1.00000000  1
  Se  Se31  1  0.34814293  0.47607797  0.00000000  1
  Se  Se32  1  0.34850528  0.68716644  0.37297900  1
  Se  Se33  1  0.65149472  0.68581255  0.37297900  1
  Se  Se34  1  0.84850528  0.18581255  0.37297900  1
  Se  Se35  1  0.15149472  0.18716644  0.37297900  1
  Se  Se36  1  0.65149472  0.31283356  0.62702100  1
  Se  Se37  1  0.34850528  0.31418745  0.62702100  1
  Se  Se38  1  0.15149472  0.81418745  0.62702100  1
  Se  Se39  1  0.84850528  0.81283356  0.62702100  1
  Se  Se40  1  0.49823703  0.03620626  0.37424578  1
  Se  Se41  1  0.50176297  0.33803952  0.37424578  1
  Se  Se42  1  0.99823703  0.83803952  0.37424578  1
  Se  Se43  1  0.00176297  0.53620626  0.37424578  1
  Se  Se44  1  0.50176297  0.96379374  0.62575422  1
  Se  Se45  1  0.49823703  0.66196048  0.62575422  1
  Se  Se46  1  0.00176297  0.16196048  0.62575422  1
  Se  Se47  1  0.99823703  0.46379374  0.62575422  1
  Se  Se48  1  0.24245458  0.83767871  0.18551432  1
  Se  Se49  1  0.75754542  0.34783562  0.18551432  1
  Se  Se50  1  0.74245458  0.84783562  0.18551432  1
  Se  Se51  1  0.25754542  0.33767871  0.18551432  1
  Se  Se52  1  0.75754542  0.16232129  0.81448568  1
  Se  Se53  1  0.24245458  0.65216438  0.81448568  1
  Se  Se54  1  0.25754542  0.15216438  0.81448568  1
  Se  Se55  1  0.74245458  0.66232129  0.81448568  1
  Se  Se56  1  0.46782034  0.85390305  0.00000000  1
  Se  Se57  1  0.53217966  0.14609695  1.00000000  1
  Se  Se58  1  0.96782034  0.64609695  1.00000000  1
  Se  Se59  1  0.03217966  0.35390305  0.00000000  1
