# generated using pymatgen
data_Li9Mn2Co5O16
_symmetry_space_group_name_H-M   'P 1'
_cell_length_a   3.02171413
_cell_length_b   10.22392755
_cell_length_c   9.91134991
_cell_angle_alpha   106.46619742
_cell_angle_beta   92.91244656
_cell_angle_gamma   82.53306642
_symmetry_Int_Tables_number   1
_chemical_formula_structural   Li9Mn2Co5O16
_chemical_formula_sum   'Li9 Mn2 Co5 O16'
_cell_volume   291.11950691
_cell_formula_units_Z   1
loop_
 _symmetry_equiv_pos_site_id
 _symmetry_equiv_pos_as_xyz
  1  'x, y, z'
loop_
 _atom_site_type_symbol
 _atom_site_label
 _atom_site_symmetry_multiplicity
 _atom_site_fract_x
 _atom_site_fract_y
 _atom_site_fract_z
 _atom_site_occupancy
  Li  Li0  1  0.93747180  0.12314266  0.31933347  1
  Li  Li1  1  0.44017962  0.12819167  0.80916768  1
  Li  Li2  1  0.31551866  0.37424300  0.44017584  1
  Li  Li3  1  0.81566911  0.37519398  0.93603603  1
  Li  Li4  1  0.68356780  0.62593588  0.56144324  1
  Li  Li5  1  0.18447375  0.62511501  0.06175706  1
  Li  Li6  1  0.06338964  0.87505477  0.68218608  1
  Li  Li7  1  0.55996435  0.87243708  0.19034173  1
  Li  Li8  1  0.49991791  0.00021394  0.50047798  1
  Mn  Mn9  1  0.00121322  0.99712375  0.99781244  1
  Mn  Mn10  1  0.37002784  0.25188995  0.12721798  1
  Co  Co11  1  0.88015505  0.24117887  0.61851050  1
  Co  Co12  1  0.74349034  0.50567896  0.25173534  1
  Co  Co13  1  0.25315350  0.49816442  0.75087181  1
  Co  Co14  1  0.11951161  0.76019858  0.38233709  1
  Co  Co15  1  0.63032972  0.74695088  0.87271999  1
  O  O16  1  0.43490567  0.06647235  0.15143214  1
  O  O17  1  0.95472862  0.08306466  0.65626235  1
  O  O18  1  0.80734120  0.32305309  0.27746033  1
  O  O19  1  0.31191440  0.31737728  0.77115479  1
  O  O20  1  0.21890821  0.57532963  0.39868523  1
  O  O21  1  0.72452731  0.56747946  0.89708356  1
  O  O22  1  0.57551086  0.80796243  0.51879700  1
  O  O23  1  0.06483418  0.81235042  0.01842763  1
  O  O24  1  0.42646878  0.19214358  0.48169661  1
  O  O25  1  0.93830270  0.18265393  0.97598008  1
  O  O26  1  0.78169127  0.42573430  0.60240202  1
  O  O27  1  0.27578156  0.43542866  0.10152180  1
  O  O28  1  0.19165501  0.68053609  0.72701531  1
  O  O29  1  0.68718642  0.68389021  0.22916004  1
  O  O30  1  0.56208965  0.92871230  0.84742775  1
  O  O31  1  0.04612023  0.91709821  0.34336911  1
