# generated using pymatgen
data_LaGaSb2
_symmetry_space_group_name_H-M   'P 1'
_cell_length_a   4.41287632
_cell_length_b   4.42525547
_cell_length_c   11.76895522
_cell_angle_alpha   90.00000000
_cell_angle_beta   100.80572588
_cell_angle_gamma   90.00000000
_symmetry_Int_Tables_number   1
_chemical_formula_structural   LaGaSb2
_chemical_formula_sum   'La2 Ga2 Sb4'
_cell_volume   225.75024974
_cell_formula_units_Z   2
loop_
 _symmetry_equiv_pos_site_id
 _symmetry_equiv_pos_as_xyz
  1  'x, y, z'
loop_
 _atom_site_type_symbol
 _atom_site_label
 _atom_site_symmetry_multiplicity
 _atom_site_fract_x
 _atom_site_fract_y
 _atom_site_fract_z
 _atom_site_occupancy
  La  La0  1  0.86237080  0.25000000  0.72474160  1
  La  La1  1  0.13762920  0.75000000  0.27525840  1
  Ga  Ga2  1  0.15952530  0.00000000  0.00000000  1
  Ga  Ga3  1  0.84047470  0.50000000  1.00000000  1
  Sb  Sb4  1  0.58974084  0.25000000  0.17948168  1
  Sb  Sb5  1  0.41025916  0.75000000  0.82051832  1
  Sb  Sb6  1  0.24974408  0.25000000  0.49948817  1
  Sb  Sb7  1  0.75025592  0.75000000  0.50051183  1
