# generated using pymatgen
data_U2(Ga3Ir)3
_symmetry_space_group_name_H-M   'P 1'
_cell_length_a   7.62078656
_cell_length_b   7.65269594
_cell_length_c   9.40828629
_cell_angle_alpha   90.00000000
_cell_angle_beta   90.00000000
_cell_angle_gamma   119.86216329
_symmetry_Int_Tables_number   1
_chemical_formula_structural   U2(Ga3Ir)3
_chemical_formula_sum   'U4 Ga18 Ir6'
_cell_volume   475.83561525
_cell_formula_units_Z   2
loop_
 _symmetry_equiv_pos_site_id
 _symmetry_equiv_pos_as_xyz
  1  'x, y, z'
loop_
 _atom_site_type_symbol
 _atom_site_label
 _atom_site_symmetry_multiplicity
 _atom_site_fract_x
 _atom_site_fract_y
 _atom_site_fract_z
 _atom_site_occupancy
  U  U0  1  0.33124438  0.32823787  0.75000000  1
  U  U1  1  0.66875562  0.67176213  0.25000000  1
  U  U2  1  0.00300650  0.67176213  0.75000000  1
  U  U3  1  0.99699350  0.32823787  0.25000000  1
  Ga  Ga4  1  0.87245226  0.00000000  0.75000000  1
  Ga  Ga5  1  0.12754774  -0.00000000  0.25000000  1
  Ga  Ga6  1  0.66637995  0.66629141  0.92147884  1
  Ga  Ga7  1  0.33362005  0.33370859  0.07852116  1
  Ga  Ga8  1  0.33362005  0.33370859  0.42147884  1
  Ga  Ga9  1  0.00008855  0.33370859  0.57852116  1
  Ga  Ga10  1  0.66637995  0.66629141  0.57852116  1
  Ga  Ga11  1  0.99991145  0.66629141  0.42147884  1
  Ga  Ga12  1  0.99991145  0.66629141  0.07852116  1
  Ga  Ga13  1  0.00008855  0.33370859  0.92147884  1
  Ga  Ga14  1  0.66692176  0.00000000  0.43265597  1
  Ga  Ga15  1  0.33307824  -0.00000000  0.56734403  1
  Ga  Ga16  1  0.33307824  -0.00000000  0.93265597  1
  Ga  Ga17  1  0.66692176  0.00000000  0.06734403  1
  Ga  Ga18  1  0.45645472  0.79438324  0.75000000  1
  Ga  Ga19  1  0.54354528  0.20561676  0.25000000  1
  Ga  Ga20  1  0.66207148  0.20561676  0.75000000  1
  Ga  Ga21  1  0.33792852  0.79438324  0.25000000  1
  Ir  Ir22  1  0.67127813  0.34255625  0.00000000  1
  Ir  Ir23  1  0.32872187  0.65744375  0.00000000  1
  Ir  Ir24  1  0.32872187  0.65744375  0.50000000  1
  Ir  Ir25  1  0.67127813  0.34255625  0.50000000  1
  Ir  Ir26  1  0.00000000  0.00000000  -0.00000000  1
  Ir  Ir27  1  0.00000000  -0.00000000  0.50000000  1
