# generated using pymatgen
data_Zr5CrSb2
_symmetry_space_group_name_H-M   'P 1'
_cell_length_a   5.57309172
_cell_length_b   8.36741272
_cell_length_c   8.36741272
_cell_angle_alpha   83.63253073
_cell_angle_beta   70.54760428
_cell_angle_gamma   70.54760428
_symmetry_Int_Tables_number   1
_chemical_formula_structural   Zr5CrSb2
_chemical_formula_sum   'Zr10 Cr2 Sb4'
_cell_volume   346.91804830
_cell_formula_units_Z   2
loop_
 _symmetry_equiv_pos_site_id
 _symmetry_equiv_pos_as_xyz
  1  'x, y, z'
loop_
 _atom_site_type_symbol
 _atom_site_label
 _atom_site_symmetry_multiplicity
 _atom_site_fract_x
 _atom_site_fract_y
 _atom_site_fract_z
 _atom_site_occupancy
  Zr  Zr0  1  0.07251869  0.13012775  0.72483487  1
  Zr  Zr1  1  0.92748131  0.86987225  0.27516513  1
  Zr  Zr2  1  0.79735356  0.27516513  0.13012775  1
  Zr  Zr3  1  0.42748131  0.27516513  0.86987225  1
  Zr  Zr4  1  0.20264644  0.72483487  0.86987225  1
  Zr  Zr5  1  0.57251869  0.72483487  0.13012775  1
  Zr  Zr6  1  0.70264644  0.86987225  0.72483487  1
  Zr  Zr7  1  0.29735356  0.13012775  0.27516513  1
  Zr  Zr8  1  0.25000000  0.50000000  0.50000000  1
  Zr  Zr9  1  0.75000000  0.50000000  0.50000000  1
  Cr  Cr10  1  0.25000000  -0.00000000  0.00000000  1
  Cr  Cr11  1  0.75000000  -0.00000000  0.00000000  1
  Sb  Sb12  1  0.16323845  0.50000000  0.17352311  1
  Sb  Sb13  1  0.83676155  0.50000000  0.82647689  1
  Sb  Sb14  1  0.33676155  0.82647689  0.50000000  1
  Sb  Sb15  1  0.66323845  0.17352311  0.50000000  1
