# generated using pymatgen
data_CeIn2Rh
_symmetry_space_group_name_H-M   'P 1'
_cell_length_a   4.42193090
_cell_length_b   5.49536710
_cell_length_c   8.21318674
_cell_angle_alpha   90.00000000
_cell_angle_beta   90.00000000
_cell_angle_gamma   113.72408311
_symmetry_Int_Tables_number   1
_chemical_formula_structural   CeIn2Rh
_chemical_formula_sum   'Ce2 In4 Rh2'
_cell_volume   182.71561031
_cell_formula_units_Z   2
loop_
 _symmetry_equiv_pos_site_id
 _symmetry_equiv_pos_as_xyz
  1  'x, y, z'
loop_
 _atom_site_type_symbol
 _atom_site_label
 _atom_site_symmetry_multiplicity
 _atom_site_fract_x
 _atom_site_fract_y
 _atom_site_fract_z
 _atom_site_occupancy
  Ce  Ce0  1  0.43415921  0.86831942  0.25000000  1
  Ce  Ce1  1  0.56583979  0.13168058  0.75000000  1
  In  In2  1  0.14336767  0.28673533  0.05026209  1
  In  In3  1  0.85663233  0.71326467  0.94973791  1
  In  In4  1  0.85663233  0.71326467  0.55026209  1
  In  In5  1  0.14336767  0.28673533  0.44973791  1
  Rh  Rh6  1  0.71385322  0.42770644  0.25000000  1
  Rh  Rh7  1  0.28614678  0.57229356  0.75000000  1
