# generated using pymatgen
data_Ti4FeSe8
_symmetry_space_group_name_H-M   'P 1'
_cell_length_a   6.98634630
_cell_length_b   6.98634630
_cell_length_c   7.10989639
_cell_angle_alpha   105.02254360
_cell_angle_beta   104.52148565
_cell_angle_gamma   118.75333569
_symmetry_Int_Tables_number   1
_chemical_formula_structural   Ti4FeSe8
_chemical_formula_sum   'Ti4 Fe1 Se8'
_cell_volume   263.37891526
_cell_formula_units_Z   1
loop_
 _symmetry_equiv_pos_site_id
 _symmetry_equiv_pos_as_xyz
  1  'x, y, z'
loop_
 _atom_site_type_symbol
 _atom_site_label
 _atom_site_symmetry_multiplicity
 _atom_site_fract_x
 _atom_site_fract_y
 _atom_site_fract_z
 _atom_site_occupancy
  Ti  Ti0  1  0.26162109  0.76162109  0.50000000  1
  Ti  Ti1  1  0.73837891  0.23837891  0.50000000  1
  Ti  Ti2  1  0.25354282  0.75597170  0.00951451  1
  Ti  Ti3  1  0.74645718  0.24402830  0.99048549  1
  Fe  Fe4  1  -0.00000000  0.00000000  -0.00000000  1
  Se  Se5  1  0.54653067  0.78444954  0.33098022  1
  Se  Se6  1  0.45346933  0.21555046  0.66901978  1
  Se  Se7  1  0.45623923  0.21750842  0.16916983  1
  Se  Se8  1  0.54376077  0.78249158  0.83083017  1
  Se  Se9  1  0.04833860  0.28706940  0.83083017  1
  Se  Se10  1  0.95166140  0.71293060  0.16916983  1
  Se  Se11  1  0.04435691  0.29086553  0.33522244  1
  Se  Se12  1  0.95564309  0.70913447  0.66477756  1
