# generated using pymatgen
data_Nd3Fe3Sb7
_symmetry_space_group_name_H-M   'P 1'
_cell_length_a   4.22863510
_cell_length_b   13.30547871
_cell_length_c   13.30547871
_cell_angle_alpha   120.00000088
_cell_angle_beta   90.00000000
_cell_angle_gamma   90.00000000
_symmetry_Int_Tables_number   1
_chemical_formula_structural   Nd3Fe3Sb7
_chemical_formula_sum   'Nd6 Fe6 Sb14'
_cell_volume   648.32362369
_cell_formula_units_Z   2
loop_
 _symmetry_equiv_pos_site_id
 _symmetry_equiv_pos_as_xyz
  1  'x, y, z'
loop_
 _atom_site_type_symbol
 _atom_site_label
 _atom_site_symmetry_multiplicity
 _atom_site_fract_x
 _atom_site_fract_y
 _atom_site_fract_z
 _atom_site_occupancy
  Nd  Nd0  1  0.75000000  0.72151068  0.18312170  1
  Nd  Nd1  1  0.25000000  0.27848932  0.81687830  1
  Nd  Nd2  1  0.75000000  0.46161102  0.27848932  1
  Nd  Nd3  1  0.25000000  0.53838898  0.72151068  1
  Nd  Nd4  1  0.75000000  0.81687830  0.53838898  1
  Nd  Nd5  1  0.25000000  0.18312170  0.46161102  1
  Fe  Fe6  1  0.75000000  0.94838180  0.07387133  1
  Fe  Fe7  1  0.25000000  0.05161820  0.92612867  1
  Fe  Fe8  1  0.75000000  0.12548953  0.05161820  1
  Fe  Fe9  1  0.25000000  0.87451047  0.94838180  1
  Fe  Fe10  1  0.75000000  0.92612867  0.87451047  1
  Fe  Fe11  1  0.25000000  0.07387133  0.12548953  1
  Sb  Sb12  1  0.75000000  0.33333300  0.66666700  1
  Sb  Sb13  1  0.25000000  0.66666700  0.33333300  1
  Sb  Sb14  1  0.75000000  0.97679221  0.41045498  1
  Sb  Sb15  1  0.25000000  0.02320779  0.58954502  1
  Sb  Sb16  1  0.75000000  0.43366277  0.02320779  1
  Sb  Sb17  1  0.25000000  0.56633723  0.97679221  1
  Sb  Sb18  1  0.75000000  0.58954502  0.56633723  1
  Sb  Sb19  1  0.25000000  0.41045498  0.43366277  1
  Sb  Sb20  1  0.75000000  0.72682282  0.91729652  1
  Sb  Sb21  1  0.25000000  0.27317718  0.08270348  1
  Sb  Sb22  1  0.75000000  0.19047370  0.27317718  1
  Sb  Sb23  1  0.25000000  0.80952630  0.72682282  1
  Sb  Sb24  1  0.75000000  0.08270348  0.80952630  1
  Sb  Sb25  1  0.25000000  0.91729652  0.19047370  1
