# generated using pymatgen
data_ScP2H5O9
_symmetry_space_group_name_H-M   'P 1'
_cell_length_a   5.35961768
_cell_length_b   8.65141555
_cell_length_c   14.89718659
_cell_angle_alpha   90.00000000
_cell_angle_beta   96.72344127
_cell_angle_gamma   90.00000000
_symmetry_Int_Tables_number   1
_chemical_formula_structural   ScP2H5O9
_chemical_formula_sum   'Sc4 P8 H20 O36'
_cell_volume   686.00646389
_cell_formula_units_Z   4
loop_
 _symmetry_equiv_pos_site_id
 _symmetry_equiv_pos_as_xyz
  1  'x, y, z'
loop_
 _atom_site_type_symbol
 _atom_site_label
 _atom_site_symmetry_multiplicity
 _atom_site_fract_x
 _atom_site_fract_y
 _atom_site_fract_z
 _atom_site_occupancy
  Sc  Sc0  1  0.26761434  0.46640241  0.14819331  1
  Sc  Sc1  1  0.73238566  0.53359759  0.85180669  1
  Sc  Sc2  1  0.73238566  0.96640241  0.35180669  1
  Sc  Sc3  1  0.26761434  0.03359759  0.64819331  1
  P  P4  1  0.26666282  0.17053678  0.44408735  1
  P  P5  1  0.73333718  0.82946322  0.55591265  1
  P  P6  1  0.73333718  0.67053678  0.05591265  1
  P  P7  1  0.26666282  0.32946322  0.94408735  1
  P  P8  1  0.20853677  0.74814010  0.30606730  1
  P  P9  1  0.79146323  0.25185990  0.69393270  1
  P  P10  1  0.79146323  0.24814010  0.19393270  1
  P  P11  1  0.20853677  0.75185990  0.80606730  1
  H  H12  1  0.09823010  0.55333402  0.59785521  1
  H  H13  1  0.90176990  0.44666598  0.40214479  1
  H  H14  1  0.90176990  0.05333402  0.90214479  1
  H  H15  1  0.09823010  0.94666598  0.09785521  1
  H  H16  1  0.75843237  0.28912391  0.04658497  1
  H  H17  1  0.24156763  0.71087609  0.95341503  1
  H  H18  1  0.24156763  0.78912391  0.45341503  1
  H  H19  1  0.75843237  0.21087609  0.54658497  1
  H  H20  1  0.33180161  0.51470935  0.67592794  1
  H  H21  1  0.66819839  0.48529065  0.32407206  1
  H  H22  1  0.66819839  0.01470935  0.82407206  1
  H  H23  1  0.33180161  0.98529065  0.17592794  1
  H  H24  1  0.15531325  0.31919719  0.32601655  1
  H  H25  1  0.84468675  0.68080281  0.67398345  1
  H  H26  1  0.84468675  0.81919719  0.17398345  1
  H  H27  1  0.15531325  0.18080281  0.82601655  1
  H  H28  1  0.25887110  0.11670030  0.08810010  1
  H  H29  1  0.74112890  0.88329970  0.91189990  1
  H  H30  1  0.74112890  0.61670030  0.41189990  1
  H  H31  1  0.25887110  0.38329970  0.58810010  1
  O  O32  1  0.06741787  0.29851493  0.22074648  1
  O  O33  1  0.93258213  0.70148507  0.77925352  1
  O  O34  1  0.93258213  0.79851493  0.27925352  1
  O  O35  1  0.06741787  0.20148507  0.72074648  1
  O  O36  1  0.76000390  0.20238994  0.08960563  1
  O  O37  1  0.23999610  0.79761006  0.91039437  1
  O  O38  1  0.23999610  0.70238994  0.41039437  1
  O  O39  1  0.76000390  0.29761006  0.58960563  1
  O  O40  1  0.26341711  0.00273921  0.11074723  1
  O  O41  1  0.73658289  0.99726079  0.88925277  1
  O  O42  1  0.73658289  0.50273921  0.38925277  1
  O  O43  1  0.26341711  0.49726079  0.61074723  1
  O  O44  1  0.53372024  0.12898181  0.42428792  1
  O  O45  1  0.46627976  0.87101819  0.57571208  1
  O  O46  1  0.46627976  0.62898181  0.07571208  1
  O  O47  1  0.53372024  0.37101819  0.92428792  1
  O  O48  1  0.17477809  0.32989222  0.39479845  1
  O  O49  1  0.82522191  0.67010778  0.60520155  1
  O  O50  1  0.82522191  0.82989222  0.10520155  1
  O  O51  1  0.17477809  0.17010778  0.89479845  1
  O  O52  1  0.60782739  0.37644771  0.21543982  1
  O  O53  1  0.39217261  0.62355229  0.78456018  1
  O  O54  1  0.39217261  0.87644771  0.28456018  1
  O  O55  1  0.60782739  0.12355229  0.71543982  1
  O  O56  1  0.07810305  0.04395196  0.41132666  1
  O  O57  1  0.92189695  0.95604804  0.58867334  1
  O  O58  1  0.92189695  0.54395196  0.08867334  1
  O  O59  1  0.07810305  0.45604804  0.91132666  1
  O  O60  1  0.26877632  0.59713786  0.26068312  1
  O  O61  1  0.73122368  0.40286214  0.73931688  1
  O  O62  1  0.73122368  0.09713786  0.23931688  1
  O  O63  1  0.26877632  0.90286214  0.76068312  1
  O  O64  1  0.25861065  0.29043933  0.04536644  1
  O  O65  1  0.74138935  0.70956067  0.95463356  1
  O  O66  1  0.74138935  0.79043933  0.45463356  1
  O  O67  1  0.25861065  0.20956067  0.54536644  1
