# generated using pymatgen
data_Rb5Tm3Br12
_symmetry_space_group_name_H-M   'P 1'
_cell_length_a   4.43921661
_cell_length_b   14.08770936
_cell_length_c   14.08770936
_cell_angle_alpha   120.00000008
_cell_angle_beta   90.00000000
_cell_angle_gamma   90.00000000
_symmetry_Int_Tables_number   1
_chemical_formula_structural   Rb5Tm3Br12
_chemical_formula_sum   'Rb5 Tm3 Br12'
_cell_volume   762.98804719
_cell_formula_units_Z   1
loop_
 _symmetry_equiv_pos_site_id
 _symmetry_equiv_pos_as_xyz
  1  'x, y, z'
loop_
 _atom_site_type_symbol
 _atom_site_label
 _atom_site_symmetry_multiplicity
 _atom_site_fract_x
 _atom_site_fract_y
 _atom_site_fract_z
 _atom_site_occupancy
  Rb  Rb0  1  -0.00000000  0.66666700  0.33333300  1
  Rb  Rb1  1  -0.00000000  0.33333300  0.66666700  1
  Rb  Rb2  1  0.00000000  0.28277876  0.28277876  1
  Rb  Rb3  1  0.00000000  1.00000000  0.71722124  1
  Rb  Rb4  1  -0.00000000  0.71722124  1.00000000  1
  Tm  Tm5  1  0.50000000  0.67487793  0.67487793  1
  Tm  Tm6  1  0.50000000  0.00000000  0.32512207  1
  Tm  Tm7  1  0.50000000  0.32512207  0.00000000  1
  Br  Br8  1  -0.00000000  0.80736204  0.80736204  1
  Br  Br9  1  -0.00000000  1.00000000  0.19263796  1
  Br  Br10  1  0.00000000  0.19263796  1.00000000  1
  Br  Br11  1  0.00000000  0.54488579  0.54488579  1
  Br  Br12  1  -0.00000000  0.00000000  0.45511421  1
  Br  Br13  1  0.00000000  0.45511421  0.00000000  1
  Br  Br14  1  0.50000000  0.77066942  0.21103154  1
  Br  Br15  1  0.50000000  0.44036212  0.22933058  1
  Br  Br16  1  0.50000000  0.55963788  0.78896846  1
  Br  Br17  1  0.50000000  0.78896846  0.55963788  1
  Br  Br18  1  0.50000000  0.21103154  0.77066942  1
  Br  Br19  1  0.50000000  0.22933058  0.44036212  1
