# generated using pymatgen
data_TiH6(OF3)2
_symmetry_space_group_name_H-M   'P 1'
_cell_length_a   5.54399903
_cell_length_b   5.62744575
_cell_length_c   5.62744575
_cell_angle_alpha   120.00000203
_cell_angle_beta   90.00000000
_cell_angle_gamma   90.00000000
_symmetry_Int_Tables_number   1
_chemical_formula_structural   TiH6(OF3)2
_chemical_formula_sum   'Ti1 H6 O2 F6'
_cell_volume   152.04649137
_cell_formula_units_Z   1
loop_
 _symmetry_equiv_pos_site_id
 _symmetry_equiv_pos_as_xyz
  1  'x, y, z'
loop_
 _atom_site_type_symbol
 _atom_site_label
 _atom_site_symmetry_multiplicity
 _atom_site_fract_x
 _atom_site_fract_y
 _atom_site_fract_z
 _atom_site_occupancy
  Ti  Ti0  1  0.00000000  0.00000000  -0.00000000  1
  H  H1  1  0.72254097  0.83974170  0.33130211  1
  H  H2  1  0.72254097  0.49156041  0.16025830  1
  H  H3  1  0.27745903  0.50843959  0.66869789  1
  H  H4  1  0.72254097  0.66869789  0.50843959  1
  H  H5  1  0.27745903  0.33130211  0.83974170  1
  H  H6  1  0.27745903  0.16025830  0.49156041  1
  O  O7  1  0.67342266  0.66666700  0.33333300  1
  O  O8  1  0.32657734  0.33333300  0.66666700  1
  F  F9  1  0.79128537  0.69953818  0.78593144  1
  F  F10  1  0.79128537  0.08639326  0.30046182  1
  F  F11  1  0.20871463  0.91360674  0.21406855  1
  F  F12  1  0.79128537  0.21406855  0.91360674  1
  F  F13  1  0.20871463  0.78593144  0.69953818  1
  F  F14  1  0.20871463  0.30046182  0.08639326  1
