# generated using pymatgen
data_Tm2Sn3(PbS4)3
_symmetry_space_group_name_H-M   'P 1'
_cell_length_a   3.93218809
_cell_length_b   11.61593293
_cell_length_c   20.35898939
_cell_angle_alpha   90.00000000
_cell_angle_beta   90.00000000
_cell_angle_gamma   90.00000000
_symmetry_Int_Tables_number   1
_chemical_formula_structural   Tm2Sn3(PbS4)3
_chemical_formula_sum   'Tm4 Sn6 Pb6 S24'
_cell_volume   929.91787370
_cell_formula_units_Z   2
loop_
 _symmetry_equiv_pos_site_id
 _symmetry_equiv_pos_as_xyz
  1  'x, y, z'
loop_
 _atom_site_type_symbol
 _atom_site_label
 _atom_site_symmetry_multiplicity
 _atom_site_fract_x
 _atom_site_fract_y
 _atom_site_fract_z
 _atom_site_occupancy
  Tm  Tm0  1  0.50000000  0.64667333  0.41234116  1
  Tm  Tm1  1  0.50000000  0.14667333  0.58765884  1
  Tm  Tm2  1  0.50000000  0.82559880  0.89459546  1
  Tm  Tm3  1  0.50000000  0.32559880  0.10540454  1
  Sn  Sn4  1  -0.00000000  0.00145298  0.75046116  1
  Sn  Sn5  1  0.00000000  0.50145298  0.24953884  1
  Sn  Sn6  1  0.00000000  0.52003641  0.91217771  1
  Sn  Sn7  1  0.00000000  0.02003641  0.08782229  1
  Sn  Sn8  1  0.00000000  0.99249837  0.42682016  1
  Sn  Sn9  1  0.00000000  0.49249837  0.57317984  1
  Pb  Pb10  1  0.50000000  0.40320553  0.74132465  1
  Pb  Pb11  1  0.50000000  0.90320553  0.25867535  1
  Pb  Pb12  1  0.50000000  0.19884433  0.91480817  1
  Pb  Pb13  1  0.50000000  0.69884433  0.08519183  1
  Pb  Pb14  1  0.50000000  0.77133946  0.62191270  1
  Pb  Pb15  1  0.50000000  0.27133946  0.37808730  1
  S  S16  1  0.00000000  0.98835900  0.87606996  1
  S  S17  1  0.00000000  0.48835900  0.12393004  1
  S  S18  1  0.00000000  0.98675668  0.62627037  1
  S  S19  1  0.00000000  0.48675668  0.37372963  1
  S  S20  1  0.00000000  0.68229495  0.50828702  1
  S  S21  1  0.00000000  0.18229495  0.49171298  1
  S  S22  1  0.50000000  0.64666854  0.25824336  1
  S  S23  1  0.50000000  0.14666854  0.74175664  1
  S  S24  1  0.50000000  0.84956925  0.75759439  1
  S  S25  1  0.50000000  0.34956925  0.24240561  1
  S  S26  1  0.50000000  0.60316209  0.84169902  1
  S  S27  1  0.50000000  0.10316209  0.15830098  1
  S  S28  1  0.50000000  0.43772317  0.98345409  1
  S  S29  1  0.50000000  0.93772317  0.01654591  1
  S  S30  1  0.50000000  0.93777250  0.49398401  1
  S  S31  1  0.50000000  0.43777250  0.50601599  1
  S  S32  1  0.00000000  0.33766608  0.84279219  1
  S  S33  1  0.00000000  0.83766608  0.15720781  1
  S  S34  1  0.00000000  0.71624652  0.96817930  1
  S  S35  1  0.00000000  0.21624652  0.03182070  1
  S  S36  1  0.00000000  0.80253000  0.36149661  1
  S  S37  1  0.00000000  0.30253000  0.63850339  1
  S  S38  1  0.00000000  0.60090200  0.67649902  1
  S  S39  1  0.00000000  0.10090200  0.32350098  1
