# generated using pymatgen
data_Sc6CdTe2
_symmetry_space_group_name_H-M   'P 1'
_cell_length_a   3.93159983
_cell_length_b   20.49209393
_cell_length_c   10.89394672
_cell_angle_alpha   90.00000000
_cell_angle_beta   90.00000000
_cell_angle_gamma   90.00000000
_symmetry_Int_Tables_number   1
_chemical_formula_structural   Sc6CdTe2
_chemical_formula_sum   'Sc24 Cd4 Te8'
_cell_volume   877.68947895
_cell_formula_units_Z   4
loop_
 _symmetry_equiv_pos_site_id
 _symmetry_equiv_pos_as_xyz
  1  'x, y, z'
loop_
 _atom_site_type_symbol
 _atom_site_label
 _atom_site_symmetry_multiplicity
 _atom_site_fract_x
 _atom_site_fract_y
 _atom_site_fract_z
 _atom_site_occupancy
  Sc  Sc0  1  0.75000000  0.63720578  0.94092170  1
  Sc  Sc1  1  0.25000000  0.36279422  0.05907830  1
  Sc  Sc2  1  0.25000000  0.86279422  0.44092170  1
  Sc  Sc3  1  0.75000000  0.13720578  0.55907830  1
  Sc  Sc4  1  0.75000000  0.99367445  0.39234756  1
  Sc  Sc5  1  0.25000000  0.00632555  0.60765244  1
  Sc  Sc6  1  0.25000000  0.50632555  0.89234756  1
  Sc  Sc7  1  0.75000000  0.49367445  0.10765244  1
  Sc  Sc8  1  0.75000000  0.53048579  0.62914132  1
  Sc  Sc9  1  0.25000000  0.46951421  0.37085868  1
  Sc  Sc10  1  0.25000000  0.96951421  0.12914132  1
  Sc  Sc11  1  0.75000000  0.03048579  0.87085868  1
  Sc  Sc12  1  0.75000000  0.73091258  0.25994013  1
  Sc  Sc13  1  0.25000000  0.26908742  0.74005987  1
  Sc  Sc14  1  0.25000000  0.76908742  0.75994013  1
  Sc  Sc15  1  0.75000000  0.23091258  0.24005987  1
  Sc  Sc16  1  0.75000000  0.89095189  0.67532902  1
  Sc  Sc17  1  0.25000000  0.10904811  0.32467098  1
  Sc  Sc18  1  0.25000000  0.60904811  0.17532902  1
  Sc  Sc19  1  0.75000000  0.39095189  0.82467098  1
  Sc  Sc20  1  0.75000000  0.83607810  0.97680618  1
  Sc  Sc21  1  0.25000000  0.16392190  0.02319382  1
  Sc  Sc22  1  0.25000000  0.66392190  0.47680618  1
  Sc  Sc23  1  0.75000000  0.33607810  0.52319382  1
  Cd  Cd24  1  0.75000000  0.57733796  0.36589988  1
  Cd  Cd25  1  0.25000000  0.42266204  0.63410012  1
  Cd  Cd26  1  0.25000000  0.92266204  0.86589988  1
  Cd  Cd27  1  0.75000000  0.07733796  0.13410012  1
  Te  Te28  1  0.75000000  0.87471622  0.23531316  1
  Te  Te29  1  0.25000000  0.12528378  0.76468684  1
  Te  Te30  1  0.25000000  0.62528378  0.73531316  1
  Te  Te31  1  0.75000000  0.37471622  0.26468684  1
  Te  Te32  1  0.75000000  0.76486118  0.54496333  1
  Te  Te33  1  0.25000000  0.23513882  0.45503667  1
  Te  Te34  1  0.25000000  0.73513882  0.04496333  1
  Te  Te35  1  0.75000000  0.26486118  0.95503667  1
