# generated using pymatgen
data_Li9Mn2Co5O16
_symmetry_space_group_name_H-M   'P 1'
_cell_length_a   3.02233722
_cell_length_b   10.08024124
_cell_length_c   9.97438362
_cell_angle_alpha   73.48702254
_cell_angle_beta   87.55583869
_cell_angle_gamma   91.61386821
_symmetry_Int_Tables_number   1
_chemical_formula_structural   Li9Mn2Co5O16
_chemical_formula_sum   'Li9 Mn2 Co5 O16'
_cell_volume   290.82252308
_cell_formula_units_Z   1
loop_
 _symmetry_equiv_pos_site_id
 _symmetry_equiv_pos_as_xyz
  1  'x, y, z'
loop_
 _atom_site_type_symbol
 _atom_site_label
 _atom_site_symmetry_multiplicity
 _atom_site_fract_x
 _atom_site_fract_y
 _atom_site_fract_z
 _atom_site_occupancy
  Li  Li0  1  -0.00133981  0.25800346  0.74795676  1
  Li  Li1  1  0.50400344  0.74656466  0.50014783  1
  Li  Li2  1  0.99756179  0.25005183  0.24911511  1
  Li  Li3  1  0.50311330  0.25253814  0.49918724  1
  Li  Li4  1  0.00315279  0.74956315  0.25181152  1
  Li  Li5  1  0.49509856  0.25505907  0.00073909  1
  Li  Li6  1  0.49763684  0.74621114  -0.00004226  1
  Li  Li7  1  0.00115836  0.74272042  0.75099243  1
  Li  Li8  1  0.50004205  0.50007333  0.74986627  1
  Mn  Mn9  1  -0.00009093  -0.00016474  0.00283963  1
  Mn  Mn10  1  0.49519780  -0.00040949  0.74833859  1
  Co  Co11  1  0.00032072  0.00041835  0.49607416  1
  Co  Co12  1  0.50014905  0.49992551  0.25011619  1
  Co  Co13  1  0.00138555  0.49859965  0.50937527  1
  Co  Co14  1  0.50472772  0.00076144  0.25132035  1
  Co  Co15  1  0.99887967  0.50149210  0.99053057  1
  O  O16  1  0.46833062  0.11848092  0.87480875  1
  O  O17  1  0.99649916  0.61488214  0.60884287  1
  O  O18  1  0.51219840  0.11509951  0.37345809  1
  O  O19  1  0.96681831  0.11561753  0.62121151  1
  O  O20  1  0.47101519  0.61351476  0.37374249  1
  O  O21  1  0.97340152  0.11344387  0.13051489  1
  O  O22  1  0.00680739  0.61084971  0.12074344  1
  O  O23  1  0.47914616  0.61388552  0.88519860  1
  O  O24  1  0.52283777  0.38579318  0.61467013  1
  O  O25  1  0.03232440  0.88644024  0.37243823  1
  O  O26  1  0.52765271  0.38664586  0.12638549  1
  O  O27  1  -0.00696483  0.38954955  0.37877164  1
  O  O28  1  0.52697799  0.88351287  0.12924994  1
  O  O29  1  0.00368375  0.38461478  0.89139132  1
  O  O30  1  0.02829179  0.88385459  0.87658839  1
  O  O31  1  0.48998277  0.88240695  0.62361545  1
