# generated using pymatgen
data_BaErAl3SiN4O3
_symmetry_space_group_name_H-M   'P 1'
_cell_length_a   6.13783913
_cell_length_b   6.13783913
_cell_length_c   10.14774579
_cell_angle_alpha   90.00000000
_cell_angle_beta   90.00000000
_cell_angle_gamma   120.00000267
_symmetry_Int_Tables_number   1
_chemical_formula_structural   BaErAl3SiN4O3
_chemical_formula_sum   'Ba2 Er2 Al6 Si2 N8 O6'
_cell_volume   331.07867011
_cell_formula_units_Z   2
loop_
 _symmetry_equiv_pos_site_id
 _symmetry_equiv_pos_as_xyz
  1  'x, y, z'
loop_
 _atom_site_type_symbol
 _atom_site_label
 _atom_site_symmetry_multiplicity
 _atom_site_fract_x
 _atom_site_fract_y
 _atom_site_fract_z
 _atom_site_occupancy
  Ba  Ba0  1  0.66666700  0.33333300  0.55310657  1
  Ba  Ba1  1  0.33333300  0.66666700  0.05310657  1
  Er  Er2  1  0.66666700  0.33333300  0.93749041  1
  Er  Er3  1  0.33333300  0.66666700  0.43749041  1
  Al  Al4  1  0.16541384  0.33082768  0.73792746  1
  Al  Al5  1  0.16541384  0.83458616  0.73792746  1
  Al  Al6  1  0.83458616  0.66917232  0.23792746  1
  Al  Al7  1  0.66917232  0.83458616  0.73792746  1
  Al  Al8  1  0.83458616  0.16541384  0.23792746  1
  Al  Al9  1  0.33082768  0.16541384  0.23792746  1
  Si  Si10  1  0.00000000  -0.00000000  0.00071311  1
  Si  Si11  1  0.00000000  -0.00000000  0.50071311  1
  N  N12  1  0.00000000  -0.00000000  0.81918036  1
  N  N13  1  0.00000000  -0.00000000  0.31918036  1
  N  N14  1  0.15424139  0.30848278  0.55668116  1
  N  N15  1  0.15424139  0.84575861  0.55668116  1
  N  N16  1  0.84575861  0.69151722  0.05668116  1
  N  N17  1  0.69151722  0.84575861  0.55668116  1
  N  N18  1  0.84575861  0.15424139  0.05668116  1
  N  N19  1  0.30848278  0.15424139  0.05668116  1
  O  O20  1  0.48949563  0.97899127  0.79303789  1
  O  O21  1  0.48949563  0.51050437  0.79303789  1
  O  O22  1  0.51050437  0.02100873  0.29303789  1
  O  O23  1  0.02100873  0.51050437  0.79303789  1
  O  O24  1  0.51050437  0.48949563  0.29303789  1
  O  O25  1  0.97899127  0.48949563  0.29303789  1
