# generated using pymatgen
data_Na3V4(Bi10O21)2
_symmetry_space_group_name_H-M   'P 1'
_cell_length_a   11.59175576
_cell_length_b   11.84202999
_cell_length_c   11.86541581
_cell_angle_alpha   63.33437271
_cell_angle_beta   60.76005189
_cell_angle_gamma   60.69669209
_symmetry_Int_Tables_number   1
_chemical_formula_structural   Na3V4(Bi10O21)2
_chemical_formula_sum   'Na3 V4 Bi20 O42'
_cell_volume   1191.37363654
_cell_formula_units_Z   1
loop_
 _symmetry_equiv_pos_site_id
 _symmetry_equiv_pos_as_xyz
  1  'x, y, z'
loop_
 _atom_site_type_symbol
 _atom_site_label
 _atom_site_symmetry_multiplicity
 _atom_site_fract_x
 _atom_site_fract_y
 _atom_site_fract_z
 _atom_site_occupancy
  Na  Na0  1  0.67374590  0.50000000  0.50000000  1
  Na  Na1  1  0.32625410  0.50000000  0.50000000  1
  Na  Na2  1  0.00000000  0.50000000  0.50000000  1
  V  V3  1  0.34136340  0.16734306  0.14993014  1
  V  V4  1  0.65863660  0.83265694  0.85006986  1
  V  V5  1  0.99567076  0.81977693  0.18888154  1
  V  V6  1  0.00432924  0.18022307  0.81111846  1
  Bi  Bi7  1  0.64843871  0.18910756  0.51401502  1
  Bi  Bi8  1  0.35156129  0.81089244  0.48598498  1
  Bi  Bi9  1  0.66559453  0.47307910  0.19573183  1
  Bi  Bi10  1  0.33440547  0.52692090  0.80426817  1
  Bi  Bi11  1  0.66237520  0.81475041  0.51984248  1
  Bi  Bi12  1  0.33762480  0.18524959  0.48015752  1
  Bi  Bi13  1  0.99696809  0.18524959  0.48015752  1
  Bi  Bi14  1  0.00303191  0.81475041  0.51984248  1
  Bi  Bi15  1  0.34571769  0.80768863  0.17847422  1
  Bi  Bi16  1  0.65428231  0.19231137  0.82152578  1
  Bi  Bi17  1  0.33188053  0.19231137  0.82152578  1
  Bi  Bi18  1  0.66811947  0.80768863  0.17847422  1
  Bi  Bi19  1  0.67512682  0.15525797  0.17000817  1
  Bi  Bi20  1  0.32487318  0.84474203  0.82999183  1
  Bi  Bi21  1  0.00039295  0.84474203  0.82999183  1
  Bi  Bi22  1  0.99960705  0.15525797  0.17000817  1
  Bi  Bi23  1  0.33532381  0.49240672  0.17881895  1
  Bi  Bi24  1  0.66467619  0.50759328  0.82118105  1
  Bi  Bi25  1  0.00654948  0.50759328  0.82118105  1
  Bi  Bi26  1  0.99345052  0.49240672  0.17881895  1
  O  O27  1  0.90270932  0.98367551  0.21090586  1
  O  O28  1  0.09729068  0.01632449  0.78909414  1
  O  O29  1  0.47394089  0.76388773  0.28823049  1
  O  O30  1  0.52605911  0.23611227  0.71176951  1
  O  O31  1  0.56450814  0.12500180  0.38510056  1
  O  O32  1  0.43549186  0.87499820  0.61489944  1
  O  O33  1  0.07461049  0.87499820  0.61489944  1
  O  O34  1  0.92538951  0.12500180  0.38510056  1
  O  O35  1  0.97238494  0.70906493  0.34616519  1
  O  O36  1  0.02761506  0.29093507  0.65383481  1
  O  O37  1  0.59953181  0.77420625  0.02673014  1
  O  O38  1  0.40046819  0.22579375  0.97326986  1
  O  O39  1  0.17584032  0.79627373  0.10238174  1
  O  O40  1  0.82415968  0.20372627  0.89761826  1
  O  O41  1  0.07449579  0.20372627  0.89761826  1
  O  O42  1  0.92550421  0.79627373  0.10238174  1
  O  O43  1  0.48885059  0.07098447  0.19905722  1
  O  O44  1  0.51114941  0.92901553  0.80094278  1
  O  O45  1  0.75889228  0.92901553  0.80094278  1
  O  O46  1  0.24110772  0.07098447  0.19905722  1
  O  O47  1  0.71773174  0.60344653  0.61003232  1
  O  O48  1  0.28226826  0.39655347  0.38996768  1
  O  O49  1  0.93121059  0.39655347  0.38996768  1
  O  O50  1  0.06878941  0.60344653  0.61003232  1
  O  O51  1  0.54949872  0.36786565  0.11137317  1
  O  O52  1  0.45050128  0.63213435  0.88862683  1
  O  O53  1  0.02873754  0.63213435  0.88862683  1
  O  O54  1  0.97126246  0.36786565  0.11137317  1
  O  O55  1  0.23891615  0.30406881  0.21809889  1
  O  O56  1  0.76108385  0.69593119  0.78190111  1
  O  O57  1  0.42217811  0.59102132  0.21979015  1
  O  O58  1  0.57782189  0.40897868  0.78020985  1
  O  O59  1  0.23298958  0.40897868  0.78020985  1
  O  O60  1  0.76701042  0.59102132  0.21979015  1
  O  O61  1  0.77852186  0.25311491  0.18984138  1
  O  O62  1  0.22147814  0.74688509  0.81015862  1
  O  O63  1  0.61257048  0.78442875  0.38980899  1
  O  O64  1  0.38742952  0.21557125  0.61019101  1
  O  O65  1  0.78680821  0.21557125  0.61019101  1
  O  O66  1  0.21319179  0.78442875  0.38980899  1
  O  O67  1  0.59692168  0.39682124  0.40933541  1
  O  O68  1  0.40307832  0.60317876  0.59066459  1
