# generated using pymatgen
data_EuTm2O4
_symmetry_space_group_name_H-M   'P 1'
_cell_length_a   3.36124539
_cell_length_b   9.96898364
_cell_length_c   11.83355355
_cell_angle_alpha   90.00000000
_cell_angle_beta   90.00000000
_cell_angle_gamma   90.00000000
_symmetry_Int_Tables_number   1
_chemical_formula_structural   EuTm2O4
_chemical_formula_sum   'Eu4 Tm8 O16'
_cell_volume   396.52108265
_cell_formula_units_Z   4
loop_
 _symmetry_equiv_pos_site_id
 _symmetry_equiv_pos_as_xyz
  1  'x, y, z'
loop_
 _atom_site_type_symbol
 _atom_site_label
 _atom_site_symmetry_multiplicity
 _atom_site_fract_x
 _atom_site_fract_y
 _atom_site_fract_z
 _atom_site_occupancy
  Eu  Eu0  1  0.75000000  0.75161098  0.35096796  1
  Eu  Eu1  1  0.25000000  0.24838902  0.64903204  1
  Eu  Eu2  1  0.25000000  0.74838902  0.85096796  1
  Eu  Eu3  1  0.75000000  0.25161098  0.14903204  1
  Tm  Tm4  1  0.75000000  0.92327140  0.61008625  1
  Tm  Tm5  1  0.25000000  0.07672860  0.38991375  1
  Tm  Tm6  1  0.25000000  0.57672860  0.11008625  1
  Tm  Tm7  1  0.75000000  0.42327140  0.88991375  1
  Tm  Tm8  1  0.75000000  0.42334216  0.38745913  1
  Tm  Tm9  1  0.25000000  0.57665784  0.61254087  1
  Tm  Tm10  1  0.25000000  0.07665784  0.88745913  1
  Tm  Tm11  1  0.75000000  0.92334216  0.11254087  1
  O  O12  1  0.75000000  0.51522684  0.21662467  1
  O  O13  1  0.25000000  0.48477316  0.78337533  1
  O  O14  1  0.25000000  0.98477316  0.71662467  1
  O  O15  1  0.75000000  0.01522684  0.28337533  1
  O  O16  1  0.75000000  0.92384243  0.92283760  1
  O  O17  1  0.25000000  0.07615757  0.07716240  1
  O  O18  1  0.25000000  0.57615757  0.42283760  1
  O  O19  1  0.75000000  0.42384243  0.57716240  1
  O  O20  1  0.75000000  0.71151842  0.67296328  1
  O  O21  1  0.25000000  0.28848158  0.32703672  1
  O  O22  1  0.25000000  0.78848158  0.17296328  1
  O  O23  1  0.75000000  0.21151842  0.82703672  1
  O  O24  1  0.75000000  0.62476377  0.98041768  1
  O  O25  1  0.25000000  0.37523623  0.01958232  1
  O  O26  1  0.25000000  0.87523623  0.48041768  1
  O  O27  1  0.75000000  0.12476377  0.51958232  1
