# generated using pymatgen
data_Li9Mn2Co5O16
_symmetry_space_group_name_H-M   'P 1'
_cell_length_a   4.98758520
_cell_length_b   7.99023143
_cell_length_c   7.74624422
_cell_angle_alpha   79.80230167
_cell_angle_beta   103.32146415
_cell_angle_gamma   82.10158582
_symmetry_Int_Tables_number   1
_chemical_formula_structural   Li9Mn2Co5O16
_chemical_formula_sum   'Li9 Mn2 Co5 O16'
_cell_volume   290.48761132
_cell_formula_units_Z   1
loop_
 _symmetry_equiv_pos_site_id
 _symmetry_equiv_pos_as_xyz
  1  'x, y, z'
loop_
 _atom_site_type_symbol
 _atom_site_label
 _atom_site_symmetry_multiplicity
 _atom_site_fract_x
 _atom_site_fract_y
 _atom_site_fract_z
 _atom_site_occupancy
  Li  Li0  1  0.49118304  0.25531656  0.74754429  1
  Li  Li1  1  0.00932920  0.87125995  0.38037483  1
  Li  Li2  1  0.49626225  0.50109664  0.99258919  1
  Li  Li3  1  0.98823920  0.37861223  0.87088757  1
  Li  Li4  1  0.50767126  0.99574593  0.50334165  1
  Li  Li5  1  0.00009043  0.62427194  0.12506752  1
  Li  Li6  1  0.00078068  0.12568172  0.62396683  1
  Li  Li7  1  0.50752695  0.74670217  0.25835554  1
  Li  Li8  1  0.50085006  0.62476470  0.62476727  1
  Mn  Mn9  1  0.99528281  0.99785484  0.99720408  1
  Mn  Mn10  1  0.49775122  0.12710057  0.12304300  1
  Co  Co11  1  0.99963997  0.25496590  0.25401391  1
  Co  Co12  1  0.50261438  0.87007037  0.87316993  1
  Co  Co13  1  0.00395044  0.50776552  0.50248759  1
  Co  Co14  1  0.00156395  0.73916235  0.74683361  1
  Co  Co15  1  0.49890510  0.37799842  0.37812577  1
  O  O16  1  0.74467780  0.99375930  0.76326260  1
  O  O17  1  0.22812031  0.61384103  0.38472236  1
  O  O18  1  0.73915121  0.25117336  0.00706357  1
  O  O19  1  0.24643627  0.12075721  0.88975931  1
  O  O20  1  0.77481336  0.74367226  0.51467424  1
  O  O21  1  0.24939037  0.37468767  0.14764308  1
  O  O22  1  0.23898294  0.86810734  0.65015984  1
  O  O23  1  0.75552352  0.48790812  0.27001010  1
  O  O24  1  0.22272318  0.50693799  0.73406972  1
  O  O25  1  0.75360328  0.12876557  0.35816234  1
  O  O26  1  0.25851266  0.75148624  0.98060818  1
  O  O27  1  0.77406449  0.63763377  0.86390247  1
  O  O28  1  0.26136399  0.25921577  0.49246314  1
  O  O29  1  0.74618519  0.87464449  0.10580734  1
  O  O30  1  0.76158898  0.38179650  0.59933689  1
  O  O31  1  0.24322151  0.00724456  0.23657926  1
