# generated using pymatgen
data_Dy3(SbPd2)4
_symmetry_space_group_name_H-M   'P 1'
_cell_length_a   9.39626299
_cell_length_b   9.39626299
_cell_length_c   9.39626299
_cell_angle_alpha   60.00000000
_cell_angle_beta   60.00000000
_cell_angle_gamma   60.00000000
_symmetry_Int_Tables_number   1
_chemical_formula_structural   Dy3(SbPd2)4
_chemical_formula_sum   'Dy6 Sb8 Pd16'
_cell_volume   586.61139305
_cell_formula_units_Z   2
loop_
 _symmetry_equiv_pos_site_id
 _symmetry_equiv_pos_as_xyz
  1  'x, y, z'
loop_
 _atom_site_type_symbol
 _atom_site_label
 _atom_site_symmetry_multiplicity
 _atom_site_fract_x
 _atom_site_fract_y
 _atom_site_fract_z
 _atom_site_occupancy
  Dy  Dy0  1  0.72451748  0.72451748  0.27548252  1
  Dy  Dy1  1  0.27548252  0.27548252  0.72451748  1
  Dy  Dy2  1  0.72451748  0.27548252  0.72451748  1
  Dy  Dy3  1  0.27548252  0.72451748  0.27548252  1
  Dy  Dy4  1  0.27548252  0.72451748  0.72451748  1
  Dy  Dy5  1  0.72451748  0.27548252  0.27548252  1
  Sb  Sb6  1  -0.00000000  0.00000000  0.00000000  1
  Sb  Sb7  1  -0.00000000  0.00000000  0.50000000  1
  Sb  Sb8  1  0.50000000  0.50000000  0.00000000  1
  Sb  Sb9  1  -0.00000000  0.50000000  0.00000000  1
  Sb  Sb10  1  0.50000000  0.00000000  0.50000000  1
  Sb  Sb11  1  0.50000000  0.00000000  0.00000000  1
  Sb  Sb12  1  -0.00000000  0.50000000  0.50000000  1
  Sb  Sb13  1  0.50000000  0.50000000  0.50000000  1
  Pd  Pd14  1  0.88131514  0.88131514  0.88131514  1
  Pd  Pd15  1  0.11868486  0.11868486  0.11868486  1
  Pd  Pd16  1  0.35605458  0.88131514  0.88131514  1
  Pd  Pd17  1  0.88131514  0.35605458  0.88131514  1
  Pd  Pd18  1  0.64394542  0.11868486  0.11868486  1
  Pd  Pd19  1  0.11868486  0.64394542  0.11868486  1
  Pd  Pd20  1  0.88131514  0.88131514  0.35605458  1
  Pd  Pd21  1  0.11868486  0.11868486  0.64394542  1
  Pd  Pd22  1  0.66677429  0.66677429  0.66677429  1
  Pd  Pd23  1  0.33322571  0.33322571  0.33322571  1
  Pd  Pd24  1  -0.00032288  0.66677429  0.66677429  1
  Pd  Pd25  1  0.66677429  -0.00032288  0.66677429  1
  Pd  Pd26  1  0.00032288  0.33322571  0.33322571  1
  Pd  Pd27  1  0.33322571  0.00032288  0.33322571  1
  Pd  Pd28  1  0.66677429  0.66677429  -0.00032288  1
  Pd  Pd29  1  0.33322571  0.33322571  0.00032288  1
