# generated using pymatgen
data_NaU3O8
_symmetry_space_group_name_H-M   'P 1'
_cell_length_a   4.22937706
_cell_length_b   6.93289352
_cell_length_c   6.93289352
_cell_angle_alpha   120.03935894
_cell_angle_beta   90.00000000
_cell_angle_gamma   90.00000000
_symmetry_Int_Tables_number   1
_chemical_formula_structural   NaU3O8
_chemical_formula_sum   'Na1 U3 O8'
_cell_volume   175.98016320
_cell_formula_units_Z   1
loop_
 _symmetry_equiv_pos_site_id
 _symmetry_equiv_pos_as_xyz
  1  'x, y, z'
loop_
 _atom_site_type_symbol
 _atom_site_label
 _atom_site_symmetry_multiplicity
 _atom_site_fract_x
 _atom_site_fract_y
 _atom_site_fract_z
 _atom_site_occupancy
  Na  Na0  1  0.50000000  0.36711788  0.36711788  1
  U  U1  1  -0.00000000  0.00597277  0.00597277  1
  U  U2  1  0.00000000  0.36702809  0.72801335  1
  U  U3  1  0.00000000  0.72801335  0.36702809  1
  O  O4  1  0.50000000  0.36706688  0.71588319  1
  O  O5  1  0.50000000  0.71588319  0.36706688  1
  O  O6  1  0.00000000  0.60486060  0.60486060  1
  O  O7  1  0.00000000  0.36717098  0.12950570  1
  O  O8  1  0.00000000  0.12950570  0.36717098  1
  O  O9  1  0.50000000  0.01854322  0.01854322  1
  O  O10  1  0.00000000  0.70074013  0.03409721  1
  O  O11  1  0.00000000  0.03409721  0.70074013  1
