# generated using pymatgen
data_MoSI
_symmetry_space_group_name_H-M   'P 1'
_cell_length_a   7.42445277
_cell_length_b   7.42445277
_cell_length_c   7.42445277
_cell_angle_alpha   60.00000000
_cell_angle_beta   60.00000000
_cell_angle_gamma   60.00000000
_symmetry_Int_Tables_number   1
_chemical_formula_structural   MoSI
_chemical_formula_sum   'Mo4 S4 I4'
_cell_volume   289.38655428
_cell_formula_units_Z   4
loop_
 _symmetry_equiv_pos_site_id
 _symmetry_equiv_pos_as_xyz
  1  'x, y, z'
loop_
 _atom_site_type_symbol
 _atom_site_label
 _atom_site_symmetry_multiplicity
 _atom_site_fract_x
 _atom_site_fract_y
 _atom_site_fract_z
 _atom_site_occupancy
  Mo  Mo0  1  0.65519574  0.65519574  0.65519574  1
  Mo  Mo1  1  0.03441279  0.65519574  0.65519574  1
  Mo  Mo2  1  0.65519574  0.03441279  0.65519574  1
  Mo  Mo3  1  0.65519574  0.65519574  0.03441279  1
  S  S4  1  0.87630407  0.87630407  0.87630407  1
  S  S5  1  0.37108779  0.87630407  0.87630407  1
  S  S6  1  0.87630407  0.37108779  0.87630407  1
  S  S7  1  0.87630407  0.87630407  0.37108779  1
  I  I8  1  0.37648954  0.37648954  0.37648954  1
  I  I9  1  0.87053137  0.37648954  0.37648954  1
  I  I10  1  0.37648954  0.87053137  0.37648954  1
  I  I11  1  0.37648954  0.37648954  0.87053137  1
