# generated using pymatgen
data_K2NdNb5O15
_symmetry_space_group_name_H-M   'P 1'
_cell_length_a   3.96738965
_cell_length_b   12.78511670
_cell_length_c   12.78511670
_cell_angle_alpha   90.00000000
_cell_angle_beta   90.00000000
_cell_angle_gamma   90.00000000
_symmetry_Int_Tables_number   1
_chemical_formula_structural   K2NdNb5O15
_chemical_formula_sum   'K4 Nd2 Nb10 O30'
_cell_volume   648.50637411
_cell_formula_units_Z   2
loop_
 _symmetry_equiv_pos_site_id
 _symmetry_equiv_pos_as_xyz
  1  'x, y, z'
loop_
 _atom_site_type_symbol
 _atom_site_label
 _atom_site_symmetry_multiplicity
 _atom_site_fract_x
 _atom_site_fract_y
 _atom_site_fract_z
 _atom_site_occupancy
  K  K0  1  0.50000000  0.16987797  0.66987797  1
  K  K1  1  0.50000000  0.83012203  0.33012203  1
  K  K2  1  0.50000000  0.33012203  0.16987797  1
  K  K3  1  0.50000000  0.66987797  0.83012203  1
  Nd  Nd4  1  0.50000000  -0.00000000  -0.00000000  1
  Nd  Nd5  1  0.50000000  0.50000000  0.50000000  1
  Nb  Nb6  1  -0.00000000  -0.00000000  0.50000000  1
  Nb  Nb7  1  0.00000000  0.50000000  -0.00000000  1
  Nb  Nb8  1  -0.00000000  0.07651274  0.21330710  1
  Nb  Nb9  1  0.00000000  0.92348726  0.78669290  1
  Nb  Nb10  1  -0.00000000  0.78669290  0.07651274  1
  Nb  Nb11  1  0.00000000  0.42348726  0.71330710  1
  Nb  Nb12  1  -0.00000000  0.21330710  0.92348726  1
  Nb  Nb13  1  -0.00000000  0.57651274  0.28669290  1
  Nb  Nb14  1  0.00000000  0.71330710  0.57651274  1
  Nb  Nb15  1  0.00000000  0.28669290  0.42348726  1
  O  O16  1  0.50000000  0.07899016  0.18948120  1
  O  O17  1  0.50000000  0.92100984  0.81051880  1
  O  O18  1  0.50000000  0.81051880  0.07899016  1
  O  O19  1  0.50000000  0.42100984  0.68948120  1
  O  O20  1  0.50000000  0.18948120  0.92100984  1
  O  O21  1  0.50000000  0.57899016  0.31051880  1
  O  O22  1  0.50000000  0.68948120  0.57899016  1
  O  O23  1  0.50000000  0.31051880  0.42100984  1
  O  O24  1  0.00000000  0.71776077  0.21776077  1
  O  O25  1  0.00000000  0.28223923  0.78223923  1
  O  O26  1  -0.00000000  0.78223923  0.71776077  1
  O  O27  1  -0.00000000  0.21776077  0.28223923  1
  O  O28  1  0.50000000  -0.00000000  0.50000000  1
  O  O29  1  0.50000000  0.50000000  -0.00000000  1
  O  O30  1  0.00000000  0.13160640  0.05815079  1
  O  O31  1  0.00000000  0.86839360  0.94184921  1
  O  O32  1  0.00000000  0.94184921  0.13160640  1
  O  O33  1  -0.00000000  0.36839360  0.55815079  1
  O  O34  1  -0.00000000  0.05815079  0.86839360  1
  O  O35  1  -0.00000000  0.63160640  0.44184921  1
  O  O36  1  -0.00000000  0.55815079  0.63160640  1
  O  O37  1  0.00000000  0.44184921  0.36839360  1
  O  O38  1  -0.00000000  0.99931594  0.34229849  1
  O  O39  1  0.00000000  0.00068406  0.65770151  1
  O  O40  1  0.00000000  0.65770151  0.99931594  1
  O  O41  1  0.00000000  0.50068406  0.84229849  1
  O  O42  1  -0.00000000  0.34229849  0.00068406  1
  O  O43  1  -0.00000000  0.49931594  0.15770151  1
  O  O44  1  -0.00000000  0.84229849  0.49931594  1
  O  O45  1  0.00000000  0.15770151  0.50068406  1
