# generated using pymatgen
data_ZrCrMo
_symmetry_space_group_name_H-M   'P 1'
_cell_length_a   5.23113782
_cell_length_b   5.23113782
_cell_length_c   5.23113782
_cell_angle_alpha   89.57153141
_cell_angle_beta   59.43824191
_cell_angle_gamma   118.95058233
_symmetry_Int_Tables_number   1
_chemical_formula_structural   ZrCrMo
_chemical_formula_sum   'Zr2 Cr2 Mo2'
_cell_volume   101.56676645
_cell_formula_units_Z   2
loop_
 _symmetry_equiv_pos_site_id
 _symmetry_equiv_pos_as_xyz
  1  'x, y, z'
loop_
 _atom_site_type_symbol
 _atom_site_label
 _atom_site_symmetry_multiplicity
 _atom_site_fract_x
 _atom_site_fract_y
 _atom_site_fract_z
 _atom_site_occupancy
  Zr  Zr0  1  0.50000000  0.74801042  0.75198958  1
  Zr  Zr1  1  -0.00000000  0.00198958  0.99801042  1
  Cr  Cr2  1  0.75000000  0.37500000  0.87500000  1
  Cr  Cr3  1  0.25000000  0.37500000  0.37500000  1
  Mo  Mo4  1  0.25000000  0.87500000  0.37500000  1
  Mo  Mo5  1  0.75000000  0.37500000  0.37500000  1
