# generated using pymatgen
data_ZnHg4Te5
_symmetry_space_group_name_H-M   'P 1'
_cell_length_a   4.65757284
_cell_length_b   4.65757284
_cell_length_c   19.17080088
_cell_angle_alpha   83.02272306
_cell_angle_beta   90.00000000
_cell_angle_gamma   120.00000000
_symmetry_Int_Tables_number   1
_chemical_formula_structural   ZnHg4Te5
_chemical_formula_sum   'Zn1 Hg4 Te5'
_cell_volume   356.59496791
_cell_formula_units_Z   1
loop_
 _symmetry_equiv_pos_site_id
 _symmetry_equiv_pos_as_xyz
  1  'x, y, z'
loop_
 _atom_site_type_symbol
 _atom_site_label
 _atom_site_symmetry_multiplicity
 _atom_site_fract_x
 _atom_site_fract_y
 _atom_site_fract_z
 _atom_site_occupancy
  Zn  Zn0  1  0.40026073  0.80052146  0.79921781  1
  Hg  Hg1  1  0.00140839  0.00281679  0.99577482  1
  Hg  Hg2  1  0.60021037  0.20042074  0.19936890  1
  Hg  Hg3  1  0.19964262  0.39928524  0.40107214  1
  Hg  Hg4  1  0.79791707  0.59583414  0.60624879  1
  Te  Te5  1  0.95106389  0.90212778  0.14680833  1
  Te  Te6  1  0.55013642  0.10027284  0.34959074  1
  Te  Te7  1  0.14933866  0.29867731  0.55198403  1
  Te  Te8  1  0.74711240  0.49422480  0.75866280  1
  Te  Te9  1  0.35290946  0.70581891  0.94127163  1
