# generated using pymatgen
data_Li9Mn2Co5O16
_symmetry_space_group_name_H-M   'P 1'
_cell_length_a   3.02523315
_cell_length_b   10.21325539
_cell_length_c   9.91016982
_cell_angle_alpha   106.55031018
_cell_angle_beta   92.88523682
_cell_angle_gamma   82.54637547
_symmetry_Int_Tables_number   1
_chemical_formula_structural   Li9Mn2Co5O16
_chemical_formula_sum   'Li9 Mn2 Co5 O16'
_cell_volume   291.00443460
_cell_formula_units_Z   1
loop_
 _symmetry_equiv_pos_site_id
 _symmetry_equiv_pos_as_xyz
  1  'x, y, z'
loop_
 _atom_site_type_symbol
 _atom_site_label
 _atom_site_symmetry_multiplicity
 _atom_site_fract_x
 _atom_site_fract_y
 _atom_site_fract_z
 _atom_site_occupancy
  Li  Li0  1  0.94036776  0.12263340  0.31538585  1
  Li  Li1  1  0.44083880  0.12599044  0.81059074  1
  Li  Li2  1  0.30758888  0.37762039  0.43753133  1
  Li  Li3  1  0.81017304  0.37626543  0.93704901  1
  Li  Li4  1  0.68525325  0.62633574  0.55713245  1
  Li  Li5  1  0.18343917  0.62335580  0.06354556  1
  Li  Li6  1  0.06743710  0.87590748  0.68568550  1
  Li  Li7  1  0.56487907  0.87266497  0.19436239  1
  Li  Li8  1  0.12455265  0.75092690  0.37616571  1
  Mn  Mn9  1  0.00411785  0.99692270  0.99948118  1
  Mn  Mn10  1  0.36984508  0.25356492  0.12621926  1
  Co  Co11  1  0.50522639  0.99069737  0.49377252  1
  Co  Co12  1  0.87447462  0.24826709  0.62441409  1
  Co  Co13  1  0.73539807  0.51250709  0.25748564  1
  Co  Co14  1  0.24584323  0.50039917  0.74910796  1
  Co  Co15  1  0.63420941  0.74709789  0.87431580  1
  O  O16  1  0.43301139  0.06867448  0.15123602  1
  O  O17  1  0.93497854  0.06795303  0.64728804  1
  O  O18  1  0.80838083  0.32626812  0.27466128  1
  O  O19  1  0.34831199  0.31844023  0.77458031  1
  O  O20  1  0.19048476  0.55943561  0.39461746  1
  O  O21  1  0.73460806  0.56775576  0.89503110  1
  O  O22  1  0.58220493  0.83299849  0.53161628  1
  O  O23  1  0.05573841  0.81296460  0.02310303  1
  O  O24  1  0.40108887  0.17553435  0.47732503  1
  O  O25  1  0.94071790  0.18213796  0.97379246  1
  O  O26  1  0.77691012  0.42905557  0.59871406  1
  O  O27  1  0.30763334  0.43609001  0.10367896  1
  O  O28  1  0.20802026  0.68191359  0.72494630  1
  O  O29  1  0.66810323  0.66965229  0.21958949  1
  O  O30  1  0.56525732  0.92799090  0.85083894  1
  O  O31  1  0.05090568  0.94197823  0.35673623  1
