# generated using pymatgen
data_ZnNi3(B2O5)2
_symmetry_space_group_name_H-M   'P 1'
_cell_length_a   3.14688379
_cell_length_b   6.20659297
_cell_length_c   9.24762523
_cell_angle_alpha   104.26641405
_cell_angle_beta   90.60541868
_cell_angle_gamma   92.32610856
_symmetry_Int_Tables_number   1
_chemical_formula_structural   ZnNi3(B2O5)2
_chemical_formula_sum   'Zn1 Ni3 B4 O10'
_cell_volume   174.86538116
_cell_formula_units_Z   1
loop_
 _symmetry_equiv_pos_site_id
 _symmetry_equiv_pos_as_xyz
  1  'x, y, z'
loop_
 _atom_site_type_symbol
 _atom_site_label
 _atom_site_symmetry_multiplicity
 _atom_site_fract_x
 _atom_site_fract_y
 _atom_site_fract_z
 _atom_site_occupancy
  Zn  Zn0  1  0.26654005  0.78470616  0.64041887  1
  Ni  Ni1  1  0.76288625  0.62275752  0.89706860  1
  Ni  Ni2  1  0.23852022  0.37824053  0.10229806  1
  Ni  Ni3  1  0.72486278  0.20659096  0.35001802  1
  B  B4  1  0.30496183  0.31719085  0.64286036  1
  B  B5  1  0.69712189  0.68176644  0.35575895  1
  B  B6  1  0.66747682  0.12031239  0.83390148  1
  B  B7  1  0.33162857  0.87959011  0.16800658  1
  O  O8  1  0.26044318  0.52270288  0.74195861  1
  O  O9  1  0.74282558  0.47694819  0.25920514  1
  O  O10  1  0.23282276  0.27660913  0.49425158  1
  O  O11  1  0.76628723  0.72599524  0.50449674  1
  O  O12  1  0.44585352  0.14136491  0.70213657  1
  O  O13  1  0.55537230  0.85820608  0.29873094  1
  O  O14  1  0.78386218  0.91035915  0.82582940  1
  O  O15  1  0.22006909  0.09362910  0.18133553  1
  O  O16  1  0.73825811  0.30742812  0.94961789  1
  O  O17  1  0.26020765  0.69560223  0.05210667  1
