# generated using pymatgen
data_BaRe2O9
_symmetry_space_group_name_H-M   'P 1'
_cell_length_a   7.52071011
_cell_length_b   7.66914492
_cell_length_c   15.78882349
_cell_angle_alpha   89.65672147
_cell_angle_beta   95.82640969
_cell_angle_gamma   90.12741302
_symmetry_Int_Tables_number   1
_chemical_formula_structural   BaRe2O9
_chemical_formula_sum   'Ba4 Re8 O36'
_cell_volume   905.93664038
_cell_formula_units_Z   4
loop_
 _symmetry_equiv_pos_site_id
 _symmetry_equiv_pos_as_xyz
  1  'x, y, z'
loop_
 _atom_site_type_symbol
 _atom_site_label
 _atom_site_symmetry_multiplicity
 _atom_site_fract_x
 _atom_site_fract_y
 _atom_site_fract_z
 _atom_site_occupancy
  Ba  Ba0  1  0.22115451  0.17145816  0.86822622  1
  Ba  Ba1  1  0.77884549  0.82854184  0.13177378  1
  Ba  Ba2  1  0.21867871  0.81929652  0.36895789  1
  Ba  Ba3  1  0.78132129  0.18070348  0.63104211  1
  Re  Re4  1  0.69973706  0.13711838  0.35057283  1
  Re  Re5  1  0.30026294  0.86288162  0.64942717  1
  Re  Re6  1  0.76182725  0.30635390  0.01176167  1
  Re  Re7  1  0.23817275  0.69364610  0.98823833  1
  Re  Re8  1  0.28428112  0.12754192  0.14722435  1
  Re  Re9  1  0.71571888  0.87245808  0.85277565  1
  Re  Re10  1  0.23648741  0.30255670  0.49149584  1
  Re  Re11  1  0.76351259  0.69744330  0.50850416  1
  O  O12  1  0.16269970  0.97014811  0.20094221  1
  O  O13  1  0.83730030  0.02985189  0.79905779  1
  O  O14  1  0.51355984  0.07873636  0.16123592  1
  O  O15  1  0.48644016  0.92126364  0.83876408  1
  O  O16  1  0.08040894  0.35292144  0.56290609  1
  O  O17  1  0.91959106  0.64707856  0.43709391  1
  O  O18  1  0.76777898  0.15027249  0.45981197  1
  O  O19  1  0.23222102  0.84972751  0.54018803  1
  O  O20  1  0.71182416  0.50573266  0.05775765  1
  O  O21  1  0.28817584  0.49426734  0.94224235  1
  O  O22  1  0.17771903  0.02855226  0.69584644  1
  O  O23  1  0.82228097  0.97144774  0.30415356  1
  O  O24  1  0.42757699  0.21497609  0.54943962  1
  O  O25  1  0.57242301  0.78502391  0.45056038  1
  O  O26  1  0.08285295  0.66640943  0.06294480  1
  O  O27  1  0.91714705  0.33359057  0.93705520  1
  O  O28  1  0.21515212  0.12057755  0.03794336  1
  O  O29  1  0.78484788  0.87942245  0.96205664  1
  O  O30  1  0.29481146  0.48774921  0.43456866  1
  O  O31  1  0.70518854  0.51225079  0.56543134  1
  O  O32  1  0.73385357  0.33990208  0.30446491  1
  O  O33  1  0.26614643  0.66009792  0.69553509  1
  O  O34  1  0.49691224  0.65427805  0.25171862  1
  O  O35  1  0.50308776  0.34572195  0.74828138  1
  O  O36  1  0.00270222  0.43089683  0.75384852  1
  O  O37  1  0.99729778  0.56910317  0.24615148  1
  O  O38  1  0.43448996  0.78430164  0.03946874  1
  O  O39  1  0.56551004  0.21569836  0.96053126  1
  O  O40  1  0.47012691  0.08842074  0.33863414  1
  O  O41  1  0.52987309  0.91157926  0.66136586  1
  O  O42  1  0.85358982  0.16584372  0.09269685  1
  O  O43  1  0.14641018  0.83415628  0.90730315  1
  O  O44  1  0.25170797  0.33786292  0.18379721  1
  O  O45  1  0.74829203  0.66213708  0.81620279  1
  O  O46  1  0.14063867  0.14729605  0.41958240  1
  O  O47  1  0.85936133  0.85270395  0.58041760  1
