# generated using pymatgen
data_Zr10NiSnSb4
_symmetry_space_group_name_H-M   'P 1'
_cell_length_a   5.56073735
_cell_length_b   8.38363641
_cell_length_c   8.38363641
_cell_angle_alpha   96.31454499
_cell_angle_beta   109.36848835
_cell_angle_gamma   70.63151165
_symmetry_Int_Tables_number   1
_chemical_formula_structural   Zr10NiSnSb4
_chemical_formula_sum   'Zr10 Ni1 Sn1 Sb4'
_cell_volume   347.85142142
_cell_formula_units_Z   1
loop_
 _symmetry_equiv_pos_site_id
 _symmetry_equiv_pos_as_xyz
  1  'x, y, z'
loop_
 _atom_site_type_symbol
 _atom_site_label
 _atom_site_symmetry_multiplicity
 _atom_site_fract_x
 _atom_site_fract_y
 _atom_site_fract_z
 _atom_site_occupancy
  Zr  Zr0  1  0.43256354  0.86034943  0.70702526  1
  Zr  Zr1  1  0.58588771  0.13965057  0.29297474  1
  Zr  Zr2  1  0.91411229  0.29297474  0.13965057  1
  Zr  Zr3  1  0.06743646  0.70702526  0.86034943  1
  Zr  Zr4  1  0.72553828  0.70702526  0.13965057  1
  Zr  Zr5  1  0.29291297  0.29297474  0.86034943  1
  Zr  Zr6  1  0.77446172  0.13965057  0.70702526  1
  Zr  Zr7  1  0.20708703  0.86034943  0.29297474  1
  Zr  Zr8  1  0.25000000  0.50000000  0.50000000  1
  Zr  Zr9  1  0.75000000  0.50000000  0.50000000  1
  Ni  Ni10  1  0.75000000  0.00000000  -0.00000000  1
  Sn  Sn11  1  0.25000000  0.00000000  -0.00000000  1
  Sb  Sb12  1  0.33628335  0.50000000  0.17256671  1
  Sb  Sb13  1  0.66371665  0.50000000  0.82743329  1
  Sb  Sb14  1  0.83628335  0.82743329  0.50000000  1
  Sb  Sb15  1  0.16371665  0.17256671  0.50000000  1
