# generated using pymatgen
data_VCu12Sn(AsS8)2
_symmetry_space_group_name_H-M   'P 1'
_cell_length_a   9.19527334
_cell_length_b   9.19527334
_cell_length_c   9.19527334
_cell_angle_alpha   70.44093993
_cell_angle_beta   70.57268122
_cell_angle_gamma   109.42731878
_symmetry_Int_Tables_number   1
_chemical_formula_structural   VCu12Sn(AsS8)2
_chemical_formula_sum   'V1 Cu12 Sn1 As2 S16'
_cell_volume   598.50981240
_cell_formula_units_Z   1
loop_
 _symmetry_equiv_pos_site_id
 _symmetry_equiv_pos_as_xyz
  1  'x, y, z'
loop_
 _atom_site_type_symbol
 _atom_site_label
 _atom_site_symmetry_multiplicity
 _atom_site_fract_x
 _atom_site_fract_y
 _atom_site_fract_z
 _atom_site_occupancy
  V  V0  1  -0.00000000  0.00000000  0.00000000  1
  Cu  Cu1  1  0.49846330  0.24975038  0.75024962  1
  Cu  Cu2  1  0.25222993  0.75197625  0.99834965  1
  Cu  Cu3  1  0.25222993  0.00165035  0.24802375  1
  Cu  Cu4  1  -0.00000000  0.24871292  0.24975038  1
  Cu  Cu5  1  0.75032589  0.25057958  0.00165035  1
  Cu  Cu6  1  0.24967411  0.50025369  0.75197625  1
  Cu  Cu7  1  0.50153670  0.75128708  0.24871292  1
  Cu  Cu8  1  0.74777007  0.74942042  0.50025369  1
  Cu  Cu9  1  0.74777007  0.49974631  0.25057958  1
  Cu  Cu10  1  -0.00000000  0.75024962  0.75128708  1
  Cu  Cu11  1  0.24967411  0.24802375  0.49974631  1
  Cu  Cu12  1  0.75032589  0.99834965  0.74942042  1
  Sn  Sn13  1  -0.00000000  0.50000000  0.50000000  1
  As  As14  1  0.50000000  0.50000000  0.00000000  1
  As  As15  1  0.50000000  0.00000000  0.50000000  1
  S  S16  1  0.73242891  0.23148635  0.76851365  1
  S  S17  1  0.50120272  0.75267693  0.99973071  1
  S  S18  1  0.50120272  0.00026929  0.24732307  1
  S  S19  1  -0.00000000  0.50094256  0.23148635  1
  S  S20  1  0.75240763  0.50093342  0.00026929  1
  S  S21  1  0.24759237  0.74852579  0.75267693  1
  S  S22  1  0.26757109  0.49905744  0.50094256  1
  S  S23  1  0.49879728  0.49906658  0.74852579  1
  S  S24  1  0.49879728  0.25147421  0.50093342  1
  S  S25  1  0.00000000  0.76851365  0.49905744  1
  S  S26  1  0.24759237  0.24732307  0.25147421  1
  S  S27  1  0.75240763  0.99973071  0.49906658  1
  S  S28  1  0.23981657  0.99952482  0.00047518  1
  S  S29  1  0.00000000  0.24029175  0.99952482  1
  S  S30  1  0.76018343  0.75970825  0.24029175  1
  S  S31  1  0.00000000  0.00047518  0.75970825  1
