# generated using pymatgen
data_UCoCuSi2
_symmetry_space_group_name_H-M   'P 1'
_cell_length_a   3.94319745
_cell_length_b   3.94319745
_cell_length_c   5.58980339
_cell_angle_alpha   69.34663436
_cell_angle_beta   69.34663436
_cell_angle_gamma   90.00000000
_symmetry_Int_Tables_number   1
_chemical_formula_structural   UCoCuSi2
_chemical_formula_sum   'U1 Co1 Cu1 Si2'
_cell_volume   75.32991788
_cell_formula_units_Z   1
loop_
 _symmetry_equiv_pos_site_id
 _symmetry_equiv_pos_as_xyz
  1  'x, y, z'
loop_
 _atom_site_type_symbol
 _atom_site_label
 _atom_site_symmetry_multiplicity
 _atom_site_fract_x
 _atom_site_fract_y
 _atom_site_fract_z
 _atom_site_occupancy
  U  U0  1  0.00000000  0.00000000  -0.00000000  1
  Co  Co1  1  0.75000000  0.25000000  0.50000000  1
  Cu  Cu2  1  0.25000000  0.75000000  0.50000000  1
  Si  Si3  1  0.37957863  0.37957863  0.24084274  1
  Si  Si4  1  0.62042137  0.62042137  0.75915726  1
