# generated using pymatgen
data_V3Rh5
_symmetry_space_group_name_H-M   'P 1'
_cell_length_a   4.32682365
_cell_length_b   5.41576780
_cell_length_c   5.41576780
_cell_angle_alpha   119.64021094
_cell_angle_beta   90.00000000
_cell_angle_gamma   90.00000000
_symmetry_Int_Tables_number   1
_chemical_formula_structural   V3Rh5
_chemical_formula_sum   'V3 Rh5'
_cell_volume   110.30190981
_cell_formula_units_Z   1
loop_
 _symmetry_equiv_pos_site_id
 _symmetry_equiv_pos_as_xyz
  1  'x, y, z'
loop_
 _atom_site_type_symbol
 _atom_site_label
 _atom_site_symmetry_multiplicity
 _atom_site_fract_x
 _atom_site_fract_y
 _atom_site_fract_z
 _atom_site_occupancy
  V  V0  1  -0.00000000  0.08934633  0.91065367  1
  V  V1  1  0.50000000  0.41752385  0.58247615  1
  V  V2  1  0.50000000  0.91364681  0.08635319  1
  Rh  Rh3  1  -0.00000000  0.58313408  0.41686592  1
  Rh  Rh4  1  0.50000000  0.91036598  0.59136139  1
  Rh  Rh5  1  0.50000000  0.40863861  0.08963402  1
  Rh  Rh6  1  0.00000000  0.08871145  0.41136713  1
  Rh  Rh7  1  -0.00000000  0.58863287  0.91128855  1
