# generated using pymatgen
data_Y12Si5S28
_symmetry_space_group_name_H-M   'P 1'
_cell_length_a   9.82592848
_cell_length_b   11.36067199
_cell_length_c   11.36931729
_cell_angle_alpha   60.57173106
_cell_angle_beta   64.38408409
_cell_angle_gamma   64.36844370
_symmetry_Int_Tables_number   1
_chemical_formula_structural   Y12Si5S28
_chemical_formula_sum   'Y12 Si5 S28'
_cell_volume   956.77930691
_cell_formula_units_Z   1
loop_
 _symmetry_equiv_pos_site_id
 _symmetry_equiv_pos_as_xyz
  1  'x, y, z'
loop_
 _atom_site_type_symbol
 _atom_site_label
 _atom_site_symmetry_multiplicity
 _atom_site_fract_x
 _atom_site_fract_y
 _atom_site_fract_z
 _atom_site_occupancy
  Y  Y0  1  0.86504723  0.06920518  0.29854990  1
  Y  Y1  1  0.87057903  0.53333080  0.81537953  1
  Y  Y2  1  0.77820797  0.29555457  0.57597306  1
  Y  Y3  1  0.77096108  0.81531940  0.04846289  1
  Y  Y4  1  0.34855644  0.25120941  0.53168073  1
  Y  Y5  1  0.36651683  0.76601059  0.99706002  1
  Y  Y6  1  0.12539001  0.95887466  0.69565142  1
  Y  Y7  1  0.14111304  0.42929692  0.20340856  1
  Y  Y8  1  0.22860734  0.68339766  0.45483590  1
  Y  Y9  1  0.21797020  0.19304579  0.93345902  1
  Y  Y10  1  0.63552333  0.72817723  0.49827528  1
  Y  Y11  1  0.65319745  0.23863633  0.98017236  1
  Si  Si12  1  0.67316419  0.91271736  0.74830724  1
  Si  Si13  1  0.65963441  0.41844264  0.25551709  1
  Si  Si14  1  0.33391123  0.99507655  0.33734041  1
  Si  Si15  1  0.33223955  0.49496562  0.83968459  1
  Si  Si16  1  0.00113434  0.77403166  0.22604018  1
  S  S17  1  0.66775433  0.09860659  0.56636376  1
  S  S18  1  0.66467355  0.60075392  0.06795403  1
  S  S19  1  0.32573554  0.68728754  0.66128862  1
  S  S20  1  0.34093829  0.17249250  0.14611768  1
  S  S21  1  0.59920113  0.76171061  0.74707943  1
  S  S22  1  0.56795550  0.27482329  0.26111573  1
  S  S23  1  0.90142955  0.79080246  0.77801629  1
  S  S24  1  0.88696204  0.30781791  0.29225150  1
  S  S25  1  0.52234264  0.95379551  0.93634825  1
  S  S26  1  0.52089309  0.45578147  0.44467740  1
  S  S27  1  0.42123251  0.99201855  0.48143682  1
  S  S28  1  0.41708336  0.49215330  0.98635273  1
  S  S29  1  0.10510308  0.96341627  0.45189037  1
  S  S30  1  0.10471209  0.46311154  0.95882667  1
  S  S31  1  0.47813553  0.80497616  0.29908534  1
  S  S32  1  0.47435355  0.30735058  0.79838519  1
  S  S33  1  0.91278371  0.77676925  0.44909221  1
  S  S34  1  0.90058634  0.26332972  0.00209244  1
  S  S35  1  0.83399248  0.08322347  0.81916995  1
  S  S36  1  0.86361671  0.61837292  0.29265413  1
  S  S37  1  0.26096598  0.04962593  0.78394877  1
  S  S38  1  0.22816229  0.59282947  0.26802823  1
  S  S39  1  0.09759871  0.25747782  0.48400388  1
  S  S40  1  0.08669035  0.76479512  0.99884877  1
  S  S41  1  0.15070063  0.92575952  0.15985669  1
  S  S42  1  0.15967482  0.43619809  0.66232706  1
  S  S43  1  0.76344852  0.95843752  0.19186550  1
  S  S44  1  0.74152002  0.46649063  0.69362436  1
