# generated using pymatgen
data_Y6Zn(GeS7)2
_symmetry_space_group_name_H-M   'P 1'
_cell_length_a   5.71179771
_cell_length_b   9.93144723
_cell_length_c   9.93144529
_cell_angle_alpha   119.99959256
_cell_angle_beta   90.00004217
_cell_angle_gamma   89.99980471
_symmetry_Int_Tables_number   1
_chemical_formula_structural   Y6Zn(GeS7)2
_chemical_formula_sum   'Y6 Zn1 Ge2 S14'
_cell_volume   487.89933528
_cell_formula_units_Z   1
loop_
 _symmetry_equiv_pos_site_id
 _symmetry_equiv_pos_as_xyz
  1  'x, y, z'
loop_
 _atom_site_type_symbol
 _atom_site_label
 _atom_site_symmetry_multiplicity
 _atom_site_fract_x
 _atom_site_fract_y
 _atom_site_fract_z
 _atom_site_occupancy
  Y  Y0  1  0.25118090  0.22949563  0.35484866  1
  Y  Y1  1  0.25117974  0.64516284  0.87465421  1
  Y  Y2  1  0.25118238  0.12535711  0.77050372  1
  Y  Y3  1  0.74878599  0.77019786  0.64480994  1
  Y  Y4  1  0.74878604  0.35517772  0.12538256  1
  Y  Y5  1  0.74878893  0.87460714  0.22980206  1
  Zn  Zn6  1  0.48896061  0.00000317  0.00000264  1
  Ge  Ge7  1  0.82882589  0.33334495  0.66667314  1
  Ge  Ge8  1  0.33141171  0.66665602  0.33332575  1
  S  S9  1  0.99272586  0.09977176  0.51595477  1
  S  S10  1  0.99273765  0.48405599  0.58381318  1
  S  S11  1  0.99273809  0.41618949  0.90024060  1
  S  S12  1  0.49525119  0.90005240  0.48370976  1
  S  S13  1  0.49526029  0.51627855  0.41634383  1
  S  S14  1  0.49526249  0.58364876  0.09993139  1
  S  S15  1  0.44577452  0.33334754  0.66667477  1
  S  S16  1  0.94788745  0.66665173  0.33332677  1
  S  S17  1  0.71814102  0.15874478  0.24950658  1
  S  S18  1  0.71814078  0.75050021  0.90924533  1
  S  S19  1  0.71813947  0.09075622  0.84124655  1
  S  S20  1  0.23894616  0.83828526  0.74991200  1
  S  S21  1  0.23894784  0.25008447  0.08836911  1
  S  S22  1  0.23894502  0.91163039  0.16172266  1
