# generated using pymatgen
data_Y4Co16B3C
_symmetry_space_group_name_H-M   'P 1'
_cell_length_a   5.02156123
_cell_length_b   5.02100379
_cell_length_c   13.50015215
_cell_angle_alpha   90.00000000
_cell_angle_beta   90.00000000
_cell_angle_gamma   59.97844855
_symmetry_Int_Tables_number   1
_chemical_formula_structural   Y4Co16B3C
_chemical_formula_sum   'Y4 Co16 B3 C1'
_cell_volume   294.71636493
_cell_formula_units_Z   1
loop_
 _symmetry_equiv_pos_site_id
 _symmetry_equiv_pos_as_xyz
  1  'x, y, z'
loop_
 _atom_site_type_symbol
 _atom_site_label
 _atom_site_symmetry_multiplicity
 _atom_site_fract_x
 _atom_site_fract_y
 _atom_site_fract_z
 _atom_site_occupancy
  Y  Y0  1  0.99996718  0.00001507  0.00123419  1
  Y  Y1  1  0.99996718  0.00001507  0.49876581  1
  Y  Y2  1  0.99996701  0.00001950  0.25000000  1
  Y  Y3  1  0.99999123  0.00001316  0.75000000  1
  Co  Co4  1  0.50200164  0.99591987  0.14893816  1
  Co  Co5  1  0.49976333  0.00044544  0.64408181  1
  Co  Co6  1  0.99595195  0.50200768  0.14893920  1
  Co  Co7  1  0.00041323  0.49979743  0.64406392  1
  Co  Co8  1  0.50200017  0.50204758  0.14890572  1
  Co  Co9  1  0.49975184  0.49978892  0.64406894  1
  Co  Co10  1  0.50200164  0.99591987  0.35106184  1
  Co  Co11  1  0.49976333  0.00044544  0.85591819  1
  Co  Co12  1  0.99595195  0.50200768  0.35106080  1
  Co  Co13  1  0.00041323  0.49979743  0.85593608  1
  Co  Co14  1  0.50200017  0.50204758  0.35109428  1
  Co  Co15  1  0.49975184  0.49978892  0.85593106  1
  Co  Co16  1  0.66668656  0.66687216  -0.00004820  1
  Co  Co17  1  0.66668656  0.66687216  0.50004820  1
  Co  Co18  1  0.33328150  0.33314648  0.00296376  1
  Co  Co19  1  0.33328150  0.33314648  0.49703624  1
  B  B20  1  0.66678597  0.66661876  0.75000000  1
  B  B21  1  0.33335294  0.33334224  0.25000000  1
  B  B22  1  0.33317097  0.33340406  0.75000000  1
  C  C23  1  0.66669707  0.66652102  0.25000000  1
