# generated using pymatgen
data_Li9Mn2Co5O16
_symmetry_space_group_name_H-M   'P 1'
_cell_length_a   3.01922832
_cell_length_b   9.97853589
_cell_length_c   9.79452126
_cell_angle_alpha   92.89555444
_cell_angle_beta   82.96959735
_cell_angle_gamma   92.18970963
_symmetry_Int_Tables_number   1
_chemical_formula_structural   Li9Mn2Co5O16
_chemical_formula_sum   'Li9 Mn2 Co5 O16'
_cell_volume   292.33897692
_cell_formula_units_Z   1
loop_
 _symmetry_equiv_pos_site_id
 _symmetry_equiv_pos_as_xyz
  1  'x, y, z'
loop_
 _atom_site_type_symbol
 _atom_site_label
 _atom_site_symmetry_multiplicity
 _atom_site_fract_x
 _atom_site_fract_y
 _atom_site_fract_z
 _atom_site_occupancy
  Li  Li0  1  0.86889487  0.18968003  0.25644700  1
  Li  Li1  1  0.13401216  0.31474938  0.74664229  1
  Li  Li2  1  0.38016833  0.43827420  0.25278236  1
  Li  Li3  1  0.62942804  0.56073653  0.74840668  1
  Li  Li4  1  0.86922132  0.68690471  0.25136236  1
  Li  Li5  1  0.12534068  0.81262795  0.74597297  1
  Li  Li6  1  0.36442360  0.93382968  0.25621806  1
  Li  Li7  1  0.62814013  0.06232487  0.74099576  1
  Li  Li8  1  0.24993036  0.12523034  0.49955074  1
  Mn  Mn9  1  -0.00085546  0.00337297  0.00071156  1
  Mn  Mn10  1  0.50724127  0.74806271  -0.00008548  1
  Co  Co11  1  0.49322808  0.25197942  -0.00057942  1
  Co  Co12  1  0.75335811  0.36595813  0.49900889  1
  Co  Co13  1  -0.00040706  0.49595466  -0.00007677  1
  Co  Co14  1  0.24981369  0.62496444  0.50017344  1
  Co  Co15  1  0.74680954  0.88410423  0.50126536  1
  O  O16  1  0.41388408  0.09961632  0.11597092  1
  O  O17  1  0.69265270  0.23735248  0.61494686  1
  O  O18  1  0.90616491  0.34354277  0.11367820  1
  O  O19  1  0.16001974  0.47346512  0.61397874  1
  O  O20  1  0.45337222  0.59331874  0.11575577  1
  O  O21  1  0.70298093  0.72573326  0.61006333  1
  O  O22  1  0.91099424  0.84635001  0.11640357  1
  O  O23  1  0.17163847  0.96184857  0.61466597  1
  O  O24  1  0.33115743  0.28913744  0.38529089  1
  O  O25  1  0.54057268  0.40388710  0.88726260  1
  O  O26  1  0.79715235  0.52432684  0.39022681  1
  O  O27  1  0.09687764  0.65054050  0.88228315  1
  O  O28  1  0.33490841  0.77617352  0.38684274  1
  O  O29  1  0.58967539  0.90523576  0.88442542  1
  O  O30  1  0.80883776  0.01233279  0.38463814  1
  O  O31  1  0.09036340  0.15838452  0.88477112  1
