# generated using pymatgen
data_Y3(Ga2Cu)2
_symmetry_space_group_name_H-M   'P 1'
_cell_length_a   4.29164549
_cell_length_b   4.28913481
_cell_length_c   22.29260732
_cell_angle_alpha   90.00000000
_cell_angle_beta   90.00173987
_cell_angle_gamma   60.01934296
_symmetry_Int_Tables_number   1
_chemical_formula_structural   Y3(Ga2Cu)2
_chemical_formula_sum   'Y6 Ga8 Cu4'
_cell_volume   355.44274232
_cell_formula_units_Z   2
loop_
 _symmetry_equiv_pos_site_id
 _symmetry_equiv_pos_as_xyz
  1  'x, y, z'
loop_
 _atom_site_type_symbol
 _atom_site_label
 _atom_site_symmetry_multiplicity
 _atom_site_fract_x
 _atom_site_fract_y
 _atom_site_fract_z
 _atom_site_occupancy
  Y  Y0  1  0.99985050  0.00007475  0.25643441  1
  Y  Y1  1  0.00011565  0.99994218  0.58908296  1
  Y  Y2  1  0.99984595  0.00007703  0.92199896  1
  Y  Y3  1  0.00010639  0.99994680  0.07896738  1
  Y  Y4  1  0.99996908  0.00001546  0.41268231  1
  Y  Y5  1  0.00013921  0.99993040  0.74495043  1
  Ga  Ga6  1  0.66689669  0.66655166  0.33840723  1
  Ga  Ga7  1  0.66692242  0.66653879  0.67114117  1
  Ga  Ga8  1  0.66677432  0.66661284  0.15457608  1
  Ga  Ga9  1  0.66665064  0.66667468  0.48727845  1
  Ga  Ga10  1  0.66683446  0.66658277  0.81942031  1
  Ga  Ga11  1  0.33315969  0.33342016  0.18141644  1
  Ga  Ga12  1  0.33330930  0.33334535  0.51359194  1
  Ga  Ga13  1  0.33320155  0.33339923  0.84544391  1
  Cu  Cu14  1  0.33320070  0.33339965  0.32640918  1
  Cu  Cu15  1  0.33309074  0.33345463  0.65862595  1
  Cu  Cu16  1  0.33324157  0.33337922  0.99474984  1
  Cu  Cu17  1  0.66669116  0.66665442  0.00482306  1
