# generated using pymatgen
data_Yb4ZrCo33
_symmetry_space_group_name_H-M   'P 1'
_cell_length_a   8.13705409
_cell_length_b   8.36282477
_cell_length_c   8.36282477
_cell_angle_alpha   119.85593120
_cell_angle_beta   89.99898902
_cell_angle_gamma   90.00101098
_symmetry_Int_Tables_number   1
_chemical_formula_structural   Yb4ZrCo33
_chemical_formula_sum   'Yb4 Zr1 Co33'
_cell_volume   493.55150378
_cell_formula_units_Z   1
loop_
 _symmetry_equiv_pos_site_id
 _symmetry_equiv_pos_as_xyz
  1  'x, y, z'
loop_
 _atom_site_type_symbol
 _atom_site_label
 _atom_site_symmetry_multiplicity
 _atom_site_fract_x
 _atom_site_fract_y
 _atom_site_fract_z
 _atom_site_occupancy
  Yb  Yb0  1  0.23798606  0.66656584  0.33343416  1
  Yb  Yb1  1  0.75085340  0.33361770  0.66638230  1
  Yb  Yb2  1  0.75027063  0.00013190  -0.00013190  1
  Yb  Yb3  1  0.24830434  -0.00007693  0.00007693  1
  Zr  Zr4  1  0.61190013  0.66633725  0.33366275  1
  Co  Co5  1  0.47438421  0.83827248  0.67687034  1
  Co  Co6  1  0.47456807  0.83836008  0.16163992  1
  Co  Co7  1  0.47438421  0.32312966  0.16172752  1
  Co  Co8  1  0.51959826  0.16670771  0.33335278  1
  Co  Co9  1  0.51982916  0.16661828  0.83338172  1
  Co  Co10  1  0.51959826  0.66664722  0.83329229  1
  Co  Co11  1  0.98392860  0.16723154  0.33436427  1
  Co  Co12  1  0.98369426  0.16718201  0.83281799  1
  Co  Co13  1  0.98392860  0.66563573  0.83276846  1
  Co  Co14  1  0.01916667  0.83367064  0.66759659  1
  Co  Co15  1  0.01908030  0.83383505  0.16616495  1
  Co  Co16  1  0.01916667  0.33240341  0.16632936  1
  Co  Co17  1  0.50004775  0.49458256  0.98843203  1
  Co  Co18  1  0.50009962  0.49412933  0.50587067  1
  Co  Co19  1  0.50004775  0.01156797  0.50541744  1
  Co  Co20  1  0.99923773  0.49974926  0.99914273  1
  Co  Co21  1  0.99895234  0.49964403  0.50035597  1
  Co  Co22  1  0.99923773  0.00085727  0.50025074  1
  Co  Co23  1  0.75106519  0.67240235  0.03559112  1
  Co  Co24  1  0.75113338  0.36291147  0.32755145  1
  Co  Co25  1  0.75119996  0.96444837  0.63692441  1
  Co  Co26  1  0.75119996  0.36307559  0.03555163  1
  Co  Co27  1  0.75106519  0.96440888  0.32759765  1
  Co  Co28  1  0.75113338  0.67244855  0.63708853  1
  Co  Co29  1  0.25017591  0.32897577  0.95485331  1
  Co  Co30  1  0.25022046  0.62597594  0.67132341  1
  Co  Co31  1  0.25021879  0.04532872  0.37390392  1
  Co  Co32  1  0.25021879  0.62609608  0.95467128  1
  Co  Co33  1  0.25017591  0.04514669  0.67102423  1
  Co  Co34  1  0.25022046  0.32867659  0.37402406  1
  Co  Co35  1  0.38888218  0.33335862  0.66664138  1
  Co  Co36  1  0.10421830  0.33336390  0.66663610  1
  Co  Co37  1  0.91060739  0.66658250  0.33341750  1
