# generated using pymatgen
data_Yb3Y3Al10O24
_symmetry_space_group_name_H-M   'P 1'
_cell_length_a   10.49205734
_cell_length_b   10.49205734
_cell_length_c   10.49205734
_cell_angle_alpha   70.52877937
_cell_angle_beta   70.52877937
_cell_angle_gamma   109.47122063
_symmetry_Int_Tables_number   1
_chemical_formula_structural   Yb3Y3Al10O24
_chemical_formula_sum   'Yb6 Y6 Al20 O48'
_cell_volume   889.11937771
_cell_formula_units_Z   2
loop_
 _symmetry_equiv_pos_site_id
 _symmetry_equiv_pos_as_xyz
  1  'x, y, z'
loop_
 _atom_site_type_symbol
 _atom_site_label
 _atom_site_symmetry_multiplicity
 _atom_site_fract_x
 _atom_site_fract_y
 _atom_site_fract_z
 _atom_site_occupancy
  Yb  Yb0  1  0.62500000  0.37500000  0.75000000  1
  Yb  Yb1  1  0.87500000  0.12500000  0.25000000  1
  Yb  Yb2  1  0.62500000  0.25000000  0.12500000  1
  Yb  Yb3  1  0.87500000  0.75000000  0.37500000  1
  Yb  Yb4  1  0.75000000  0.37500000  0.37500000  1
  Yb  Yb5  1  0.25000000  0.12500000  0.12500000  1
  Y  Y6  1  0.37500000  0.62500000  0.25000000  1
  Y  Y7  1  0.12500000  0.87500000  0.75000000  1
  Y  Y8  1  0.37500000  0.75000000  0.87500000  1
  Y  Y9  1  0.12500000  0.25000000  0.62500000  1
  Y  Y10  1  0.25000000  0.62500000  0.62500000  1
  Y  Y11  1  0.75000000  0.87500000  0.87500000  1
  Al  Al12  1  0.12456957  0.37456957  0.25000000  1
  Al  Al13  1  0.37543043  0.12543043  0.75000000  1
  Al  Al14  1  0.62543043  0.75000000  0.62456957  1
  Al  Al15  1  0.87456957  0.25000000  0.87543043  1
  Al  Al16  1  0.25000000  0.87543043  0.37456957  1
  Al  Al17  1  0.75000000  0.62456957  0.12543043  1
  Al  Al18  1  0.87456957  0.62456957  0.75000000  1
  Al  Al19  1  0.62543043  0.87543043  0.25000000  1
  Al  Al20  1  0.37543043  0.25000000  0.37456957  1
  Al  Al21  1  0.12456957  0.75000000  0.12543043  1
  Al  Al22  1  0.75000000  0.12543043  0.62456957  1
  Al  Al23  1  0.25000000  0.37456957  0.87543043  1
  Al  Al24  1  0.50000000  0.00179852  0.00000000  1
  Al  Al25  1  0.50179852  0.50000000  0.50000000  1
  Al  Al26  1  0.99820148  0.49820148  0.00179852  1
  Al  Al27  1  -0.00000000  -0.00000000  0.49820148  1
  Al  Al28  1  0.50000000  0.49820148  -0.00000000  1
  Al  Al29  1  0.50179852  0.00179852  0.49820148  1
  Al  Al30  1  0.99820148  0.50000000  0.50000000  1
  Al  Al31  1  -0.00000000  0.00000000  0.00179852  1
  O  O32  1  0.32057851  0.52015444  0.09826663  1
  O  O33  1  0.11842108  0.41884514  0.40173337  1
  O  O34  1  0.38157892  0.97984556  0.69957594  1
  O  O35  1  0.17942149  0.08115486  0.80042406  1
  O  O36  1  0.47984556  0.80042406  0.61842108  1
  O  O37  1  0.58115486  0.69957594  0.82057851  1
  O  O38  1  0.02015444  0.40173337  0.67942149  1
  O  O39  1  0.91884514  0.09826663  0.88157892  1
  O  O40  1  0.19957594  0.67942149  0.41884514  1
  O  O41  1  0.30042406  0.88157892  0.52015444  1
  O  O42  1  0.59826663  0.61842108  0.08115486  1
  O  O43  1  0.90173337  0.82057851  0.97984556  1
  O  O44  1  0.68031340  0.48257865  0.90350790  1
  O  O45  1  0.88608655  0.58382130  0.59649210  1
  O  O46  1  0.61391345  0.01742135  0.30226525  1
  O  O47  1  0.81968660  0.91617870  0.19773475  1
  O  O48  1  0.51742135  0.19773475  0.38608655  1
  O  O49  1  0.41617870  0.30226525  0.18031340  1
  O  O50  1  0.98257865  0.59649210  0.31968660  1
  O  O51  1  0.08382130  0.90350790  0.11391345  1
  O  O52  1  0.80226525  0.31968660  0.58382130  1
  O  O53  1  0.69773475  0.11391345  0.48257865  1
  O  O54  1  0.40350790  0.38608655  0.91617870  1
  O  O55  1  0.09649210  0.18031340  0.01742135  1
  O  O56  1  0.68031340  0.19773475  0.91617870  1
  O  O57  1  0.88608655  0.30226525  0.01742135  1
  O  O58  1  0.61391345  0.59649210  0.58382130  1
  O  O59  1  0.81968660  0.90350790  0.48257865  1
  O  O60  1  0.51742135  0.31968660  0.59649210  1
  O  O61  1  0.41617870  0.11391345  0.90350790  1
  O  O62  1  0.98257865  0.38608655  0.19773475  1
  O  O63  1  0.08382130  0.18031340  0.30226525  1
  O  O64  1  0.80226525  0.48257865  0.11391345  1
  O  O65  1  0.69773475  0.58382130  0.31968660  1
  O  O66  1  0.40350790  0.01742135  0.18031340  1
  O  O67  1  0.09649210  0.91617870  0.38608655  1
  O  O68  1  0.32057851  0.80042406  0.08115486  1
  O  O69  1  0.11842108  0.69957594  0.97984556  1
  O  O70  1  0.38157892  0.40173337  0.41884514  1
  O  O71  1  0.17942149  0.09826663  0.52015444  1
  O  O72  1  0.47984556  0.67942149  0.40173337  1
  O  O73  1  0.58115486  0.88157892  0.09826663  1
  O  O74  1  0.02015444  0.61842108  0.80042406  1
  O  O75  1  0.91884514  0.82057851  0.69957594  1
  O  O76  1  0.19957594  0.52015444  0.88157892  1
  O  O77  1  0.30042406  0.41884514  0.67942149  1
  O  O78  1  0.59826663  0.97984556  0.82057851  1
  O  O79  1  0.90173337  0.08115486  0.61842108  1
