# generated using pymatgen
data_V2Cd3O8
_symmetry_space_group_name_H-M   'P 1'
_cell_length_a   5.42020069
_cell_length_b   7.06450167
_cell_length_c   10.05070103
_cell_angle_alpha   90.00000000
_cell_angle_beta   90.00003198
_cell_angle_gamma   90.00000000
_symmetry_Int_Tables_number   1
_chemical_formula_structural   V2Cd3O8
_chemical_formula_sum   'V4 Cd6 O16'
_cell_volume   384.85156226
_cell_formula_units_Z   2
loop_
 _symmetry_equiv_pos_site_id
 _symmetry_equiv_pos_as_xyz
  1  'x, y, z'
loop_
 _atom_site_type_symbol
 _atom_site_label
 _atom_site_symmetry_multiplicity
 _atom_site_fract_x
 _atom_site_fract_y
 _atom_site_fract_z
 _atom_site_occupancy
  V  V0  1  0.99403847  0.75000000  0.31996849  1
  V  V1  1  0.50596531  0.75000000  0.81996820  1
  V  V2  1  0.00873524  0.25000000  0.68158793  1
  V  V3  1  0.49126402  0.25000000  0.18158836  1
  Cd  Cd4  1  0.49998600  0.99012809  0.50158954  1
  Cd  Cd5  1  0.00001420  0.50987294  0.00158913  1
  Cd  Cd6  1  0.49998600  0.50987191  0.50158954  1
  Cd  Cd7  1  0.00001420  0.99012706  0.00158913  1
  Cd  Cd8  1  0.49945662  0.25000000  0.84949032  1
  Cd  Cd9  1  0.00054295  0.25000000  0.34949028  1
  O  O10  1  0.30042351  0.75000000  0.36836407  1
  O  O11  1  0.19957609  0.75000000  0.86836237  1
  O  O12  1  0.68714941  0.25000000  0.63536892  1
  O  O13  1  0.81284917  0.25000000  0.13536957  1
  O  O14  1  0.54594357  0.75000000  0.64678518  1
  O  O15  1  0.95405734  0.75000000  0.14678399  1
  O  O16  1  0.41924953  0.25000000  0.36057802  1
  O  O17  1  0.08074940  0.25000000  0.86057981  1
  O  O18  1  0.64560752  0.95931569  0.87962765  1
  O  O19  1  0.85439238  0.54068542  0.37962846  1
  O  O20  1  0.35010077  0.44089060  0.11441156  1
  O  O21  1  0.14989881  0.05910894  0.61441089  1
  O  O22  1  0.35010077  0.05910940  0.11441156  1
  O  O23  1  0.14989881  0.44089106  0.61441089  1
  O  O24  1  0.64560752  0.54068431  0.87962765  1
  O  O25  1  0.85439238  0.95931458  0.37962846  1
