# generated using pymatgen
data_Y9Ni24Sn49
_symmetry_space_group_name_H-M   'P 1'
_cell_length_a   10.31969882
_cell_length_b   10.31969882
_cell_length_c   17.02783984
_cell_angle_alpha   90.12326623
_cell_angle_beta   89.87673377
_cell_angle_gamma   109.42855044
_symmetry_Int_Tables_number   1
_chemical_formula_structural   Y9Ni24Sn49
_chemical_formula_sum   'Y9 Ni24 Sn49'
_cell_volume   1710.13363299
_cell_formula_units_Z   1
loop_
 _symmetry_equiv_pos_site_id
 _symmetry_equiv_pos_as_xyz
  1  'x, y, z'
loop_
 _atom_site_type_symbol
 _atom_site_label
 _atom_site_symmetry_multiplicity
 _atom_site_fract_x
 _atom_site_fract_y
 _atom_site_fract_z
 _atom_site_occupancy
  Y  Y0  1  0.75016876  0.75044823  0.24998736  1
  Y  Y1  1  0.24983124  0.24955177  0.75001264  1
  Y  Y2  1  0.50000000  0.00000000  0.00000000  1
  Y  Y3  1  -0.00000000  0.50000000  0.50000000  1
  Y  Y4  1  -0.00000000  0.50000000  0.00000000  1
  Y  Y5  1  0.50000000  0.00000000  0.50000000  1
  Y  Y6  1  0.24955177  0.24983124  0.24998736  1
  Y  Y7  1  0.75044823  0.75016876  0.75001264  1
  Y  Y8  1  -0.00000000  0.00000000  0.00000000  1
  Ni  Ni9  1  0.90275925  0.74181411  0.42007727  1
  Ni  Ni10  1  0.40122358  0.24235423  0.92075067  1
  Ni  Ni11  1  0.59877642  0.75764577  0.07924933  1
  Ni  Ni12  1  0.09724075  0.25818589  0.57992273  1
  Ni  Ni13  1  0.25818589  0.09724075  0.42007727  1
  Ni  Ni14  1  0.75764577  0.59877642  0.92075067  1
  Ni  Ni15  1  0.24235423  0.40122358  0.07924933  1
  Ni  Ni16  1  0.74181411  0.90275925  0.57992273  1
  Ni  Ni17  1  0.00098898  0.67986013  0.16048147  1
  Ni  Ni18  1  0.49939989  0.17893022  0.66098591  1
  Ni  Ni19  1  0.50060011  0.82106978  0.33901409  1
  Ni  Ni20  1  0.99901102  0.32013987  0.83951853  1
  Ni  Ni21  1  0.17893022  0.49939989  0.33901409  1
  Ni  Ni22  1  0.67986013  0.00098898  0.83951853  1
  Ni  Ni23  1  0.32013987  0.99901102  0.16048147  1
  Ni  Ni24  1  0.82106978  0.50060011  0.66098591  1
  Ni  Ni25  1  0.75997907  0.24002093  0.08020285  1
  Ni  Ni26  1  0.25924541  0.74075459  0.57986924  1
  Ni  Ni27  1  0.74075459  0.25924541  0.42013076  1
  Ni  Ni28  1  0.24002093  0.75997907  0.91979715  1
  Ni  Ni29  1  0.58070032  0.41929968  0.25902580  1
  Ni  Ni30  1  0.08112507  0.91887493  0.76038484  1
  Ni  Ni31  1  0.91887493  0.08112507  0.23961516  1
  Ni  Ni32  1  0.41929968  0.58070032  0.74097420  1
  Sn  Sn33  1  0.74933336  0.50441062  0.37709177  1
  Sn  Sn34  1  0.25830688  0.00403189  0.87266762  1
  Sn  Sn35  1  0.74169312  0.99596811  0.12733238  1
  Sn  Sn36  1  0.25066664  0.49558938  0.62290823  1
  Sn  Sn37  1  0.49558938  0.25066664  0.37709177  1
  Sn  Sn38  1  0.99596811  0.74169312  0.87266762  1
  Sn  Sn39  1  0.00403189  0.25830688  0.12733238  1
  Sn  Sn40  1  0.50441062  0.74933336  0.62290823  1
  Sn  Sn41  1  0.81301798  0.68195453  0.06490364  1
  Sn  Sn42  1  0.31734183  0.19060969  0.56352232  1
  Sn  Sn43  1  0.68265817  0.80939031  0.43647768  1
  Sn  Sn44  1  0.18698202  0.31804547  0.93509636  1
  Sn  Sn45  1  0.19060969  0.31734183  0.43647768  1
  Sn  Sn46  1  0.68195453  0.81301798  0.93509636  1
  Sn  Sn47  1  0.31804547  0.18698202  0.06490364  1
  Sn  Sn48  1  0.80939031  0.68265817  0.56352232  1
  Sn  Sn49  1  0.31490908  0.68509092  0.44125486  1
  Sn  Sn50  1  0.80777397  0.19222603  0.93908119  1
  Sn  Sn51  1  0.19222603  0.80777397  0.06091881  1
  Sn  Sn52  1  0.68509092  0.31490908  0.55874514  1
  Sn  Sn53  1  0.44057918  0.55942082  0.31323408  1
  Sn  Sn54  1  0.93874246  0.06125754  0.80778932  1
  Sn  Sn55  1  0.06125754  0.93874246  0.19221068  1
  Sn  Sn56  1  0.55942082  0.44057918  0.68676592  1
  Sn  Sn57  1  0.44388442  0.81187940  0.18495262  1
  Sn  Sn58  1  0.94241359  0.31223469  0.68424795  1
  Sn  Sn59  1  0.05758641  0.68776531  0.31575205  1
  Sn  Sn60  1  0.55611558  0.18812060  0.81504738  1
  Sn  Sn61  1  0.18812060  0.55611558  0.18495262  1
  Sn  Sn62  1  0.68776531  0.05758641  0.68424795  1
  Sn  Sn63  1  0.31223469  0.94241359  0.31575205  1
  Sn  Sn64  1  0.81187940  0.44388442  0.81504738  1
  Sn  Sn65  1  0.68297658  0.05585311  0.31406072  1
  Sn  Sn66  1  0.18198666  0.55520551  0.81246432  1
  Sn  Sn67  1  0.81801334  0.44479449  0.18753568  1
  Sn  Sn68  1  0.31702342  0.94414689  0.68593928  1
  Sn  Sn69  1  0.55520551  0.18198666  0.18753568  1
  Sn  Sn70  1  0.05585311  0.68297658  0.68593928  1
  Sn  Sn71  1  0.94414689  0.31702342  0.31406072  1
  Sn  Sn72  1  0.44479449  0.81801334  0.81246432  1
  Sn  Sn73  1  0.87050984  0.12949016  0.49789715  1
  Sn  Sn74  1  0.37141768  0.62858232  0.99751181  1
  Sn  Sn75  1  0.62858232  0.37141768  0.00248819  1
  Sn  Sn76  1  0.12949016  0.87050984  0.50210285  1
  Sn  Sn77  1  0.99811180  0.00188820  0.36989421  1
  Sn  Sn78  1  0.49851149  0.50148851  0.86950971  1
  Sn  Sn79  1  0.50148851  0.49851149  0.13049029  1
  Sn  Sn80  1  0.00188820  0.99811180  0.63010579  1
  Sn  Sn81  1  0.50000000  0.50000000  0.50000000  1
