# generated using pymatgen
data_TlV2Cr3S8
_symmetry_space_group_name_H-M   'P 1'
_cell_length_a   3.48306889
_cell_length_b   8.72541191
_cell_length_c   8.97632732
_cell_angle_alpha   103.20346729
_cell_angle_beta   78.81285795
_cell_angle_gamma   89.99999993
_symmetry_Int_Tables_number   1
_chemical_formula_structural   TlV2Cr3S8
_chemical_formula_sum   'Tl1 V2 Cr3 S8'
_cell_volume   260.26280523
_cell_formula_units_Z   1
loop_
 _symmetry_equiv_pos_site_id
 _symmetry_equiv_pos_as_xyz
  1  'x, y, z'
loop_
 _atom_site_type_symbol
 _atom_site_label
 _atom_site_symmetry_multiplicity
 _atom_site_fract_x
 _atom_site_fract_y
 _atom_site_fract_z
 _atom_site_occupancy
  Tl  Tl0  1  0.00217857  0.99621327  0.99564287  1
  V  V1  1  0.85072089  0.48020835  0.29855823  1
  V  V2  1  0.49209301  0.49716599  0.01581397  1
  Cr  Cr3  1  0.79363245  0.83624008  0.41273510  1
  Cr  Cr4  1  0.20329740  0.16703073  0.59340520  1
  Cr  Cr5  1  0.15864133  0.52181641  0.68271733  1
  S  S6  1  0.58651473  0.66423156  0.82697054  1
  S  S7  1  0.41272778  0.31747199  0.17454444  1
  S  S8  1  0.26342745  0.65554691  0.47314510  1
  S  S9  1  0.73904518  0.34741822  0.52190963  1
  S  S10  1  0.66987310  0.01337171  0.66025381  1
  S  S11  1  0.32793246  0.98910514  0.34413508  1
  S  S12  1  0.92636287  0.66661890  0.14727425  1
  S  S13  1  0.07355278  0.34756075  0.85289444  1
