# generated using pymatgen
data_Tl3In5Se8
_symmetry_space_group_name_H-M   'P 1'
_cell_length_a   6.96263584
_cell_length_b   8.25757820
_cell_length_c   8.25757820
_cell_angle_alpha   90.00000000
_cell_angle_beta   90.00000000
_cell_angle_gamma   90.00000000
_symmetry_Int_Tables_number   1
_chemical_formula_structural   Tl3In5Se8
_chemical_formula_sum   'Tl3 In5 Se8'
_cell_volume   474.76541179
_cell_formula_units_Z   1
loop_
 _symmetry_equiv_pos_site_id
 _symmetry_equiv_pos_as_xyz
  1  'x, y, z'
loop_
 _atom_site_type_symbol
 _atom_site_label
 _atom_site_symmetry_multiplicity
 _atom_site_fract_x
 _atom_site_fract_y
 _atom_site_fract_z
 _atom_site_occupancy
  Tl  Tl0  1  0.75000000  0.50000000  0.50000000  1
  Tl  Tl1  1  0.25000000  0.50000000  0.50000000  1
  Tl  Tl2  1  0.75000000  0.00000000  -0.00000000  1
  In  In3  1  0.75000000  0.00000000  0.50000000  1
  In  In4  1  0.25000000  0.50000000  0.00000000  1
  In  In5  1  0.75000000  0.50000000  -0.00000000  1
  In  In6  1  0.25000000  0.00000000  0.50000000  1
  In  In7  1  0.25000000  0.00000000  -0.00000000  1
  Se  Se8  1  0.49950031  0.32779259  0.82859989  1
  Se  Se9  1  0.00049969  0.82859989  0.32779259  1
  Se  Se10  1  0.00049969  0.17140011  0.67220741  1
  Se  Se11  1  0.49950031  0.67220741  0.17140011  1
  Se  Se12  1  0.49950031  0.17140011  0.32779259  1
  Se  Se13  1  0.00049969  0.67220741  0.82859989  1
  Se  Se14  1  0.00049969  0.32779259  0.17140011  1
  Se  Se15  1  0.49950031  0.82859989  0.67220741  1
