# generated using pymatgen
data_Li9Mn2Co5O16
_symmetry_space_group_name_H-M   'P 1'
_cell_length_a   2.95982068
_cell_length_b   19.33444586
_cell_length_c   5.10387297
_cell_angle_alpha   93.77006850
_cell_angle_beta   91.21593987
_cell_angle_gamma   83.78766655
_symmetry_Int_Tables_number   1
_chemical_formula_structural   Li9Mn2Co5O16
_chemical_formula_sum   'Li9 Mn2 Co5 O16'
_cell_volume   289.70393751
_cell_formula_units_Z   1
loop_
 _symmetry_equiv_pos_site_id
 _symmetry_equiv_pos_as_xyz
  1  'x, y, z'
loop_
 _atom_site_type_symbol
 _atom_site_label
 _atom_site_symmetry_multiplicity
 _atom_site_fract_x
 _atom_site_fract_y
 _atom_site_fract_z
 _atom_site_occupancy
  Li  Li0  1  0.86358612  0.12590876  0.39228194  1
  Li  Li1  1  0.25806894  0.25007961  0.24750260  1
  Li  Li2  1  0.62976427  0.37431242  0.12336048  1
  Li  Li3  1  0.00215836  0.49924562  0.99824029  1
  Li  Li4  1  0.37216882  0.62498636  0.87699380  1
  Li  Li5  1  0.75066538  0.74993035  0.75078706  1
  Li  Li6  1  0.13144805  0.87318060  0.61709868  1
  Li  Li7  1  0.48823357  0.00403465  0.50853715  1
  Li  Li8  1  0.38759392  0.12341747  0.86012443  1
  Mn  Mn9  1  0.99504209  0.00409950  0.98895579  1
  Mn  Mn10  1  0.50182203  0.49976876  0.50505146  1
  Co  Co11  1  0.75903019  0.24463270  0.75070461  1
  Co  Co12  1  0.13447139  0.37249792  0.63090866  1
  Co  Co13  1  0.86883379  0.62601650  0.37382144  1
  Co  Co14  1  0.24687844  0.74988319  0.25107891  1
  Co  Co15  1  0.61455777  0.87528024  0.13239683  1
  O  O16  1  0.46395051  0.05458433  0.16176477  1
  O  O17  1  0.80269757  0.19614714  0.02674593  1
  O  O18  1  0.15508263  0.31241969  0.91582524  1
  O  O19  1  0.57592576  0.43778862  0.79429586  1
  O  O20  1  0.90442161  0.56314282  0.67783520  1
  O  O21  1  0.31433380  0.68682975  0.53577482  1
  O  O22  1  0.64308537  0.80897948  0.42509011  1
  O  O23  1  0.04644282  0.93494955  0.28349562  1
  O  O24  1  0.33405963  0.19213630  0.56963296  1
  O  O25  1  0.67990624  0.30966004  0.47243863  1
  O  O26  1  0.10564674  0.43498532  0.33414814  1
  O  O27  1  0.44294320  0.56435013  0.21105059  1
  O  O28  1  0.85609015  0.69086767  0.07637416  1
  O  O29  1  0.18897574  0.81419790  0.96544473  1
  O  O30  1  0.53223992  0.94427747  0.83711987  1
  O  O31  1  0.94986719  0.05741113  0.70511426  1
