# generated using pymatgen
data_Ti4CrTe8
_symmetry_space_group_name_H-M   'P 1'
_cell_length_a   7.63597374
_cell_length_b   7.64989500
_cell_length_c   7.63679032
_cell_angle_alpha   75.08894689
_cell_angle_beta   60.48587134
_cell_angle_gamma   104.42345857
_symmetry_Int_Tables_number   1
_chemical_formula_structural   Ti4CrTe8
_chemical_formula_sum   'Ti4 Cr1 Te8'
_cell_volume   335.58333071
_cell_formula_units_Z   1
loop_
 _symmetry_equiv_pos_site_id
 _symmetry_equiv_pos_as_xyz
  1  'x, y, z'
loop_
 _atom_site_type_symbol
 _atom_site_label
 _atom_site_symmetry_multiplicity
 _atom_site_fract_x
 _atom_site_fract_y
 _atom_site_fract_z
 _atom_site_occupancy
  Ti  Ti0  1  0.99828333  0.99104067  0.00723774  1
  Ti  Ti1  1  0.50171667  0.00895933  0.49276226  1
  Ti  Ti2  1  0.98510142  0.49998721  0.01488694  1
  Ti  Ti3  1  0.51489858  0.50001279  0.48511306  1
  Cr  Cr4  1  0.25000000  0.00000000  0.25000000  1
  Te  Te5  1  0.29376672  0.33718986  0.95641610  1
  Te  Te6  1  0.79827042  0.33157336  0.46660718  1
  Te  Te7  1  0.30061459  0.83067335  0.95897950  1
  Te  Te8  1  0.78972802  0.83075165  0.46985609  1
  Te  Te9  1  0.71027198  0.16924835  0.03014391  1
  Te  Te10  1  0.19938541  0.16932665  0.54102050  1
  Te  Te11  1  0.70172958  0.66842664  0.03339282  1
  Te  Te12  1  0.20623328  0.66281014  0.54358390  1
