# generated using pymatgen
data_Tl4Pd15Pb
_symmetry_space_group_name_H-M   'P 1'
_cell_length_a   4.10547454
_cell_length_b   4.10547454
_cell_length_c   20.48827472
_cell_angle_alpha   90.00000000
_cell_angle_beta   90.00000000
_cell_angle_gamma   90.00000000
_symmetry_Int_Tables_number   1
_chemical_formula_structural   Tl4Pd15Pb
_chemical_formula_sum   'Tl4 Pd15 Pb1'
_cell_volume   345.32825590
_cell_formula_units_Z   1
loop_
 _symmetry_equiv_pos_site_id
 _symmetry_equiv_pos_as_xyz
  1  'x, y, z'
loop_
 _atom_site_type_symbol
 _atom_site_label
 _atom_site_symmetry_multiplicity
 _atom_site_fract_x
 _atom_site_fract_y
 _atom_site_fract_z
 _atom_site_occupancy
  Tl  Tl0  1  0.00000000  0.00000000  0.20054229  1
  Tl  Tl1  1  -0.00000000  0.00000000  0.39995904  1
  Tl  Tl2  1  0.00000000  0.00000000  0.60004096  1
  Tl  Tl3  1  -0.00000000  0.00000000  0.79945771  1
  Pd  Pd4  1  0.50000000  0.50000000  0.00000000  1
  Pd  Pd5  1  0.50000000  0.50000000  0.19957236  1
  Pd  Pd6  1  0.50000000  0.50000000  0.39998682  1
  Pd  Pd7  1  0.50000000  0.50000000  0.60001318  1
  Pd  Pd8  1  0.50000000  0.50000000  0.80042764  1
  Pd  Pd9  1  0.50000000  0.00000000  0.10019671  1
  Pd  Pd10  1  0.50000000  0.00000000  0.30019948  1
  Pd  Pd11  1  0.50000000  0.00000000  0.50000000  1
  Pd  Pd12  1  0.50000000  0.00000000  0.69980052  1
  Pd  Pd13  1  0.50000000  0.00000000  0.89980329  1
  Pd  Pd14  1  0.00000000  0.50000000  0.10019671  1
  Pd  Pd15  1  0.00000000  0.50000000  0.30019948  1
  Pd  Pd16  1  0.00000000  0.50000000  0.50000000  1
  Pd  Pd17  1  -0.00000000  0.50000000  0.69980052  1
  Pd  Pd18  1  -0.00000000  0.50000000  0.89980329  1
  Pb  Pb19  1  0.00000000  0.00000000  0.00000000  1
