# generated using pymatgen
data_TiFe2Bi2PbO9
_symmetry_space_group_name_H-M   'P 1'
_cell_length_a   4.76547064
_cell_length_b   5.40211374
_cell_length_c   8.51321234
_cell_angle_alpha   108.49839866
_cell_angle_beta   90.00000000
_cell_angle_gamma   90.00000000
_symmetry_Int_Tables_number   1
_chemical_formula_structural   TiFe2Bi2PbO9
_chemical_formula_sum   'Ti1 Fe2 Bi2 Pb1 O9'
_cell_volume   207.83736752
_cell_formula_units_Z   1
loop_
 _symmetry_equiv_pos_site_id
 _symmetry_equiv_pos_as_xyz
  1  'x, y, z'
loop_
 _atom_site_type_symbol
 _atom_site_label
 _atom_site_symmetry_multiplicity
 _atom_site_fract_x
 _atom_site_fract_y
 _atom_site_fract_z
 _atom_site_occupancy
  Ti  Ti0  1  0.52144737  0.16666700  0.33333300  1
  Fe  Fe1  1  0.50639866  0.50291345  0.00582691  1
  Fe  Fe2  1  0.50639866  0.83041955  0.66084009  1
  Bi  Bi3  1  0.93413816  0.99241910  0.98483821  1
  Bi  Bi4  1  0.93413816  0.34091390  0.68182879  1
  Pb  Pb5  1  0.96817107  0.66666700  0.33333300  1
  O  O6  1  0.64700513  0.66666700  0.83333300  1
  O  O7  1  0.64199002  0.32622435  0.16534873  1
  O  O8  1  0.64199002  0.00710865  0.50131827  1
  O  O9  1  0.64199002  0.49420963  0.50131827  1
  O  O10  1  0.64700513  0.16666700  0.83333300  1
  O  O11  1  0.64199002  0.83912337  0.16534873  1
  O  O12  1  0.11913400  0.84561672  0.69123445  1
  O  O13  1  0.11913400  0.48771628  0.97543255  1
  O  O14  1  0.15298963  0.16666700  0.33333300  1
