# generated using pymatgen
data_Tb6Ga19Pt3
_symmetry_space_group_name_H-M   'P 1'
_cell_length_a   4.24154124
_cell_length_b   8.26748658
_cell_length_c   16.55220192
_cell_angle_alpha   108.83084624
_cell_angle_beta   82.63867443
_cell_angle_gamma   104.86363486
_symmetry_Int_Tables_number   1
_chemical_formula_structural   Tb6Ga19Pt3
_chemical_formula_sum   'Tb6 Ga19 Pt3'
_cell_volume   530.33225236
_cell_formula_units_Z   1
loop_
 _symmetry_equiv_pos_site_id
 _symmetry_equiv_pos_as_xyz
  1  'x, y, z'
loop_
 _atom_site_type_symbol
 _atom_site_label
 _atom_site_symmetry_multiplicity
 _atom_site_fract_x
 _atom_site_fract_y
 _atom_site_fract_z
 _atom_site_occupancy
  Tb  Tb0  1  0.25058769  0.74935506  0.24817969  1
  Tb  Tb1  1  0.75123265  0.25150135  0.74903605  1
  Tb  Tb2  1  0.40796210  0.22913070  0.41320650  1
  Tb  Tb3  1  0.91283897  0.73519463  0.90951670  1
  Tb  Tb4  1  0.08647727  0.26322771  0.09027317  1
  Tb  Tb5  1  0.58999920  0.76952464  0.58952624  1
  Ga  Ga6  1  0.17387729  0.80343525  0.45568068  1
  Ga  Ga7  1  0.68217284  0.31691160  0.95256593  1
  Ga  Ga8  1  0.31577215  0.67207721  0.04053292  1
  Ga  Ga9  1  0.82380937  0.19509139  0.54747265  1
  Ga  Ga10  1  0.45612320  0.09702441  0.18477800  1
  Ga  Ga11  1  0.95695711  0.58988636  0.67597214  1
  Ga  Ga12  1  0.04288435  0.41266401  0.32689531  1
  Ga  Ga13  1  0.54822960  0.91455679  0.81809758  1
  Ga  Ga14  1  0.72475994  0.55521706  0.10569717  1
  Ga  Ga15  1  0.23045196  0.06460696  0.60370305  1
  Ga  Ga16  1  0.76724952  0.93354266  0.39904363  1
  Ga  Ga17  1  0.27167337  0.43280408  0.88945734  1
  Ga  Ga18  1  0.60467803  0.44115323  0.23179717  1
  Ga  Ga19  1  0.10740707  0.94381877  0.72900462  1
  Ga  Ga20  1  0.89187276  0.05816982  0.27442430  1
  Ga  Ga21  1  0.39783338  0.56544457  0.76977780  1
  Ga  Ga22  1  0.50797174  0.00847063  0.99252714  1
  Ga  Ga23  1  0.99869069  0.49856134  0.50117996  1
  Ga  Ga24  1  0.88943622  0.88767536  0.10880291  1
  Pt  Pt25  1  0.39090279  0.39245330  0.61064773  1
  Pt  Pt26  1  0.60863672  0.60719546  0.38992202  1
  Pt  Pt27  1  0.10951203  0.11130564  0.89228159  1
