# generated using pymatgen
data_TeMo2Se3
_symmetry_space_group_name_H-M   'P 1'
_cell_length_a   3.38415463
_cell_length_b   3.38415718
_cell_length_c   14.59042700
_cell_angle_alpha   90.00169621
_cell_angle_beta   89.99838218
_cell_angle_gamma   119.99955788
_symmetry_Int_Tables_number   1
_chemical_formula_structural   TeMo2Se3
_chemical_formula_sum   'Te1 Mo2 Se3'
_cell_volume   144.71091617
_cell_formula_units_Z   1
loop_
 _symmetry_equiv_pos_site_id
 _symmetry_equiv_pos_as_xyz
  1  'x, y, z'
loop_
 _atom_site_type_symbol
 _atom_site_label
 _atom_site_symmetry_multiplicity
 _atom_site_fract_x
 _atom_site_fract_y
 _atom_site_fract_z
 _atom_site_occupancy
  Te  Te0  1  0.66667407  0.33332623  0.12725380  1
  Mo  Mo1  1  0.66666946  0.33332474  0.74873256  1
  Mo  Mo2  1  0.33333020  0.66667086  0.25711426  1
  Se  Se3  1  0.33334004  0.66666264  0.86209944  1
  Se  Se4  1  0.33333703  0.66666050  0.63516575  1
  Se  Se5  1  0.66664921  0.33335502  0.36963420  1
