# generated using pymatgen
data_Te4H4Pb12C2Cl3O29
_symmetry_space_group_name_H-M   'P 1'
_cell_length_a   7.74692648
_cell_length_b   11.17728805
_cell_length_c   12.17314372
_cell_angle_alpha   62.78871442
_cell_angle_beta   99.57820737
_cell_angle_gamma   89.97947992
_symmetry_Int_Tables_number   1
_chemical_formula_structural   Te4H4Pb12C2Cl3O29
_chemical_formula_sum   'Te4 H4 Pb12 C2 Cl3 O29'
_cell_volume   920.82345537
_cell_formula_units_Z   1
loop_
 _symmetry_equiv_pos_site_id
 _symmetry_equiv_pos_as_xyz
  1  'x, y, z'
loop_
 _atom_site_type_symbol
 _atom_site_label
 _atom_site_symmetry_multiplicity
 _atom_site_fract_x
 _atom_site_fract_y
 _atom_site_fract_z
 _atom_site_occupancy
  Te  Te0  1  0.13766696  0.08696604  0.42385575  1
  Te  Te1  1  0.36283972  0.51016875  0.57687300  1
  Te  Te2  1  0.86102257  0.91426742  0.57714334  1
  Te  Te3  1  0.63761916  0.49035023  0.42289147  1
  H  H4  1  0.67889694  0.97125010  0.94145629  1
  H  H5  1  0.82830808  0.90673485  0.05719198  1
  H  H6  1  0.32766296  0.03175495  0.05673331  1
  H  H7  1  0.17019916  0.08729857  0.94266722  1
  Pb  Pb8  1  0.50609783  0.09476419  0.63212769  1
  Pb  Pb9  1  0.97599273  0.71576675  0.39059719  1
  Pb  Pb10  1  0.47855370  0.89487964  0.39043719  1
  Pb  Pb11  1  0.02217359  0.28434246  0.60945720  1
  Pb  Pb12  1  0.33865645  0.73411431  0.72360430  1
  Pb  Pb13  1  0.16148442  0.45566041  0.27848612  1
  Pb  Pb14  1  0.65985087  0.26329161  0.28205588  1
  Pb  Pb15  1  0.83907500  0.54356033  0.72273098  1
  Pb  Pb16  1  0.97892015  0.79808772  0.89255882  1
  Pb  Pb17  1  0.52148054  0.69038770  0.10648785  1
  Pb  Pb18  1  0.02223888  0.20274158  0.10742074  1
  Pb  Pb19  1  0.47835258  0.31087724  0.89376341  1
  C  C20  1  0.24972412  0.48518906  0.00024044  1
  C  C21  1  0.75111927  0.51580801  0.00032787  1
  Cl  Cl22  1  0.15679607  0.80639059  0.17240959  1
  Cl  Cl23  1  0.65681964  0.02104469  0.17291168  1
  Cl  Cl24  1  0.84058376  0.19306763  0.82802204  1
  O  O25  1  0.24943824  0.60105364  0.00043822  1
  O  O26  1  0.75148376  0.40045809  0.99929389  1
  O  O27  1  0.04338419  0.78118090  0.71309210  1
  O  O28  1  0.45760494  0.49253411  0.28674745  1
  O  O29  1  0.95723866  0.22008057  0.28764380  1
  O  O30  1  0.54313419  0.50832257  0.71273007  1
  O  O31  1  0.28626264  0.47629246  0.90326110  1
  O  O32  1  0.21348943  0.37918525  0.09677152  1
  O  O33  1  0.71122254  0.52508711  0.09607757  1
  O  O34  1  0.79084503  0.62165660  0.90458703  1
  O  O35  1  0.33343091  0.96031960  0.54666513  1
  O  O36  1  0.16555286  0.50543678  0.45571445  1
  O  O37  1  0.66662680  0.03748752  0.45434194  1
  O  O38  1  0.83423361  0.49599459  0.54404384  1
  O  O39  1  0.00756222  0.06844767  0.56005958  1
  O  O40  1  0.49286900  0.62730302  0.44136757  1
  O  O41  1  0.99400890  0.93164638  0.44251949  1
  O  O42  1  0.50713148  0.37350743  0.55810542  1
  O  O43  1  0.76484217  0.92016871  0.71053775  1
  O  O44  1  0.73282968  0.63148927  0.28998107  1
  O  O45  1  0.23544020  0.07904972  0.29177529  1
  O  O46  1  0.26687511  0.36973056  0.70938005  1
  O  O47  1  0.25398623  0.23184593  0.44019694  1
  O  O48  1  0.24497771  0.67010364  0.56259084  1
  O  O49  1  0.74650227  0.76718466  0.56297140  1
  O  O50  1  0.75946903  0.33295114  0.43626920  1
  O  O51  1  0.74733114  0.88511359  0.99896481  1
  O  O52  1  0.25398435  0.11431289  0.99482303  1
  O  O53  1  0.34610757  0.98329075  0.79659808  1
