# generated using pymatgen
data_Tb5(Sn3Rh)6
_symmetry_space_group_name_H-M   'P 1'
_cell_length_a   9.91784294
_cell_length_b   9.91784294
_cell_length_c   9.91784294
_cell_angle_alpha   90.00000000
_cell_angle_beta   60.00000000
_cell_angle_gamma   120.00000000
_symmetry_Int_Tables_number   1
_chemical_formula_structural   Tb5(Sn3Rh)6
_chemical_formula_sum   'Tb5 Sn18 Rh6'
_cell_volume   689.82143000
_cell_formula_units_Z   1
loop_
 _symmetry_equiv_pos_site_id
 _symmetry_equiv_pos_as_xyz
  1  'x, y, z'
loop_
 _atom_site_type_symbol
 _atom_site_label
 _atom_site_symmetry_multiplicity
 _atom_site_fract_x
 _atom_site_fract_y
 _atom_site_fract_z
 _atom_site_occupancy
  Tb  Tb0  1  0.26056473  0.63028237  0.10915290  1
  Tb  Tb1  1  0.73943527  0.63028237  0.63028237  1
  Tb  Tb2  1  0.73943527  0.10915290  0.63028237  1
  Tb  Tb3  1  0.26056473  0.63028237  0.63028237  1
  Tb  Tb4  1  0.00000000  -0.00000000  0.00000000  1
  Sn  Sn5  1  0.82396482  0.41198241  0.76405278  1
  Sn  Sn6  1  0.17603518  0.41198241  0.41198241  1
  Sn  Sn7  1  0.17603518  0.76405278  0.41198241  1
  Sn  Sn8  1  0.82396482  0.41198241  0.41198241  1
  Sn  Sn9  1  0.50000000  0.25000000  0.25000000  1
  Sn  Sn10  1  0.65032642  0.00824092  0.34143266  1
  Sn  Sn11  1  0.01648184  0.00824092  0.34143266  1
  Sn  Sn12  1  0.65032642  0.64208550  0.34143266  1
  Sn  Sn13  1  0.34967358  0.00824092  0.64208550  1
  Sn  Sn14  1  0.98351816  0.64208550  0.00824092  1
  Sn  Sn15  1  0.34967358  0.00824092  0.00824092  1
  Sn  Sn16  1  0.34967358  0.34143266  0.00824092  1
  Sn  Sn17  1  0.98351816  0.34143266  0.00824092  1
  Sn  Sn18  1  0.34967358  0.34143266  0.64208550  1
  Sn  Sn19  1  0.65032642  0.64208550  0.00824092  1
  Sn  Sn20  1  0.01648184  0.00824092  0.64208550  1
  Sn  Sn21  1  0.65032642  0.00824092  0.00824092  1
  Sn  Sn22  1  0.50000000  0.75000000  0.75000000  1
  Rh  Rh23  1  0.49283187  0.74641593  0.25358407  1
  Rh  Rh24  1  0.00000000  0.25358407  0.25358407  1
  Rh  Rh25  1  -0.00000000  0.74641593  0.25358407  1
  Rh  Rh26  1  0.50716813  0.25358407  0.74641593  1
  Rh  Rh27  1  -0.00000000  0.74641593  0.74641593  1
  Rh  Rh28  1  0.00000000  0.25358407  0.74641593  1
