# generated using pymatgen
data_TePb2S
_symmetry_space_group_name_H-M   'P 1'
_cell_length_a   4.44395252
_cell_length_b   4.44395251
_cell_length_c   7.69993055
_cell_angle_alpha   73.22758571
_cell_angle_beta   90.00000000
_cell_angle_gamma   120.00000005
_symmetry_Int_Tables_number   1
_chemical_formula_structural   TePb2S
_chemical_formula_sum   'Te1 Pb2 S1'
_cell_volume   124.16511763
_cell_formula_units_Z   1
loop_
 _symmetry_equiv_pos_site_id
 _symmetry_equiv_pos_as_xyz
  1  'x, y, z'
loop_
 _atom_site_type_symbol
 _atom_site_label
 _atom_site_symmetry_multiplicity
 _atom_site_fract_x
 _atom_site_fract_y
 _atom_site_fract_z
 _atom_site_occupancy
  Te  Te0  1  0.50000000  0.00000000  0.50000000  1
  Pb  Pb1  1  0.25828810  0.51657619  0.22513571  1
  Pb  Pb2  1  0.74171190  0.48342381  0.77486429  1
  S  S3  1  0.00000000  0.00000000  0.00000000  1
