# generated using pymatgen
data_Tb2Ti2Fe22H
_symmetry_space_group_name_H-M   'P 1'
_cell_length_a   4.76792461
_cell_length_b   6.47589057
_cell_length_c   12.01249000
_cell_angle_alpha   90.05872273
_cell_angle_beta   90.00000000
_cell_angle_gamma   111.60026625
_symmetry_Int_Tables_number   1
_chemical_formula_structural   Tb2Ti2Fe22H
_chemical_formula_sum   'Tb2 Ti2 Fe22 H1'
_cell_volume   344.85729424
_cell_formula_units_Z   1
loop_
 _symmetry_equiv_pos_site_id
 _symmetry_equiv_pos_as_xyz
  1  'x, y, z'
loop_
 _atom_site_type_symbol
 _atom_site_label
 _atom_site_symmetry_multiplicity
 _atom_site_fract_x
 _atom_site_fract_y
 _atom_site_fract_z
 _atom_site_occupancy
  Tb  Tb0  1  0.00312724  0.00625447  0.00301803  1
  Tb  Tb1  1  0.50295438  0.00590876  0.50304171  1
  Ti  Ti2  1  0.31716849  0.63433699  0.31670840  1
  Ti  Ti3  1  0.81697706  0.63395412  0.81733969  1
  Fe  Fe4  1  0.38827074  0.77654149  0.11099600  1
  Fe  Fe5  1  0.88898406  0.77796812  0.61036742  1
  Fe  Fe6  1  0.11064336  0.22128672  0.38916067  1
  Fe  Fe7  1  0.61090022  0.22180045  0.88784599  1
  Fe  Fe8  1  0.88751363  0.77502727  0.38773182  1
  Fe  Fe9  1  0.38731783  0.77463566  0.88709992  1
  Fe  Fe10  1  0.61361195  0.22722389  0.11365585  1
  Fe  Fe11  1  0.11360009  0.22720018  0.61341144  1
  Fe  Fe12  1  0.25015687  0.00240334  0.25009438  1
  Fe  Fe13  1  0.75088501  0.00255892  0.74960492  1
  Fe  Fe14  1  0.75224647  0.00240334  0.25009438  1
  Fe  Fe15  1  0.25167391  0.00255892  0.74960492  1
  Fe  Fe16  1  0.50067794  0.49963665  0.50118450  1
  Fe  Fe17  1  0.00041861  0.49946206  0.00128212  1
  Fe  Fe18  1  0.99895871  0.49963665  0.50118450  1
  Fe  Fe19  1  0.49904345  0.49946206  0.00128212  1
  Fe  Fe20  1  0.67842795  0.35685589  0.32085295  1
  Fe  Fe21  1  0.17848048  0.35696095  0.82178548  1
  Fe  Fe22  1  0.82103945  0.64207889  0.17812121  1
  Fe  Fe23  1  0.32144498  0.64288997  0.67880590  1
  Fe  Fe24  1  0.17772513  0.35545026  0.17739625  1
  Fe  Fe25  1  0.67738723  0.35477446  0.67794330  1
  H  H26  1  0.50036476  0.00072951  0.00038614  1
