# generated using pymatgen
data_Tb6Ga19Pd3
_symmetry_space_group_name_H-M   'P 1'
_cell_length_a   4.26390788
_cell_length_b   8.19182743
_cell_length_c   16.19419068
_cell_angle_alpha   106.79701845
_cell_angle_beta   82.43509223
_cell_angle_gamma   105.08511670
_symmetry_Int_Tables_number   1
_chemical_formula_structural   Tb6Ga19Pd3
_chemical_formula_sum   'Tb6 Ga19 Pd3'
_cell_volume   521.88025071
_cell_formula_units_Z   1
loop_
 _symmetry_equiv_pos_site_id
 _symmetry_equiv_pos_as_xyz
  1  'x, y, z'
loop_
 _atom_site_type_symbol
 _atom_site_label
 _atom_site_symmetry_multiplicity
 _atom_site_fract_x
 _atom_site_fract_y
 _atom_site_fract_z
 _atom_site_occupancy
  Tb  Tb0  1  0.25099509  0.75024988  0.24825970  1
  Tb  Tb1  1  0.74930524  0.24954408  0.75093359  1
  Tb  Tb2  1  0.39918622  0.20464044  0.40626800  1
  Tb  Tb3  1  0.90826992  0.72140692  0.90486708  1
  Tb  Tb4  1  0.09236817  0.27925792  0.09452158  1
  Tb  Tb5  1  0.59849768  0.79270341  0.59570806  1
  Ga  Ga6  1  0.17618039  0.81174077  0.45937998  1
  Ga  Ga7  1  0.68103263  0.31742523  0.95535997  1
  Ga  Ga8  1  0.31839269  0.67736157  0.04057620  1
  Ga  Ga9  1  0.82257168  0.18791819  0.54277482  1
  Ga  Ga10  1  0.45830942  0.09933903  0.18272019  1
  Ga  Ga11  1  0.95955116  0.59596481  0.67686249  1
  Ga  Ga12  1  0.03996488  0.40475675  0.32482700  1
  Ga  Ga13  1  0.54466791  0.90786834  0.81853252  1
  Ga  Ga14  1  0.73117874  0.57070321  0.10834573  1
  Ga  Ga15  1  0.23828033  0.08211074  0.60555008  1
  Ga  Ga16  1  0.75961989  0.91674262  0.39750284  1
  Ga  Ga17  1  0.26665601  0.42384655  0.89053453  1
  Ga  Ga18  1  0.60474497  0.44922773  0.23973780  1
  Ga  Ga19  1  0.10747823  0.94816394  0.73320748  1
  Ga  Ga20  1  0.89017495  0.04882796  0.26847805  1
  Ga  Ga21  1  0.39511560  0.55239038  0.76215919  1
  Ga  Ga22  1  0.50648344  0.00668450  0.99371762  1
  Ga  Ga23  1  0.99950637  0.49966066  0.50064792  1
  Ga  Ga24  1  0.89820375  0.89737255  0.10096505  1
  Pd  Pd25  1  0.40406517  0.40512673  0.59699639  1
  Pd  Pd26  1  0.59572872  0.59495297  0.40349554  1
  Pd  Pd27  1  0.10347074  0.10401210  0.89707062  1
