# generated using pymatgen
data_Li9Mn2Co5O16
_symmetry_space_group_name_H-M   'P 1'
_cell_length_a   3.01690822
_cell_length_b   9.96660369
_cell_length_c   9.73414457
_cell_angle_alpha   92.83538692
_cell_angle_beta   83.49473047
_cell_angle_gamma   92.95538556
_symmetry_Int_Tables_number   1
_chemical_formula_structural   Li9Mn2Co5O16
_chemical_formula_sum   'Li9 Mn2 Co5 O16'
_cell_volume   290.13735045
_cell_formula_units_Z   1
loop_
 _symmetry_equiv_pos_site_id
 _symmetry_equiv_pos_as_xyz
  1  'x, y, z'
loop_
 _atom_site_type_symbol
 _atom_site_label
 _atom_site_symmetry_multiplicity
 _atom_site_fract_x
 _atom_site_fract_y
 _atom_site_fract_z
 _atom_site_occupancy
  Li  Li0  1  0.87032771  0.18859475  0.25602342  1
  Li  Li1  1  0.13250317  0.31380257  0.74700516  1
  Li  Li2  1  0.37629581  0.43647590  0.25419702  1
  Li  Li3  1  0.62789151  0.56260213  0.74695428  1
  Li  Li4  1  0.87064773  0.68929364  0.25022082  1
  Li  Li5  1  0.12386718  0.81254437  0.74847911  1
  Li  Li6  1  0.36723294  0.93481300  0.25580675  1
  Li  Li7  1  0.62800784  0.06334229  0.74072995  1
  Li  Li8  1  0.24975934  0.12505388  0.49951708  1
  Mn  Mn9  1  -0.00014935  0.00020602  0.00001383  1
  Mn  Mn10  1  0.00038481  0.49995102  0.00020639  1
  Co  Co11  1  0.49922287  0.24993002  0.00022426  1
  Co  Co12  1  0.75224850  0.36562792  0.49857370  1
  Co  Co13  1  0.24981188  0.62509050  0.49960905  1
  Co  Co14  1  0.49934261  0.74995292  -0.00004520  1
  Co  Co15  1  0.74760258  0.88430944  0.50221446  1
  O  O16  1  0.41571096  0.09707584  0.11622753  1
  O  O17  1  0.69018054  0.23687443  0.61487199  1
  O  O18  1  0.91549801  0.34264549  0.11312675  1
  O  O19  1  0.16477228  0.47489115  0.61444042  1
  O  O20  1  0.41494513  0.59738097  0.11609585  1
  O  O21  1  0.70870459  0.72570017  0.61005111  1
  O  O22  1  0.91546596  0.84256830  0.11310726  1
  O  O23  1  0.17650359  0.96217947  0.61533026  1
  O  O24  1  0.32322053  0.28825281  0.38563437  1
  O  O25  1  0.58274623  0.40356028  0.88584636  1
  O  O26  1  0.79305452  0.52335222  0.38922479  1
  O  O27  1  0.08709377  0.65632051  0.88503957  1
  O  O28  1  0.33459359  0.77577603  0.38612431  1
  O  O29  1  0.58181044  0.90303259  0.88589635  1
  O  O30  1  0.81224629  0.01236629  0.38446214  1
  O  O31  1  0.08845641  0.15643306  0.88479083  1
