# generated using pymatgen
data_SrFe2AsP
_symmetry_space_group_name_H-M   'P 1'
_cell_length_a   3.88105163
_cell_length_b   3.88105163
_cell_length_c   6.42551131
_cell_angle_alpha   72.42203235
_cell_angle_beta   72.42203235
_cell_angle_gamma   90.00000000
_symmetry_Int_Tables_number   1
_chemical_formula_structural   SrFe2AsP
_chemical_formula_sum   'Sr1 Fe2 As1 P1'
_cell_volume   87.51324355
_cell_formula_units_Z   1
loop_
 _symmetry_equiv_pos_site_id
 _symmetry_equiv_pos_as_xyz
  1  'x, y, z'
loop_
 _atom_site_type_symbol
 _atom_site_label
 _atom_site_symmetry_multiplicity
 _atom_site_fract_x
 _atom_site_fract_y
 _atom_site_fract_z
 _atom_site_occupancy
  Sr  Sr0  1  0.00379288  0.00379288  0.99241424  1
  Fe  Fe1  1  0.24359450  0.74359450  0.51281101  1
  Fe  Fe2  1  0.74359450  0.24359450  0.51281101  1
  As  As3  1  0.35374925  0.35374925  0.29250151  1
  P  P4  1  0.65526888  0.65526888  0.68946224  1
