# generated using pymatgen
data_Tb(CrFe5)2
_symmetry_space_group_name_H-M   'P 1'
_cell_length_a   4.67352904
_cell_length_b   6.39142936
_cell_length_c   6.39142936
_cell_angle_alpha   97.30040510
_cell_angle_beta   111.44507049
_cell_angle_gamma   68.55492951
_symmetry_Int_Tables_number   1
_chemical_formula_structural   Tb(CrFe5)2
_chemical_formula_sum   'Tb1 Cr2 Fe10'
_cell_volume   165.39093176
_cell_formula_units_Z   1
loop_
 _symmetry_equiv_pos_site_id
 _symmetry_equiv_pos_as_xyz
  1  'x, y, z'
loop_
 _atom_site_type_symbol
 _atom_site_label
 _atom_site_symmetry_multiplicity
 _atom_site_fract_x
 _atom_site_fract_y
 _atom_site_fract_z
 _atom_site_occupancy
  Tb  Tb0  1  -0.00000000  -0.00000000  -0.00000000  1
  Cr  Cr1  1  -0.00000000  0.36809596  0.36809596  1
  Cr  Cr2  1  -0.00000000  0.63190404  0.63190404  1
  Fe  Fe3  1  0.72564704  0.77435296  0.22564704  1
  Fe  Fe4  1  0.27435296  0.22564704  0.77435296  1
  Fe  Fe5  1  0.50000000  0.77130208  0.77130208  1
  Fe  Fe6  1  0.50000000  0.22869792  0.22869792  1
  Fe  Fe7  1  0.50000000  -0.00000000  0.50000000  1
  Fe  Fe8  1  -0.00000000  -0.00000000  0.50000000  1
  Fe  Fe9  1  0.50000000  0.50000000  -0.00000000  1
  Fe  Fe10  1  -0.00000000  0.50000000  -0.00000000  1
  Fe  Fe11  1  0.64030224  0.35969776  0.64030224  1
  Fe  Fe12  1  0.35969776  0.64030224  0.35969776  1
