# generated using pymatgen
data_Li9Mn2Co5O16
_symmetry_space_group_name_H-M   'P 1'
_cell_length_a   3.01057205
_cell_length_b   9.96157452
_cell_length_c   9.87823025
_cell_angle_alpha   78.04971087
_cell_angle_beta   92.35143074
_cell_angle_gamma   92.15561572
_symmetry_Int_Tables_number   1
_chemical_formula_structural   Li9Mn2Co5O16
_chemical_formula_sum   'Li9 Mn2 Co5 O16'
_cell_volume   289.45553635
_cell_formula_units_Z   1
loop_
 _symmetry_equiv_pos_site_id
 _symmetry_equiv_pos_as_xyz
  1  'x, y, z'
loop_
 _atom_site_type_symbol
 _atom_site_label
 _atom_site_symmetry_multiplicity
 _atom_site_fract_x
 _atom_site_fract_y
 _atom_site_fract_z
 _atom_site_occupancy
  Li  Li0  1  0.00157500  0.12262877  0.25536441  1
  Li  Li1  1  0.50504847  0.12478399  0.74713208  1
  Li  Li2  1  0.49520807  0.37698877  0.25116534  1
  Li  Li3  1  0.99683403  0.37676051  0.74577625  1
  Li  Li4  1  0.99639354  0.62315818  0.25488373  1
  Li  Li5  1  0.50112573  0.62595110  0.74287609  1
  Li  Li6  1  0.49805554  0.87164698  0.25849401  1
  Li  Li7  1  0.00592757  0.87804793  0.74461100  1
  Li  Li8  1  0.99990482  0.74988516  0.50028043  1
  Mn  Mn9  1  0.00861782  0.99739756  0.00175144  1
  Mn  Mn10  1  0.49480018  0.25274813  0.00021548  1
  Co  Co11  1  0.50039354  0.99075445  0.49908291  1
  Co  Co12  1  0.00014028  0.25024189  0.49970202  1
  Co  Co13  1  0.99305913  0.50172690  0.99799970  1
  Co  Co14  1  0.49956895  0.50900285  0.50080809  1
  Co  Co15  1  0.51020841  0.74624525  -0.00120840  1
  O  O16  1  0.47402140  0.06758299  0.11679994  1
  O  O17  1  0.96981959  0.07123322  0.61413073  1
  O  O18  1  0.96510852  0.32181928  0.11500729  1
  O  O19  1  0.50855154  0.32300083  0.61009718  1
  O  O20  1  0.46339646  0.56542796  0.11241159  1
  O  O21  1  0.97798899  0.55791989  0.61441705  1
  O  O22  1  0.01293503  0.81388417  0.11751336  1
  O  O23  1  0.49865929  0.83312774  0.61558421  1
  O  O24  1  0.49169420  0.17749683  0.38938579  1
  O  O25  1  0.03062951  0.18388236  0.88249516  1
  O  O26  1  0.03151640  0.42906313  0.38575154  1
  O  O27  1  0.51573865  0.43779214  0.88720371  1
  O  O28  1  0.50170966  0.66651073  0.38457046  1
  O  O29  1  -0.00586721  0.68170871  0.88455117  1
  O  O30  1  0.02066499  0.94187801  0.38569533  1
  O  O31  1  0.53657191  0.92970359  0.88545092  1
