# generated using pymatgen
data_SrCaCuO3
_symmetry_space_group_name_H-M   'P 1'
_cell_length_a   3.42632304
_cell_length_b   3.92053204
_cell_length_c   6.74170504
_cell_angle_alpha   73.09610948
_cell_angle_beta   75.27890918
_cell_angle_gamma   90.00000000
_symmetry_Int_Tables_number   1
_chemical_formula_structural   SrCaCuO3
_chemical_formula_sum   'Sr1 Ca1 Cu1 O3'
_cell_volume   83.53670820
_cell_formula_units_Z   1
loop_
 _symmetry_equiv_pos_site_id
 _symmetry_equiv_pos_as_xyz
  1  'x, y, z'
loop_
 _atom_site_type_symbol
 _atom_site_label
 _atom_site_symmetry_multiplicity
 _atom_site_fract_x
 _atom_site_fract_y
 _atom_site_fract_z
 _atom_site_occupancy
  Sr  Sr0  1  0.35127228  0.85127228  0.29745543  1
  Ca  Ca1  1  0.64691079  0.14691079  0.70617841  1
  Cu  Cu2  1  0.00012989  0.50012989  -0.00025978  1
  O  O3  1  0.15531857  0.65531857  0.68936286  1
  O  O4  1  0.83982314  0.33982314  0.32035372  1
  O  O5  1  0.00654532  0.00654532  0.98690936  1
