# generated using pymatgen
data_SrLa(RuO3)2
_symmetry_space_group_name_H-M   'P 1'
_cell_length_a   5.64325407
_cell_length_b   5.64822006
_cell_length_c   7.96934614
_cell_angle_alpha   90.00000000
_cell_angle_beta   90.00000000
_cell_angle_gamma   90.00000000
_symmetry_Int_Tables_number   1
_chemical_formula_structural   SrLa(RuO3)2
_chemical_formula_sum   'Sr2 La2 Ru4 O12'
_cell_volume   254.01765515
_cell_formula_units_Z   2
loop_
 _symmetry_equiv_pos_site_id
 _symmetry_equiv_pos_as_xyz
  1  'x, y, z'
loop_
 _atom_site_type_symbol
 _atom_site_label
 _atom_site_symmetry_multiplicity
 _atom_site_fract_x
 _atom_site_fract_y
 _atom_site_fract_z
 _atom_site_occupancy
  Sr  Sr0  1  0.03672497  0.49452991  0.75000000  1
  Sr  Sr1  1  0.46327503  0.99452991  0.25000000  1
  La  La2  1  0.54020225  0.00710968  0.75000000  1
  La  La3  1  0.95979775  0.50710968  0.25000000  1
  Ru  Ru4  1  0.49964306  0.49998358  0.00066179  1
  Ru  Ru5  1  0.00035694  -0.00001642  0.50066179  1
  Ru  Ru6  1  0.49964306  0.49998358  0.49933821  1
  Ru  Ru7  1  0.00035694  -0.00001642  0.99933821  1
  O  O8  1  0.20405166  0.70348009  0.04389000  1
  O  O9  1  0.71266113  0.78806001  0.45968476  1
  O  O10  1  0.78733887  0.28806001  0.54031524  1
  O  O11  1  0.29594834  0.20348009  0.95611000  1
  O  O12  1  0.78733887  0.28806001  0.95968476  1
  O  O13  1  0.29594834  0.20348009  0.54389000  1
  O  O14  1  0.20405166  0.70348009  0.45611000  1
  O  O15  1  0.71266113  0.78806001  0.04031524  1
  O  O16  1  0.49222168  0.58842132  0.75000000  1
  O  O17  1  0.98588688  0.92689173  0.75000000  1
  O  O18  1  0.51411312  0.42689173  0.25000000  1
  O  O19  1  0.00777832  0.08842132  0.25000000  1
