# generated using pymatgen
data_Sr3Sm(CoO4)2
_symmetry_space_group_name_H-M   'P 1'
_cell_length_a   5.35724563
_cell_length_b   5.38218876
_cell_length_c   6.84721343
_cell_angle_alpha   90.00000000
_cell_angle_beta   66.97087691
_cell_angle_gamma   90.00000000
_symmetry_Int_Tables_number   1
_chemical_formula_structural   Sr3Sm(CoO4)2
_chemical_formula_sum   'Sr3 Sm1 Co2 O8'
_cell_volume   181.69654237
_cell_formula_units_Z   1
loop_
 _symmetry_equiv_pos_site_id
 _symmetry_equiv_pos_as_xyz
  1  'x, y, z'
loop_
 _atom_site_type_symbol
 _atom_site_label
 _atom_site_symmetry_multiplicity
 _atom_site_fract_x
 _atom_site_fract_y
 _atom_site_fract_z
 _atom_site_occupancy
  Sr  Sr0  1  0.35334925  0.00000000  0.29330149  1
  Sr  Sr1  1  0.64425182  0.00000000  0.71149637  1
  Sr  Sr2  1  0.14545620  0.50000000  0.70908761  1
  Sm  Sm3  1  0.86181620  0.50000000  0.27636761  1
  Co  Co4  1  0.50058454  0.50000000  0.99883091  1
  Co  Co5  1  0.00016982  0.00000000  0.99966036  1
  O  O6  1  0.15622394  -0.00000000  0.68755212  1
  O  O7  1  0.67855240  0.50000000  0.64289519  1
  O  O8  1  0.33847640  0.50000000  0.32304720  1
  O  O9  1  0.84049722  -0.00000000  0.31900556  1
  O  O10  1  0.23850079  0.25089421  0.00968889  1
  O  O11  1  0.75181032  0.74910579  0.00968889  1
  O  O12  1  0.23850079  0.74910579  0.00968889  1
  O  O13  1  0.75181032  0.25089421  0.00968889  1
