# generated using pymatgen
data_Sr6Co4O13
_symmetry_space_group_name_H-M   'P 1'
_cell_length_a   5.48630424
_cell_length_b   5.49242078
_cell_length_c   10.47794994
_cell_angle_alpha   90.03022364
_cell_angle_beta   74.82296038
_cell_angle_gamma   90.11544460
_symmetry_Int_Tables_number   1
_chemical_formula_structural   Sr6Co4O13
_chemical_formula_sum   'Sr6 Co4 O13'
_cell_volume   304.72010573
_cell_formula_units_Z   1
loop_
 _symmetry_equiv_pos_site_id
 _symmetry_equiv_pos_as_xyz
  1  'x, y, z'
loop_
 _atom_site_type_symbol
 _atom_site_label
 _atom_site_symmetry_multiplicity
 _atom_site_fract_x
 _atom_site_fract_y
 _atom_site_fract_z
 _atom_site_occupancy
  Sr  Sr0  1  0.50000000  0.00000000  -0.00000000  1
  Sr  Sr1  1  -0.00000000  0.50000000  -0.00000000  1
  Sr  Sr2  1  0.17934070  0.50000000  0.64131859  1
  Sr  Sr3  1  0.68158170  1.00000000  0.63683660  1
  Sr  Sr4  1  0.31841830  0.00000000  0.36316340  1
  Sr  Sr5  1  0.82065930  0.50000000  0.35868141  1
  Co  Co6  1  0.39329961  0.50000000  0.21340079  1
  Co  Co7  1  0.90627037  1.00000000  0.18745926  1
  Co  Co8  1  0.09372963  0.00000000  0.81254074  1
  Co  Co9  1  0.60670039  0.50000000  0.78659921  1
  O  O10  1  0.64881669  0.26088749  0.18002389  1
  O  O11  1  0.17115942  0.73911251  0.18002389  1
  O  O12  1  0.82884058  0.26088749  0.81997611  1
  O  O13  1  0.35118331  0.73911251  0.81997611  1
  O  O14  1  0.17027281  0.25998957  0.17993772  1
  O  O15  1  0.64978947  0.74001043  0.17993772  1
  O  O16  1  0.35021053  0.25998957  0.82006228  1
  O  O17  1  0.82972719  0.74001043  0.82006228  1
  O  O18  1  0.30208824  0.50000000  0.39582353  1
  O  O19  1  0.80812874  0.00000000  0.38374252  1
  O  O20  1  0.19187126  1.00000000  0.61625748  1
  O  O21  1  0.69791176  0.50000000  0.60417647  1
  O  O22  1  -0.00000000  0.00000000  -0.00000000  1
