# generated using pymatgen
data_SrLa4TiAl4O15
_symmetry_space_group_name_H-M   'P 1'
_cell_length_a   3.85162897
_cell_length_b   5.42069310
_cell_length_c   13.84708687
_cell_angle_alpha   101.28760859
_cell_angle_beta   90.00000000
_cell_angle_gamma   90.00000000
_symmetry_Int_Tables_number   1
_chemical_formula_structural   SrLa4TiAl4O15
_chemical_formula_sum   'Sr1 La4 Ti1 Al4 O15'
_cell_volume   283.51420267
_cell_formula_units_Z   1
loop_
 _symmetry_equiv_pos_site_id
 _symmetry_equiv_pos_as_xyz
  1  'x, y, z'
loop_
 _atom_site_type_symbol
 _atom_site_label
 _atom_site_symmetry_multiplicity
 _atom_site_fract_x
 _atom_site_fract_y
 _atom_site_fract_z
 _atom_site_occupancy
  Sr  Sr0  1  0.00000000  -0.00000000  -0.00000000  1
  La  La1  1  -0.00000000  0.60219431  0.20438862  1
  La  La2  1  0.00000000  0.19977141  0.39954282  1
  La  La3  1  0.00000000  0.80022859  0.60045718  1
  La  La4  1  -0.00000000  0.39780569  0.79561138  1
  Ti  Ti5  1  0.50000000  0.50000000  -0.00000000  1
  Al  Al6  1  0.50000000  0.10082302  0.20164605  1
  Al  Al7  1  0.50000000  0.70047800  0.40095600  1
  Al  Al8  1  0.50000000  0.29952200  0.59904400  1
  Al  Al9  1  0.50000000  0.89917698  0.79835395  1
  O  O10  1  0.50000000  0.59837916  0.69892313  1
  O  O11  1  0.50000000  0.40162084  0.30107687  1
  O  O12  1  0.50000000  -0.00000000  0.50000000  1
  O  O13  1  0.50000000  0.20008157  0.89558010  1
  O  O14  1  0.50000000  0.79991843  0.10441990  1
  O  O15  1  0.50000000  0.69549852  0.89558010  1
  O  O16  1  0.50000000  0.50000000  0.50000000  1
  O  O17  1  0.50000000  0.10054397  0.69892313  1
  O  O18  1  0.50000000  0.30450148  0.10441990  1
  O  O19  1  0.50000000  0.89945603  0.30107687  1
  O  O20  1  0.00000000  0.89785331  0.79570662  1
  O  O21  1  0.00000000  0.69985667  0.39971334  1
  O  O22  1  -0.00000000  0.30014333  0.60028666  1
  O  O23  1  0.00000000  0.50000000  -0.00000000  1
  O  O24  1  0.00000000  0.10214669  0.20429338  1
