# generated using pymatgen
data_Sr3LaTi2Mn2O12
_symmetry_space_group_name_H-M   'P 1'
_cell_length_a   5.55645797
_cell_length_b   5.55645797
_cell_length_c   9.59854391
_cell_angle_alpha   90.00000000
_cell_angle_beta   73.17540253
_cell_angle_gamma   120.00000000
_symmetry_Int_Tables_number   1
_chemical_formula_structural   Sr3LaTi2Mn2O12
_chemical_formula_sum   'Sr3 La1 Ti2 Mn2 O12'
_cell_volume   241.88625963
_cell_formula_units_Z   1
loop_
 _symmetry_equiv_pos_site_id
 _symmetry_equiv_pos_as_xyz
  1  'x, y, z'
loop_
 _atom_site_type_symbol
 _atom_site_label
 _atom_site_symmetry_multiplicity
 _atom_site_fract_x
 _atom_site_fract_y
 _atom_site_fract_z
 _atom_site_occupancy
  Sr  Sr0  1  0.75129312  0.37564656  0.87306032  1
  Sr  Sr1  1  0.25000000  0.62500000  0.12500000  1
  Sr  Sr2  1  0.74870688  0.87435344  0.37693968  1
  La  La3  1  0.25000000  0.12500000  0.62500000  1
  Ti  Ti4  1  0.00060905  0.00030452  0.99908643  1
  Ti  Ti5  1  0.49939095  0.24969548  0.25091357  1
  Mn  Mn6  1  -0.00029698  0.49985151  0.50044547  1
  Mn  Mn7  1  0.50029698  0.75014849  0.74955453  1
  O  O8  1  0.25000000  0.62500000  0.62500000  1
  O  O9  1  0.75872272  0.87936136  0.87065837  1
  O  O10  1  0.25000000  0.12500000  0.12500000  1
  O  O11  1  0.74127728  0.37063864  0.37934163  1
  O  O12  1  0.25001973  0.87938109  0.37934163  1
  O  O13  1  0.75000000  0.12500000  0.62500000  1
  O  O14  1  0.24998027  0.37061891  0.87065837  1
  O  O15  1  0.75000000  0.62500000  0.12500000  1
  O  O16  1  0.25001973  0.37063864  0.37934163  1
  O  O17  1  0.75000000  0.62500000  0.62500000  1
  O  O18  1  0.24998027  0.87936136  0.87065837  1
  O  O19  1  0.75000000  0.12500000  0.12500000  1
