# generated using pymatgen
data_Sr4LaMn5O15
_symmetry_space_group_name_H-M   'P 1'
_cell_length_a   5.49404720
_cell_length_b   6.72959493
_cell_length_c   8.72996816
_cell_angle_alpha   105.18601402
_cell_angle_beta   108.34064783
_cell_angle_gamma   90.00000000
_symmetry_Int_Tables_number   1
_chemical_formula_structural   Sr4LaMn5O15
_chemical_formula_sum   'Sr4 La1 Mn5 O15'
_cell_volume   294.47677317
_cell_formula_units_Z   1
loop_
 _symmetry_equiv_pos_site_id
 _symmetry_equiv_pos_as_xyz
  1  'x, y, z'
loop_
 _atom_site_type_symbol
 _atom_site_label
 _atom_site_symmetry_multiplicity
 _atom_site_fract_x
 _atom_site_fract_y
 _atom_site_fract_z
 _atom_site_occupancy
  Sr  Sr0  1  0.60081138  0.40089625  0.20162277  1
  Sr  Sr1  1  0.20057283  0.79959613  0.40114566  1
  Sr  Sr2  1  0.79942717  0.20040387  0.59885434  1
  Sr  Sr3  1  0.39918862  0.59910375  0.79837723  1
  La  La4  1  0.00000000  0.00000000  0.00000000  1
  Mn  Mn5  1  0.79944714  0.69882681  0.59889427  1
  Mn  Mn6  1  0.60075171  0.89966330  0.20150341  1
  Mn  Mn7  1  0.20055286  0.30117319  0.40110573  1
  Mn  Mn8  1  0.39924829  0.10033670  0.79849659  1
  Mn  Mn9  1  0.00000000  0.50000000  0.00000000  1
  O  O10  1  0.60788768  0.90040996  0.70766338  1
  O  O11  1  0.39211232  0.09959004  0.29233662  1
  O  O12  1  0.00000000  0.50000000  0.50000000  1
  O  O13  1  0.19503673  0.29374455  0.90237451  1
  O  O14  1  0.80496327  0.70625545  0.09762549  1
  O  O15  1  0.50000000  0.50000000  0.50000000  1
  O  O16  1  0.29266223  0.70625545  0.09762549  1
  O  O17  1  0.90022430  0.09959004  0.29233662  1
  O  O18  1  0.09977570  0.90040996  0.70766338  1
  O  O19  1  0.70733777  0.29374455  0.90237451  1
  O  O20  1  0.90204844  0.60732569  0.80409688  1
  O  O21  1  0.70051248  0.80290800  0.40102497  1
  O  O22  1  0.29948752  0.19709200  0.59897503  1
  O  O23  1  0.50000000  0.00000000  0.00000000  1
  O  O24  1  0.09795156  0.39267431  0.19590312  1
