# generated using pymatgen
data_Sr18Co14O45
_symmetry_space_group_name_H-M   'P 1'
_cell_length_a   9.57638208
_cell_length_b   11.86308954
_cell_length_c   10.08125995
_cell_angle_alpha   92.50246601
_cell_angle_beta   61.64328138
_cell_angle_gamma   90.00000000
_symmetry_Int_Tables_number   1
_chemical_formula_structural   Sr18Co14O45
_chemical_formula_sum   'Sr18 Co14 O45'
_cell_volume   1006.61939928
_cell_formula_units_Z   1
loop_
 _symmetry_equiv_pos_site_id
 _symmetry_equiv_pos_as_xyz
  1  'x, y, z'
loop_
 _atom_site_type_symbol
 _atom_site_label
 _atom_site_symmetry_multiplicity
 _atom_site_fract_x
 _atom_site_fract_y
 _atom_site_fract_z
 _atom_site_occupancy
  Sr  Sr0  1  0.88553776  0.26967437  0.88571102  1
  Sr  Sr1  1  0.21534276  0.92571144  0.20824969  1
  Sr  Sr2  1  0.54199301  0.59010427  0.55084425  1
  Sr  Sr3  1  0.34756387  0.50000000  -0.00000000  1
  Sr  Sr4  1  0.69771883  0.17181406  0.32639121  1
  Sr  Sr5  1  0.02411103  0.82818594  0.67360879  1
  Sr  Sr6  1  0.77124878  0.73032563  0.11428898  1
  Sr  Sr7  1  0.09283625  0.40989573  0.44915575  1
  Sr  Sr8  1  0.42359344  0.07428856  0.79175031  1
  Sr  Sr9  1  0.77915382  0.54767219  0.77319685  1
  Sr  Sr10  1  0.10531547  0.21437863  0.11362141  1
  Sr  Sr11  1  0.43979150  0.87987399  0.44012975  1
  Sr  Sr12  1  0.33844960  0.33294198  0.66224751  1
  Sr  Sr13  1  0.68268682  0.00000000  -0.00000000  1
  Sr  Sr14  1  0.00069611  0.66705802  0.33775249  1
  Sr  Sr15  1  0.55235066  0.45232781  0.22680315  1
  Sr  Sr16  1  0.87992024  0.12012601  0.55987025  1
  Sr  Sr17  1  0.21893788  0.78562137  0.88637859  1
  Co  Co18  1  0.72718782  0.36482222  0.54180726  1
  Co  Co19  1  0.06760036  0.03240485  0.86974303  1
  Co  Co20  1  0.40074646  0.69909721  0.19880881  1
  Co  Co21  1  0.26899408  0.63517778  0.45819274  1
  Co  Co22  1  0.59955627  0.30090279  0.80119119  1
  Co  Co23  1  0.93734339  0.96759515  0.13025697  1
  Co  Co24  1  0.86663406  0.43378133  0.27044325  1
  Co  Co25  1  0.18905572  0.09461691  0.61006737  1
  Co  Co26  1  0.53162743  0.76326725  0.94235171  1
  Co  Co27  1  0.13707831  0.56621867  0.72955675  1
  Co  Co28  1  0.47397914  0.23673275  0.05764829  1
  Co  Co29  1  0.79912209  0.90538309  0.38993263  1
  Co  Co30  1  0.66747541  0.83249964  0.66297036  1
  Co  Co31  1  0.33044477  0.16750036  0.33702964  1
  O  O32  1  0.02600983  0.44122469  0.76708991  1
  O  O33  1  0.34163963  0.10920328  0.13524758  1
  O  O34  1  0.65644380  0.77419946  0.48715413  1
  O  O35  1  0.25553962  0.53556575  0.81251372  1
  O  O36  1  0.56590070  0.19234515  0.17238431  1
  O  O37  1  0.89175198  0.84989387  0.52041242  1
  O  O38  1  0.99279031  0.65808709  0.87123296  1
  O  O39  1  0.32306065  0.31157780  0.23696679  1
  O  O40  1  0.65242046  0.98063669  0.58506233  1
  O  O41  1  0.86402427  0.34191291  0.12876704  1
  O  O42  1  0.23748280  0.01936331  0.41493767  1
  O  O43  1  0.56002645  0.68842220  0.76303321  1
  O  O44  1  0.79309874  0.55877531  0.23291009  1
  O  O45  1  0.14359893  0.22580054  0.51284587  1
  O  O46  1  0.47688721  0.89079672  0.86475242  1
  O  O47  1  0.06805333  0.46443425  0.18748628  1
  O  O48  1  0.41216339  0.15010613  0.47958758  1
  O  O49  1  0.73828601  0.80765485  0.82761569  1
  O  O50  1  0.26980307  0.70141845  0.62841638  1
  O  O51  1  0.59877753  0.37467510  0.97542808  1
  O  O52  1  0.93922826  0.04336620  0.30001811  1
  O  O53  1  0.05289322  0.61149195  0.58345559  1
  O  O54  1  0.37840015  0.27815459  0.93302407  1
  O  O55  1  0.71213748  0.94139254  0.25489512  1
  O  O56  1  0.30395064  0.49588913  0.52698801  1
  O  O57  1  0.63653265  0.16404487  0.87396135  1
  O  O58  1  0.97522204  0.82608907  0.19437055  1
  O  O59  1  0.83093766  0.50411087  0.47301199  1
  O  O60  1  0.16959359  0.17391093  0.80562945  1
  O  O61  1  0.51049400  0.83595513  0.12603865  1
  O  O62  1  0.89821945  0.29858155  0.37158362  1
  O  O63  1  0.23924537  0.95663380  0.69998189  1
  O  O64  1  0.57420661  0.62532490  0.02457192  1
  O  O65  1  0.63634880  0.38850805  0.41654441  1
  O  O66  1  0.96703160  0.05860746  0.74510488  1
  O  O67  1  0.31142521  0.72184541  0.06697593  1
  O  O68  1  0.61202948  0.23065222  0.62003570  1
  O  O69  1  0.28452841  0.56622954  0.28027353  1
  O  O70  1  0.95058089  0.90064525  0.95067574  1
  O  O71  1  0.15454316  0.00000000  -0.00000000  1
  O  O72  1  0.81653818  0.33234345  0.66940032  1
  O  O73  1  0.48593750  0.66765655  0.33059968  1
  O  O74  1  0.56480195  0.43377046  0.71972647  1
  O  O75  1  0.23206619  0.76934778  0.37996430  1
  O  O76  1  0.90125564  0.09935475  0.04932426  1
