# generated using pymatgen
data_Sn4TeSe3
_symmetry_space_group_name_H-M   'P 1'
_cell_length_a   4.26160835
_cell_length_b   4.71748989
_cell_length_c   11.97675823
_cell_angle_alpha   90.47948170
_cell_angle_beta   90.00000000
_cell_angle_gamma   90.00000000
_symmetry_Int_Tables_number   1
_chemical_formula_structural   Sn4TeSe3
_chemical_formula_sum   'Sn4 Te1 Se3'
_cell_volume   240.77344554
_cell_formula_units_Z   1
loop_
 _symmetry_equiv_pos_site_id
 _symmetry_equiv_pos_as_xyz
  1  'x, y, z'
loop_
 _atom_site_type_symbol
 _atom_site_label
 _atom_site_symmetry_multiplicity
 _atom_site_fract_x
 _atom_site_fract_y
 _atom_site_fract_z
 _atom_site_occupancy
  Sn  Sn0  1  0.25000000  0.41264873  0.62064664  1
  Sn  Sn1  1  0.25000000  0.11444160  0.12277011  1
  Sn  Sn2  1  0.75000000  0.61661824  0.37663775  1
  Sn  Sn3  1  0.75000000  0.87757602  0.88725564  1
  Te  Te4  1  0.75000000  0.98051303  0.64311326  1
  Se  Se5  1  0.25000000  0.49463520  0.85169274  1
  Se  Se6  1  0.25000000  0.00248790  0.34936888  1
  Se  Se7  1  0.75000000  0.50107929  0.14851498  1
