# generated using pymatgen
data_Sr2La2MgTi3O12
_symmetry_space_group_name_H-M   'P 1'
_cell_length_a   5.61077581
_cell_length_b   5.59171464
_cell_length_c   7.88313604
_cell_angle_alpha   90.04414308
_cell_angle_beta   89.96256216
_cell_angle_gamma   90.05848308
_symmetry_Int_Tables_number   1
_chemical_formula_structural   Sr2La2MgTi3O12
_chemical_formula_sum   'Sr2 La2 Mg1 Ti3 O12'
_cell_volume   247.32413000
_cell_formula_units_Z   1
loop_
 _symmetry_equiv_pos_site_id
 _symmetry_equiv_pos_as_xyz
  1  'x, y, z'
loop_
 _atom_site_type_symbol
 _atom_site_label
 _atom_site_symmetry_multiplicity
 _atom_site_fract_x
 _atom_site_fract_y
 _atom_site_fract_z
 _atom_site_occupancy
  Sr  Sr0  1  0.50069024  0.50796520  0.24501719  1
  Sr  Sr1  1  0.00395225  0.99255332  0.75490172  1
  La  La2  1  0.98656131  0.01854700  0.23651497  1
  La  La3  1  0.49625186  0.48876131  0.76255445  1
  Mg  Mg4  1  0.99983186  0.50210976  0.99906132  1
  Ti  Ti5  1  0.49903867  0.00173877  0.50110573  1
  Ti  Ti6  1  0.00020128  0.50460555  0.49790873  1
  Ti  Ti7  1  0.49858502  0.99860470  0.00020319  1
  O  O8  1  0.75970294  0.77427174  0.03594564  1
  O  O9  1  0.74468080  0.25074033  0.46440550  1
  O  O10  1  0.25059142  0.24332978  0.53714671  1
  O  O11  1  0.27643439  0.73906663  0.96490805  1
  O  O12  1  0.25421262  0.23725512  0.96796670  1
  O  O13  1  0.26906291  0.73282378  0.53725935  1
  O  O14  1  0.76638478  0.76870467  0.46225745  1
  O  O15  1  0.73769381  0.24891653  0.03237076  1
  O  O16  1  0.42447072  0.99810076  0.25460529  1
  O  O17  1  0.05400193  0.48883204  0.26116316  1
  O  O18  1  0.55701751  0.00324623  0.74596481  1
  O  O19  1  0.92063369  0.49982677  0.73873928  1
