# generated using pymatgen
data_Sr9Nd3Cu12(PbO4)8
_symmetry_space_group_name_H-M   'P 1'
_cell_length_a   5.46457490
_cell_length_b   10.92708433
_cell_length_c   16.58052480
_cell_angle_alpha   99.48370088
_cell_angle_beta   80.51502669
_cell_angle_gamma   90.00000000
_symmetry_Int_Tables_number   1
_chemical_formula_structural   Sr9Nd3Cu12(PbO4)8
_chemical_formula_sum   'Sr9 Nd3 Cu12 Pb8 O32'
_cell_volume   962.79721702
_cell_formula_units_Z   1
loop_
 _symmetry_equiv_pos_site_id
 _symmetry_equiv_pos_as_xyz
  1  'x, y, z'
loop_
 _atom_site_type_symbol
 _atom_site_label
 _atom_site_symmetry_multiplicity
 _atom_site_fract_x
 _atom_site_fract_y
 _atom_site_fract_z
 _atom_site_occupancy
  Sr  Sr0  1  0.11066289  0.94478712  0.77867422  1
  Sr  Sr1  1  0.61152331  0.69513418  0.77695338  1
  Sr  Sr2  1  0.11176847  0.44395550  0.77646306  1
  Sr  Sr3  1  0.61150580  0.19337755  0.77698841  1
  Sr  Sr4  1  0.38849420  0.80662245  0.22301159  1
  Sr  Sr5  1  0.88823153  0.55604450  0.22353694  1
  Sr  Sr6  1  0.38847669  0.30486582  0.22304662  1
  Sr  Sr7  1  0.88933711  0.05521288  0.22132578  1
  Sr  Sr8  1  -0.00000000  -0.00000000  -0.00000000  1
  Nd  Nd9  1  0.50003493  0.24703970  0.99993015  1
  Nd  Nd10  1  -0.00000000  0.50000000  0.00000000  1
  Nd  Nd11  1  0.49996507  0.75296030  0.00006985  1
  Cu  Cu12  1  0.05524344  0.72313229  0.88951313  1
  Cu  Cu13  1  0.55515017  0.47252343  0.88969965  1
  Cu  Cu14  1  0.05529258  0.22157977  0.88941485  1
  Cu  Cu15  1  0.55538046  0.97220068  0.88923908  1
  Cu  Cu16  1  0.44484983  0.52747657  0.11030035  1
  Cu  Cu17  1  0.94475656  0.27686771  0.11048687  1
  Cu  Cu18  1  0.44461954  0.02779932  0.11076092  1
  Cu  Cu19  1  0.94470742  0.77842023  0.11058515  1
  Cu  Cu20  1  0.24999456  0.87506332  0.50001088  1
  Cu  Cu21  1  0.75005378  0.62500920  0.49989244  1
  Cu  Cu22  1  0.24994622  0.37499080  0.50010756  1
  Cu  Cu23  1  0.75000544  0.12493668  0.49998912  1
  Pb  Pb24  1  0.19417272  0.65302172  0.61165455  1
  Pb  Pb25  1  0.69416720  0.40275517  0.61166560  1
  Pb  Pb26  1  0.19420959  0.15255209  0.61158082  1
  Pb  Pb27  1  0.69425945  0.90271238  0.61148109  1
  Pb  Pb28  1  0.30583280  0.59724483  0.38833440  1
  Pb  Pb29  1  0.80582728  0.34697828  0.38834545  1
  Pb  Pb30  1  0.30574055  0.09728762  0.38851891  1
  Pb  Pb31  1  0.80579041  0.84744791  0.38841918  1
  O  O32  1  0.79979566  0.60051360  0.90277798  1
  O  O33  1  0.29758981  0.35096247  0.90276104  1
  O  O34  1  0.79345787  0.10284623  0.89851823  1
  O  O35  1  0.30782727  0.84630017  0.89850947  1
  O  O36  1  0.70257363  0.39948640  0.09722202  1
  O  O37  1  0.20633674  0.15369983  0.10149053  1
  O  O38  1  0.69197610  0.89715377  0.10148177  1
  O  O39  1  0.20035085  0.64903753  0.09723896  1
  O  O40  1  0.20020434  0.39948640  0.09722202  1
  O  O41  1  0.69217273  0.15369983  0.10149053  1
  O  O42  1  0.20654213  0.89715377  0.10148177  1
  O  O43  1  0.70241019  0.64903753  0.09723896  1
  O  O44  1  0.29742637  0.60051360  0.90277798  1
  O  O45  1  0.79964915  0.35096247  0.90276104  1
  O  O46  1  0.30802390  0.10284623  0.89851823  1
  O  O47  1  0.79366326  0.84630017  0.89850947  1
  O  O48  1  0.19239488  0.90381280  0.61521024  1
  O  O49  1  0.69250607  0.65360912  0.61498786  1
  O  O50  1  0.19237470  0.40376028  0.61525060  1
  O  O51  1  0.69244487  0.15397075  0.61511026  1
  O  O52  1  0.30755513  0.84602925  0.38488974  1
  O  O53  1  0.80762530  0.59623972  0.38474940  1
  O  O54  1  0.30749393  0.34639088  0.38501214  1
  O  O55  1  0.80760512  0.09618720  0.38478976  1
  O  O56  1  0.12669086  0.68577505  0.74661828  1
  O  O57  1  0.62644150  0.43671481  0.74711700  1
  O  O58  1  0.12666326  0.18737222  0.74667347  1
  O  O59  1  0.62695258  0.93645813  0.74609484  1
  O  O60  1  0.37355850  0.56328519  0.25288300  1
  O  O61  1  0.87330914  0.31422495  0.25338172  1
  O  O62  1  0.37304742  0.06354187  0.25390516  1
  O  O63  1  0.87333674  0.81262778  0.25332653  1
