# generated using pymatgen
data_Sr3CaNdMn5O15
_symmetry_space_group_name_H-M   'P 1'
_cell_length_a   5.50928314
_cell_length_b   9.42559420
_cell_length_c   12.10487851
_cell_angle_alpha   82.52143858
_cell_angle_beta   77.28570838
_cell_angle_gamma   105.05654654
_symmetry_Int_Tables_number   1
_chemical_formula_structural   Sr3CaNdMn5O15
_chemical_formula_sum   'Sr6 Ca2 Nd2 Mn10 O30'
_cell_volume   580.29557910
_cell_formula_units_Z   2
loop_
 _symmetry_equiv_pos_site_id
 _symmetry_equiv_pos_as_xyz
  1  'x, y, z'
loop_
 _atom_site_type_symbol
 _atom_site_label
 _atom_site_symmetry_multiplicity
 _atom_site_fract_x
 _atom_site_fract_y
 _atom_site_fract_z
 _atom_site_occupancy
  Sr  Sr0  1  0.44656938  0.04906128  0.14915948  1
  Sr  Sr1  1  0.64962876  0.85015257  0.54729419  1
  Sr  Sr2  1  0.15624268  0.35192109  0.04893964  1
  Sr  Sr3  1  0.75000405  0.74961407  0.24905054  1
  Sr  Sr4  1  0.35040515  0.14927085  0.44948476  1
  Sr  Sr5  1  0.95138513  0.55081766  0.65342749  1
  Ca  Ca6  1  0.24825901  0.25008667  0.75108785  1
  Ca  Ca7  1  0.85268533  0.65248019  0.94949938  1
  Nd  Nd8  1  0.05147653  0.44924145  0.35274394  1
  Nd  Nd9  1  0.54223771  0.94781942  0.84924669  1
  Mn  Mn10  1  0.49998061  0.49952670  0.50182885  1
  Mn  Mn11  1  0.30036138  0.69954970  0.09858028  1
  Mn  Mn12  1  0.89839891  0.09919707  0.29984711  1
  Mn  Mn13  1  0.09813162  0.89950484  0.70145767  1
  Mn  Mn14  1  0.70360273  0.30276433  0.89834657  1
  Mn  Mn15  1  0.39941001  0.59766581  0.80112257  1
  Mn  Mn16  1  0.20108571  0.80086729  0.40030658  1
  Mn  Mn17  1  0.79849051  0.20088198  0.60229418  1
  Mn  Mn18  1  0.99824700  -0.00014592  0.99861728  1
  Mn  Mn19  1  0.60181227  0.40056456  0.19792412  1
  O  O20  1  0.93817624  0.06141161  0.68381017  1
  O  O21  1  0.75195935  0.26479226  0.27589708  1
  O  O22  1  0.33589537  0.65291070  0.47339358  1
  O  O23  1  0.56387540  0.47050053  0.87585936  1
  O  O24  1  0.13804979  0.85640742  0.07324329  1
  O  O25  1  0.26555801  0.74529434  0.72653927  1
  O  O26  1  0.05850748  0.94291024  0.32699358  1
  O  O27  1  0.66839404  0.34396406  0.51955259  1
  O  O28  1  0.85370813  0.13547068  0.91737576  1
  O  O29  1  0.48432727  0.55162261  0.11840029  1
  O  O30  1  0.47256441  0.51954807  0.66030472  1
  O  O31  1  0.26949549  0.71875542  0.25918794  1
  O  O32  1  0.87412696  0.12930843  0.45886152  1
  O  O33  1  0.07961021  0.91629854  0.86108110  1
  O  O34  1  0.67271304  0.32235912  0.05847242  1
  O  O35  1  0.12209499  0.87174408  0.54494988  1
  O  O36  1  0.92769864  0.07445458  0.13977622  1
  O  O37  1  0.50950189  0.47104436  0.34271000  1
  O  O38  1  0.70696639  0.27536102  0.74173131  1
  O  O39  1  0.30731391  0.67687136  0.94117191  1
  O  O40  1  0.84706262  0.64088626  0.44641922  1
  O  O41  1  0.64215570  0.85292963  0.03885167  1
  O  O42  1  0.25181203  0.26032901  0.25055450  1
  O  O43  1  0.44871320  0.05176659  0.65866035  1
  O  O44  1  0.06243033  0.44321946  0.84918198  1
  O  O45  1  0.74657954  0.75949093  0.75765794  1
  O  O46  1  0.55013439  0.95058551  0.34895396  1
  O  O47  1  0.14509065  0.34880975  0.55051424  1
  O  O48  1  0.34496959  0.14557213  0.94159200  1
  O  O49  1  0.96210049  0.54453970  0.15804298  1
