# generated using pymatgen
data_SmTiFe5Co6
_symmetry_space_group_name_H-M   'P 1'
_cell_length_a   4.70618665
_cell_length_b   6.44814206
_cell_length_c   6.44814206
_cell_angle_alpha   98.20897801
_cell_angle_beta   111.40301572
_cell_angle_gamma   68.59698428
_symmetry_Int_Tables_number   1
_chemical_formula_structural   SmTiFe5Co6
_chemical_formula_sum   'Sm1 Ti1 Fe5 Co6'
_cell_volume   169.60753778
_cell_formula_units_Z   1
loop_
 _symmetry_equiv_pos_site_id
 _symmetry_equiv_pos_as_xyz
  1  'x, y, z'
loop_
 _atom_site_type_symbol
 _atom_site_label
 _atom_site_symmetry_multiplicity
 _atom_site_fract_x
 _atom_site_fract_y
 _atom_site_fract_z
 _atom_site_occupancy
  Sm  Sm0  1  0.00000000  0.00283084  0.00283084  1
  Ti  Ti1  1  0.00000000  0.62467361  0.62467361  1
  Fe  Fe2  1  0.49956005  0.00215579  0.50289777  1
  Fe  Fe3  1  0.00118194  0.00215579  0.50289777  1
  Fe  Fe4  1  0.50043995  0.50289777  0.00215579  1
  Fe  Fe5  1  -0.00118194  0.50289777  0.00215579  1
  Fe  Fe6  1  0.50000000  0.23238550  0.23238550  1
  Co  Co7  1  0.72529960  0.77715221  0.22775142  1
  Co  Co8  1  0.27470040  0.22775142  0.77715221  1
  Co  Co9  1  0.50000000  0.77426739  0.77426739  1
  Co  Co10  1  0.64140051  0.35838770  0.64118872  1
  Co  Co11  1  0.35859949  0.64118872  0.35838770  1
  Co  Co12  1  0.00000000  0.35125550  0.35125550  1
