# generated using pymatgen
data_SmEr3Fe34
_symmetry_space_group_name_H-M   'P 1'
_cell_length_a   8.26368610
_cell_length_b   8.43302234
_cell_length_c   8.43029740
_cell_angle_alpha   59.98930701
_cell_angle_beta   90.00000000
_cell_angle_gamma   90.00000000
_symmetry_Int_Tables_number   1
_chemical_formula_structural   SmEr3Fe34
_chemical_formula_sum   'Sm1 Er3 Fe34'
_cell_volume   508.72582543
_cell_formula_units_Z   1
loop_
 _symmetry_equiv_pos_site_id
 _symmetry_equiv_pos_as_xyz
  1  'x, y, z'
loop_
 _atom_site_type_symbol
 _atom_site_label
 _atom_site_symmetry_multiplicity
 _atom_site_fract_x
 _atom_site_fract_y
 _atom_site_fract_z
 _atom_site_occupancy
  Sm  Sm0  1  0.25000000  0.66672447  0.66655106  1
  Er  Er1  1  0.75000000  0.33330001  0.33339999  1
  Er  Er2  1  0.75000000  0.99994173  0.00011653  1
  Er  Er3  1  0.25000000  0.99991960  0.00016080  1
  Fe  Fe4  1  0.60860809  0.66669021  0.66661958  1
  Fe  Fe5  1  0.39243404  0.33332109  0.33335783  1
  Fe  Fe6  1  0.10756596  0.33332109  0.33335783  1
  Fe  Fe7  1  0.89139191  0.66669021  0.66661958  1
  Fe  Fe8  1  0.48872029  0.83490291  0.83487382  1
  Fe  Fe9  1  0.48876704  0.83493035  0.33013929  1
  Fe  Fe10  1  0.48872029  0.33022327  0.83487382  1
  Fe  Fe11  1  0.51282169  0.16599816  0.16599833  1
  Fe  Fe12  1  0.51289398  0.16598432  0.66803136  1
  Fe  Fe13  1  0.51282169  0.66800352  0.16599833  1
  Fe  Fe14  1  0.98717831  0.16599816  0.16599833  1
  Fe  Fe15  1  0.98710602  0.16598432  0.66803136  1
  Fe  Fe16  1  0.98717831  0.66800352  0.16599833  1
  Fe  Fe17  1  0.01127971  0.83490291  0.83487382  1
  Fe  Fe18  1  0.01123296  0.83493035  0.33013929  1
  Fe  Fe19  1  0.01127971  0.33022327  0.83487382  1
  Fe  Fe20  1  0.50087886  0.49933095  0.49930002  1
  Fe  Fe21  1  0.50086399  0.49931664  0.00136672  1
  Fe  Fe22  1  0.50087886  0.00136903  0.49930002  1
  Fe  Fe23  1  0.99912114  0.49933095  0.49930002  1
  Fe  Fe24  1  0.99913601  0.49931664  0.00136672  1
  Fe  Fe25  1  0.99912114  0.00136903  0.49930002  1
  Fe  Fe26  1  0.75000000  0.67037181  0.36339805  1
  Fe  Fe27  1  0.75000000  0.36339996  0.96625121  1
  Fe  Fe28  1  0.75000000  0.96621153  0.67035919  1
  Fe  Fe29  1  0.75000000  0.36342928  0.67035919  1
  Fe  Fe30  1  0.75000000  0.96623014  0.36339805  1
  Fe  Fe31  1  0.75000000  0.67034883  0.96625121  1
  Fe  Fe32  1  0.25000000  0.32854199  0.63542494  1
  Fe  Fe33  1  0.25000000  0.63543292  0.03602233  1
  Fe  Fe34  1  0.25000000  0.03592200  0.32857097  1
  Fe  Fe35  1  0.25000000  0.63550703  0.32857097  1
  Fe  Fe36  1  0.25000000  0.03603307  0.63542494  1
  Fe  Fe37  1  0.25000000  0.32854475  0.03602233  1
