# generated using pymatgen
data_Sr2MnGaO5
_symmetry_space_group_name_H-M   'P 1'
_cell_length_a   5.52392936
_cell_length_b   5.60091649
_cell_length_c   9.05102224
_cell_angle_alpha   72.24823244
_cell_angle_beta   72.50768246
_cell_angle_gamma   90.84761872
_symmetry_Int_Tables_number   1
_chemical_formula_structural   Sr2MnGaO5
_chemical_formula_sum   'Sr4 Mn2 Ga2 O10'
_cell_volume   252.61182717
_cell_formula_units_Z   2
loop_
 _symmetry_equiv_pos_site_id
 _symmetry_equiv_pos_as_xyz
  1  'x, y, z'
loop_
 _atom_site_type_symbol
 _atom_site_label
 _atom_site_symmetry_multiplicity
 _atom_site_fract_x
 _atom_site_fract_y
 _atom_site_fract_z
 _atom_site_occupancy
  Sr  Sr0  1  0.09782916  0.62776897  0.77839203  1
  Sr  Sr1  1  0.90217084  0.37223103  0.22160797  1
  Sr  Sr2  1  0.62377881  0.09383900  0.77839203  1
  Sr  Sr3  1  0.37622119  0.90616100  0.22160797  1
  Mn  Mn4  1  0.50000000  0.50000000  0.00000000  1
  Mn  Mn5  1  -0.00000000  -0.00000000  0.00000000  1
  Ga  Ga6  1  0.67624045  0.68490493  0.50000000  1
  Ga  Ga7  1  0.32375955  0.31509507  0.50000000  1
  O  O8  1  0.25639312  0.25639312  0.98721375  1
  O  O9  1  0.24679677  0.74679677  0.00640646  1
  O  O10  1  0.75320323  0.25320323  0.99359354  1
  O  O11  1  0.74360688  0.74360688  0.01278625  1
  O  O12  1  0.65925867  0.67982095  0.70821224  1
  O  O13  1  0.34074133  0.32017905  0.29178776  1
  O  O14  1  0.13252910  0.11196682  0.70821224  1
  O  O15  1  0.86747090  0.88803318  0.29178776  1
  O  O16  1  0.32229003  0.65992211  0.50000000  1
  O  O17  1  0.67770997  0.34007789  0.50000000  1
