# generated using pymatgen
data_SmB4(IrOs)2
_symmetry_space_group_name_H-M   'P 1'
_cell_length_a   4.00943457
_cell_length_b   7.61113714
_cell_length_c   7.61113714
_cell_angle_alpha   90.00000000
_cell_angle_beta   90.00000000
_cell_angle_gamma   90.00000000
_symmetry_Int_Tables_number   1
_chemical_formula_structural   SmB4(IrOs)2
_chemical_formula_sum   'Sm2 B8 Ir4 Os4'
_cell_volume   232.26417332
_cell_formula_units_Z   2
loop_
 _symmetry_equiv_pos_site_id
 _symmetry_equiv_pos_as_xyz
  1  'x, y, z'
loop_
 _atom_site_type_symbol
 _atom_site_label
 _atom_site_symmetry_multiplicity
 _atom_site_fract_x
 _atom_site_fract_y
 _atom_site_fract_z
 _atom_site_occupancy
  Sm  Sm0  1  0.24879345  0.25000000  0.25000000  1
  Sm  Sm1  1  0.74879345  0.75000000  0.75000000  1
  B  B2  1  0.36306557  0.91185192  0.03479166  1
  B  B3  1  0.36306557  0.58814808  0.46520834  1
  B  B4  1  0.86306557  0.53479166  0.08814808  1
  B  B5  1  0.86306557  0.96520834  0.41185192  1
  B  B6  1  0.64053681  0.08886350  0.97278494  1
  B  B7  1  0.64053681  0.41113650  0.52721506  1
  B  B8  1  0.14053681  0.47278494  0.91113650  1
  B  B9  1  0.14053681  0.02721506  0.58886350  1
  Ir  Ir10  1  0.13595558  0.40479804  0.64022009  1
  Ir  Ir11  1  0.13595558  0.09520196  0.85977991  1
  Ir  Ir12  1  0.63595558  0.14022009  0.59520196  1
  Ir  Ir13  1  0.63595558  0.35977991  0.90479804  1
  Os  Os14  1  0.86104531  0.60371613  0.35882129  1
  Os  Os15  1  0.86104531  0.89628387  0.14117871  1
  Os  Os16  1  0.36104531  0.85882129  0.39628387  1
  Os  Os17  1  0.36104531  0.64117871  0.10371613  1
