# generated using pymatgen
data_Li9Mn2Co5O16
_symmetry_space_group_name_H-M   'P 1'
_cell_length_a   3.01666307
_cell_length_b   15.57182334
_cell_length_c   6.42133282
_cell_angle_alpha   88.70987063
_cell_angle_beta   76.65106458
_cell_angle_gamma   82.98166412
_symmetry_Int_Tables_number   1
_chemical_formula_structural   Li9Mn2Co5O16
_chemical_formula_sum   'Li9 Mn2 Co5 O16'
_cell_volume   291.28783327
_cell_formula_units_Z   1
loop_
 _symmetry_equiv_pos_site_id
 _symmetry_equiv_pos_as_xyz
  1  'x, y, z'
loop_
 _atom_site_type_symbol
 _atom_site_label
 _atom_site_symmetry_multiplicity
 _atom_site_fract_x
 _atom_site_fract_y
 _atom_site_fract_z
 _atom_site_occupancy
  Li  Li0  1  0.73825606  0.18819189  0.13567568  1
  Li  Li1  1  0.75499451  0.43564248  0.62149693  1
  Li  Li2  1  0.75339161  0.68601304  0.12446264  1
  Li  Li3  1  0.24137146  0.31612183  0.87805831  1
  Li  Li4  1  0.25880900  0.56238133  0.37051626  1
  Li  Li5  1  0.25166979  0.81117863  0.87319623  1
  Li  Li6  1  0.75390254  0.93726637  0.62208895  1
  Li  Li7  1  0.24547496  0.06309723  0.37471707  1
  Li  Li8  1  0.50071387  0.37604436  0.24876176  1
  Mn  Mn9  1  0.01021881  0.99896218  0.00070753  1
  Mn  Mn10  1  0.49683206  0.12796106  0.74615580  1
  Co  Co11  1  0.99041392  0.25732118  0.48947831  1
  Co  Co12  1  0.00660345  0.49598535  0.00753625  1
  Co  Co13  1  -0.00611848  0.74711918  0.50151920  1
  Co  Co14  1  0.49731944  0.62436459  0.75265465  1
  Co  Co15  1  0.49930498  0.87149412  0.25423403  1
  O  O16  1  0.35572259  0.09364039  0.04724960  1
  O  O17  1  0.36206346  0.33691662  0.55573612  1
  O  O18  1  0.36494198  0.58992580  0.04251361  1
  O  O19  1  0.86109568  0.22022418  0.78723143  1
  O  O20  1  0.88090207  0.47575943  0.28224491  1
  O  O21  1  0.86021895  0.71339349  0.79600096  1
  O  O22  1  0.34795160  0.83801168  0.54773455  1
  O  O23  1  0.90972321  0.96391932  0.29911019  1
  O  O24  1  0.12073181  0.27705337  0.21609075  1
  O  O25  1  0.13648211  0.53477642  0.71265633  1
  O  O26  1  0.08652107  0.78226073  0.20841748  1
  O  O27  1  0.64299421  0.41584082  0.94151685  1
  O  O28  1  0.63437879  0.65876272  0.45897156  1
  O  O29  1  0.65684550  0.90535500  0.95536426  1
  O  O30  1  0.14941913  0.03348337  0.69744620  1
  O  O31  1  0.63684985  0.16153483  0.45045560  1
