# generated using pymatgen
data_SiNi3W2
_symmetry_space_group_name_H-M   'P 1'
_cell_length_a   4.75254273
_cell_length_b   4.75829723
_cell_length_c   7.55486820
_cell_angle_alpha   90.00000000
_cell_angle_beta   90.00000000
_cell_angle_gamma   59.95993046
_symmetry_Int_Tables_number   1
_chemical_formula_structural   SiNi3W2
_chemical_formula_sum   'Si2 Ni6 W4'
_cell_volume   147.89708901
_cell_formula_units_Z   2
loop_
 _symmetry_equiv_pos_site_id
 _symmetry_equiv_pos_as_xyz
  1  'x, y, z'
loop_
 _atom_site_type_symbol
 _atom_site_label
 _atom_site_symmetry_multiplicity
 _atom_site_fract_x
 _atom_site_fract_y
 _atom_site_fract_z
 _atom_site_occupancy
  Si  Si0  1  -0.00000000  0.00000000  0.50000000  1
  Si  Si1  1  -0.00000000  0.00000000  -0.00000000  1
  Ni  Ni2  1  0.83058393  0.33876684  0.75000000  1
  Ni  Ni3  1  0.33840554  0.83079723  0.75000000  1
  Ni  Ni4  1  0.83058393  0.83064922  0.75000000  1
  Ni  Ni5  1  0.16941607  0.66123316  0.25000000  1
  Ni  Ni6  1  0.66159446  0.16920277  0.25000000  1
  Ni  Ni7  1  0.16941607  0.16935078  0.25000000  1
  W  W8  1  0.33322429  0.33338785  0.56298533  1
  W  W9  1  0.66677571  0.66661215  0.43701467  1
  W  W10  1  0.66677571  0.66661215  0.06298533  1
  W  W11  1  0.33322429  0.33338785  0.93701467  1
