# generated using pymatgen
data_Rb2MnV2(ClO3)2
_symmetry_space_group_name_H-M   'P 1'
_cell_length_a   5.34897004
_cell_length_b   5.60358771
_cell_length_c   9.46940232
_cell_angle_alpha   72.78976827
_cell_angle_beta   90.49108361
_cell_angle_gamma   91.65995867
_symmetry_Int_Tables_number   1
_chemical_formula_structural   Rb2MnV2(ClO3)2
_chemical_formula_sum   'Rb2 Mn1 V2 Cl2 O6'
_cell_volume   271.00826926
_cell_formula_units_Z   1
loop_
 _symmetry_equiv_pos_site_id
 _symmetry_equiv_pos_as_xyz
  1  'x, y, z'
loop_
 _atom_site_type_symbol
 _atom_site_label
 _atom_site_symmetry_multiplicity
 _atom_site_fract_x
 _atom_site_fract_y
 _atom_site_fract_z
 _atom_site_occupancy
  Rb  Rb0  1  0.86021847  0.62665703  0.74614049  1
  Rb  Rb1  1  0.86021847  0.37279752  0.25385951  1
  Mn  Mn2  1  0.39832200  0.99846526  -0.00000000  1
  V  V3  1  0.33382970  0.21963388  0.60010532  1
  V  V4  1  0.33382970  0.81973920  0.39989468  1
  Cl  Cl5  1  0.38755336  0.49298636  -0.00000000  1
  Cl  Cl6  1  0.91683562  0.00044801  -0.00000000  1
  O  O7  1  0.44008540  0.08694745  0.77489196  1
  O  O8  1  0.44008540  0.86183942  0.22510804  1
  O  O9  1  0.02519464  0.20614766  0.59576122  1
  O  O10  1  0.02519464  0.80190888  0.40423878  1
  O  O11  1  0.44901630  0.54021231  0.53400471  1
  O  O12  1  0.44901630  0.07421701  0.46599529  1
