# generated using pymatgen
data_Li9Mn2Co5O16
_symmetry_space_group_name_H-M   'P 1'
_cell_length_a   2.99385308
_cell_length_b   8.11904634
_cell_length_c   12.12033490
_cell_angle_alpha   90.77641015
_cell_angle_beta   99.82969101
_cell_angle_gamma   89.08900942
_symmetry_Int_Tables_number   1
_chemical_formula_structural   Li9Mn2Co5O16
_chemical_formula_sum   'Li9 Mn2 Co5 O16'
_cell_volume   290.23251114
_cell_formula_units_Z   1
loop_
 _symmetry_equiv_pos_site_id
 _symmetry_equiv_pos_as_xyz
  1  'x, y, z'
loop_
 _atom_site_type_symbol
 _atom_site_label
 _atom_site_symmetry_multiplicity
 _atom_site_fract_x
 _atom_site_fract_y
 _atom_site_fract_z
 _atom_site_occupancy
  Li  Li0  1  0.74081068  0.00848169  0.74307583  1
  Li  Li1  1  0.88021701  0.24533911  0.37482593  1
  Li  Li2  1  0.99545542  0.49648633  0.00033841  1
  Li  Li3  1  0.12124801  0.74977946  0.62264165  1
  Li  Li4  1  0.25630625  0.00047183  0.25246271  1
  Li  Li5  1  0.36824552  0.25586248  0.87375272  1
  Li  Li6  1  0.50596278  0.49526194  0.50362111  1
  Li  Li7  1  0.63091070  0.74955544  0.12879391  1
  Li  Li8  1  0.12350573  0.24882479  0.62325065  1
  Mn  Mn9  1  0.00260404  0.00217167  0.00073672  1
  Mn  Mn10  1  0.36952481  0.74620392  0.87248277  1
  Co  Co11  1  0.24882302  0.50149094  0.25220303  1
  Co  Co12  1  0.50860932  0.00906344  0.50477702  1
  Co  Co13  1  0.63462691  0.24947740  0.12793415  1
  Co  Co14  1  0.73560008  0.48838267  0.74257771  1
  Co  Co15  1  0.86938781  0.75443327  0.37488444  1
  O  O16  1  0.35059184  0.99008186  0.87627722  1
  O  O17  1  0.49362067  0.22406723  0.49654436  1
  O  O18  1  0.63048074  0.48789873  0.13423234  1
  O  O19  1  0.73209319  0.72781284  0.75298756  1
  O  O20  1  0.86599520  0.98818493  0.38425854  1
  O  O21  1  0.97823390  0.24268922  0.00745815  1
  O  O22  1  0.11265277  0.49923743  0.63256199  1
  O  O23  1  0.22504310  0.74814284  0.25786713  1
  O  O24  1  0.14448841  0.99868735  0.61615416  1
  O  O25  1  0.27366786  0.25407141  0.24292950  1
  O  O26  1  0.38838943  0.50823619  0.86873250  1
  O  O27  1  0.52004343  0.77019309  0.49247996  1
  O  O28  1  0.64075300  0.01165560  0.12033996  1
  O  O29  1  0.75864073  0.27435770  0.75202700  1
  O  O30  1  0.87051162  0.51404551  0.37019871  1
  O  O31  1  0.02296304  0.75935168  0.99659617  1
