# generated using pymatgen
data_Pr2NiGe4
_symmetry_space_group_name_H-M   'P 1'
_cell_length_a   4.13663407
_cell_length_b   4.20140777
_cell_length_c   8.67709242
_cell_angle_alpha   75.98962343
_cell_angle_beta   90.00000000
_cell_angle_gamma   90.00000000
_symmetry_Int_Tables_number   1
_chemical_formula_structural   Pr2NiGe4
_chemical_formula_sum   'Pr2 Ni1 Ge4'
_cell_volume   146.31897916
_cell_formula_units_Z   1
loop_
 _symmetry_equiv_pos_site_id
 _symmetry_equiv_pos_as_xyz
  1  'x, y, z'
loop_
 _atom_site_type_symbol
 _atom_site_label
 _atom_site_symmetry_multiplicity
 _atom_site_fract_x
 _atom_site_fract_y
 _atom_site_fract_z
 _atom_site_occupancy
  Pr  Pr0  1  0.25000000  0.89045013  0.21909975  1
  Pr  Pr1  1  0.75000000  0.10374739  0.79250521  1
  Ni  Ni2  1  0.25000000  0.68487978  0.63024045  1
  Ge  Ge3  1  0.25000000  0.54481755  0.91036490  1
  Ge  Ge4  1  0.75000000  0.45377804  0.09244392  1
  Ge  Ge5  1  0.25000000  0.25412181  0.49175639  1
  Ge  Ge6  1  0.75000000  0.75220531  0.49558939  1
