# generated using pymatgen
data_Pr2In3Cu
_symmetry_space_group_name_H-M   'P 1'
_cell_length_a   4.83489948
_cell_length_b   4.83049435
_cell_length_c   7.83548358
_cell_angle_alpha   90.00375823
_cell_angle_beta   90.02182192
_cell_angle_gamma   59.99400262
_symmetry_Int_Tables_number   1
_chemical_formula_structural   Pr2In3Cu
_chemical_formula_sum   'Pr2 In3 Cu1'
_cell_volume   158.47077427
_cell_formula_units_Z   1
loop_
 _symmetry_equiv_pos_site_id
 _symmetry_equiv_pos_as_xyz
  1  'x, y, z'
loop_
 _atom_site_type_symbol
 _atom_site_label
 _atom_site_symmetry_multiplicity
 _atom_site_fract_x
 _atom_site_fract_y
 _atom_site_fract_z
 _atom_site_occupancy
  Pr  Pr0  1  -0.00001099  0.99990083  0.72572085  1
  Pr  Pr1  1  -0.00001112  0.00024700  0.26332094  1
  In  In2  1  0.33343357  0.33320025  0.48336183  1
  In  In3  1  0.33330907  0.33349467  0.04939782  1
  In  In4  1  0.66677510  0.66642579  0.94044875  1
  Cu  Cu5  1  0.66650436  0.66673145  0.53774980  1
