# generated using pymatgen
data_Sc(VGe)5
_symmetry_space_group_name_H-M   'P 1'
_cell_length_a   5.08724457
_cell_length_b   7.77106619
_cell_length_c   9.48513473
_cell_angle_alpha   65.76152747
_cell_angle_beta   74.44463928
_cell_angle_gamma   90.00000000
_symmetry_Int_Tables_number   1
_chemical_formula_structural   Sc(VGe)5
_chemical_formula_sum   'Sc2 V10 Ge10'
_cell_volume   326.80127157
_cell_formula_units_Z   2
loop_
 _symmetry_equiv_pos_site_id
 _symmetry_equiv_pos_as_xyz
  1  'x, y, z'
loop_
 _atom_site_type_symbol
 _atom_site_label
 _atom_site_symmetry_multiplicity
 _atom_site_fract_x
 _atom_site_fract_y
 _atom_site_fract_z
 _atom_site_occupancy
  Sc  Sc0  1  0.35707916  0.74531279  0.28584168  1
  Sc  Sc1  1  0.64292084  0.25468721  0.71415832  1
  V  V2  1  0.06378155  0.32245222  0.87243690  1
  V  V3  1  0.93621845  0.67754778  0.12756310  1
  V  V4  1  0.43514636  0.19006541  0.12970728  1
  V  V5  1  0.56485364  0.80993459  0.87029272  1
  V  V6  1  0.94212880  0.69113955  0.61882353  1
  V  V7  1  0.56095233  0.30886045  0.38117647  1
  V  V8  1  0.05787120  0.30886045  0.38117647  1
  V  V9  1  0.43904767  0.69113955  0.61882353  1
  V  V10  1  0.14423792  0.02993246  0.71152416  1
  V  V11  1  0.85576208  0.97006754  0.28847584  1
  Ge  Ge12  1  0.43401295  0.52209472  0.13197409  1
  Ge  Ge13  1  0.56598705  0.47790528  0.86802591  1
  Ge  Ge14  1  0.06750518  0.66485515  0.86498964  1
  Ge  Ge15  1  0.93249482  0.33514485  0.13501036  1
  Ge  Ge16  1  0.24610106  -0.00000000  -0.00000000  1
  Ge  Ge17  1  0.75389894  -0.00000000  -0.00000000  1
  Ge  Ge18  1  0.21059332  0.40845560  0.57881336  1
  Ge  Ge19  1  0.78940668  0.59154440  0.42118664  1
  Ge  Ge20  1  0.28601651  0.99231318  0.42796698  1
  Ge  Ge21  1  0.71398349  0.00768682  0.57203302  1
