# generated using pymatgen
data_NaLi3V4O12
_symmetry_space_group_name_H-M   'P 1'
_cell_length_a   5.92263838
_cell_length_b   6.84307888
_cell_length_c   6.84307888
_cell_angle_alpha   82.15138057
_cell_angle_beta   75.01420513
_cell_angle_gamma   75.01420513
_symmetry_Int_Tables_number   1
_chemical_formula_structural   NaLi3V4O12
_chemical_formula_sum   'Na1 Li3 V4 O12'
_cell_volume   258.07674897
_cell_formula_units_Z   1
loop_
 _symmetry_equiv_pos_site_id
 _symmetry_equiv_pos_as_xyz
  1  'x, y, z'
loop_
 _atom_site_type_symbol
 _atom_site_label
 _atom_site_symmetry_multiplicity
 _atom_site_fract_x
 _atom_site_fract_y
 _atom_site_fract_z
 _atom_site_occupancy
  Na  Na0  1  0.25000000  0.28739216  0.71260784  1
  Li  Li1  1  0.75000000  0.08339787  0.91660213  1
  Li  Li2  1  0.25000000  0.91359699  0.08640301  1
  Li  Li3  1  0.75000000  0.72746036  0.27253964  1
  V  V4  1  0.75112829  0.61965318  0.80681027  1
  V  V5  1  0.74887171  0.19318973  0.38034682  1
  V  V6  1  0.24565503  0.38301461  0.19661006  1
  V  V7  1  0.25434497  0.80338994  0.61698539  1
  O  O8  1  0.79457116  0.38049809  0.90796622  1
  O  O9  1  0.70542884  0.09203378  0.61950191  1
  O  O10  1  0.20570327  0.61976772  0.08801162  1
  O  O11  1  0.29429673  0.91198838  0.38023228  1
  O  O12  1  0.55376226  0.65450731  0.63167502  1
  O  O13  1  0.94623774  0.36832498  0.34549269  1
  O  O14  1  0.45324256  0.34733891  0.36202969  1
  O  O15  1  0.04675744  0.63797031  0.65266109  1
  O  O16  1  0.65734378  0.78111353  0.99471066  1
  O  O17  1  0.84265622  0.00528934  0.21888647  1
  O  O18  1  0.34911621  0.21069736  0.02062456  1
  O  O19  1  0.15088379  0.97937544  0.78930264  1
