# generated using pymatgen
data_Nb2VFeSe10
_symmetry_space_group_name_H-M   'P 1'
_cell_length_a   3.49472611
_cell_length_b   9.36330642
_cell_length_c   10.10535556
_cell_angle_alpha   112.96588112
_cell_angle_beta   90.00000000
_cell_angle_gamma   90.00000000
_symmetry_Int_Tables_number   1
_chemical_formula_structural   Nb2VFeSe10
_chemical_formula_sum   'Nb2 V1 Fe1 Se10'
_cell_volume   304.45965285
_cell_formula_units_Z   1
loop_
 _symmetry_equiv_pos_site_id
 _symmetry_equiv_pos_as_xyz
  1  'x, y, z'
loop_
 _atom_site_type_symbol
 _atom_site_label
 _atom_site_symmetry_multiplicity
 _atom_site_fract_x
 _atom_site_fract_y
 _atom_site_fract_z
 _atom_site_occupancy
  Nb  Nb0  1  0.75000000  0.72453424  0.63452890  1
  Nb  Nb1  1  0.25000000  0.27661007  0.36187356  1
  V  V2  1  0.25000000  0.54769142  0.91388161  1
  Fe  Fe3  1  0.75000000  0.44985910  0.09760298  1
  Se  Se4  1  0.25000000  0.95737787  0.75712972  1
  Se  Se5  1  0.75000000  0.04294037  0.24017963  1
  Se  Se6  1  0.75000000  0.34506533  0.84479581  1
  Se  Se7  1  0.25000000  0.64237869  0.16357000  1
  Se  Se8  1  0.25000000  0.83816036  0.50164249  1
  Se  Se9  1  0.75000000  0.16346364  0.49518509  1
  Se  Se10  1  0.25000000  0.51159256  0.63615429  1
  Se  Se11  1  0.75000000  0.48556601  0.35327344  1
  Se  Se12  1  0.75000000  0.75074035  0.91263343  1
  Se  Se13  1  0.25000000  0.26402000  0.08754902  1
