# generated using pymatgen
data_Na5CuCO5
_symmetry_space_group_name_H-M   'P 1'
_cell_length_a   4.53036970
_cell_length_b   4.89130331
_cell_length_c   8.40787888
_cell_angle_alpha   90.00000000
_cell_angle_beta   90.00000000
_cell_angle_gamma   90.00000000
_symmetry_Int_Tables_number   1
_chemical_formula_structural   Na5CuCO5
_chemical_formula_sum   'Na5 Cu1 C1 O5'
_cell_volume   186.31365475
_cell_formula_units_Z   1
loop_
 _symmetry_equiv_pos_site_id
 _symmetry_equiv_pos_as_xyz
  1  'x, y, z'
loop_
 _atom_site_type_symbol
 _atom_site_label
 _atom_site_symmetry_multiplicity
 _atom_site_fract_x
 _atom_site_fract_y
 _atom_site_fract_z
 _atom_site_occupancy
  Na  Na0  1  0.50000000  0.99601014  0.75809132  1
  Na  Na1  1  0.00000000  0.50404295  0.76667094  1
  Na  Na2  1  0.50000000  0.99601014  0.24190868  1
  Na  Na3  1  0.00000000  0.50404295  0.23332906  1
  Na  Na4  1  0.00000000  0.98900647  0.50000000  1
  Cu  Cu5  1  -0.00000000  0.00285421  0.00000000  1
  C  C6  1  0.50000000  0.42715431  0.50000000  1
  O  O7  1  0.00000000  0.00514925  0.78448081  1
  O  O8  1  0.00000000  0.00514925  0.21551919  1
  O  O9  1  0.50000000  0.55597792  0.63573731  1
  O  O10  1  0.50000000  0.55597792  0.36426269  1
  O  O11  1  0.50000000  0.15962448  0.50000000  1
