# generated using pymatgen
data_Nb4FeS8
_symmetry_space_group_name_H-M   'P 1'
_cell_length_a   3.35162767
_cell_length_b   12.61598648
_cell_length_c   5.76026997
_cell_angle_alpha   77.00402390
_cell_angle_beta   90.00421434
_cell_angle_gamma   82.36706886
_symmetry_Int_Tables_number   1
_chemical_formula_structural   Nb4FeS8
_chemical_formula_sum   'Nb4 Fe1 S8'
_cell_volume   235.11301016
_cell_formula_units_Z   1
loop_
 _symmetry_equiv_pos_site_id
 _symmetry_equiv_pos_as_xyz
  1  'x, y, z'
loop_
 _atom_site_type_symbol
 _atom_site_label
 _atom_site_symmetry_multiplicity
 _atom_site_fract_x
 _atom_site_fract_y
 _atom_site_fract_z
 _atom_site_occupancy
  Nb  Nb0  1  0.13332256  0.73311287  0.14055538  1
  Nb  Nb1  1  0.63007860  0.73943100  0.62300516  1
  Nb  Nb2  1  0.36667744  0.26688713  0.35944462  1
  Nb  Nb3  1  0.86992140  0.26056900  0.87699484  1
  Fe  Fe4  1  0.75000000  0.50000000  0.75000000  1
  S  S5  1  0.93323538  0.13410946  0.27026590  1
  S  S6  1  0.43252050  0.13539573  0.76327099  1
  S  S7  1  0.06747950  0.86460427  0.73672901  1
  S  S8  1  0.56676462  0.86589054  0.22973410  1
  S  S9  1  0.19695100  0.60601446  0.85841109  1
  S  S10  1  0.69806588  0.60378834  0.36907611  1
  S  S11  1  0.80193412  0.39621166  0.13092389  1
  S  S12  1  0.30304900  0.39398554  0.64158891  1
