# generated using pymatgen
data_Na6Fe2P4HO17
_symmetry_space_group_name_H-M   'P 1'
_cell_length_a   5.28093090
_cell_length_b   9.38103313
_cell_length_c   15.13170706
_cell_angle_alpha   80.34375172
_cell_angle_beta   81.40901529
_cell_angle_gamma   79.15928161
_symmetry_Int_Tables_number   1
_chemical_formula_structural   Na6Fe2P4HO17
_chemical_formula_sum   'Na12 Fe4 P8 H2 O34'
_cell_volume   720.42933391
_cell_formula_units_Z   2
loop_
 _symmetry_equiv_pos_site_id
 _symmetry_equiv_pos_as_xyz
  1  'x, y, z'
loop_
 _atom_site_type_symbol
 _atom_site_label
 _atom_site_symmetry_multiplicity
 _atom_site_fract_x
 _atom_site_fract_y
 _atom_site_fract_z
 _atom_site_occupancy
  Na  Na0  1  0.29957082  0.36288781  0.02030785  1
  Na  Na1  1  0.70038762  0.63664776  0.98017191  1
  Na  Na2  1  0.87894609  0.84354263  0.49257403  1
  Na  Na3  1  0.11988144  0.15942375  0.50632183  1
  Na  Na4  1  0.12073125  0.62357608  0.13279580  1
  Na  Na5  1  0.87926091  0.37607739  0.86759760  1
  Na  Na6  1  0.00009395  0.00005714  0.00023392  1
  Na  Na7  1  0.43504543  0.86440229  0.35469173  1
  Na  Na8  1  0.56521442  0.13740443  0.64406789  1
  Na  Na9  1  0.60481113  0.49934509  0.27259001  1
  Na  Na10  1  0.39349580  0.49966259  0.73005417  1
  Na  Na11  1  0.49108069  0.52356130  0.50904752  1
  Fe  Fe12  1  0.95871955  0.96986030  0.22721295  1
  Fe  Fe13  1  0.04052230  0.03061052  0.77289716  1
  Fe  Fe14  1  0.19009882  0.29202944  0.26937092  1
  Fe  Fe15  1  0.80988253  0.70775092  0.73085398  1
  P  P16  1  0.77313581  0.29973045  0.12315176  1
  P  P17  1  0.22677325  0.70057057  0.87690404  1
  P  P18  1  0.52767008  0.82516806  0.12926759  1
  P  P19  1  0.47194200  0.17459053  0.87094035  1
  P  P20  1  0.99818341  0.62931674  0.35409674  1
  P  P21  1  0.00080727  0.37107757  0.64623723  1
  P  P22  1  0.67391600  0.16945394  0.39069687  1
  P  P23  1  0.32593198  0.83070369  0.60936323  1
  H  H24  1  0.50095613  0.99903297  0.00031258  1
  H  H25  1  0.00131796  0.49970994  0.49939193  1
  O  O26  1  0.06964424  0.78435155  0.31908792  1
  O  O27  1  0.93130811  0.21549380  0.68126493  1
  O  O28  1  0.70224450  0.11034068  0.49013948  1
  O  O29  1  0.29839377  0.88824700  0.50967553  1
  O  O30  1  0.11538111  0.58271940  0.44661231  1
  O  O31  1  0.88317881  0.41728010  0.55400641  1
  O  O32  1  0.85447356  0.13108967  0.12875046  1
  O  O33  1  0.14529807  0.86913173  0.87118258  1
  O  O34  1  0.73157458  0.03813664  0.33507572  1
  O  O35  1  0.26895049  0.96146666  0.66493492  1
  O  O36  1  0.70411178  0.63414540  0.37340750  1
  O  O37  1  0.29465746  0.36756406  0.62775683  1
  O  O38  1  0.39227736  0.25150304  0.37910939  1
  O  O39  1  0.60760384  0.74703380  0.62022271  1
  O  O40  1  0.76430579  0.36995241  0.02384664  1
  O  O41  1  0.23568788  0.63016396  0.97608086  1
  O  O42  1  0.50061068  0.33679250  0.17855149  1
  O  O43  1  0.49919626  0.66353198  0.82135912  1
  O  O44  1  0.63545813  0.89062226  0.03110676  1
  O  O45  1  0.36391631  0.10946392  0.96882153  1
  O  O46  1  0.97873396  0.36512756  0.16228171  1
  O  O47  1  0.02161131  0.63493813  0.83759723  1
  O  O48  1  0.64460961  0.88344602  0.20186383  1
  O  O49  1  0.35597646  0.11648777  0.79793112  1
  O  O50  1  0.22536782  0.86918515  0.13694219  1
  O  O51  1  0.77449721  0.13082449  0.86313024  1
  O  O52  1  0.21236332  0.07990994  0.26085730  1
  O  O53  1  0.78770695  0.91981711  0.73906271  1
  O  O54  1  0.86325147  0.28051994  0.35323253  1
  O  O55  1  0.13781899  0.71842102  0.64634350  1
  O  O56  1  0.60908062  0.65865354  0.13654482  1
  O  O57  1  0.39087041  0.34120415  0.86347744  1
  O  O58  1  0.12940577  0.52248357  0.28518141  1
  O  O59  1  0.86815677  0.47775714  0.71530929  1
