# generated using pymatgen
data_Li9Mn2Co5O16
_symmetry_space_group_name_H-M   'P 1'
_cell_length_a   2.91407502
_cell_length_b   19.46862680
_cell_length_c   5.11175775
_cell_angle_alpha   92.72000264
_cell_angle_beta   87.57237274
_cell_angle_gamma   87.68190108
_symmetry_Int_Tables_number   1
_chemical_formula_structural   Li9Mn2Co5O16
_chemical_formula_sum   'Li9 Mn2 Co5 O16'
_cell_volume   289.15680588
_cell_formula_units_Z   1
loop_
 _symmetry_equiv_pos_site_id
 _symmetry_equiv_pos_as_xyz
  1  'x, y, z'
loop_
 _atom_site_type_symbol
 _atom_site_label
 _atom_site_symmetry_multiplicity
 _atom_site_fract_x
 _atom_site_fract_y
 _atom_site_fract_z
 _atom_site_occupancy
  Li  Li0  1  0.93652294  0.11828251  0.66957443  1
  Li  Li1  1  0.31317059  0.37086998  0.55869947  1
  Li  Li2  1  0.68389449  0.62750190  0.43380327  1
  Li  Li3  1  0.06363347  0.88175748  0.33102231  1
  Li  Li4  1  0.45045828  0.12139625  0.18418257  1
  Li  Li5  1  0.81639237  0.37256224  0.06665284  1
  Li  Li6  1  0.18614117  0.62912294  0.94157670  1
  Li  Li7  1  0.54933414  0.87850497  0.81525889  1
  Li  Li8  1  0.50006935  0.00004972  0.49988822  1
  Mn  Mn9  1  0.00004615  -0.00015708  -0.00056757  1
  Mn  Mn10  1  0.75010951  0.50009962  0.75039328  1
  Co  Co11  1  0.37786708  0.24940645  0.87399516  1
  Co  Co12  1  0.12270986  0.75067336  0.62550950  1
  Co  Co13  1  0.87681784  0.24888626  0.37414269  1
  Co  Co14  1  0.24989006  0.49997354  0.25023148  1
  Co  Co15  1  0.62285097  0.75100108  0.12617489  1
  O  O16  1  0.49136437  0.05534281  0.85851790  1
  O  O17  1  0.83225375  0.30884829  0.72501859  1
  O  O18  1  0.20050656  0.55631722  0.57842152  1
  O  O19  1  0.58347463  0.80733941  0.47549459  1
  O  O20  1  0.96680467  0.05816882  0.31251401  1
  O  O21  1  0.33448995  0.30806205  0.22648070  1
  O  O22  1  0.68926199  0.55689368  0.08397623  1
  O  O23  1  0.08359068  0.80599426  0.97635802  1
  O  O24  1  0.41766436  0.19252677  0.52415668  1
  O  O25  1  0.81087841  0.44329331  0.41612852  1
  O  O26  1  0.16647569  0.69167428  0.27578837  1
  O  O27  1  0.50852136  0.94453096  0.14156519  1
  O  O28  1  0.91633748  0.19401598  0.02201674  1
  O  O29  1  0.29973631  0.44378194  0.92184656  1
  O  O30  1  0.66552794  0.69150096  0.77407862  1
  O  O31  1  0.03320359  0.94177807  0.68709963  1
