# generated using pymatgen
data_Na2Mn(SiO3)2
_symmetry_space_group_name_H-M   'P 1'
_cell_length_a   7.46322180
_cell_length_b   10.43616144
_cell_length_c   10.45303431
_cell_angle_alpha   90.00000000
_cell_angle_beta   90.00000000
_cell_angle_gamma   90.00000000
_symmetry_Int_Tables_number   1
_chemical_formula_structural   Na2Mn(SiO3)2
_chemical_formula_sum   'Na12 Mn6 Si12 O36'
_cell_volume   814.15953456
_cell_formula_units_Z   6
loop_
 _symmetry_equiv_pos_site_id
 _symmetry_equiv_pos_as_xyz
  1  'x, y, z'
loop_
 _atom_site_type_symbol
 _atom_site_label
 _atom_site_symmetry_multiplicity
 _atom_site_fract_x
 _atom_site_fract_y
 _atom_site_fract_z
 _atom_site_occupancy
  Na  Na0  1  0.72765277  0.23606260  0.51764237  1
  Na  Na1  1  0.72765277  0.76393740  0.51764237  1
  Na  Na2  1  0.27234723  0.26393740  0.01764237  1
  Na  Na3  1  0.27234723  0.73606260  0.01764237  1
  Na  Na4  1  0.23029486  0.26161430  0.48873061  1
  Na  Na5  1  0.23029486  0.73838570  0.48873061  1
  Na  Na6  1  0.76970514  0.23838570  0.98873061  1
  Na  Na7  1  0.76970514  0.76161430  0.98873061  1
  Na  Na8  1  0.24831368  0.00000000  0.24782444  1
  Na  Na9  1  0.75168632  0.50000000  0.74782444  1
  Na  Na10  1  0.76404744  0.50000000  0.25261893  1
  Na  Na11  1  0.23595256  -0.00000000  0.75261893  1
  Mn  Mn12  1  0.25182420  0.50000000  0.25251510  1
  Mn  Mn13  1  0.74817580  -0.00000000  0.75251510  1
  Mn  Mn14  1  0.98412381  0.50000000  0.48984641  1
  Mn  Mn15  1  0.01587619  -0.00000000  0.98984641  1
  Mn  Mn16  1  0.48138986  0.00000000  0.51649624  1
  Mn  Mn17  1  0.51861014  0.50000000  0.01649624  1
  Si  Si18  1  0.49952097  0.50000000  0.53170894  1
  Si  Si19  1  0.50047903  -0.00000000  0.03170894  1
  Si  Si20  1  0.96940398  0.22710918  0.25856993  1
  Si  Si21  1  0.96940398  0.77289082  0.25856993  1
  Si  Si22  1  0.03059602  0.27289082  0.75856993  1
  Si  Si23  1  0.03059602  0.72710918  0.75856993  1
  Si  Si24  1  0.53319628  0.22761553  0.24526207  1
  Si  Si25  1  0.53319628  0.77238447  0.24526207  1
  Si  Si26  1  0.46680372  0.27238447  0.74526207  1
  Si  Si27  1  0.46680372  0.72761553  0.74526207  1
  Si  Si28  1  0.99918734  0.00000000  0.47183664  1
  Si  Si29  1  0.00081266  0.50000000  0.97183664  1
  O  O30  1  0.30609572  0.50000000  0.46162831  1
  O  O31  1  0.69390428  -0.00000000  0.96162831  1
  O  O32  1  0.04074750  0.16249305  0.12643420  1
  O  O33  1  0.04074750  0.83750695  0.12643420  1
  O  O34  1  0.95925250  0.33750695  0.62643420  1
  O  O35  1  0.95925250  0.66249305  0.62643420  1
  O  O36  1  0.19358388  0.50000000  0.04294540  1
  O  O37  1  0.80641612  -0.00000000  0.54294540  1
  O  O38  1  0.48984819  0.12642755  0.12725649  1
  O  O39  1  0.48984819  0.87357245  0.12725649  1
  O  O40  1  0.51015181  0.37357245  0.62725649  1
  O  O41  1  0.51015181  0.62642755  0.62725649  1
  O  O42  1  0.45538148  0.36267154  0.19152334  1
  O  O43  1  0.45538148  0.63732846  0.19152334  1
  O  O44  1  0.54461852  0.13732846  0.69152334  1
  O  O45  1  0.54461852  0.86267154  0.69152334  1
  O  O46  1  0.04647824  0.36301587  0.31113927  1
  O  O47  1  0.04647824  0.63698413  0.31113927  1
  O  O48  1  0.95352176  0.13698413  0.81113927  1
  O  O49  1  0.95352176  0.86301587  0.81113927  1
  O  O50  1  0.69071715  0.50000000  0.45811418  1
  O  O51  1  0.30928285  0.00000000  0.95811418  1
  O  O52  1  0.75182740  0.24678346  0.24929787  1
  O  O53  1  0.75182740  0.75321654  0.24929787  1
  O  O54  1  0.24817260  0.25321654  0.74929787  1
  O  O55  1  0.24817260  0.74678346  0.74929787  1
  O  O56  1  0.46559767  0.16526441  0.37928720  1
  O  O57  1  0.46559767  0.83473559  0.37928720  1
  O  O58  1  0.53440233  0.33473559  0.87928720  1
  O  O59  1  0.53440233  0.66526441  0.87928720  1
  O  O60  1  0.01000134  0.12720810  0.37759296  1
  O  O61  1  0.01000134  0.87279190  0.37759296  1
  O  O62  1  0.98999866  0.37279190  0.87759296  1
  O  O63  1  0.98999866  0.62720810  0.87759296  1
  O  O64  1  0.80907227  0.50000000  0.04469279  1
  O  O65  1  0.19092773  -0.00000000  0.54469279  1
