# generated using pymatgen
data_MnMoAs2
_symmetry_space_group_name_H-M   'P 1'
_cell_length_a   3.39655784
_cell_length_b   5.88375598
_cell_length_c   6.41243664
_cell_angle_alpha   90.00000000
_cell_angle_beta   90.00000000
_cell_angle_gamma   90.00000000
_symmetry_Int_Tables_number   1
_chemical_formula_structural   MnMoAs2
_chemical_formula_sum   'Mn2 Mo2 As4'
_cell_volume   128.14945227
_cell_formula_units_Z   2
loop_
 _symmetry_equiv_pos_site_id
 _symmetry_equiv_pos_as_xyz
  1  'x, y, z'
loop_
 _atom_site_type_symbol
 _atom_site_label
 _atom_site_symmetry_multiplicity
 _atom_site_fract_x
 _atom_site_fract_y
 _atom_site_fract_z
 _atom_site_occupancy
  Mn  Mn0  1  0.75000000  0.49936447  0.69082400  1
  Mn  Mn1  1  0.25000000  0.00063553  0.19082400  1
  Mo  Mo2  1  0.75000000  0.99440297  0.80691330  1
  Mo  Mo3  1  0.25000000  0.50559703  0.30691330  1
  As  As4  1  0.75000000  0.29655820  0.07551230  1
  As  As5  1  0.75000000  0.80901429  0.42675040  1
  As  As6  1  0.25000000  0.69098571  0.92675040  1
  As  As7  1  0.25000000  0.20344180  0.57551230  1
