# generated using pymatgen
data_NaNbWO6
_symmetry_space_group_name_H-M   'P 1'
_cell_length_a   7.42701860
_cell_length_b   7.42701860
_cell_length_c   7.42701860
_cell_angle_alpha   90.01093868
_cell_angle_beta   60.11524547
_cell_angle_gamma   120.12802590
_symmetry_Int_Tables_number   1
_chemical_formula_structural   NaNbWO6
_chemical_formula_sum   'Na2 Nb2 W2 O12'
_cell_volume   289.65706893
_cell_formula_units_Z   2
loop_
 _symmetry_equiv_pos_site_id
 _symmetry_equiv_pos_as_xyz
  1  'x, y, z'
loop_
 _atom_site_type_symbol
 _atom_site_label
 _atom_site_symmetry_multiplicity
 _atom_site_fract_x
 _atom_site_fract_y
 _atom_site_fract_z
 _atom_site_occupancy
  Na  Na0  1  0.75000000  0.37500000  0.87500000  1
  Na  Na1  1  0.25000000  0.37500000  0.37500000  1
  Nb  Nb2  1  0.25000000  0.37500000  0.87500000  1
  Nb  Nb3  1  0.75000000  0.87500000  0.87500000  1
  W  W4  1  0.75000000  0.87500000  0.37500000  1
  W  W5  1  0.25000000  0.87500000  0.87500000  1
  O  O6  1  0.87436826  0.94055843  0.55794692  1
  O  O7  1  0.50149465  0.56768482  0.55794692  1
  O  O8  1  0.50000000  0.93154423  0.56845577  1
  O  O9  1  0.12563174  0.56768482  0.93380983  1
  O  O10  1  0.49850535  0.94055843  0.93380983  1
  O  O11  1  0.50000000  0.55396525  0.94603475  1
  O  O12  1  0.62563174  0.80944157  0.19205308  1
  O  O13  1  0.99850535  0.18231518  0.19205308  1
  O  O14  1  0.00000000  0.81845577  0.18154423  1
  O  O15  1  0.37436826  0.18231518  0.81619017  1
  O  O16  1  0.00149465  0.80944157  0.81619017  1
  O  O17  1  0.00000000  0.19603475  0.80396525  1
