# generated using pymatgen
data_MnZn4S5
_symmetry_space_group_name_H-M   'P 1'
_cell_length_a   3.87600014
_cell_length_b   16.89386214
_cell_length_c   6.34926561
_cell_angle_alpha   89.96237273
_cell_angle_beta   90.00061514
_cell_angle_gamma   83.40561391
_symmetry_Int_Tables_number   1
_chemical_formula_structural   MnZn4S5
_chemical_formula_sum   'Mn2 Zn8 S10'
_cell_volume   413.00308948
_cell_formula_units_Z   2
loop_
 _symmetry_equiv_pos_site_id
 _symmetry_equiv_pos_as_xyz
  1  'x, y, z'
loop_
 _atom_site_type_symbol
 _atom_site_label
 _atom_site_symmetry_multiplicity
 _atom_site_fract_x
 _atom_site_fract_y
 _atom_site_fract_z
 _atom_site_occupancy
  Mn  Mn0  1  0.86731126  0.26541302  0.99862515  1
  Mn  Mn1  1  0.26632301  0.46744201  0.99889056  1
  Zn  Zn2  1  0.93357284  0.13280591  0.50028591  1
  Zn  Zn3  1  0.33323241  0.33337232  0.50061978  1
  Zn  Zn4  1  0.73300948  0.53395932  0.50014567  1
  Zn  Zn5  1  0.13335271  0.73334877  0.50015133  1
  Zn  Zn6  1  0.53332888  0.93325931  0.50017806  1
  Zn  Zn7  1  0.46703241  0.06600504  0.00038063  1
  Zn  Zn8  1  0.66640377  0.66735040  0.00054012  1
  Zn  Zn9  1  0.06669152  0.86664008  0.00064729  1
  S  S10  1  0.93451082  0.13089946  0.12723420  1
  S  S11  1  0.33326405  0.33335875  0.13222994  1
  S  S12  1  0.73193012  0.53615247  0.12945966  1
  S  S13  1  0.13325179  0.73360936  0.12559628  1
  S  S14  1  0.53350170  0.93306665  0.12560745  1
  S  S15  1  0.46658256  0.06676157  0.62603694  1
  S  S16  1  0.86667574  0.26653462  0.62080521  1
  S  S17  1  0.26667200  0.46663502  0.62074018  1
  S  S18  1  0.66668326  0.66669405  0.62620260  1
  S  S19  1  0.06666968  0.86669186  0.62562306  1
