# generated using pymatgen
data_MnCo21B6Mo
_symmetry_space_group_name_H-M   'P 1'
_cell_length_a   7.35672245
_cell_length_b   7.35672245
_cell_length_c   7.35672245
_cell_angle_alpha   90.00000000
_cell_angle_beta   60.00000000
_cell_angle_gamma   120.00000000
_symmetry_Int_Tables_number   1
_chemical_formula_structural   MnCo21B6Mo
_chemical_formula_sum   'Mn1 Co21 B6 Mo1'
_cell_volume   281.53871002
_cell_formula_units_Z   1
loop_
 _symmetry_equiv_pos_site_id
 _symmetry_equiv_pos_as_xyz
  1  'x, y, z'
loop_
 _atom_site_type_symbol
 _atom_site_label
 _atom_site_symmetry_multiplicity
 _atom_site_fract_x
 _atom_site_fract_y
 _atom_site_fract_z
 _atom_site_occupancy
  Mn  Mn0  1  0.50000000  0.75000000  0.75000000  1
  Co  Co1  1  0.99827151  0.99913576  0.66229230  1
  Co  Co2  1  0.33857194  0.33943618  0.66229230  1
  Co  Co3  1  0.33857194  0.99913576  0.66229230  1
  Co  Co4  1  0.00172849  0.33943618  0.99913576  1
  Co  Co5  1  0.66142806  0.99913576  0.99913576  1
  Co  Co6  1  0.66142806  0.99913576  0.33943618  1
  Co  Co7  1  0.00172849  0.66229230  0.99913576  1
  Co  Co8  1  0.66142806  0.66229230  0.33943618  1
  Co  Co9  1  0.66142806  0.66229230  0.99913576  1
  Co  Co10  1  0.99827151  0.99913576  0.33943618  1
  Co  Co11  1  0.33857194  0.99913576  0.99913576  1
  Co  Co12  1  0.33857194  0.33943618  0.99913576  1
  Co  Co13  1  0.76574631  0.38287315  0.85138054  1
  Co  Co14  1  0.23425369  0.38287315  0.38287315  1
  Co  Co15  1  0.23425369  0.85138054  0.38287315  1
  Co  Co16  1  0.76574631  0.38287315  0.38287315  1
  Co  Co17  1  0.24490127  0.62245064  0.13264809  1
  Co  Co18  1  0.75509873  0.62245064  0.62245064  1
  Co  Co19  1  0.75509873  0.13264809  0.62245064  1
  Co  Co20  1  0.24490127  0.62245064  0.62245064  1
  Co  Co21  1  -0.00000000  -0.00000000  0.00000000  1
  B  B22  1  0.54978274  0.27489137  0.72510863  1
  B  B23  1  -0.00000000  0.72510863  0.72510863  1
  B  B24  1  -0.00000000  0.27489137  0.72510863  1
  B  B25  1  0.45021726  0.72510863  0.27489137  1
  B  B26  1  -0.00000000  0.27489137  0.27489137  1
  B  B27  1  -0.00000000  0.72510863  0.27489137  1
  Mo  Mo28  1  0.50000000  0.25000000  0.25000000  1
