# generated using pymatgen
data_NaNd3Ti3MnO12
_symmetry_space_group_name_H-M   'P 1'
_cell_length_a   5.49919501
_cell_length_b   5.65696085
_cell_length_c   7.88551338
_cell_angle_alpha   89.87481484
_cell_angle_beta   89.76130612
_cell_angle_gamma   89.87754943
_symmetry_Int_Tables_number   1
_chemical_formula_structural   NaNd3Ti3MnO12
_chemical_formula_sum   'Na1 Nd3 Ti3 Mn1 O12'
_cell_volume   245.30504383
_cell_formula_units_Z   1
loop_
 _symmetry_equiv_pos_site_id
 _symmetry_equiv_pos_as_xyz
  1  'x, y, z'
loop_
 _atom_site_type_symbol
 _atom_site_label
 _atom_site_symmetry_multiplicity
 _atom_site_fract_x
 _atom_site_fract_y
 _atom_site_fract_z
 _atom_site_occupancy
  Na  Na0  1  0.49725762  0.48186832  0.24979488  1
  Nd  Nd1  1  0.01704120  0.94963800  0.24161513  1
  Nd  Nd2  1  0.51251418  0.55089334  0.76291555  1
  Nd  Nd3  1  0.98859883  0.05129823  0.75450612  1
  Ti  Ti4  1  0.49835689  0.02109008  0.50380225  1
  Ti  Ti5  1  0.00989264  0.51168555  0.49145080  1
  Ti  Ti6  1  0.50360672  0.00421006  0.01633645  1
  Mn  Mn7  1  0.00403347  0.49580550  0.00674983  1
  O  O8  1  0.58741120  0.02311326  0.25380407  1
  O  O9  1  0.91646237  0.51849431  0.26688624  1
  O  O10  1  0.41366287  0.97188890  0.73866252  1
  O  O11  1  0.09389522  0.47224918  0.73417471  1
  O  O12  1  0.78459934  0.80414744  0.95289195  1
  O  O13  1  0.70751038  0.27294045  0.55598311  1
  O  O14  1  0.20398658  0.19723037  0.45967926  1
  O  O15  1  0.31124941  0.72050589  0.03902723  1
  O  O16  1  0.20460725  0.17701130  0.03035488  1
  O  O17  1  0.27007574  0.72372084  0.45333073  1
  O  O18  1  0.77641951  0.78069627  0.54905953  1
  O  O19  1  0.69881857  0.27151272  0.93897477  1
