# generated using pymatgen
data_Li9Mn2Co5O16
_symmetry_space_group_name_H-M   'P 1'
_cell_length_a   3.01520745
_cell_length_b   19.18534462
_cell_length_c   5.06206895
_cell_angle_alpha   92.65587704
_cell_angle_beta   91.57656795
_cell_angle_gamma   84.32232409
_symmetry_Int_Tables_number   1
_chemical_formula_structural   Li9Mn2Co5O16
_chemical_formula_sum   'Li9 Mn2 Co5 O16'
_cell_volume   291.00251171
_cell_formula_units_Z   1
loop_
 _symmetry_equiv_pos_site_id
 _symmetry_equiv_pos_as_xyz
  1  'x, y, z'
loop_
 _atom_site_type_symbol
 _atom_site_label
 _atom_site_symmetry_multiplicity
 _atom_site_fract_x
 _atom_site_fract_y
 _atom_site_fract_z
 _atom_site_occupancy
  Li  Li0  1  0.86989420  0.12584270  0.37758640  1
  Li  Li1  1  0.24211387  0.25065595  0.25394395  1
  Li  Li2  1  0.62453434  0.37537036  0.12572911  1
  Li  Li3  1  0.00803349  0.50024292  0.99686146  1
  Li  Li4  1  0.37782091  0.62407171  0.87404797  1
  Li  Li5  1  0.74928406  0.74934195  0.74720891  1
  Li  Li6  1  0.12628532  0.87478081  0.62373634  1
  Li  Li7  1  0.50056475  -0.00038816  0.50024705  1
  Li  Li8  1  0.12565709  0.37594122  0.62445558  1
  Mn  Mn9  1  0.01089728  0.99911250  0.00187076  1
  Mn  Mn10  1  0.37008787  0.12752364  0.87139366  1
  Co  Co11  1  0.73219368  0.25745308  0.74681243  1
  Co  Co12  1  0.51245514  0.49581120  0.50198193  1
  Co  Co13  1  0.87487565  0.62452967  0.37931534  1
  Co  Co14  1  0.24470468  0.74780598  0.24788451  1
  Co  Co15  1  0.62442725  0.87153923  0.12686723  1
  O  O16  1  0.40683695  0.06482086  0.17141555  1
  O  O17  1  0.78259438  0.19126063  0.03144107  1
  O  O18  1  0.16153005  0.30917196  0.92698327  1
  O  O19  1  0.55314486  0.44625887  0.78203667  1
  O  O20  1  0.91335641  0.56284037  0.66370799  1
  O  O21  1  0.28751798  0.68648812  0.53861426  1
  O  O22  1  0.64934836  0.81019792  0.41699489  1
  O  O23  1  0.08680426  0.93504000  0.29197670  1
  O  O24  1  0.33488650  0.18930665  0.57889391  1
  O  O25  1  0.69567693  0.30665797  0.46710402  1
  O  O26  1  0.09085587  0.44338698  0.32252945  1
  O  O27  1  0.46580973  0.56244953  0.22290315  1
  O  O28  1  0.83849757  0.68599884  0.08700612  1
  O  O29  1  0.16589496  0.81034612  0.96249257  1
  O  O30  1  0.60613243  0.93423774  0.83308555  1
  O  O31  1  0.96727518  0.06190467  0.70286718  1
