# generated using pymatgen
data_Na4Eu2SnAs4
_symmetry_space_group_name_H-M   'P 1'
_cell_length_a   7.39294649
_cell_length_b   9.79873452
_cell_length_c   9.81112334
_cell_angle_alpha   59.94575922
_cell_angle_beta   91.05107740
_cell_angle_gamma   90.51540331
_symmetry_Int_Tables_number   1
_chemical_formula_structural   Na4Eu2SnAs4
_chemical_formula_sum   'Na8 Eu4 Sn2 As8'
_cell_volume   615.07234392
_cell_formula_units_Z   2
loop_
 _symmetry_equiv_pos_site_id
 _symmetry_equiv_pos_as_xyz
  1  'x, y, z'
loop_
 _atom_site_type_symbol
 _atom_site_label
 _atom_site_symmetry_multiplicity
 _atom_site_fract_x
 _atom_site_fract_y
 _atom_site_fract_z
 _atom_site_occupancy
  Na  Na0  1  0.37878990  0.52777185  0.52626075  1
  Na  Na1  1  0.87884185  0.47221441  0.05407110  1
  Na  Na2  1  0.19641945  0.14564762  0.14202626  1
  Na  Na3  1  0.20887681  0.15147867  0.70829523  1
  Na  Na4  1  0.20424720  0.70880082  0.14975198  1
  Na  Na5  1  0.70887312  0.84853298  0.85977047  1
  Na  Na6  1  0.69647099  0.85430030  0.28769498  1
  Na  Na7  1  0.70423436  0.29121260  0.85850130  1
  Eu  Eu8  1  0.37877049  0.52360092  0.94809578  1
  Eu  Eu9  1  0.37649749  0.94915627  0.52098711  1
  Eu  Eu10  1  0.87872724  0.47645556  0.47172163  1
  Eu  Eu11  1  0.87647504  0.05077802  0.47016299  1
  Sn  Sn12  1  0.50244658  0.33655469  0.33558730  1
  Sn  Sn13  1  0.00247006  0.66348143  0.67210642  1
  As  As14  1  0.14053201  0.32753902  0.33622659  1
  As  As15  1  0.64052087  0.67251670  0.66365913  1
  As  As16  1  0.12054249  0.81949257  0.80973574  1
  As  As17  1  0.10040561  0.81589017  0.37295773  1
  As  As18  1  0.10940196  0.37109469  0.81166291  1
  As  As19  1  0.60045492  0.18404461  0.18883375  1
  As  As20  1  0.62048522  0.18055958  0.62911745  1
  As  As21  1  0.60951633  0.62887652  0.18277339  1
