# generated using pymatgen
data_Mg2Fe5(SiO3)8
_symmetry_space_group_name_H-M   'P 1'
_cell_length_a   5.37882007
_cell_length_b   9.68024779
_cell_length_c   10.36248897
_cell_angle_alpha   62.15499992
_cell_angle_beta   84.64328311
_cell_angle_gamma   78.47055163
_symmetry_Int_Tables_number   1
_chemical_formula_structural   Mg2Fe5(SiO3)8
_chemical_formula_sum   'Mg2 Fe5 Si8 O24'
_cell_volume   467.45777821
_cell_formula_units_Z   1
loop_
 _symmetry_equiv_pos_site_id
 _symmetry_equiv_pos_as_xyz
  1  'x, y, z'
loop_
 _atom_site_type_symbol
 _atom_site_label
 _atom_site_symmetry_multiplicity
 _atom_site_fract_x
 _atom_site_fract_y
 _atom_site_fract_z
 _atom_site_occupancy
  Mg  Mg0  1  1.00000000  0.00068433  0.99863133  1
  Mg  Mg1  1  0.00000000  0.17899571  0.64200858  1
  Fe  Fe2  1  0.50000000  0.25902701  0.48194598  1
  Fe  Fe3  1  0.50000000  0.74146865  0.51706270  1
  Fe  Fe4  1  1.00000000  0.82108264  0.35783472  1
  Fe  Fe5  1  0.50000000  0.07798296  0.84403408  1
  Fe  Fe6  1  0.50000000  0.92151537  0.15696925  1
  Si  Si7  1  0.72923968  0.36965869  0.83252061  1
  Si  Si8  1  0.72900699  0.20301822  0.16740381  1
  Si  Si9  1  0.27099301  0.62957797  0.16740381  1
  Si  Si10  1  0.27076032  0.79782070  0.83252061  1
  Si  Si11  1  0.22461281  0.46259789  0.66654090  1
  Si  Si12  1  0.22499520  0.12999478  0.33491565  1
  Si  Si13  1  0.77500480  0.53508957  0.33491565  1
  Si  Si14  1  0.77538719  0.87086121  0.66654090  1
  O  O15  1  0.72824885  0.34051599  0.99979139  1
  O  O16  1  0.27175115  0.65969262  0.99979139  1
  O  O17  1  0.23180836  0.62312799  0.51380487  1
  O  O18  1  0.22823025  0.13769293  0.48856215  1
  O  O19  1  0.77176975  0.37374492  0.48856215  1
  O  O20  1  0.76819164  0.86306713  0.51380487  1
  O  O21  1  0.45149484  0.46911152  0.76017322  1
  O  O22  1  0.45199566  0.23059777  0.24108515  1
  O  O23  1  0.54800434  0.52831707  0.24108515  1
  O  O24  1  0.54850516  0.77071526  0.76017322  1
  O  O25  1  0.29810558  0.10373611  0.99989980  1
  O  O26  1  0.70189442  0.89636409  0.99989980  1
  O  O27  1  0.78915046  0.20178560  0.82251981  1
  O  O28  1  0.78749715  0.02709067  0.17363067  1
  O  O29  1  0.21250285  0.79927866  0.17363067  1
  O  O30  1  0.21084954  0.97569459  0.82251981  1
  O  O31  1  0.94385457  0.47721792  0.74098791  1
  O  O32  1  0.94439332  0.21786697  0.25947797  1
  O  O33  1  0.05560668  0.52265506  0.25947797  1
  O  O34  1  0.05614543  0.78179417  0.74098791  1
  O  O35  1  0.28553869  0.29236723  0.65863517  1
  O  O36  1  0.29436452  0.95352459  0.34080759  1
  O  O37  1  0.70563548  0.70566783  0.34080759  1
  O  O38  1  0.71446131  0.04899760  0.65863517  1
