# generated using pymatgen
data_Li9Mn2Co5O16
_symmetry_space_group_name_H-M   'P 1'
_cell_length_a   3.02804927
_cell_length_b   7.83804933
_cell_length_c   12.47343110
_cell_angle_alpha   90.32433289
_cell_angle_beta   90.20117054
_cell_angle_gamma   81.42177637
_symmetry_Int_Tables_number   1
_chemical_formula_structural   Li9Mn2Co5O16
_chemical_formula_sum   'Li9 Mn2 Co5 O16'
_cell_volume   292.72684763
_cell_formula_units_Z   1
loop_
 _symmetry_equiv_pos_site_id
 _symmetry_equiv_pos_as_xyz
  1  'x, y, z'
loop_
 _atom_site_type_symbol
 _atom_site_label
 _atom_site_symmetry_multiplicity
 _atom_site_fract_x
 _atom_site_fract_y
 _atom_site_fract_z
 _atom_site_occupancy
  Li  Li0  1  0.81000811  0.37546893  0.06478793  1
  Li  Li1  1  0.06328181  0.87666260  0.31396836  1
  Li  Li2  1  0.31123721  0.37521723  0.56480847  1
  Li  Li3  1  0.18532549  0.62478637  0.93614915  1
  Li  Li4  1  0.43520221  0.12456209  0.18860772  1
  Li  Li5  1  0.68579844  0.63026756  0.44132267  1
  Li  Li6  1  0.56738380  0.86942560  0.80713448  1
  Li  Li7  1  0.93980696  0.12434212  0.68349490  1
  Li  Li8  1  0.12509634  0.75127713  0.62426245  1
  Mn  Mn9  1  0.00616963  0.99881686  0.00016166  1
  Mn  Mn10  1  0.37070069  0.25302551  0.87189761  1
  Co  Co11  1  0.25021022  0.49806041  0.25223752  1
  Co  Co12  1  0.50825441  0.98893657  0.50327493  1
  Co  Co13  1  0.73667606  0.51359523  0.74419381  1
  Co  Co14  1  0.63147040  0.74693398  0.12731112  1
  Co  Co15  1  0.87549734  0.24841789  0.37732100  1
  O  O16  1  0.37108165  0.18618171  0.02314996  1
  O  O17  1  0.67405091  0.67953926  0.27458806  1
  O  O18  1  0.88168548  0.17991406  0.52233184  1
  O  O19  1  0.75332842  0.43661029  0.89225909  1
  O  O20  1  0.04620137  0.93214572  0.15064336  1
  O  O21  1  0.28058117  0.43544729  0.40103203  1
  O  O22  1  0.13285988  0.67374581  0.77737620  1
  O  O23  1  0.52309613  0.94888024  0.64063790  1
  O  O24  1  0.21607369  0.56283467  0.10222935  1
  O  O25  1  0.45856156  0.06571050  0.35650729  1
  O  O26  1  0.72774422  0.55397875  0.60722334  1
  O  O27  1  0.62944162  0.81381230  0.97803471  1
  O  O28  1  0.82571486  0.31525280  0.22844878  1
  O  O29  1  0.11434643  0.82830270  0.47114380  1
  O  O30  1  0.99899165  0.06492304  0.84867431  1
  O  O31  1  0.36412184  0.32292479  0.72478422  1
