# generated using pymatgen
data_Lu2CoGe4
_symmetry_space_group_name_H-M   'P 1'
_cell_length_a   4.07356640
_cell_length_b   4.07523347
_cell_length_c   8.09605763
_cell_angle_alpha   75.42304758
_cell_angle_beta   90.00000000
_cell_angle_gamma   90.00000000
_symmetry_Int_Tables_number   1
_chemical_formula_structural   Lu2CoGe4
_chemical_formula_sum   'Lu2 Co1 Ge4'
_cell_volume   130.07421382
_cell_formula_units_Z   1
loop_
 _symmetry_equiv_pos_site_id
 _symmetry_equiv_pos_as_xyz
  1  'x, y, z'
loop_
 _atom_site_type_symbol
 _atom_site_label
 _atom_site_symmetry_multiplicity
 _atom_site_fract_x
 _atom_site_fract_y
 _atom_site_fract_z
 _atom_site_occupancy
  Lu  Lu0  1  0.25000000  0.89555516  0.20888969  1
  Lu  Lu1  1  0.75000000  0.10384335  0.79231330  1
  Co  Co2  1  0.25000000  0.69022521  0.61954958  1
  Ge  Ge3  1  0.25000000  0.54509183  0.90981634  1
  Ge  Ge4  1  0.75000000  0.44004804  0.11990393  1
  Ge  Ge5  1  0.25000000  0.26127258  0.47745484  1
  Ge  Ge6  1  0.75000000  0.75896384  0.48207233  1
