# generated using pymatgen
data_MgTi2O5
_symmetry_space_group_name_H-M   'P 1'
_cell_length_a   3.77579421
_cell_length_b   5.32946727
_cell_length_c   9.94857258
_cell_angle_alpha   90.00000000
_cell_angle_beta   90.00000000
_cell_angle_gamma   69.25328096
_symmetry_Int_Tables_number   1
_chemical_formula_structural   MgTi2O5
_chemical_formula_sum   'Mg2 Ti4 O10'
_cell_volume   187.21330879
_cell_formula_units_Z   2
loop_
 _symmetry_equiv_pos_site_id
 _symmetry_equiv_pos_as_xyz
  1  'x, y, z'
loop_
 _atom_site_type_symbol
 _atom_site_label
 _atom_site_symmetry_multiplicity
 _atom_site_fract_x
 _atom_site_fract_y
 _atom_site_fract_z
 _atom_site_occupancy
  Mg  Mg0  1  0.85782263  0.28435474  0.93638356  1
  Mg  Mg1  1  0.14217737  0.71564526  0.43638356  1
  Ti  Ti2  1  0.13505937  0.72988127  0.05841918  1
  Ti  Ti3  1  0.86494063  0.27011873  0.55841918  1
  Ti  Ti4  1  0.81417150  0.37165699  0.25461130  1
  Ti  Ti5  1  0.18582850  0.62834301  0.75461130  1
  O  O6  1  0.25416388  0.49167223  0.23867927  1
  O  O7  1  0.74583612  0.50832777  0.73867927  1
  O  O8  1  0.70547177  0.58905646  0.42234763  1
  O  O9  1  0.31739875  0.36520249  0.58164196  1
  O  O10  1  0.68260125  0.63479751  0.08164196  1
  O  O11  1  0.29452823  0.41094354  0.92234763  1
  O  O12  1  0.95027602  0.09944796  0.38445753  1
  O  O13  1  0.04144334  0.91711332  0.62345957  1
  O  O14  1  0.95855666  0.08288668  0.12345957  1
  O  O15  1  0.04972398  0.90055204  0.88445753  1
