# generated using pymatgen
data_Lu(Fe5Mo)2
_symmetry_space_group_name_H-M   'P 1'
_cell_length_a   4.72119209
_cell_length_b   6.48386848
_cell_length_c   6.48386848
_cell_angle_alpha   97.35195621
_cell_angle_beta   111.35049698
_cell_angle_gamma   68.64950302
_symmetry_Int_Tables_number   1
_chemical_formula_structural   Lu(Fe5Mo)2
_chemical_formula_sum   'Lu1 Fe10 Mo2'
_cell_volume   172.17066605
_cell_formula_units_Z   1
loop_
 _symmetry_equiv_pos_site_id
 _symmetry_equiv_pos_as_xyz
  1  'x, y, z'
loop_
 _atom_site_type_symbol
 _atom_site_label
 _atom_site_symmetry_multiplicity
 _atom_site_fract_x
 _atom_site_fract_y
 _atom_site_fract_z
 _atom_site_occupancy
  Lu  Lu0  1  -0.00000000  0.00000000  -0.00000000  1
  Fe  Fe1  1  0.50000000  0.00000000  0.50000000  1
  Fe  Fe2  1  -0.00000000  0.00000000  0.50000000  1
  Fe  Fe3  1  0.50000000  0.50000000  -0.00000000  1
  Fe  Fe4  1  -0.00000000  0.50000000  -0.00000000  1
  Fe  Fe5  1  0.71781826  0.78218174  0.21781826  1
  Fe  Fe6  1  0.28218174  0.21781826  0.78218174  1
  Fe  Fe7  1  0.50000000  0.77826843  0.77826843  1
  Fe  Fe8  1  0.50000000  0.22173157  0.22173157  1
  Fe  Fe9  1  0.64266673  0.35733327  0.64266673  1
  Fe  Fe10  1  0.35733327  0.64266673  0.35733327  1
  Mo  Mo11  1  0.00000000  0.35640804  0.35640804  1
  Mo  Mo12  1  -0.00000000  0.64359196  0.64359196  1
