# generated using pymatgen
data_MnMoH2SeO7
_symmetry_space_group_name_H-M   'P 1'
_cell_length_a   6.61082359
_cell_length_b   7.18715960
_cell_length_c   12.98600009
_cell_angle_alpha   90.00000000
_cell_angle_beta   90.00000000
_cell_angle_gamma   90.13336750
_symmetry_Int_Tables_number   1
_chemical_formula_structural   MnMoH2SeO7
_chemical_formula_sum   'Mn4 Mo4 H8 Se4 O28'
_cell_volume   617.00272567
_cell_formula_units_Z   4
loop_
 _symmetry_equiv_pos_site_id
 _symmetry_equiv_pos_as_xyz
  1  'x, y, z'
loop_
 _atom_site_type_symbol
 _atom_site_label
 _atom_site_symmetry_multiplicity
 _atom_site_fract_x
 _atom_site_fract_y
 _atom_site_fract_z
 _atom_site_occupancy
  Mn  Mn0  1  0.47954700  0.50050815  0.39650459  1
  Mn  Mn1  1  0.52045300  0.49949185  0.89650459  1
  Mn  Mn2  1  0.89156710  0.99344203  0.66953931  1
  Mn  Mn3  1  0.10843290  0.00655797  0.16953931  1
  Mo  Mo4  1  0.41326244  0.24780405  0.65856635  1
  Mo  Mo5  1  0.41585877  0.74730556  0.66005649  1
  Mo  Mo6  1  0.58673756  0.75219595  0.15856635  1
  Mo  Mo7  1  0.58414123  0.25269444  0.16005649  1
  H  H8  1  0.87669695  0.38012351  0.43164860  1
  H  H9  1  0.89415975  0.59312645  0.43401187  1
  H  H10  1  0.12330305  0.61987649  0.93164860  1
  H  H11  1  0.10584025  0.40687355  0.93401187  1
  H  H12  1  0.77863533  0.91068557  0.46379448  1
  H  H13  1  0.22136467  0.08931443  0.96379448  1
  H  H14  1  0.00391889  0.96792161  0.43943363  1
  H  H15  1  0.99608111  0.03207839  0.93943363  1
  Se  Se16  1  0.87407621  0.49473453  0.71093857  1
  Se  Se17  1  0.12592379  0.50526547  0.21093857  1
  Se  Se18  1  0.58844914  0.99739424  0.88385140  1
  Se  Se19  1  0.41155086  0.00260576  0.38385140  1
  O  O20  1  0.82857332  0.00476785  0.83353709  1
  O  O21  1  0.17142668  0.99523215  0.33353709  1
  O  O22  1  0.73875717  0.29992517  0.66513147  1
  O  O23  1  0.74077711  0.69098568  0.66633211  1
  O  O24  1  0.26124283  0.70007483  0.16513147  1
  O  O25  1  0.25922289  0.30901432  0.16633211  1
  O  O26  1  0.39607744  0.49585720  0.71927755  1
  O  O27  1  0.60392256  0.50414280  0.21927755  1
  O  O28  1  0.46100512  0.18606058  0.82719120  1
  O  O29  1  0.47602731  0.80319687  0.82510766  1
  O  O30  1  0.53899488  0.81393942  0.32719120  1
  O  O31  1  0.52397269  0.19680313  0.32510766  1
  O  O32  1  0.40864386  0.31427822  0.52794978  1
  O  O33  1  0.41104064  0.68449028  0.52848508  1
  O  O34  1  0.59135614  0.68572178  0.02794978  1
  O  O35  1  0.58895936  0.31550972  0.02848508  1
  O  O36  1  0.15829420  0.17798348  0.67560637  1
  O  O37  1  0.16217908  0.81317385  0.68126047  1
  O  O38  1  0.84170580  0.82201652  0.17560637  1
  O  O39  1  0.83782092  0.18682615  0.18126047  1
  O  O40  1  0.53042042  0.99763800  0.64085809  1
  O  O41  1  0.46957958  0.00236200  0.14085809  1
  O  O42  1  0.81861787  0.49326822  0.83920077  1
  O  O43  1  0.18138213  0.50673178  0.33920077  1
  O  O44  1  0.79831596  0.49180218  0.44664277  1
  O  O45  1  0.20168404  0.50819782  0.94664277  1
  O  O46  1  0.90581385  0.94622836  0.49688431  1
  O  O47  1  0.09418615  0.05377164  0.99688431  1
