# generated using pymatgen
data_Li3Ti8O16
_symmetry_space_group_name_H-M   'P 1'
_cell_length_a   5.97467892
_cell_length_b   8.44883126
_cell_length_c   5.97467892
_cell_angle_alpha   90.00000000
_cell_angle_beta   90.00000000
_cell_angle_gamma   90.00000000
_symmetry_Int_Tables_number   1
_chemical_formula_structural   Li3Ti8O16
_chemical_formula_sum   'Li3 Ti8 O16'
_cell_volume   301.59614004
_cell_formula_units_Z   1
loop_
 _symmetry_equiv_pos_site_id
 _symmetry_equiv_pos_as_xyz
  1  'x, y, z'
loop_
 _atom_site_type_symbol
 _atom_site_label
 _atom_site_symmetry_multiplicity
 _atom_site_fract_x
 _atom_site_fract_y
 _atom_site_fract_z
 _atom_site_occupancy
  Li  Li0  1  0.75000000  0.62500000  0.50000000  1
  Li  Li1  1  0.75000000  0.87660819  0.00000000  1
  Li  Li2  1  0.25000000  0.37339181  0.50000000  1
  Ti  Ti3  1  0.25000000  0.75411913  0.24852015  1
  Ti  Ti4  1  0.75000000  0.24769325  0.75409936  1
  Ti  Ti5  1  0.25000000  0.75411913  0.75147985  1
  Ti  Ti6  1  0.75000000  0.24769325  0.24590064  1
  Ti  Ti7  1  0.49852015  0.49588087  -0.00000000  1
  Ti  Ti8  1  0.00409936  0.00230675  0.50000000  1
  Ti  Ti9  1  0.00147985  0.49588087  0.00000000  1
  Ti  Ti10  1  0.49590064  0.00230675  0.50000000  1
  O  O11  1  0.75000000  0.48769592  0.22541438  1
  O  O12  1  0.25000000  0.98462198  0.71987157  1
  O  O13  1  0.75000000  0.48769592  0.77458562  1
  O  O14  1  0.25000000  0.98462198  0.28012843  1
  O  O15  1  0.96987157  0.26537802  0.00000000  1
  O  O16  1  0.47541438  0.76230408  0.50000000  1
  O  O17  1  0.53012843  0.26537802  -0.00000000  1
  O  O18  1  0.02458562  0.76230408  0.50000000  1
  O  O19  1  0.25000000  0.51357293  0.77466941  1
  O  O20  1  0.75000000  0.01205426  0.27628575  1
  O  O21  1  0.25000000  0.51357293  0.22533059  1
  O  O22  1  0.75000000  0.01205426  0.72371425  1
  O  O23  1  0.02466941  0.73642707  -0.00000000  1
  O  O24  1  0.52628575  0.23794574  0.50000000  1
  O  O25  1  0.47533059  0.73642707  0.00000000  1
  O  O26  1  0.97371425  0.23794574  0.50000000  1
