# generated using pymatgen
data_MgTi2Nb2(PbO3)5
_symmetry_space_group_name_H-M   'P 1'
_cell_length_a   5.67261591
_cell_length_b   12.11402664
_cell_length_c   5.83617806
_cell_angle_alpha   101.74230993
_cell_angle_beta   60.92282730
_cell_angle_gamma   90.00000000
_symmetry_Int_Tables_number   1
_chemical_formula_structural   MgTi2Nb2(PbO3)5
_chemical_formula_sum   'Mg1 Ti2 Nb2 Pb5 O15'
_cell_volume   340.87040292
_cell_formula_units_Z   1
loop_
 _symmetry_equiv_pos_site_id
 _symmetry_equiv_pos_as_xyz
  1  'x, y, z'
loop_
 _atom_site_type_symbol
 _atom_site_label
 _atom_site_symmetry_multiplicity
 _atom_site_fract_x
 _atom_site_fract_y
 _atom_site_fract_z
 _atom_site_occupancy
  Mg  Mg0  1  0.69081330  0.90263710  0.61837340  1
  Ti  Ti1  1  0.88834532  0.30891181  0.22330935  1
  Ti  Ti2  1  0.48676739  0.50041403  0.02646522  1
  Nb  Nb3  1  0.29787661  0.09732848  0.40424678  1
  Nb  Nb4  1  0.09008439  0.70500027  0.81983123  1
  Pb  Pb5  1  0.97420919  0.01843388  0.05158062  1
  Pb  Pb6  1  0.57134193  0.20691671  0.85731514  1
  Pb  Pb7  1  0.16927323  0.40734937  0.66145254  1
  Pb  Pb8  1  0.76854732  0.60936469  0.46290435  1
  Pb  Pb9  1  0.37048844  0.81860046  0.25902212  1
  O  O10  1  0.31939221  0.58786136  0.36121558  1
  O  O11  1  0.72058065  0.39420663  0.55883871  1
  O  O12  1  0.11783087  0.19635470  0.76433825  1
  O  O13  1  0.49955200  0.00596308  0.00089600  1
  O  O14  1  0.91332092  0.79216621  0.17335815  1
  O  O15  1  0.41379672  0.78432067  0.66119632  1
  O  O16  1  0.81829914  0.58646535  0.85792296  1
  O  O17  1  0.22064497  0.39244615  0.05848442  1
  O  O18  1  0.62525188  0.19775442  0.26062479  1
  O  O19  1  0.01796250  0.99501402  0.46721529  1
  O  O20  1  0.92500696  0.78432067  0.66119632  1
  O  O21  1  0.32377789  0.58646535  0.85792296  1
  O  O22  1  0.72087061  0.39244615  0.05848442  1
  O  O23  1  0.11412332  0.19775442  0.26062479  1
  O  O24  1  0.51482222  0.99501402  0.46721529  1
