# generated using pymatgen
data_Li9Mn2Co5O16
_symmetry_space_group_name_H-M   'P 1'
_cell_length_a   3.01946371
_cell_length_b   10.71885668
_cell_length_c   9.97602460
_cell_angle_alpha   114.84372296
_cell_angle_beta   87.01219668
_cell_angle_gamma   85.58498544
_symmetry_Int_Tables_number   1
_chemical_formula_structural   Li9Mn2Co5O16
_chemical_formula_sum   'Li9 Mn2 Co5 O16'
_cell_volume   290.85090198
_cell_formula_units_Z   1
loop_
 _symmetry_equiv_pos_site_id
 _symmetry_equiv_pos_as_xyz
  1  'x, y, z'
loop_
 _atom_site_type_symbol
 _atom_site_label
 _atom_site_symmetry_multiplicity
 _atom_site_fract_x
 _atom_site_fract_y
 _atom_site_fract_z
 _atom_site_occupancy
  Li  Li0  1  0.87039560  0.25611260  0.93964683  1
  Li  Li1  1  0.13225351  0.74685024  0.05950956  1
  Li  Li2  1  0.36828635  0.25584417  0.19321766  1
  Li  Li3  1  0.37660673  0.25365309  0.69059576  1
  Li  Li4  1  0.62754554  0.74723518  0.81074429  1
  Li  Li5  1  0.87059972  0.25025545  0.43607377  1
  Li  Li6  1  0.12399207  0.74865570  0.56175724  1
  Li  Li7  1  0.62741626  0.74088842  0.30673090  1
  Li  Li8  1  0.24979421  0.49955958  0.12473768  1
  Mn  Mn9  1  0.99976339  0.00068136  -0.00002867  1
  Mn  Mn10  1  0.00040826  0.99925227  0.49990289  1
  Co  Co11  1  0.50003843  0.99926417  0.24972693  1
  Co  Co12  1  0.74938239  0.50205116  0.36687382  1
  Co  Co13  1  0.24986509  0.49961470  0.62480916  1
  Co  Co14  1  0.49860108  0.00097150  0.75044990  1
  Co  Co15  1  0.75027520  0.49867733  0.88356126  1
  O  O16  1  0.41600046  0.11716540  0.96118185  1
  O  O17  1  0.68950941  0.61500326  0.07067296  1
  O  O18  1  0.91345362  0.11343585  0.21429613  1
  O  O19  1  0.91404565  0.11359367  0.71358986  1
  O  O20  1  0.16374623  0.61450177  0.83295132  1
  O  O21  1  0.41539279  0.11551804  0.46008102  1
  O  O22  1  0.70626637  0.60979583  0.57935192  1
  O  O23  1  0.17732346  0.61547636  0.34598440  1
  O  O24  1  0.32223664  0.38552649  0.90412036  1
  O  O25  1  0.58250152  0.88560916  0.03954331  1
  O  O26  1  0.81280175  0.38440982  0.17977470  1
  O  O27  1  0.79541264  0.38952457  0.67113272  1
  O  O28  1  0.08950565  0.88533654  0.78654619  1
  O  O29  1  0.33566321  0.38615165  0.41677271  1
  O  O30  1  0.58170794  0.88555134  0.54027723  1
  O  O31  1  0.08920882  0.88383330  0.28541433  1
