# generated using pymatgen
data_La2MnCrO6
_symmetry_space_group_name_H-M   'P 1'
_cell_length_a   5.71201091
_cell_length_b   5.64866345
_cell_length_c   7.71932549
_cell_angle_alpha   89.34333343
_cell_angle_beta   90.00000000
_cell_angle_gamma   90.00000000
_symmetry_Int_Tables_number   1
_chemical_formula_structural   La2MnCrO6
_chemical_formula_sum   'La4 Mn2 Cr2 O12'
_cell_volume   249.04943333
_cell_formula_units_Z   2
loop_
 _symmetry_equiv_pos_site_id
 _symmetry_equiv_pos_as_xyz
  1  'x, y, z'
loop_
 _atom_site_type_symbol
 _atom_site_label
 _atom_site_symmetry_multiplicity
 _atom_site_fract_x
 _atom_site_fract_y
 _atom_site_fract_z
 _atom_site_occupancy
  La  La0  1  0.53818006  0.49374359  0.74972341  1
  La  La1  1  0.03818006  0.00625641  0.75027659  1
  La  La2  1  0.46181994  0.50625641  0.25027659  1
  La  La3  1  0.96181994  0.99374359  0.24972341  1
  Mn  Mn4  1  0.00000000  0.50000000  -0.00000000  1
  Mn  Mn5  1  0.50000000  0.00000000  0.50000000  1
  Cr  Cr6  1  -0.00000000  0.50000000  0.50000000  1
  Cr  Cr7  1  0.50000000  0.00000000  -0.00000000  1
  O  O8  1  0.69920935  0.70998677  0.03913835  1
  O  O9  1  0.19920935  0.79001323  0.46086165  1
  O  O10  1  0.29181120  0.29926438  0.53856071  1
  O  O11  1  0.79181120  0.20073562  0.96143929  1
  O  O12  1  0.30079065  0.29001323  0.96086165  1
  O  O13  1  0.80079065  0.20998677  0.53913835  1
  O  O14  1  0.70818880  0.70073562  0.46143929  1
  O  O15  1  0.20818880  0.79926438  0.03856071  1
  O  O16  1  0.47926830  0.92470718  0.74386154  1
  O  O17  1  0.97926830  0.57529282  0.75613846  1
  O  O18  1  0.52073170  0.07529282  0.25613846  1
  O  O19  1  0.02073170  0.42470718  0.24386154  1
