# generated using pymatgen
data_Li2Al2SiO6
_symmetry_space_group_name_H-M   'P 1'
_cell_length_a   5.31647027
_cell_length_b   5.31647023
_cell_length_c   5.78489292
_cell_angle_alpha   90.00000000
_cell_angle_beta   90.00000000
_cell_angle_gamma   59.93315561
_symmetry_Int_Tables_number   1
_chemical_formula_structural   Li2Al2SiO6
_chemical_formula_sum   'Li2 Al2 Si1 O6'
_cell_volume   141.50761491
_cell_formula_units_Z   1
loop_
 _symmetry_equiv_pos_site_id
 _symmetry_equiv_pos_as_xyz
  1  'x, y, z'
loop_
 _atom_site_type_symbol
 _atom_site_label
 _atom_site_symmetry_multiplicity
 _atom_site_fract_x
 _atom_site_fract_y
 _atom_site_fract_z
 _atom_site_occupancy
  Li  Li0  1  -0.00000000  0.00000000  0.61640198  1
  Li  Li1  1  -0.00000000  0.00000000  0.05026502  1
  Al  Al2  1  0.50000000  0.00000000  0.67110268  1
  Al  Al3  1  -0.00000000  0.50000000  0.99556432  1
  Si  Si4  1  0.50000000  0.50000000  0.33333300  1
  O  O5  1  0.21524261  0.59052873  0.17147405  1
  O  O6  1  0.59052873  0.21524261  0.49519295  1
  O  O7  1  0.17643752  0.17643752  0.83333300  1
  O  O8  1  0.78475739  0.40947127  0.17147405  1
  O  O9  1  0.40947127  0.78475739  0.49519295  1
  O  O10  1  0.82356248  0.82356248  0.83333300  1
