# generated using pymatgen
data_LaCeSbS5Br
_symmetry_space_group_name_H-M   'P 1'
_cell_length_a   5.58486360
_cell_length_b   9.02567756
_cell_length_c   17.77338916
_cell_angle_alpha   90.00000000
_cell_angle_beta   90.00000000
_cell_angle_gamma   90.00000000
_symmetry_Int_Tables_number   1
_chemical_formula_structural   LaCeSbS5Br
_chemical_formula_sum   'La4 Ce4 Sb4 S20 Br4'
_cell_volume   895.90639230
_cell_formula_units_Z   4
loop_
 _symmetry_equiv_pos_site_id
 _symmetry_equiv_pos_as_xyz
  1  'x, y, z'
loop_
 _atom_site_type_symbol
 _atom_site_label
 _atom_site_symmetry_multiplicity
 _atom_site_fract_x
 _atom_site_fract_y
 _atom_site_fract_z
 _atom_site_occupancy
  La  La0  1  0.25907173  0.34392768  0.05102045  1
  La  La1  1  0.74092827  0.15607232  0.55102045  1
  La  La2  1  0.24092827  0.84392768  0.94897955  1
  La  La3  1  0.75907173  0.65607232  0.44897955  1
  Ce  Ce4  1  0.23971940  0.27914956  0.77949220  1
  Ce  Ce5  1  0.76028060  0.22085044  0.27949220  1
  Ce  Ce6  1  0.26028060  0.77914956  0.22050780  1
  Ce  Ce7  1  0.73971940  0.72085044  0.72050780  1
  Sb  Sb8  1  0.78864356  0.51538922  0.91986807  1
  Sb  Sb9  1  0.21135644  0.98461078  0.41986807  1
  Sb  Sb10  1  0.71135644  0.01538922  0.08013193  1
  Sb  Sb11  1  0.28864356  0.48461078  0.58013193  1
  S  S12  1  0.55777828  0.84324041  0.57672997  1
  S  S13  1  0.44222172  0.65675959  0.07672997  1
  S  S14  1  0.94222172  0.34324041  0.42327003  1
  S  S15  1  0.05777828  0.15675959  0.92327003  1
  S  S16  1  0.74381766  0.78241571  0.89116582  1
  S  S17  1  0.25618234  0.71758429  0.39116582  1
  S  S18  1  0.75618234  0.28241571  0.10883418  1
  S  S19  1  0.24381766  0.21758429  0.60883418  1
  S  S20  1  0.74207584  0.42677959  0.79095613  1
  S  S21  1  0.25792416  0.07322041  0.29095613  1
  S  S22  1  0.75792416  0.92677959  0.20904387  1
  S  S23  1  0.24207584  0.57322041  0.70904387  1
  S  S24  1  0.43152342  0.15410254  0.92084255  1
  S  S25  1  0.56847658  0.34589746  0.42084255  1
  S  S26  1  0.06847658  0.65410254  0.07915745  1
  S  S27  1  0.93152342  0.84589746  0.57915745  1
  S  S28  1  0.23544068  0.51890959  0.90408532  1
  S  S29  1  0.76455932  0.98109041  0.40408532  1
  S  S30  1  0.26455932  0.01890959  0.09591468  1
  S  S31  1  0.73544068  0.48109041  0.59591468  1
  Br  Br32  1  0.25962282  0.40263070  0.22299117  1
  Br  Br33  1  0.74037718  0.09736930  0.72299117  1
  Br  Br34  1  0.24037718  0.90263070  0.77700883  1
  Br  Br35  1  0.75962282  0.59736930  0.27700883  1
