# generated using pymatgen
data_KBa2Ni2F9
_symmetry_space_group_name_H-M   'P 1'
_cell_length_a   5.83970949
_cell_length_b   5.83970981
_cell_length_c   7.78322284
_cell_angle_alpha   67.96658380
_cell_angle_beta   112.03341319
_cell_angle_gamma   120.00000189
_symmetry_Int_Tables_number   1
_chemical_formula_structural   KBa2Ni2F9
_chemical_formula_sum   'K1 Ba2 Ni2 F9'
_cell_volume   207.17860997
_cell_formula_units_Z   1
loop_
 _symmetry_equiv_pos_site_id
 _symmetry_equiv_pos_as_xyz
  1  'x, y, z'
loop_
 _atom_site_type_symbol
 _atom_site_label
 _atom_site_symmetry_multiplicity
 _atom_site_fract_x
 _atom_site_fract_y
 _atom_site_fract_z
 _atom_site_occupancy
  K  K0  1  0.78851405  0.21148595  0.36554216  1
  Ba  Ba1  1  0.00136045  0.99863955  0.00408136  1
  Ba  Ba2  1  0.20687100  0.79312900  0.62061299  1
  Ni  Ni3  1  0.60900805  0.39099195  0.82702416  1
  Ni  Ni4  1  0.39420024  0.60579976  0.18260071  1
  F  F5  1  0.73113848  0.26886152  0.68623724  1
  F  F6  1  0.22396027  0.26886152  0.68623724  1
  F  F7  1  0.73113848  0.77603973  0.68623724  1
  F  F8  1  0.26845820  0.73154180  0.31766723  1
  F  F9  1  0.78075083  0.73154180  0.31766723  1
  F  F10  1  0.26845820  0.21924917  0.31766723  1
  F  F11  1  0.00519839  0.50452832  0.99614174  1
  F  F12  1  0.49547168  0.99480161  0.99614174  1
  F  F13  1  0.49547168  0.50452832  0.99614174  1
