# generated using pymatgen
data_HfTiSe4
_symmetry_space_group_name_H-M   'P 1'
_cell_length_a   3.68262241
_cell_length_b   6.30651449
_cell_length_c   6.57436116
_cell_angle_alpha   89.93264014
_cell_angle_beta   89.99985296
_cell_angle_gamma   90.00243230
_symmetry_Int_Tables_number   1
_chemical_formula_structural   HfTiSe4
_chemical_formula_sum   'Hf1 Ti1 Se4'
_cell_volume   152.68622122
_cell_formula_units_Z   1
loop_
 _symmetry_equiv_pos_site_id
 _symmetry_equiv_pos_as_xyz
  1  'x, y, z'
loop_
 _atom_site_type_symbol
 _atom_site_label
 _atom_site_symmetry_multiplicity
 _atom_site_fract_x
 _atom_site_fract_y
 _atom_site_fract_z
 _atom_site_occupancy
  Hf  Hf0  1  0.50000000  0.50000000  0.00000000  1
  Ti  Ti1  1  -0.00000000  -0.00000000  0.00000000  1
  Se  Se2  1  0.99991017  0.32429106  0.24182912  1
  Se  Se3  1  0.49995294  0.84288497  0.23579334  1
  Se  Se4  1  0.50004706  0.15711503  0.76420666  1
  Se  Se5  1  0.00008983  0.67570894  0.75817088  1
