# generated using pymatgen
data_InBiSe3
_symmetry_space_group_name_H-M   'P 1'
_cell_length_a   4.12057306
_cell_length_b   4.12057382
_cell_length_c   10.25690688
_cell_angle_alpha   78.41226699
_cell_angle_beta   101.58773137
_cell_angle_gamma   119.99999716
_symmetry_Int_Tables_number   1
_chemical_formula_structural   InBiSe3
_chemical_formula_sum   'In1 Bi1 Se3'
_cell_volume   146.70822090
_cell_formula_units_Z   1
loop_
 _symmetry_equiv_pos_site_id
 _symmetry_equiv_pos_as_xyz
  1  'x, y, z'
loop_
 _atom_site_type_symbol
 _atom_site_label
 _atom_site_symmetry_multiplicity
 _atom_site_fract_x
 _atom_site_fract_y
 _atom_site_fract_z
 _atom_site_occupancy
  In  In0  1  0.39833898  0.60166102  0.19501695  1
  Bi  Bi1  1  0.60429396  0.39570604  0.81288189  1
  Se  Se2  1  0.77522780  0.22477220  0.32568339  1
  Se  Se3  1  0.21784262  0.78215738  0.65352785  1
  Se  Se4  1  0.00429664  0.99570336  0.01288992  1
