# generated using pymatgen
data_Li9Mn2Co5O16
_symmetry_space_group_name_H-M   'P 1'
_cell_length_a   3.01554490
_cell_length_b   7.78989070
_cell_length_c   12.50573764
_cell_angle_alpha   90.50109361
_cell_angle_beta   90.22731555
_cell_angle_gamma   82.15365210
_symmetry_Int_Tables_number   1
_chemical_formula_structural   Li9Mn2Co5O16
_chemical_formula_sum   'Li9 Mn2 Co5 O16'
_cell_volume   291.00672859
_cell_formula_units_Z   1
loop_
 _symmetry_equiv_pos_site_id
 _symmetry_equiv_pos_as_xyz
  1  'x, y, z'
loop_
 _atom_site_type_symbol
 _atom_site_label
 _atom_site_symmetry_multiplicity
 _atom_site_fract_x
 _atom_site_fract_y
 _atom_site_fract_z
 _atom_site_occupancy
  Li  Li0  1  0.81076487  0.37409238  0.06132006  1
  Li  Li1  1  0.05960039  0.88076165  0.31614403  1
  Li  Li2  1  0.31500818  0.37486427  0.55780262  1
  Li  Li3  1  0.18901139  0.62464797  0.94024807  1
  Li  Li4  1  0.43796398  0.12596014  0.19047577  1
  Li  Li5  1  0.68570250  0.62519033  0.44036861  1
  Li  Li6  1  0.55895861  0.87391361  0.80967593  1
  Li  Li7  1  0.94263913  0.12032183  0.68439745  1
  Li  Li8  1  0.49953159  0.00086100  0.49983994  1
  Mn  Mn9  1  0.00530784  0.00120597  0.00043946  1
  Mn  Mn10  1  0.74987369  0.50039073  0.74764893  1
  Co  Co11  1  0.25092916  0.49728676  0.25221120  1
  Co  Co12  1  0.37585027  0.25037238  0.87390923  1
  Co  Co13  1  0.63065590  0.74810092  0.12831081  1
  Co  Co14  1  0.87999208  0.23890941  0.37899770  1
  Co  Co15  1  0.11097220  0.76225382  0.61936899  1
  O  O16  1  0.37883293  0.18612951  0.02361343  1
  O  O17  1  0.66614710  0.68360253  0.27574961  1
  O  O18  1  0.89637969  0.19887799  0.51624822  1
  O  O19  1  0.74991471  0.43081789  0.89814868  1
  O  O20  1  0.05883819  0.92924875  0.14990596  1
  O  O21  1  0.25330032  0.42985223  0.39752562  1
  O  O22  1  0.12923279  0.68671908  0.76800219  1
  O  O23  1  0.50817462  0.92373513  0.65269900  1
  O  O24  1  0.20689754  0.56381138  0.10405692  1
  O  O25  1  0.48336008  0.07731236  0.34693122  1
  O  O26  1  0.73676629  0.57167750  0.59995273  1
  O  O27  1  0.63426954  0.81189948  0.97677955  1
  O  O28  1  0.82799885  0.31549300  0.23205193  1
  O  O29  1  0.10278019  0.80331298  0.48238211  1
  O  O30  1  0.99471738  0.07310339  0.85046151  1
  O  O31  1  0.36962802  0.31527365  0.72433050  1
