# generated using pymatgen
data_K6Mo6C5Se8N5
_symmetry_space_group_name_H-M   'P 1'
_cell_length_a   9.56609707
_cell_length_b   9.56609707
_cell_length_c   9.56609707
_cell_angle_alpha   60.49469649
_cell_angle_beta   75.30059266
_cell_angle_gamma   104.69940734
_symmetry_Int_Tables_number   1
_chemical_formula_structural   K6Mo6C5Se8N5
_chemical_formula_sum   'K6 Mo6 C5 Se8 N5'
_cell_volume   658.14434172
_cell_formula_units_Z   1
loop_
 _symmetry_equiv_pos_site_id
 _symmetry_equiv_pos_as_xyz
  1  'x, y, z'
loop_
 _atom_site_type_symbol
 _atom_site_label
 _atom_site_symmetry_multiplicity
 _atom_site_fract_x
 _atom_site_fract_y
 _atom_site_fract_z
 _atom_site_occupancy
  K  K0  1  0.64206112  0.36733599  0.72601533  1
  K  K1  1  0.35793888  0.63192355  0.27472513  1
  K  K2  1  0.90664868  0.27398467  0.36807645  1
  K  K3  1  0.09335132  0.72527487  0.63266401  1
  K  K4  1  0.50000000  0.24990904  0.25009096  1
  K  K5  1  0.50000000  0.74990904  0.75009096  1
  Mo  Mo6  1  0.20694697  0.05319975  0.84630454  1
  Mo  Mo7  1  0.79305303  0.94674850  0.15374722  1
  Mo  Mo8  1  0.10049572  0.15369546  0.05325150  1
  Mo  Mo9  1  0.89950428  0.84625278  0.94680025  1
  Mo  Mo10  1  0.00000000  0.79189397  0.20810603  1
  Mo  Mo11  1  -0.00000000  0.20469800  0.79530200  1
  C  C12  1  0.00000000  0.56549219  0.43450781  1
  C  C13  1  0.77345143  0.66739062  0.89450674  1
  C  C14  1  0.22654857  0.33204183  0.10606080  1
  C  C15  1  0.43810263  0.10549326  0.66795817  1
  C  C16  1  0.56189737  0.89393920  0.33260938  1
  Se  Se17  1  0.10373381  0.09614838  0.60921917  1
  Se  Se18  1  0.89626619  0.28704701  0.00758543  1
  Se  Se19  1  0.29463244  0.39078083  0.71295299  1
  Se  Se20  1  0.70536756  0.99241457  0.90385162  1
  Se  Se21  1  0.89631216  0.90357363  0.39099989  1
  Se  Se22  1  0.10368784  0.71268795  0.99273853  1
  Se  Se23  1  0.70542648  0.60900011  0.28731205  1
  Se  Se24  1  0.29457352  0.00726147  0.09642637  1
  N  N25  1  0.70157763  0.56976086  0.86805263  1
  N  N26  1  0.29842237  0.43036974  0.13181676  1
  N  N27  1  0.56218651  0.13194737  0.56963026  1
  N  N28  1  0.43781349  0.86818324  0.43023914  1
  N  N29  1  -0.00000000  0.44164212  0.55835788  1
