# generated using pymatgen
data_HoNO4
_symmetry_space_group_name_H-M   'P 1'
_cell_length_a   3.90979242
_cell_length_b   3.90979242
_cell_length_c   10.03181085
_cell_angle_alpha   90.00000000
_cell_angle_beta   90.00000000
_cell_angle_gamma   88.50556774
_symmetry_Int_Tables_number   1
_chemical_formula_structural   HoNO4
_chemical_formula_sum   'Ho2 N2 O8'
_cell_volume   153.29888324
_cell_formula_units_Z   2
loop_
 _symmetry_equiv_pos_site_id
 _symmetry_equiv_pos_as_xyz
  1  'x, y, z'
loop_
 _atom_site_type_symbol
 _atom_site_label
 _atom_site_symmetry_multiplicity
 _atom_site_fract_x
 _atom_site_fract_y
 _atom_site_fract_z
 _atom_site_occupancy
  Ho  Ho0  1  0.70876697  0.70876697  0.11294378  1
  Ho  Ho1  1  0.20876697  0.20876697  0.88705622  1
  N  N2  1  0.83260690  0.83260690  0.66698346  1
  N  N3  1  0.33260690  0.33260690  0.33301654  1
  O  O4  1  0.71925855  0.71925855  0.56445409  1
  O  O5  1  0.21925855  0.21925855  0.43554591  1
  O  O6  1  0.22034509  0.72034509  0.00000000  1
  O  O7  1  0.72034509  0.22034509  0.00000000  1
  O  O8  1  0.20232328  0.60069920  0.27238410  1
  O  O9  1  0.60069920  0.20232328  0.27238410  1
  O  O10  1  0.70232328  0.10069920  0.72761590  1
  O  O11  1  0.10069920  0.70232328  0.72761590  1
