# generated using pymatgen
data_In2AgTe3I
_symmetry_space_group_name_H-M   'P 1'
_cell_length_a   4.54325417
_cell_length_b   7.84596176
_cell_length_c   8.08261569
_cell_angle_alpha   81.97912402
_cell_angle_beta   90.00000000
_cell_angle_gamma   106.82971138
_symmetry_Int_Tables_number   1
_chemical_formula_structural   In2AgTe3I
_chemical_formula_sum   'In2 Ag1 Te3 I1'
_cell_volume   272.82843760
_cell_formula_units_Z   1
loop_
 _symmetry_equiv_pos_site_id
 _symmetry_equiv_pos_as_xyz
  1  'x, y, z'
loop_
 _atom_site_type_symbol
 _atom_site_label
 _atom_site_symmetry_multiplicity
 _atom_site_fract_x
 _atom_site_fract_y
 _atom_site_fract_z
 _atom_site_occupancy
  In  In0  1  0.43718492  0.87436984  0.18737372  1
  In  In1  1  0.18909971  0.37819941  0.93718158  1
  Ag  Ag2  1  0.69126570  0.38253141  0.44742057  1
  Te  Te3  1  0.99433974  0.98867947  0.98051706  1
  Te  Te4  1  0.75785049  0.51570097  0.75187523  1
  Te  Te5  1  0.24754337  0.49508675  0.25800458  1
  I  I6  1  0.49521607  0.99043215  0.50012726  1
