# generated using pymatgen
data_Ho2Fe17C
_symmetry_space_group_name_H-M   'P 1'
_cell_length_a   8.28622712
_cell_length_b   8.49850860
_cell_length_c   8.54075291
_cell_angle_alpha   119.84181156
_cell_angle_beta   90.00000000
_cell_angle_gamma   90.00000000
_symmetry_Int_Tables_number   1
_chemical_formula_structural   Ho2Fe17C
_chemical_formula_sum   'Ho4 Fe34 C2'
_cell_volume   521.69467732
_cell_formula_units_Z   2
loop_
 _symmetry_equiv_pos_site_id
 _symmetry_equiv_pos_as_xyz
  1  'x, y, z'
loop_
 _atom_site_type_symbol
 _atom_site_label
 _atom_site_symmetry_multiplicity
 _atom_site_fract_x
 _atom_site_fract_y
 _atom_site_fract_z
 _atom_site_occupancy
  Ho  Ho0  1  0.75000000  0.33111732  0.66221555  1
  Ho  Ho1  1  0.25000000  0.66668995  0.33336497  1
  Ho  Ho2  1  0.75000000  0.00341175  0.00680948  1
  Ho  Ho3  1  0.25000000  0.99947259  0.99893556  1
  Fe  Fe4  1  0.75000000  0.94793086  0.61980003  1
  Fe  Fe5  1  0.75000000  0.67197918  0.05178674  1
  Fe  Fe6  1  0.75000000  0.37158153  0.32877998  1
  Fe  Fe7  1  0.75000000  0.67187553  0.61981674  1
  Fe  Fe8  1  0.75000000  0.37980595  0.05182658  1
  Fe  Fe9  1  0.75000000  0.95720103  0.32874707  1
  Fe  Fe10  1  0.25000000  0.04188405  0.36950393  1
  Fe  Fe11  1  0.25000000  0.32715033  0.95782570  1
  Fe  Fe12  1  0.25000000  0.62889396  0.67198005  1
  Fe  Fe13  1  0.25000000  0.32762350  0.36950225  1
  Fe  Fe14  1  0.25000000  0.63061380  0.95773871  1
  Fe  Fe15  1  0.25000000  0.04311023  0.67200616  1
  Fe  Fe16  1  0.39309442  0.33324709  0.66653274  1
  Fe  Fe17  1  0.60524652  0.66684332  0.33369332  1
  Fe  Fe18  1  0.89475348  0.66684332  0.33369332  1
  Fe  Fe19  1  0.10690558  0.33324709  0.66653274  1
  Fe  Fe20  1  0.51803755  0.66644459  0.83290944  1
  Fe  Fe21  1  0.51799431  0.16565780  0.33129497  1
  Fe  Fe22  1  0.51803228  0.16646667  0.83291587  1
  Fe  Fe23  1  0.48074818  0.33413697  0.16804200  1
  Fe  Fe24  1  0.47964501  0.83231339  0.66459892  1
  Fe  Fe25  1  0.48073505  0.83389399  0.16803981  1
  Fe  Fe26  1  0.01925182  0.33413697  0.16804200  1
  Fe  Fe27  1  0.02035499  0.83231339  0.66459892  1
  Fe  Fe28  1  0.01926495  0.83389399  0.16803981  1
  Fe  Fe29  1  0.98196245  0.66644459  0.83290944  1
  Fe  Fe30  1  0.98200569  0.16565780  0.33129497  1
  Fe  Fe31  1  0.98196772  0.16646667  0.83291587  1
  Fe  Fe32  1  0.49773615  0.99762912  0.49800659  1
  Fe  Fe33  1  0.49588732  0.50208245  0.00417881  1
  Fe  Fe34  1  0.49774665  0.50040239  0.49801902  1
  Fe  Fe35  1  0.00226385  0.99762912  0.49800659  1
  Fe  Fe36  1  0.00411268  0.50208245  0.00417881  1
  Fe  Fe37  1  0.00225335  0.50040239  0.49801902  1
  C  C38  1  0.75000000  0.16517740  0.83445934  1
  C  C39  1  0.75000000  0.66924548  0.83443822  1
