# generated using pymatgen
data_Li9Mn2Co5O16
_symmetry_space_group_name_H-M   'P 1'
_cell_length_a   3.01574478
_cell_length_b   5.99727132
_cell_length_c   16.10235043
_cell_angle_alpha   89.14690069
_cell_angle_beta   89.13643625
_cell_angle_gamma   94.43315605
_symmetry_Int_Tables_number   1
_chemical_formula_structural   Li9Mn2Co5O16
_chemical_formula_sum   'Li9 Mn2 Co5 O16'
_cell_volume   290.28903402
_cell_formula_units_Z   1
loop_
 _symmetry_equiv_pos_site_id
 _symmetry_equiv_pos_as_xyz
  1  'x, y, z'
loop_
 _atom_site_type_symbol
 _atom_site_label
 _atom_site_symmetry_multiplicity
 _atom_site_fract_x
 _atom_site_fract_y
 _atom_site_fract_z
 _atom_site_occupancy
  Li  Li0  1  0.99995420  0.49901664  0.99810745  1
  Li  Li1  1  0.50211875  0.25097239  0.12772060  1
  Li  Li2  1  0.00208532  0.00760585  0.25352695  1
  Li  Li3  1  0.50220937  0.74840178  0.87445445  1
  Li  Li4  1  0.00055730  0.00021514  0.75011501  1
  Li  Li5  1  0.49686334  0.24890465  0.62331505  1
  Li  Li6  1  0.99843633  0.49336847  0.49818829  1
  Li  Li7  1  0.49842653  0.75035814  0.37468111  1
  Li  Li8  1  0.49960405  0.24840194  0.37585542  1
  Mn  Mn9  1  0.99944177  0.00334716  0.99920604  1
  Mn  Mn10  1  0.50262397  0.74752421  0.12774250  1
  Co  Co11  1  0.00679600  0.48686314  0.25666673  1
  Co  Co12  1  0.99517690  0.00869839  0.49544184  1
  Co  Co13  1  0.50440175  0.74907443  0.62369779  1
  Co  Co14  1  0.00245392  0.50197620  0.74806203  1
  Co  Co15  1  0.49305078  0.25404317  0.87293904  1
  O  O16  1  0.47418626  0.24593773  0.99298775  1
  O  O17  1  0.97280258  0.99299244  0.12086668  1
  O  O18  1  0.47536788  0.73757764  0.24749387  1
  O  O19  1  0.97008178  0.48987205  0.86924596  1
  O  O20  1  0.51789095  0.74003402  0.74296682  1
  O  O21  1  0.97290858  0.98428385  0.61519659  1
  O  O22  1  0.47310922  0.22899189  0.50026822  1
  O  O23  1  0.99597247  0.50239914  0.36401507  1
  O  O24  1  0.53096638  0.75535968  0.00518221  1
  O  O25  1  0.02569738  0.50558379  0.13605620  1
  O  O26  1  0.52386122  0.26841970  0.25158278  1
  O  O27  1  0.02801878  0.01496566  0.87782943  1
  O  O28  1  0.48447876  0.26377576  0.75422213  1
  O  O29  1  0.02716146  0.51217975  0.62821501  1
  O  O30  1  0.52189528  0.76402978  0.50629762  1
  O  O31  1  0.00140073  0.99482545  0.38785236  1
