# generated using pymatgen
data_In6Sn8S19
_symmetry_space_group_name_H-M   'P 1'
_cell_length_a   3.86470299
_cell_length_b   15.14049756
_cell_length_c   15.06539991
_cell_angle_alpha   64.62329885
_cell_angle_beta   82.83868904
_cell_angle_gamma   97.99391906
_symmetry_Int_Tables_number   1
_chemical_formula_structural   In6Sn8S19
_chemical_formula_sum   'In6 Sn8 S19'
_cell_volume   771.82388223
_cell_formula_units_Z   1
loop_
 _symmetry_equiv_pos_site_id
 _symmetry_equiv_pos_as_xyz
  1  'x, y, z'
loop_
 _atom_site_type_symbol
 _atom_site_label
 _atom_site_symmetry_multiplicity
 _atom_site_fract_x
 _atom_site_fract_y
 _atom_site_fract_z
 _atom_site_occupancy
  In  In0  1  0.46934039  0.86481465  0.92330063  1
  In  In1  1  0.52983472  0.13513907  0.07845506  1
  In  In2  1  0.12991525  0.11599567  0.85461942  1
  In  In3  1  0.86998610  0.88415856  0.14579578  1
  In  In4  1  0.14859223  0.40523204  0.10759580  1
  In  In5  1  0.55618718  0.76559214  0.65462578  1
  Sn  Sn6  1  0.25856294  0.93009168  0.40259689  1
  Sn  Sn7  1  0.73499100  0.06097610  0.60129631  1
  Sn  Sn8  1  0.80687798  0.38241080  0.77379181  1
  Sn  Sn9  1  0.19670132  0.61970316  0.22385891  1
  Sn  Sn10  1  0.85050692  0.59370106  0.89154183  1
  Sn  Sn11  1  0.44501737  0.23552954  0.34598471  1
  Sn  Sn12  1  0.98883286  0.63311736  0.46764591  1
  Sn  Sn13  1  0.01209270  0.36773432  0.52961131  1
  S  S14  1  0.96077161  0.63407670  0.70577712  1
  S  S15  1  0.03713471  0.36539761  0.30054295  1
  S  S16  1  0.85438533  0.77316779  0.05453721  1
  S  S17  1  0.14502400  0.22721137  0.94774222  1
  S  S18  1  0.55093996  0.26648680  0.15760118  1
  S  S19  1  0.44382346  0.73015679  0.84946907  1
  S  S20  1  0.73300312  0.53592557  0.07892650  1
  S  S21  1  0.27027630  0.46736175  0.91446040  1
  S  S22  1  0.08528510  0.97320677  0.80212833  1
  S  S23  1  0.91369390  0.02530256  0.19786790  1
  S  S24  1  0.15567410  0.90555412  0.59434875  1
  S  S25  1  0.84875819  0.10129433  0.40056072  1
  S  S26  1  0.25290130  0.77946116  0.26235025  1
  S  S27  1  0.74692815  0.21962910  0.73735620  1
  S  S28  1  0.58601084  0.55082406  0.37188424  1
  S  S29  1  0.41419677  0.44978957  0.62768800  1
  S  S30  1  0.50128767  0.00058253  0.99874091  1
  S  S31  1  0.35144474  0.21613728  0.52719363  1
  S  S32  1  0.65102179  0.78423801  0.47010427  1
