# generated using pymatgen
data_K6Sb2H18S8O9
_symmetry_space_group_name_H-M   'P 1'
_cell_length_a   7.80879271
_cell_length_b   12.92692258
_cell_length_c   13.96918312
_cell_angle_alpha   89.60619489
_cell_angle_beta   90.00000000
_cell_angle_gamma   90.00000000
_symmetry_Int_Tables_number   1
_chemical_formula_structural   K6Sb2H18S8O9
_chemical_formula_sum   'K12 Sb4 H36 S16 O18'
_cell_volume   1410.06714686
_cell_formula_units_Z   2
loop_
 _symmetry_equiv_pos_site_id
 _symmetry_equiv_pos_as_xyz
  1  'x, y, z'
loop_
 _atom_site_type_symbol
 _atom_site_label
 _atom_site_symmetry_multiplicity
 _atom_site_fract_x
 _atom_site_fract_y
 _atom_site_fract_z
 _atom_site_occupancy
  K  K0  1  0.05621816  0.92330700  0.10386160  1
  K  K1  1  0.55729527  0.07599979  0.39624246  1
  K  K2  1  0.94270473  0.07599979  0.89624246  1
  K  K3  1  0.44378184  0.92330700  0.60386160  1
  K  K4  1  0.57814517  0.81318018  0.18870969  1
  K  K5  1  0.07704008  0.18669177  0.31225817  1
  K  K6  1  0.42295992  0.18669177  0.81225817  1
  K  K7  1  0.92185483  0.81318018  0.68870969  1
  K  K8  1  0.37000963  0.50027686  0.31623429  1
  K  K9  1  0.86657603  0.50067788  0.17653378  1
  K  K10  1  0.63342397  0.50067788  0.67653378  1
  K  K11  1  0.12999037  0.50027686  0.81623429  1
  Sb  Sb12  1  0.00262359  0.75656309  0.35409033  1
  Sb  Sb13  1  0.50401188  0.24260924  0.14481834  1
  Sb  Sb14  1  0.99598812  0.24260924  0.64481834  1
  Sb  Sb15  1  0.49737641  0.75656309  0.85409033  1
  H  H16  1  0.91678359  0.80812098  0.89634410  1
  H  H17  1  0.41762797  0.19125612  0.60394133  1
  H  H18  1  0.08237203  0.19125612  0.10394133  1
  H  H19  1  0.58321641  0.80812098  0.39634410  1
  H  H20  1  0.82961600  0.69304740  0.02467312  1
  H  H21  1  0.33149320  0.30366933  0.47579173  1
  H  H22  1  0.16850680  0.30366933  0.97579173  1
  H  H23  1  0.67038400  0.69304740  0.52467312  1
  H  H24  1  0.67513060  0.93954611  0.98372482  1
  H  H25  1  0.17529239  0.06033266  0.51650771  1
  H  H26  1  0.32470761  0.06033266  0.01650771  1
  H  H27  1  0.82486940  0.93954611  0.48372482  1
  H  H28  1  0.95529059  0.70237959  0.11483004  1
  H  H29  1  0.45704922  0.29604326  0.38505224  1
  H  H30  1  0.04295078  0.29604326  0.88505224  1
  H  H31  1  0.54470941  0.70237959  0.61483004  1
  H  H32  1  0.99883588  0.40025271  0.41973324  1
  H  H33  1  0.50386168  0.59938144  0.07928592  1
  H  H34  1  0.99613832  0.59938144  0.57928592  1
  H  H35  1  0.50116412  0.40025271  0.91973324  1
  H  H36  1  0.63835140  0.00763835  0.07424760  1
  H  H37  1  0.13851867  0.99309830  0.42529180  1
  H  H38  1  0.36148133  0.99309830  0.92529180  1
  H  H39  1  0.86164860  0.00763835  0.57424760  1
  H  H40  1  0.94500666  0.51121626  0.38930749  1
  H  H41  1  0.45173689  0.48781794  0.10976492  1
  H  H42  1  0.04826311  0.48781794  0.60976492  1
  H  H43  1  0.55499334  0.51121626  0.88930749  1
  H  H44  1  0.11251986  0.82454857  0.91277031  1
  H  H45  1  0.61335842  0.17592174  0.58669593  1
  H  H46  1  0.88664158  0.17592174  0.08669593  1
  H  H47  1  0.38748014  0.82454857  0.41277031  1
  H  H48  1  0.32056964  0.59957173  0.50885284  1
  H  H49  1  0.17943036  0.59957173  0.00885284  1
  H  H50  1  0.32545863  0.48254917  0.53926076  1
  H  H51  1  0.17454137  0.48254917  0.03926076  1
  S  S52  1  0.15835656  0.74529954  0.49884733  1
  S  S53  1  0.65949319  0.25648645  0.00208946  1
  S  S54  1  0.84050681  0.25648645  0.50208946  1
  S  S55  1  0.34164344  0.74529954  0.99884733  1
  S  S56  1  0.17054737  0.70127342  0.22409264  1
  S  S57  1  0.66758935  0.30085383  0.27578411  1
  S  S58  1  0.83241065  0.30085383  0.77578411  1
  S  S59  1  0.32945263  0.70127342  0.72409264  1
  S  S60  1  0.91728733  0.93029435  0.32786052  1
  S  S61  1  0.41344311  0.07053293  0.17374619  1
  S  S62  1  0.08655689  0.07053293  0.67374619  1
  S  S63  1  0.58271267  0.93029435  0.82786052  1
  S  S64  1  0.75092147  0.65517839  0.36687567  1
  S  S65  1  0.24778900  0.34360997  0.13431536  1
  S  S66  1  0.25221100  0.34360997  0.63431536  1
  S  S67  1  0.74907853  0.65517839  0.86687567  1
  O  O68  1  0.00659858  0.86151010  0.89353661  1
  O  O69  1  0.50803926  0.13831753  0.60622339  1
  O  O70  1  0.99196074  0.13831753  0.10622339  1
  O  O71  1  0.49340142  0.86151010  0.39353661  1
  O  O72  1  0.72220969  0.95881751  0.04704014  1
  O  O73  1  0.22310472  0.04103685  0.45342335  1
  O  O74  1  0.27689528  0.04103685  0.95342335  1
  O  O75  1  0.77779031  0.95881751  0.54704014  1
  O  O76  1  0.03135683  0.45755339  0.37659691  1
  O  O77  1  0.53307439  0.54337639  0.12453516  1
  O  O78  1  0.96692561  0.54337639  0.62453516  1
  O  O79  1  0.46864317  0.45755339  0.87659691  1
  O  O80  1  0.83766022  0.71640031  0.09166599  1
  O  O81  1  0.33782873  0.28544516  0.40749831  1
  O  O82  1  0.16217127  0.28544516  0.90749831  1
  O  O83  1  0.66233978  0.71640031  0.59166599  1
  O  O84  1  0.39705079  0.53821640  0.51194429  1
  O  O85  1  0.10294921  0.53821640  0.01194429  1
