# generated using pymatgen
data_Hf3TaFe8
_symmetry_space_group_name_H-M   'P 1'
_cell_length_a   4.92642507
_cell_length_b   4.92642507
_cell_length_c   7.99647091
_cell_angle_alpha   89.99666347
_cell_angle_beta   90.00333653
_cell_angle_gamma   120.00135539
_symmetry_Int_Tables_number   1
_chemical_formula_structural   Hf3TaFe8
_chemical_formula_sum   'Hf3 Ta1 Fe8'
_cell_volume   168.06869336
_cell_formula_units_Z   1
loop_
 _symmetry_equiv_pos_site_id
 _symmetry_equiv_pos_as_xyz
  1  'x, y, z'
loop_
 _atom_site_type_symbol
 _atom_site_label
 _atom_site_symmetry_multiplicity
 _atom_site_fract_x
 _atom_site_fract_y
 _atom_site_fract_z
 _atom_site_occupancy
  Hf  Hf0  1  0.33330572  0.66669428  0.43970036  1
  Hf  Hf1  1  0.33335317  0.66664683  0.06260957  1
  Hf  Hf2  1  0.66666114  0.33333886  0.93518932  1
  Ta  Ta3  1  0.66662250  0.33337750  0.56264852  1
  Fe  Fe4  1  0.00004163  0.99995837  0.50081118  1
  Fe  Fe5  1  0.00002233  0.99997767  0.99971459  1
  Fe  Fe6  1  0.16781745  0.33563581  0.74760884  1
  Fe  Fe7  1  0.16783589  0.83216411  0.74759920  1
  Fe  Fe8  1  0.66436419  0.83218255  0.74760884  1
  Fe  Fe9  1  0.83158810  0.66320222  0.25216781  1
  Fe  Fe10  1  0.83159009  0.16840991  0.25217397  1
  Fe  Fe11  1  0.33679778  0.16841190  0.25216781  1
