# generated using pymatgen
data_K2SnHOF6
_symmetry_space_group_name_H-M   'P 1'
_cell_length_a   9.34736513
_cell_length_b   9.34736513
_cell_length_c   10.92864828
_cell_angle_alpha   67.72481728
_cell_angle_beta   67.72481728
_cell_angle_gamma   96.52521814
_symmetry_Int_Tables_number   1
_chemical_formula_structural   K2SnHOF6
_chemical_formula_sum   'K8 Sn4 H4 O4 F24'
_cell_volume   779.88118246
_cell_formula_units_Z   4
loop_
 _symmetry_equiv_pos_site_id
 _symmetry_equiv_pos_as_xyz
  1  'x, y, z'
loop_
 _atom_site_type_symbol
 _atom_site_label
 _atom_site_symmetry_multiplicity
 _atom_site_fract_x
 _atom_site_fract_y
 _atom_site_fract_z
 _atom_site_occupancy
  K  K0  1  0.25070683  0.00326378  0.99900854  1
  K  K1  1  0.00227232  0.74971537  0.50099146  1
  K  K2  1  0.74971537  0.00227232  0.00099146  1
  K  K3  1  0.00326378  0.25070683  0.49900854  1
  K  K4  1  0.40548875  0.15548875  0.25000000  1
  K  K5  1  0.84268776  0.59268776  0.25000000  1
  K  K6  1  0.59268776  0.84268776  0.75000000  1
  K  K7  1  0.15548875  0.40548875  0.75000000  1
  Sn  Sn8  1  0.34491872  0.66045867  0.24558055  1
  Sn  Sn9  1  0.90603923  0.09049927  0.25441945  1
  Sn  Sn10  1  0.66045867  0.34491872  0.74558055  1
  Sn  Sn11  1  0.09049927  0.90603923  0.75441945  1
  H  H12  1  0.60406541  0.48897874  0.14812743  1
  H  H13  1  0.63710617  0.25219284  0.35187257  1
  H  H14  1  0.48897874  0.60406541  0.64812743  1
  H  H15  1  0.25219284  0.63710617  0.85187257  1
  O  O16  1  0.66820105  0.41399597  0.16746637  1
  O  O17  1  0.58146234  0.33566742  0.33253363  1
  O  O18  1  0.33566742  0.58146234  0.83253363  1
  O  O19  1  0.41399597  0.66820105  0.66746637  1
  F  F20  1  0.20603699  0.53135945  0.46704731  1
  F  F21  1  0.99840676  0.17308430  0.03295269  1
  F  F22  1  0.46833960  0.80398637  0.02404611  1
  F  F23  1  0.82803249  0.99238571  0.47595389  1
  F  F24  1  0.80398637  0.46833960  0.52404611  1
  F  F25  1  0.99238571  0.82803249  0.97595389  1
  F  F26  1  0.53135945  0.20603699  0.96704731  1
  F  F27  1  0.17308430  0.99840676  0.53295269  1
  F  F28  1  0.34134067  0.45332217  0.23089319  1
  F  F29  1  0.68421536  0.07223386  0.26910681  1
  F  F30  1  0.56210375  0.67961403  0.24198465  1
  F  F31  1  0.92159868  0.30408840  0.25801535  1
  F  F32  1  0.67961403  0.56210375  0.74198465  1
  F  F33  1  0.30408840  0.92159868  0.75801535  1
  F  F34  1  0.45332217  0.34134067  0.73089319  1
  F  F35  1  0.07223386  0.68421536  0.76910681  1
  F  F36  1  0.14035101  0.66433960  0.22521462  1
  F  F37  1  0.88955423  0.86556564  0.27478538  1
  F  F38  1  0.33487641  0.86241847  0.26977700  1
  F  F39  1  0.13219547  0.10465342  0.23022300  1
  F  F40  1  0.86241847  0.33487641  0.76977700  1
  F  F41  1  0.10465342  0.13219547  0.73022300  1
  F  F42  1  0.66433960  0.14035101  0.72521462  1
  F  F43  1  0.86556564  0.88955423  0.77478538  1
