# generated using pymatgen
data_Lu12Co31Sn16
_symmetry_space_group_name_H-M   'P 1'
_cell_length_a   7.45413811
_cell_length_b   8.70669389
_cell_length_c   15.17417484
_cell_angle_alpha   89.99969772
_cell_angle_beta   89.95711673
_cell_angle_gamma   89.99812493
_symmetry_Int_Tables_number   1
_chemical_formula_structural   Lu12Co31Sn16
_chemical_formula_sum   'Lu12 Co31 Sn16'
_cell_volume   984.81730918
_cell_formula_units_Z   1
loop_
 _symmetry_equiv_pos_site_id
 _symmetry_equiv_pos_as_xyz
  1  'x, y, z'
loop_
 _atom_site_type_symbol
 _atom_site_label
 _atom_site_symmetry_multiplicity
 _atom_site_fract_x
 _atom_site_fract_y
 _atom_site_fract_z
 _atom_site_occupancy
  Lu  Lu0  1  0.49762359  0.28750891  0.23801124  1
  Lu  Lu1  1  0.50527344  0.78521790  0.73867559  1
  Lu  Lu2  1  0.49760739  0.71245159  0.23804428  1
  Lu  Lu3  1  0.50525850  0.21473402  0.73874621  1
  Lu  Lu4  1  0.49895888  0.49990325  0.02456505  1
  Lu  Lu5  1  0.50470427  0.99989178  0.52288211  1
  Lu  Lu6  1  0.99884155  0.21256867  0.26195124  1
  Lu  Lu7  1  0.99474067  0.70960700  0.76327416  1
  Lu  Lu8  1  0.99885826  0.78735978  0.26199675  1
  Lu  Lu9  1  0.99480512  0.29038172  0.76331676  1
  Lu  Lu10  1  0.99564470  0.99984984  0.47319886  1
  Lu  Lu11  1  0.99915190  0.49998928  0.97570406  1
  Co  Co12  1  0.03200006  0.65134724  0.45039473  1
  Co  Co13  1  0.03250083  0.15022468  0.94937382  1
  Co  Co14  1  0.03199557  0.34884592  0.45047104  1
  Co  Co15  1  0.03244899  0.84987711  0.94941946  1
  Co  Co16  1  0.02936850  -0.00002917  0.09993326  1
  Co  Co17  1  0.03263979  0.50002092  0.59878569  1
  Co  Co18  1  0.53048867  0.84875546  0.04995923  1
  Co  Co19  1  0.52869602  0.34806725  0.55065927  1
  Co  Co20  1  0.53045486  0.15127734  0.04993644  1
  Co  Co21  1  0.52871273  0.65202188  0.55069535  1
  Co  Co22  1  0.52874813  0.50000263  0.40053841  1
  Co  Co23  1  0.52798989  0.00002848  0.89961965  1
  Co  Co24  1  0.33950163  0.74329003  0.42059964  1
  Co  Co25  1  0.34078583  0.24083104  0.91834888  1
  Co  Co26  1  0.33947418  0.25673337  0.42061356  1
  Co  Co27  1  0.34069301  0.75927126  0.91836354  1
  Co  Co28  1  0.34209658  0.00001490  0.16187765  1
  Co  Co29  1  0.33897095  0.50002153  0.66124992  1
  Co  Co30  1  0.84371046  0.75771340  0.08041504  1
  Co  Co31  1  0.84797024  0.25791710  0.58080937  1
  Co  Co32  1  0.84365151  0.24229031  0.08043215  1
  Co  Co33  1  0.84798308  0.74212527  0.58083047  1
  Co  Co34  1  0.84512628  0.49999688  0.33833827  1
  Co  Co35  1  0.84806460  0.99996145  0.83789721  1
  Co  Co36  1  0.78674300  0.00000683  0.99900104  1
  Co  Co37  1  0.78636808  0.50004491  0.50005816  1
  Co  Co38  1  0.28586388  0.00002309  0.99916731  1
  Co  Co39  1  0.28535051  0.50002581  0.50207106  1
  Co  Co40  1  0.65675072  0.99995521  0.33325809  1
  Co  Co41  1  0.65780501  0.49997182  0.83218930  1
  Co  Co42  1  0.15165460  0.50002301  0.16731649  1
  Sn  Sn43  1  0.71192135  0.75633307  0.41362093  1
  Sn  Sn44  1  0.71232814  0.25800197  0.91430810  1
  Sn  Sn45  1  0.71192365  0.24360881  0.41360032  1
  Sn  Sn46  1  0.71228009  0.74199712  0.91435420  1
  Sn  Sn47  1  0.71129804  -0.00006004  0.17170912  1
  Sn  Sn48  1  0.71142766  0.49997682  0.67053319  1
  Sn  Sn49  1  0.21375465  0.74196516  0.08635522  1
  Sn  Sn50  1  0.21017867  0.22868232  0.59063088  1
  Sn  Sn51  1  0.21369156  0.25808002  0.08640274  1
  Sn  Sn52  1  0.21014577  0.77123547  0.59058615  1
  Sn  Sn53  1  0.21354121  0.49998734  0.32850043  1
  Sn  Sn54  1  0.20943249  -0.00001123  0.81961951  1
  Sn  Sn55  1  0.30319978  0.99997969  0.33325495  1
  Sn  Sn56  1  0.30319806  0.50002411  0.83395176  1
  Sn  Sn57  1  0.80128733  0.50006503  0.16654012  1
  Sn  Sn58  1  0.80511508  0.99996362  0.66639256  1
