# generated using pymatgen
data_Ho15Si9C
_symmetry_space_group_name_H-M   'P 1'
_cell_length_a   6.35547529
_cell_length_b   14.57757991
_cell_length_c   14.57757979
_cell_angle_alpha   59.99999971
_cell_angle_beta   90.00000000
_cell_angle_gamma   90.00000000
_symmetry_Int_Tables_number   1
_chemical_formula_structural   Ho15Si9C
_chemical_formula_sum   'Ho30 Si18 C2'
_cell_volume   1169.63275781
_cell_formula_units_Z   2
loop_
 _symmetry_equiv_pos_site_id
 _symmetry_equiv_pos_as_xyz
  1  'x, y, z'
loop_
 _atom_site_type_symbol
 _atom_site_label
 _atom_site_symmetry_multiplicity
 _atom_site_fract_x
 _atom_site_fract_y
 _atom_site_fract_z
 _atom_site_occupancy
  Ho  Ho0  1  0.76970987  0.07416185  0.07416185  1
  Ho  Ho1  1  0.76970987  0.07416185  0.85167630  1
  Ho  Ho2  1  0.76970987  0.85167630  0.07416185  1
  Ho  Ho3  1  0.26970987  0.92583815  0.92583815  1
  Ho  Ho4  1  0.26970987  0.92583815  0.14832370  1
  Ho  Ho5  1  0.26970987  0.14832370  0.92583815  1
  Ho  Ho6  1  0.23944941  0.25171737  0.25171737  1
  Ho  Ho7  1  0.23944941  0.25171737  0.49656526  1
  Ho  Ho8  1  0.23944941  0.49656526  0.25171737  1
  Ho  Ho9  1  0.73944941  0.74828263  0.74828263  1
  Ho  Ho10  1  0.73944941  0.74828263  0.50343474  1
  Ho  Ho11  1  0.73944941  0.50343474  0.74828263  1
  Ho  Ho12  1  0.76131886  0.41555218  0.41555218  1
  Ho  Ho13  1  0.76131886  0.41555218  0.16889565  1
  Ho  Ho14  1  0.76131886  0.16889565  0.41555218  1
  Ho  Ho15  1  0.26131886  0.58444782  0.58444782  1
  Ho  Ho16  1  0.26131886  0.58444782  0.83110435  1
  Ho  Ho17  1  0.26131886  0.83110435  0.58444782  1
  Ho  Ho18  1  0.50399830  0.01264818  0.32567915  1
  Ho  Ho19  1  0.50399830  0.32567915  0.66167267  1
  Ho  Ho20  1  0.50399830  0.66167267  0.01264818  1
  Ho  Ho21  1  0.50399830  0.32567915  0.01264818  1
  Ho  Ho22  1  0.50399830  0.66167267  0.32567915  1
  Ho  Ho23  1  0.50399830  0.01264818  0.66167267  1
  Ho  Ho24  1  0.00399830  0.98735182  0.67432085  1
  Ho  Ho25  1  0.00399830  0.67432085  0.33832733  1
  Ho  Ho26  1  0.00399830  0.33832733  0.98735182  1
  Ho  Ho27  1  0.00399830  0.67432085  0.98735182  1
  Ho  Ho28  1  0.00399830  0.33832733  0.67432085  1
  Ho  Ho29  1  0.00399830  0.98735182  0.33832733  1
  Si  Si30  1  0.23411094  0.13602883  0.13602883  1
  Si  Si31  1  0.23411094  0.13602883  0.72794234  1
  Si  Si32  1  0.23411094  0.72794234  0.13602883  1
  Si  Si33  1  0.73411094  0.86397117  0.86397117  1
  Si  Si34  1  0.73411094  0.86397117  0.27205766  1
  Si  Si35  1  0.73411094  0.27205766  0.86397117  1
  Si  Si36  1  0.78367526  0.20176602  0.20176602  1
  Si  Si37  1  0.78367526  0.20176602  0.59646796  1
  Si  Si38  1  0.78367526  0.59646796  0.20176602  1
  Si  Si39  1  0.28367526  0.79823398  0.79823398  1
  Si  Si40  1  0.28367526  0.79823398  0.40353204  1
  Si  Si41  1  0.28367526  0.40353204  0.79823398  1
  Si  Si42  1  0.24320049  0.46571725  0.46571725  1
  Si  Si43  1  0.24320049  0.46571725  0.06856550  1
  Si  Si44  1  0.24320049  0.06856550  0.46571725  1
  Si  Si45  1  0.74320049  0.53428275  0.53428275  1
  Si  Si46  1  0.74320049  0.53428275  0.93143450  1
  Si  Si47  1  0.74320049  0.93143450  0.53428275  1
  C  C48  1  0.01661569  0.00000000  0.00000000  1
  C  C49  1  0.51661569  0.00000000  0.00000000  1
