# generated using pymatgen
data_Dy6Ag(GeS7)2
_symmetry_space_group_name_H-M   'P 1'
_cell_length_a   5.79314295
_cell_length_b   9.84830585
_cell_length_c   9.85821247
_cell_angle_alpha   59.95033875
_cell_angle_beta   90.00523254
_cell_angle_gamma   90.03968489
_symmetry_Int_Tables_number   1
_chemical_formula_structural   Dy6Ag(GeS7)2
_chemical_formula_sum   'Dy6 Ag1 Ge2 S14'
_cell_volume   486.84073411
_cell_formula_units_Z   1
loop_
 _symmetry_equiv_pos_site_id
 _symmetry_equiv_pos_as_xyz
  1  'x, y, z'
loop_
 _atom_site_type_symbol
 _atom_site_label
 _atom_site_symmetry_multiplicity
 _atom_site_fract_x
 _atom_site_fract_y
 _atom_site_fract_z
 _atom_site_occupancy
  Dy  Dy0  1  0.25625228  0.77828590  0.86431170  1
  Dy  Dy1  1  0.25676083  0.35709555  0.77817201  1
  Dy  Dy2  1  0.25602935  0.86455096  0.35749362  1
  Dy  Dy3  1  0.75583407  0.22107673  0.13496091  1
  Dy  Dy4  1  0.75607243  0.64428906  0.22108400  1
  Dy  Dy5  1  0.75578072  0.13447713  0.64417837  1
  Ag  Ag6  1  0.51878534  0.00016308  0.00004303  1
  Ge  Ge7  1  0.17905188  0.33330429  0.33342977  1
  Ge  Ge8  1  0.67533035  0.66668253  0.66665424  1
  S  S9  1  0.79313883  0.84035889  0.90082108  1
  S  S10  1  0.79196255  0.25822012  0.84063708  1
  S  S11  1  0.79350548  0.90065381  0.25902998  1
  S  S12  1  0.29700322  0.16017202  0.10434008  1
  S  S13  1  0.29733466  0.73611846  0.15977918  1
  S  S14  1  0.29672554  0.10431586  0.73521290  1
  S  S15  1  0.55905557  0.33349907  0.33317755  1
  S  S16  1  0.05590094  0.66645884  0.66684021  1
  S  S17  1  0.51304914  0.90303036  0.57718900  1
  S  S18  1  0.51318879  0.51966895  0.90291930  1
  S  S19  1  0.51312735  0.57721475  0.51988227  1
  S  S20  1  0.01573842  0.09667859  0.42271102  1
  S  S21  1  0.01624880  0.48072103  0.09676195  1
  S  S22  1  0.01610344  0.42296405  0.48037075  1
