# generated using pymatgen
data_Dy2Al5Fe12
_symmetry_space_group_name_H-M   'P 1'
_cell_length_a   6.45728694
_cell_length_b   6.45728694
_cell_length_c   6.45728718
_cell_angle_alpha   82.62784658
_cell_angle_beta   82.62784658
_cell_angle_gamma   82.62784204
_symmetry_Int_Tables_number   1
_chemical_formula_structural   Dy2Al5Fe12
_chemical_formula_sum   'Dy2 Al5 Fe12'
_cell_volume   263.09570814
_cell_formula_units_Z   1
loop_
 _symmetry_equiv_pos_site_id
 _symmetry_equiv_pos_as_xyz
  1  'x, y, z'
loop_
 _atom_site_type_symbol
 _atom_site_label
 _atom_site_symmetry_multiplicity
 _atom_site_fract_x
 _atom_site_fract_y
 _atom_site_fract_z
 _atom_site_occupancy
  Dy  Dy0  1  0.66200961  0.66200961  0.66200961  1
  Dy  Dy1  1  0.34756919  0.34756919  0.34756919  1
  Al  Al2  1  0.89841736  0.89841736  0.89841736  1
  Al  Al3  1  0.10177392  0.10177392  0.10177392  1
  Al  Al4  1  0.35104690  0.35104690  0.83868363  1
  Al  Al5  1  0.35104690  0.83868363  0.35104690  1
  Al  Al6  1  0.83868363  0.35104690  0.35104690  1
  Fe  Fe7  1  0.99788436  0.99788436  0.49804426  1
  Fe  Fe8  1  0.99788436  0.49804426  0.99788436  1
  Fe  Fe9  1  0.49804426  0.99788436  0.99788436  1
  Fe  Fe10  1  0.65920456  0.65920456  0.14135461  1
  Fe  Fe11  1  0.65920456  0.14135461  0.65920456  1
  Fe  Fe12  1  0.14135461  0.65920456  0.65920456  1
  Fe  Fe13  1  0.29103708  0.70824344  0.99865737  1
  Fe  Fe14  1  0.70824344  0.99865737  0.29103708  1
  Fe  Fe15  1  0.99865737  0.29103708  0.70824344  1
  Fe  Fe16  1  0.29103708  0.99865737  0.70824344  1
  Fe  Fe17  1  0.99865737  0.70824344  0.29103708  1
  Fe  Fe18  1  0.70824344  0.29103708  0.99865737  1
