# generated using pymatgen
data_Li9Mn2Co5O16
_symmetry_space_group_name_H-M   'P 1'
_cell_length_a   3.02604185
_cell_length_b   19.23707194
_cell_length_c   5.06099692
_cell_angle_alpha   92.19612079
_cell_angle_beta   91.39025766
_cell_angle_gamma   83.41794961
_symmetry_Int_Tables_number   1
_chemical_formula_structural   Li9Mn2Co5O16
_chemical_formula_sum   'Li9 Mn2 Co5 O16'
_cell_volume   292.39626718
_cell_formula_units_Z   1
loop_
 _symmetry_equiv_pos_site_id
 _symmetry_equiv_pos_as_xyz
  1  'x, y, z'
loop_
 _atom_site_type_symbol
 _atom_site_label
 _atom_site_symmetry_multiplicity
 _atom_site_fract_x
 _atom_site_fract_y
 _atom_site_fract_z
 _atom_site_occupancy
  Li  Li0  1  0.87373890  0.12590154  0.37535181  1
  Li  Li1  1  0.24478459  0.25097863  0.25150086  1
  Li  Li2  1  0.61761193  0.37510755  0.12897086  1
  Li  Li3  1  0.99983909  0.49991777  0.00024928  1
  Li  Li4  1  0.38236774  0.62511028  0.87074766  1
  Li  Li5  1  0.75311620  0.74928933  0.74905368  1
  Li  Li6  1  0.12588923  0.87424452  0.62507872  1
  Li  Li7  1  0.50039954  0.99939195  0.49981754  1
  Li  Li8  1  0.50038396  0.50007780  0.49966826  1
  Mn  Mn9  1  0.00984578  0.99893753  0.00132805  1
  Mn  Mn10  1  0.36454950  0.12674375  0.87354416  1
  Co  Co11  1  0.74185145  0.25307605  0.74319868  1
  Co  Co12  1  0.11753110  0.38106312  0.62598044  1
  Co  Co13  1  0.88151832  0.61951754  0.37485337  1
  Co  Co14  1  0.25162499  0.74781911  0.25298108  1
  Co  Co15  1  0.63330513  0.87249287  0.12814269  1
  O  O16  1  0.40488429  0.06362363  0.16896840  1
  O  O17  1  0.76765966  0.19084844  0.04093849  1
  O  O18  1  0.19233859  0.31510366  0.90237396  1
  O  O19  1  0.54114230  0.43312280  0.80167549  1
  O  O20  1  0.92928211  0.57031955  0.65485543  1
  O  O21  1  0.27703104  0.68679836  0.53991662  1
  O  O22  1  0.69104898  0.81168343  0.41882659  1
  O  O23  1  0.08073475  0.93572107  0.29260703  1
  O  O24  1  0.29947820  0.18914361  0.58072771  1
  O  O25  1  0.72161306  0.31381257  0.45807004  1
  O  O26  1  0.07097389  0.43028196  0.34455922  1
  O  O27  1  0.46029195  0.56740388  0.19858266  1
  O  O28  1  0.80358680  0.68544116  0.09670479  1
  O  O29  1  0.18512990  0.80986381  0.96038717  1
  O  O30  1  0.60758034  0.93501100  0.83379954  1
  O  O31  1  0.96885869  0.06215373  0.70653472  1
