# generated using pymatgen
data_CuAu4
_symmetry_space_group_name_H-M   'P 1'
_cell_length_a   2.93040995
_cell_length_b   2.93040995
_cell_length_c   11.57058178
_cell_angle_alpha   90.00000000
_cell_angle_beta   97.27501061
_cell_angle_gamma   120.00000000
_symmetry_Int_Tables_number   1
_chemical_formula_structural   CuAu4
_chemical_formula_sum   'Cu1 Au4'
_cell_volume   85.12349335
_cell_formula_units_Z   1
loop_
 _symmetry_equiv_pos_site_id
 _symmetry_equiv_pos_as_xyz
  1  'x, y, z'
loop_
 _atom_site_type_symbol
 _atom_site_label
 _atom_site_symmetry_multiplicity
 _atom_site_fract_x
 _atom_site_fract_y
 _atom_site_fract_z
 _atom_site_occupancy
  Cu  Cu0  1  -0.00000000  -0.00000000  -0.00000000  1
  Au  Au1  1  0.78755077  0.39377539  0.18132616  1
  Au  Au2  1  0.59620527  0.79810263  0.39430790  1
  Au  Au3  1  0.40379473  0.20189737  0.60569210  1
  Au  Au4  1  0.21244923  0.60622461  0.81867384  1
