# generated using pymatgen
data_ErSiNi3
_symmetry_space_group_name_H-M   'P 1'
_cell_length_a   3.78378109
_cell_length_b   3.78378109
_cell_length_c   5.70694228
_cell_angle_alpha   70.63974406
_cell_angle_beta   70.63974406
_cell_angle_gamma   90.00000000
_symmetry_Int_Tables_number   1
_chemical_formula_structural   ErSiNi3
_chemical_formula_sum   'Er1 Si1 Ni3'
_cell_volume   72.17059288
_cell_formula_units_Z   1
loop_
 _symmetry_equiv_pos_site_id
 _symmetry_equiv_pos_as_xyz
  1  'x, y, z'
loop_
 _atom_site_type_symbol
 _atom_site_label
 _atom_site_symmetry_multiplicity
 _atom_site_fract_x
 _atom_site_fract_y
 _atom_site_fract_z
 _atom_site_occupancy
  Er  Er0  1  0.98846644  0.98846644  0.02306712  1
  Si  Si1  1  0.62041039  0.62041039  0.75917921  1
  Ni  Ni2  1  0.74643962  0.24643962  0.50712077  1
  Ni  Ni3  1  0.24643962  0.74643962  0.50712077  1
  Ni  Ni4  1  0.39824393  0.39824393  0.20351214  1
