# generated using pymatgen
data_K7Mo12H31Pt2O59
_symmetry_space_group_name_H-M   'P 1'
_cell_length_a   10.37459094
_cell_length_b   12.34764341
_cell_length_c   12.76120592
_cell_angle_alpha   67.74512532
_cell_angle_beta   68.55456331
_cell_angle_gamma   83.74159532
_symmetry_Int_Tables_number   1
_chemical_formula_structural   K7Mo12H31Pt2O59
_chemical_formula_sum   'K7 Mo12 H31 Pt2 O59'
_cell_volume   1407.38732469
_cell_formula_units_Z   1
loop_
 _symmetry_equiv_pos_site_id
 _symmetry_equiv_pos_as_xyz
  1  'x, y, z'
loop_
 _atom_site_type_symbol
 _atom_site_label
 _atom_site_symmetry_multiplicity
 _atom_site_fract_x
 _atom_site_fract_y
 _atom_site_fract_z
 _atom_site_occupancy
  K  K0  1  0.93196646  0.57765257  0.14070305  1
  K  K1  1  0.07197630  0.42572353  0.85646310  1
  K  K2  1  0.73843447  0.90572847  0.87674331  1
  K  K3  1  0.24732656  0.09392410  0.13640225  1
  K  K4  1  0.39946200  0.64253398  0.16774266  1
  K  K5  1  0.60474264  0.36537845  0.82521006  1
  K  K6  1  0.99866551  0.99881791  0.50438708  1
  Mo  Mo7  1  0.29659161  0.77182980  0.67980481  1
  Mo  Mo8  1  0.70184393  0.22681405  0.32303697  1
  Mo  Mo9  1  0.39492141  0.85941951  0.37436096  1
  Mo  Mo10  1  0.60659897  0.14151762  0.62147526  1
  Mo  Mo11  1  0.73700290  0.86003762  0.20391999  1
  Mo  Mo12  1  0.26433914  0.13802935  0.79787487  1
  Mo  Mo13  1  0.52781782  0.67628689  0.80904757  1
  Mo  Mo14  1  0.47209991  0.32299388  0.19125202  1
  Mo  Mo15  1  0.87140032  0.68629220  0.64313128  1
  Mo  Mo16  1  0.12877282  0.31398584  0.35770514  1
  Mo  Mo17  1  0.97848614  0.77669291  0.33708720  1
  Mo  Mo18  1  0.02279395  0.22311012  0.66371183  1
  H  H19  1  0.75840114  0.52216781  0.00224299  1
  H  H20  1  0.24157518  0.47767060  0.99823922  1
  H  H21  1  0.03797270  0.81231194  0.85681794  1
  H  H22  1  0.95740272  0.18823679  0.14268314  1
  H  H23  1  0.57886636  0.46325218  0.35336919  1
  H  H24  1  0.42171345  0.53640195  0.64615043  1
  H  H25  1  0.20935074  0.58202384  0.45154102  1
  H  H26  1  0.79109740  0.41830818  0.54722346  1
  H  H27  1  0.58386030  0.59082184  0.35640089  1
  H  H28  1  0.41620729  0.40902063  0.64263681  1
  H  H29  1  0.85443460  0.62696594  0.89621755  1
  H  H30  1  0.14525842  0.37341282  0.10461468  1
  H  H31  1  0.30596211  0.52564239  0.53095026  1
  H  H32  1  0.69300543  0.47483548  0.46925886  1
  H  H33  1  0.75622834  0.58957725  0.51738629  1
  H  H34  1  0.24227262  0.41060687  0.48255227  1
  H  H35  1  0.01888800  0.88922872  0.93170825  1
  H  H36  1  0.97829283  0.10870465  0.06993429  1
  H  H37  1  0.78787228  0.97791317  0.34866411  1
  H  H38  1  0.21372937  0.02348046  0.65132174  1
  H  H39  1  0.18816573  0.82889932  0.05636939  1
  H  H40  1  0.81928233  0.17178382  0.94443395  1
  H  H41  1  0.27218469  0.78304495  0.95458741  1
  H  H42  1  0.72718484  0.21441998  0.04777718  1
  H  H43  1  0.58126742  0.05145355  0.23345327  1
  H  H44  1  0.41940817  0.94844671  0.76983109  1
  H  H45  1  0.68663057  0.89480309  0.62791816  1
  H  H46  1  0.31423467  0.10601305  0.37325868  1
  H  H47  1  0.49924970  0.98678698  0.50090872  1
  H  H48  1  0.58685063  0.07595687  0.01479163  1
  H  H49  1  0.49872159  0.09449811  0.93440815  1
  Pt  Pt50  1  0.63000473  0.78897296  0.50388506  1
  Pt  Pt51  1  0.37161797  0.21278603  0.49646217  1
  O  O52  1  0.97178865  0.80106415  0.48214870  1
  O  O53  1  0.02804206  0.19881197  0.51919079  1
  O  O54  1  0.47398525  0.90225984  0.50737636  1
  O  O55  1  0.52925930  0.10297798  0.49335222  1
  O  O56  1  0.69817858  0.59580559  0.75378523  1
  O  O57  1  0.30169134  0.40402463  0.24591678  1
  O  O58  1  0.29637236  0.75409541  0.53089430  1
  O  O59  1  0.70964128  0.24902001  0.46812023  1
  O  O60  1  0.87403638  0.75072602  0.24553034  1
  O  O61  1  0.12753348  0.24810207  0.75674261  1
  O  O62  1  0.89492794  0.75863712  0.73010269  1
  O  O63  1  0.10457140  0.24084649  0.27139364  1
  O  O64  1  0.28807980  0.53128215  0.45705779  1
  O  O65  1  0.71263987  0.46958104  0.54250290  1
  O  O66  1  0.85426948  0.55434141  0.96363004  1
  O  O67  1  0.14609736  0.44483048  0.03575252  1
  O  O68  1  0.38685001  0.79965013  0.78077933  1
  O  O69  1  0.61234987  0.19919029  0.22028805  1
  O  O70  1  0.78799666  0.67355256  0.50261151  1
  O  O71  1  0.20994037  0.32719833  0.49773267  1
  O  O72  1  0.78086705  0.89325417  0.35425949  1
  O  O73  1  0.22091022  0.10730398  0.64627030  1
  O  O74  1  0.48461560  0.67832834  0.64863082  1
  O  O75  1  0.51566605  0.32344235  0.35077083  1
  O  O76  1  0.19143082  0.89681952  0.67023182  1
  O  O77  1  0.80880324  0.10255814  0.32966859  1
  O  O78  1  0.18657585  0.65408857  0.78506670  1
  O  O79  1  0.81050473  0.34551709  0.21640753  1
  O  O80  1  0.98464126  0.57199721  0.65148082  1
  O  O81  1  0.01530284  0.42804612  0.34913009  1
  O  O82  1  0.29222182  0.98679375  0.36585886  1
  O  O83  1  0.70827911  0.01299809  0.63391836  1
  O  O84  1  0.08764261  0.65920883  0.34269274  1
  O  O85  1  0.91315141  0.34035526  0.65999233  1
  O  O86  1  0.36181807  0.80156882  0.28246394  1
  O  O87  1  0.63333792  0.19926343  0.71734776  1
  O  O88  1  0.56966947  0.73048885  0.90175847  1
  O  O89  1  0.42927748  0.26763560  0.09966757  1
  O  O90  1  0.63991319  0.52377156  0.34649770  1
  O  O91  1  0.36001450  0.47531459  0.65519106  1
  O  O92  1  0.57760066  0.76370017  0.37685299  1
  O  O93  1  0.42188612  0.23738164  0.62460837  1
  O  O94  1  0.56780174  0.96939095  0.24165074  1
  O  O95  1  0.43352220  0.03076201  0.75941266  1
  O  O96  1  0.42018437  0.55183845  0.90420676  1
  O  O97  1  0.58026045  0.44689269  0.09433680  1
  O  O98  1  0.23591258  0.76009902  0.04289374  1
  O  O99  1  0.74574632  0.22535830  0.96309618  1
  O  O100  1  0.07950799  0.89998546  0.22760743  1
  O  O101  1  0.92168085  0.09960984  0.77275228  1
  O  O102  1  0.67853451  0.79677402  0.12775034  1
  O  O103  1  0.32598581  0.19484530  0.87808317  1
  O  O104  1  0.83679053  0.98520771  0.09484230  1
  O  O105  1  0.16291072  0.01292178  0.90388764  1
  O  O106  1  0.97716067  0.82135889  0.93207384  1
  O  O107  1  0.01675824  0.17964363  0.06670634  1
  O  O108  1  0.68098977  0.81021201  0.63416319  1
  O  O109  1  0.31992794  0.19022366  0.36664928  1
  O  O110  1  0.52630671  0.03422476  0.99785379  1
