# generated using pymatgen
data_DyAgTe2
_symmetry_space_group_name_H-M   'P 1'
_cell_length_a   4.50445000
_cell_length_b   4.50441689
_cell_length_c   7.34198124
_cell_angle_alpha   89.99941683
_cell_angle_beta   90.00000001
_cell_angle_gamma   59.99975529
_symmetry_Int_Tables_number   1
_chemical_formula_structural   DyAgTe2
_chemical_formula_sum   'Dy1 Ag1 Te2'
_cell_volume   129.00994199
_cell_formula_units_Z   1
loop_
 _symmetry_equiv_pos_site_id
 _symmetry_equiv_pos_as_xyz
  1  'x, y, z'
loop_
 _atom_site_type_symbol
 _atom_site_label
 _atom_site_symmetry_multiplicity
 _atom_site_fract_x
 _atom_site_fract_y
 _atom_site_fract_z
 _atom_site_occupancy
  Dy  Dy0  1  0.00001457  0.99997086  0.98616045  1
  Ag  Ag1  1  0.66666730  0.66666539  0.38742347  1
  Te  Te2  1  0.66667524  0.66664952  0.76579464  1
  Te  Te3  1  0.33334289  0.33331422  0.23062144  1
