# generated using pymatgen
data_Eu2NbGaO7
_symmetry_space_group_name_H-M   'P 1'
_cell_length_a   7.39735034
_cell_length_b   7.30231016
_cell_length_c   7.48351016
_cell_angle_alpha   90.00000000
_cell_angle_beta   59.61395375
_cell_angle_gamma   119.57589826
_symmetry_Int_Tables_number   1
_chemical_formula_structural   Eu2NbGaO7
_chemical_formula_sum   'Eu4 Nb2 Ga2 O14'
_cell_volume   285.99255499
_cell_formula_units_Z   2
loop_
 _symmetry_equiv_pos_site_id
 _symmetry_equiv_pos_as_xyz
  1  'x, y, z'
loop_
 _atom_site_type_symbol
 _atom_site_label
 _atom_site_symmetry_multiplicity
 _atom_site_fract_x
 _atom_site_fract_y
 _atom_site_fract_z
 _atom_site_occupancy
  Eu  Eu0  1  0.50000000  0.00000000  0.50000000  1
  Eu  Eu1  1  0.50000000  0.50000000  0.50000000  1
  Eu  Eu2  1  0.00000000  0.50000000  -0.00000000  1
  Eu  Eu3  1  -0.00000000  0.50000000  0.50000000  1
  Nb  Nb4  1  0.00000000  0.00000000  0.50000000  1
  Nb  Nb5  1  0.00000000  0.00000000  -0.00000000  1
  Ga  Ga6  1  0.50000000  0.50000000  -0.00000000  1
  Ga  Ga7  1  0.50000000  0.00000000  -0.00000000  1
  O  O8  1  0.74971106  0.37485553  0.37514447  1
  O  O9  1  0.25028894  0.62514447  0.62485553  1
  O  O10  1  0.84734113  0.92367057  0.32632943  1
  O  O11  1  0.66188669  0.33094334  0.91905666  1
  O  O12  1  0.24961187  0.92326058  0.92320699  1
  O  O13  1  0.24961187  0.32635129  0.32718114  1
  O  O14  1  0.24961187  0.32635129  0.92320699  1
  O  O15  1  0.24961187  0.92326058  0.32718114  1
  O  O16  1  0.15265887  0.07632943  0.67367057  1
  O  O17  1  0.33811331  0.66905666  0.08094334  1
  O  O18  1  0.75038813  0.07673942  0.07679301  1
  O  O19  1  0.75038813  0.67364871  0.67281886  1
  O  O20  1  0.75038813  0.67364871  0.07679301  1
  O  O21  1  0.75038813  0.07673942  0.67281886  1
