# generated using pymatgen
data_Eu2Mo(WO6)2
_symmetry_space_group_name_H-M   'P 1'
_cell_length_a   7.09440703
_cell_length_b   7.09440703
_cell_length_c   11.62932460
_cell_angle_alpha   100.72954383
_cell_angle_beta   100.72954383
_cell_angle_gamma   111.80990471
_symmetry_Int_Tables_number   1
_chemical_formula_structural   Eu2Mo(WO6)2
_chemical_formula_sum   'Eu4 Mo2 W4 O24'
_cell_volume   512.57040039
_cell_formula_units_Z   2
loop_
 _symmetry_equiv_pos_site_id
 _symmetry_equiv_pos_as_xyz
  1  'x, y, z'
loop_
 _atom_site_type_symbol
 _atom_site_label
 _atom_site_symmetry_multiplicity
 _atom_site_fract_x
 _atom_site_fract_y
 _atom_site_fract_z
 _atom_site_occupancy
  Eu  Eu0  1  0.05564079  0.80688114  0.09487593  1
  Eu  Eu1  1  0.69311886  0.44435921  0.40512407  1
  Eu  Eu2  1  0.94435921  0.19311886  0.90512407  1
  Eu  Eu3  1  0.30688114  0.55564079  0.59487593  1
  Mo  Mo4  1  0.12023088  0.37976912  0.25000000  1
  Mo  Mo5  1  0.87976912  0.62023088  0.75000000  1
  W  W6  1  0.20132064  0.99337388  0.45389906  1
  W  W7  1  0.50662612  0.29867936  0.04610094  1
  W  W8  1  0.79867936  0.00662612  0.54610094  1
  W  W9  1  0.49337388  0.70132064  0.95389906  1
  O  O10  1  0.40043218  0.48512818  0.27874600  1
  O  O11  1  0.01487182  0.09956782  0.22125400  1
  O  O12  1  0.59956782  0.51487182  0.72125400  1
  O  O13  1  0.98512818  0.90043218  0.77874600  1
  O  O14  1  0.67250914  0.10423729  0.43933901  1
  O  O15  1  0.39576271  0.82749086  0.06066099  1
  O  O16  1  0.32749086  0.89576271  0.56066099  1
  O  O17  1  0.60423729  0.17250914  0.93933901  1
  O  O18  1  0.37311784  0.27504544  0.46182828  1
  O  O19  1  0.22495456  0.12688216  0.03817172  1
  O  O20  1  0.62688216  0.72495456  0.53817172  1
  O  O21  1  0.77504544  0.87311784  0.96182828  1
  O  O22  1  0.67348638  0.59910038  0.07455292  1
  O  O23  1  0.90089962  0.82651362  0.42544708  1
  O  O24  1  0.32651362  0.40089962  0.92544708  1
  O  O25  1  0.09910038  0.17348638  0.57455292  1
  O  O26  1  0.02382231  0.44488818  0.11271267  1
  O  O27  1  0.05511182  0.47617769  0.38728733  1
  O  O28  1  0.97617769  0.55511182  0.88728733  1
  O  O29  1  0.94488818  0.52382231  0.61271267  1
  O  O30  1  0.20734933  0.85956061  0.30516838  1
  O  O31  1  0.64043939  0.29265067  0.19483162  1
  O  O32  1  0.79265067  0.14043939  0.69483162  1
  O  O33  1  0.35956061  0.70734933  0.80516838  1
