# generated using pymatgen
data_DyGaFeCo3
_symmetry_space_group_name_H-M   'P 1'
_cell_length_a   4.00916041
_cell_length_b   5.07921460
_cell_length_c   4.91794910
_cell_angle_alpha   119.66498711
_cell_angle_beta   90.00000000
_cell_angle_gamma   90.00000000
_symmetry_Int_Tables_number   1
_chemical_formula_structural   DyGaFeCo3
_chemical_formula_sum   'Dy1 Ga1 Fe1 Co3'
_cell_volume   87.02036032
_cell_formula_units_Z   1
loop_
 _symmetry_equiv_pos_site_id
 _symmetry_equiv_pos_as_xyz
  1  'x, y, z'
loop_
 _atom_site_type_symbol
 _atom_site_label
 _atom_site_symmetry_multiplicity
 _atom_site_fract_x
 _atom_site_fract_y
 _atom_site_fract_z
 _atom_site_occupancy
  Dy  Dy0  1  -0.00000000  0.99997724  0.00003374  1
  Ga  Ga1  1  0.50000000  0.99999135  0.50002294  1
  Fe  Fe2  1  0.50000000  0.49996451  0.49997443  1
  Co  Co3  1  -0.00000000  0.34821090  0.67453809  1
  Co  Co4  1  -0.00000000  0.65179204  0.32542258  1
  Co  Co5  1  0.50000000  0.49996396  0.00000822  1
