# generated using pymatgen
data_Cr6C3N
_symmetry_space_group_name_H-M   'P 1'
_cell_length_a   2.80261137
_cell_length_b   4.81257698
_cell_length_c   6.91421422
_cell_angle_alpha   90.64428364
_cell_angle_beta   90.00000000
_cell_angle_gamma   73.07163446
_symmetry_Int_Tables_number   1
_chemical_formula_structural   Cr6C3N
_chemical_formula_sum   'Cr6 C3 N1'
_cell_volume   89.21037140
_cell_formula_units_Z   1
loop_
 _symmetry_equiv_pos_site_id
 _symmetry_equiv_pos_as_xyz
  1  'x, y, z'
loop_
 _atom_site_type_symbol
 _atom_site_label
 _atom_site_symmetry_multiplicity
 _atom_site_fract_x
 _atom_site_fract_y
 _atom_site_fract_z
 _atom_site_occupancy
  Cr  Cr0  1  0.59827298  0.80345405  0.24495191  1
  Cr  Cr1  1  0.40172702  0.19654595  0.75504809  1
  Cr  Cr2  1  0.85746244  0.28507513  0.43407682  1
  Cr  Cr3  1  0.14253756  0.71492487  0.56592318  1
  Cr  Cr4  1  0.85259332  0.29481336  0.07579501  1
  Cr  Cr5  1  0.14740668  0.70518664  0.92420499  1
  C  C6  1  0.50000000  0.00000000  0.50000000  1
  C  C7  1  0.24778051  0.50443898  0.25263578  1
  C  C8  1  0.75221949  0.49556102  0.74736422  1
  N  N9  1  0.50000000  0.00000000  -0.00000000  1
