# generated using pymatgen
data_CeYNi4
_symmetry_space_group_name_H-M   'P 1'
_cell_length_a   5.07789234
_cell_length_b   5.07789234
_cell_length_c   5.07789234
_cell_angle_alpha   90.00000000
_cell_angle_beta   60.00000000
_cell_angle_gamma   120.00000000
_symmetry_Int_Tables_number   1
_chemical_formula_structural   CeYNi4
_chemical_formula_sum   'Ce1 Y1 Ni4'
_cell_volume   92.58389968
_cell_formula_units_Z   1
loop_
 _symmetry_equiv_pos_site_id
 _symmetry_equiv_pos_as_xyz
  1  'x, y, z'
loop_
 _atom_site_type_symbol
 _atom_site_label
 _atom_site_symmetry_multiplicity
 _atom_site_fract_x
 _atom_site_fract_y
 _atom_site_fract_z
 _atom_site_occupancy
  Ce  Ce0  1  0.50000000  0.75000000  0.75000000  1
  Y  Y1  1  0.00000000  0.00000000  -0.00000000  1
  Ni  Ni2  1  0.74994312  0.37497156  0.87508531  1
  Ni  Ni3  1  0.25005688  0.37497156  0.37497156  1
  Ni  Ni4  1  0.25005688  0.87508531  0.37497156  1
  Ni  Ni5  1  0.74994312  0.37497156  0.37497156  1
