# generated using pymatgen
data_Li9Mn2Co5O16
_symmetry_space_group_name_H-M   'P 1'
_cell_length_a   2.95048025
_cell_length_b   19.48613550
_cell_length_c   5.15135586
_cell_angle_alpha   94.25970126
_cell_angle_beta   91.06035761
_cell_angle_gamma   82.83611966
_symmetry_Int_Tables_number   1
_chemical_formula_structural   Li9Mn2Co5O16
_chemical_formula_sum   'Li9 Mn2 Co5 O16'
_cell_volume   293.03269100
_cell_formula_units_Z   1
loop_
 _symmetry_equiv_pos_site_id
 _symmetry_equiv_pos_as_xyz
  1  'x, y, z'
loop_
 _atom_site_type_symbol
 _atom_site_label
 _atom_site_symmetry_multiplicity
 _atom_site_fract_x
 _atom_site_fract_y
 _atom_site_fract_z
 _atom_site_occupancy
  Li  Li0  1  0.86594063  0.12329540  0.37304756  1
  Li  Li1  1  0.23245319  0.25487880  0.25410429  1
  Li  Li2  1  0.59738180  0.38311811  0.13397710  1
  Li  Li3  1  0.00052003  0.49673393  0.00811263  1
  Li  Li4  1  0.39132503  0.62438669  0.87022896  1
  Li  Li5  1  0.75776190  0.74734567  0.74848184  1
  Li  Li6  1  0.12711553  0.87305872  0.62497287  1
  Li  Li7  1  0.50328200  0.99729908  0.49980772  1
  Li  Li8  1  0.50872882  0.50043432  0.49312418  1
  Mn  Mn9  1  0.99477825  0.99881362  -0.00480178  1
  Mn  Mn10  1  0.75378426  0.25036749  0.74453736  1
  Co  Co11  1  0.36427150  0.12381841  0.88409681  1
  Co  Co12  1  0.11336869  0.38543877  0.61239692  1
  Co  Co13  1  0.89182427  0.62009028  0.38184683  1
  Co  Co14  1  0.25721875  0.74837077  0.26114780  1
  Co  Co15  1  0.62473961  0.87287775  0.12190421  1
  O  O16  1  0.38024174  0.06553989  0.17534144  1
  O  O17  1  0.81960815  0.18684609  0.03415304  1
  O  O18  1  0.21656790  0.30303625  0.90486327  1
  O  O19  1  0.57532508  0.43286127  0.80832425  1
  O  O20  1  0.93950020  0.57112293  0.65100812  1
  O  O21  1  0.28868854  0.68566458  0.54633851  1
  O  O22  1  0.68391528  0.81042670  0.42188494  1
  O  O23  1  0.04850449  0.93696450  0.28763627  1
  O  O24  1  0.29909585  0.19100663  0.58810188  1
  O  O25  1  0.69451723  0.30846786  0.46631692  1
  O  O26  1  0.06772475  0.43188690  0.32492945  1
  O  O27  1  0.47811304  0.56959272  0.19504198  1
  O  O28  1  0.82456572  0.68812811  0.10061971  1
  O  O29  1  0.20170923  0.81407847  0.95826314  1
  O  O30  1  0.59460749  0.93887216  0.82178485  1
  O  O31  1  0.90281306  0.06517914  0.70840194  1
