# generated using pymatgen
data_Cd2TeSe
_symmetry_space_group_name_H-M   'P 1'
_cell_length_a   4.54192280
_cell_length_b   4.54192280
_cell_length_c   7.84883254
_cell_angle_alpha   106.81829587
_cell_angle_beta   73.18170413
_cell_angle_gamma   120.00000000
_symmetry_Int_Tables_number   1
_chemical_formula_structural   Cd2TeSe
_chemical_formula_sum   'Cd2 Te1 Se1'
_cell_volume   132.16431029
_cell_formula_units_Z   1
loop_
 _symmetry_equiv_pos_site_id
 _symmetry_equiv_pos_as_xyz
  1  'x, y, z'
loop_
 _atom_site_type_symbol
 _atom_site_label
 _atom_site_symmetry_multiplicity
 _atom_site_fract_x
 _atom_site_fract_y
 _atom_site_fract_z
 _atom_site_occupancy
  Cd  Cd0  1  0.99504843  0.00495157  0.01485471  1
  Cd  Cd1  1  0.50496545  0.49503455  0.48510365  1
  Te  Te2  1  0.37581658  0.62418342  0.87255027  1
  Se  Se3  1  0.87416954  0.12583046  0.37749137  1
