# generated using pymatgen
data_Dy12Ge5S28
_symmetry_space_group_name_H-M   'P 1'
_cell_length_a   9.89188592
_cell_length_b   11.41799775
_cell_length_c   11.42482120
_cell_angle_alpha   60.14781554
_cell_angle_beta   115.65615467
_cell_angle_gamma   115.65954659
_symmetry_Int_Tables_number   1
_chemical_formula_structural   Dy12Ge5S28
_chemical_formula_sum   'Dy12 Ge5 S28'
_cell_volume   968.99639299
_cell_formula_units_Z   1
loop_
 _symmetry_equiv_pos_site_id
 _symmetry_equiv_pos_as_xyz
  1  'x, y, z'
loop_
 _atom_site_type_symbol
 _atom_site_label
 _atom_site_symmetry_multiplicity
 _atom_site_fract_x
 _atom_site_fract_y
 _atom_site_fract_z
 _atom_site_occupancy
  Dy  Dy0  1  0.23673031  0.06660734  0.29767775  1
  Dy  Dy1  1  0.22351631  0.53622397  0.80939502  1
  Dy  Dy2  1  0.65362475  0.30263360  0.57543744  1
  Dy  Dy3  1  0.63755705  0.82009599  0.05257289  1
  Dy  Dy4  1  0.12361651  0.25251987  0.52542563  1
  Dy  Dy5  1  0.12415688  0.76485634  0.99630715  1
  Dy  Dy6  1  0.77518750  0.96304633  0.69376983  1
  Dy  Dy7  1  0.76717693  0.43343147  0.20005634  1
  Dy  Dy8  1  0.36567579  0.68202540  0.44860646  1
  Dy  Dy9  1  0.34290838  0.19429526  0.92539117  1
  Dy  Dy10  1  0.86847346  0.73364755  0.49912643  1
  Dy  Dy11  1  0.88001216  0.24598456  0.97858235  1
  Ge  Ge12  1  0.33555706  0.91888790  0.74695664  1
  Ge  Ge13  1  0.33147523  0.41936276  0.24857462  1
  Ge  Ge14  1  0.66718549  0.00116550  0.33318272  1
  Ge  Ge15  1  0.66604230  0.49904179  0.83342344  1
  Ge  Ge16  1  0.00054029  0.76333095  0.23693388  1
  S  S17  1  0.33332674  0.11014145  0.55714654  1
  S  S18  1  0.33308700  0.60998025  0.05637348  1
  S  S19  1  0.67183583  0.69680299  0.64770712  1
  S  S20  1  0.66151820  0.18613513  0.13641152  1
  S  S21  1  0.14936727  0.77070451  0.46630375  1
  S  S22  1  0.16865903  0.26212313  0.99987485  1
  S  S23  1  0.73941165  0.08573001  0.82210539  1
  S  S24  1  0.76285674  0.60744613  0.30384514  1
  S  S25  1  0.09037064  0.04812064  0.78308886  1
  S  S26  1  0.08877107  0.57617938  0.27376348  1
  S  S27  1  0.83418387  0.25602554  0.48446649  1
  S  S28  1  0.84141927  0.75516556  0.00219961  1
  S  S29  1  0.24235198  0.91864910  0.16509837  1
  S  S30  1  0.25877376  0.43259219  0.66090939  1
  S  S31  1  0.91607686  0.95669589  0.20251362  1
  S  S32  1  0.90628346  0.46824962  0.69696822  1
  S  S33  1  0.10357678  0.75645443  0.75014386  1
  S  S34  1  0.09591855  0.26429520  0.25828371  1
  S  S35  1  0.47982661  0.79070578  0.78447479  1
  S  S36  1  0.49189290  0.30107792  0.29491572  1
  S  S37  1  0.41270087  0.95425850  0.94663422  1
  S  S38  1  0.41854513  0.45328776  0.44817807  1
  S  S39  1  0.90104602  0.99308672  0.48927969  1
  S  S40  1  0.90091387  0.49408255  0.99129766  1
  S  S41  1  0.51354246  0.95913582  0.45531759  1
  S  S42  1  0.51801866  0.46074805  0.95820792  1
  S  S43  1  0.58375425  0.80098562  0.29789477  1
  S  S44  1  0.58253413  0.30098353  0.79817640  1
