# generated using pymatgen
data_Cu2SnSe3
_symmetry_space_group_name_H-M   'P 1'
_cell_length_a   7.04373050
_cell_length_b   7.04373050
_cell_length_c   12.84726988
_cell_angle_alpha   79.36795827
_cell_angle_beta   100.63204173
_cell_angle_gamma   70.91525409
_symmetry_Int_Tables_number   1
_chemical_formula_structural   Cu2SnSe3
_chemical_formula_sum   'Cu8 Sn4 Se12'
_cell_volume   571.09305001
_cell_formula_units_Z   4
loop_
 _symmetry_equiv_pos_site_id
 _symmetry_equiv_pos_as_xyz
  1  'x, y, z'
loop_
 _atom_site_type_symbol
 _atom_site_label
 _atom_site_symmetry_multiplicity
 _atom_site_fract_x
 _atom_site_fract_y
 _atom_site_fract_z
 _atom_site_occupancy
  Cu  Cu0  1  0.26434679  0.24344966  0.49957802  1
  Cu  Cu1  1  0.90794353  0.57460953  0.83333300  1
  Cu  Cu2  1  0.57678266  0.93101379  0.16708898  1
  Cu  Cu3  1  0.34810178  0.65969467  0.66708898  1
  Cu  Cu4  1  0.99302767  0.01476878  0.99957802  1
  Cu  Cu5  1  0.65794353  0.32460953  0.33333300  1
  Cu  Cu6  1  0.41736248  0.08402848  0.83333300  1
  Cu  Cu7  1  0.16736248  0.83402848  0.33333300  1
  Sn  Sn8  1  0.09880832  0.40022641  0.17352794  1
  Sn  Sn9  1  0.73355941  0.76547532  0.49313906  1
  Sn  Sn10  1  0.82375335  0.17528138  0.67352794  1
  Sn  Sn11  1  0.50861438  0.49042035  0.99313906  1
  Se  Se12  1  0.10513012  0.64858355  0.98926227  1
  Se  Se13  1  0.79841110  0.96939982  0.32255884  1
  Se  Se14  1  0.43067517  0.29899704  0.66654798  1
  Se  Se15  1  0.63233104  0.09734117  0.00011802  1
  Se  Se16  1  0.30273282  0.46507810  0.34410816  1
  Se  Se17  1  0.98191655  0.77179712  0.67740473  1
  Se  Se18  1  0.05918526  0.20862567  0.84410816  1
  Se  Se19  1  0.69920185  0.55451182  0.17740473  1
  Se  Se20  1  0.34746019  0.88221202  0.50011802  1
  Se  Se21  1  0.88784482  0.36586885  0.48926227  1
  Se  Se22  1  0.54195867  0.72585226  0.82255884  1
  Se  Se23  1  0.21554602  0.01412619  0.16654798  1
