# generated using pymatgen
data_CeNd4Zr3O14
_symmetry_space_group_name_H-M   'P 1'
_cell_length_a   7.72429262
_cell_length_b   7.67118621
_cell_length_c   7.72429262
_cell_angle_alpha   90.00000000
_cell_angle_beta   60.00000000
_cell_angle_gamma   120.22927116
_symmetry_Int_Tables_number   1
_chemical_formula_structural   CeNd4Zr3O14
_chemical_formula_sum   'Ce1 Nd4 Zr3 O14'
_cell_volume   322.51596626
_cell_formula_units_Z   1
loop_
 _symmetry_equiv_pos_site_id
 _symmetry_equiv_pos_as_xyz
  1  'x, y, z'
loop_
 _atom_site_type_symbol
 _atom_site_label
 _atom_site_symmetry_multiplicity
 _atom_site_fract_x
 _atom_site_fract_y
 _atom_site_fract_z
 _atom_site_occupancy
  Ce  Ce0  1  0.50000000  0.50000000  -0.00000000  1
  Nd  Nd1  1  0.50000000  -0.00000000  0.50000000  1
  Nd  Nd2  1  0.50000000  0.50000000  0.50000000  1
  Nd  Nd3  1  0.00000000  0.50000000  -0.00000000  1
  Nd  Nd4  1  0.00000000  0.50000000  0.50000000  1
  Zr  Zr5  1  0.50000000  -0.00000000  -0.00000000  1
  Zr  Zr6  1  0.00000000  -0.00000000  0.50000000  1
  Zr  Zr7  1  0.00000000  -0.00000000  -0.00000000  1
  O  O8  1  0.25257115  0.62885673  0.62371442  1
  O  O9  1  0.74742885  0.37114327  0.37628558  1
  O  O10  1  0.84093852  0.92809680  0.32953074  1
  O  O11  1  0.69322489  0.34010021  0.90338756  1
  O  O12  1  0.25762755  0.92809680  0.91284171  1
  O  O13  1  0.24348776  0.34010021  0.35312468  1
  O  O14  1  0.24348776  0.34010021  0.90338756  1
  O  O15  1  0.25762755  0.92809680  0.32953074  1
  O  O16  1  0.15906148  0.07190320  0.67046926  1
  O  O17  1  0.30677511  0.65989979  0.09661244  1
  O  O18  1  0.74237245  0.07190320  0.08715829  1
  O  O19  1  0.75651224  0.65989979  0.64687532  1
  O  O20  1  0.75651224  0.65989979  0.09661244  1
  O  O21  1  0.74237245  0.07190320  0.67046926  1
