# generated using pymatgen
data_CoSbSe
_symmetry_space_group_name_H-M   'P 1'
_cell_length_a   3.57594313
_cell_length_b   5.26523248
_cell_length_c   6.07443581
_cell_angle_alpha   95.12155627
_cell_angle_beta   90.00000000
_cell_angle_gamma   90.00000000
_symmetry_Int_Tables_number   1
_chemical_formula_structural   CoSbSe
_chemical_formula_sum   'Co2 Sb2 Se2'
_cell_volume   113.91390309
_cell_formula_units_Z   2
loop_
 _symmetry_equiv_pos_site_id
 _symmetry_equiv_pos_as_xyz
  1  'x, y, z'
loop_
 _atom_site_type_symbol
 _atom_site_label
 _atom_site_symmetry_multiplicity
 _atom_site_fract_x
 _atom_site_fract_y
 _atom_site_fract_z
 _atom_site_occupancy
  Co  Co0  1  0.50000000  0.50000000  0.50000000  1
  Co  Co1  1  0.00000000  0.00000000  0.00000000  1
  Sb  Sb2  1  0.50000000  0.71957533  0.14803474  1
  Sb  Sb3  1  0.50000000  0.28042467  0.85196526  1
  Se  Se4  1  0.00000000  0.22988276  0.35902444  1
  Se  Se5  1  0.00000000  0.77011724  0.64097556  1
