# generated using pymatgen
data_Co3SiGe2
_symmetry_space_group_name_H-M   'P 1'
_cell_length_a   4.57377753
_cell_length_b   4.57545495
_cell_length_c   13.68631831
_cell_angle_alpha   89.52084171
_cell_angle_beta   89.76394589
_cell_angle_gamma   90.25509199
_symmetry_Int_Tables_number   1
_chemical_formula_structural   Co3SiGe2
_chemical_formula_sum   'Co12 Si4 Ge8'
_cell_volume   286.39980106
_cell_formula_units_Z   4
loop_
 _symmetry_equiv_pos_site_id
 _symmetry_equiv_pos_as_xyz
  1  'x, y, z'
loop_
 _atom_site_type_symbol
 _atom_site_label
 _atom_site_symmetry_multiplicity
 _atom_site_fract_x
 _atom_site_fract_y
 _atom_site_fract_z
 _atom_site_occupancy
  Co  Co0  1  0.36061092  0.86940123  0.21167450  1
  Co  Co1  1  0.36640826  0.86713158  0.54323479  1
  Co  Co2  1  0.36643332  0.86676189  0.87825202  1
  Co  Co3  1  0.86086406  0.62946758  0.12267866  1
  Co  Co4  1  0.85322763  0.63665981  0.45269145  1
  Co  Co5  1  0.85389534  0.63638790  0.78699706  1
  Co  Co6  1  0.63630013  0.35347708  0.28469631  1
  Co  Co7  1  0.63985207  0.35392261  0.62106998  1
  Co  Co8  1  0.64069411  0.35446154  0.95540045  1
  Co  Co9  1  0.13668835  0.14129081  0.05193069  1
  Co  Co10  1  0.13697491  0.14513779  0.37822527  1
  Co  Co11  1  0.13656390  0.13972076  0.71531408  1
  Si  Si12  1  0.65960947  0.16382897  0.11568425  1
  Si  Si13  1  0.66104829  0.16112320  0.44521215  1
  Si  Si14  1  0.66071417  0.16049511  0.78005524  1
  Si  Si15  1  0.15992560  0.33610498  0.21834554  1
  Ge  Ge16  1  0.15980146  0.33955612  0.55150738  1
  Ge  Ge17  1  0.15976079  0.33900952  0.88638526  1
  Ge  Ge18  1  0.34423927  0.65680928  0.05537210  1
  Ge  Ge19  1  0.34159698  0.65920232  0.38487066  1
  Ge  Ge20  1  0.34339642  0.65936931  0.72011929  1
  Ge  Ge21  1  0.84146255  0.84319647  0.27903135  1
  Ge  Ge22  1  0.83937635  0.84331877  0.61324377  1
  Ge  Ge23  1  0.84055565  0.84416536  0.94800776  1
