# generated using pymatgen
data_CaYAl3O7
_symmetry_space_group_name_H-M   'P 1'
_cell_length_a   5.10553822
_cell_length_b   7.78606793
_cell_length_c   7.74410021
_cell_angle_alpha   90.00000000
_cell_angle_beta   90.00000000
_cell_angle_gamma   90.12453039
_symmetry_Int_Tables_number   1
_chemical_formula_structural   CaYAl3O7
_chemical_formula_sum   'Ca2 Y2 Al6 O14'
_cell_volume   307.84326637
_cell_formula_units_Z   2
loop_
 _symmetry_equiv_pos_site_id
 _symmetry_equiv_pos_as_xyz
  1  'x, y, z'
loop_
 _atom_site_type_symbol
 _atom_site_label
 _atom_site_symmetry_multiplicity
 _atom_site_fract_x
 _atom_site_fract_y
 _atom_site_fract_z
 _atom_site_occupancy
  Ca  Ca0  1  0.51482034  0.33170363  0.16119090  1
  Ca  Ca1  1  0.48517966  0.16829637  0.66119090  1
  Y  Y2  1  0.51978935  0.65470915  0.83976842  1
  Y  Y3  1  0.48021065  0.84529085  0.33976842  1
  Al  Al4  1  0.95608268  0.13937866  0.35542620  1
  Al  Al5  1  0.04391732  0.36062134  0.85542620  1
  Al  Al6  1  0.95840558  0.85091994  0.64342854  1
  Al  Al7  1  0.04159442  0.64908006  0.14342854  1
  Al  Al8  1  0.00159395  0.50207514  0.50054668  1
  Al  Al9  1  0.99840605  0.99792486  0.00054668  1
  O  O10  1  0.29725806  0.12141406  0.35907089  1
  O  O11  1  0.70274194  0.37858594  0.85907089  1
  O  O12  1  0.30073890  0.84155261  0.63978496  1
  O  O13  1  0.69926110  0.65844739  0.13978496  1
  O  O14  1  0.19559725  0.50475847  0.00122234  1
  O  O15  1  0.80440275  0.99524153  0.50122234  1
  O  O16  1  0.81459726  0.33969102  0.40214197  1
  O  O17  1  0.18540274  0.16030898  0.90214197  1
  O  O18  1  0.78855124  0.65710576  0.59169025  1
  O  O19  1  0.21144876  0.84289424  0.09169025  1
  O  O20  1  0.19492786  0.60848120  0.34388459  1
  O  O21  1  0.80507214  0.89151880  0.84388459  1
  O  O22  1  0.20843821  0.41851258  0.66184427  1
  O  O23  1  0.79156179  0.08148742  0.16184427  1
