# generated using pymatgen
data_CeH3(SO4)3
_symmetry_space_group_name_H-M   'P 1'
_cell_length_a   5.95928434
_cell_length_b   9.80892698
_cell_length_c   9.73647091
_cell_angle_alpha   119.99189329
_cell_angle_beta   90.00000000
_cell_angle_gamma   90.00000000
_symmetry_Int_Tables_number   1
_chemical_formula_structural   CeH3(SO4)3
_chemical_formula_sum   'Ce2 H6 S6 O24'
_cell_volume   492.92776645
_cell_formula_units_Z   2
loop_
 _symmetry_equiv_pos_site_id
 _symmetry_equiv_pos_as_xyz
  1  'x, y, z'
loop_
 _atom_site_type_symbol
 _atom_site_label
 _atom_site_symmetry_multiplicity
 _atom_site_fract_x
 _atom_site_fract_y
 _atom_site_fract_z
 _atom_site_occupancy
  Ce  Ce0  1  0.75602761  0.33330965  0.66649490  1
  Ce  Ce1  1  0.25602761  0.66669035  0.33350510  1
  H  H2  1  0.65467063  0.05640792  0.83871997  1
  H  H3  1  0.65437483  0.16352547  0.21897861  1
  H  H4  1  0.65378513  0.78117323  0.94324429  1
  H  H5  1  0.15467063  0.94359208  0.16128003  1
  H  H6  1  0.15437483  0.83647453  0.78102139  1
  H  H7  1  0.15378513  0.21882677  0.05675571  1
  S  S8  1  0.75146031  0.90253586  0.59663095  1
  S  S9  1  0.75137717  0.40294184  0.30559530  1
  S  S10  1  0.75146330  0.69394351  0.09713871  1
  S  S11  1  0.25146031  0.09746414  0.40336905  1
  S  S12  1  0.25137717  0.59705816  0.69440470  1
  S  S13  1  0.25146330  0.30605649  0.90286129  1
  O  O14  1  0.45581832  0.54383060  0.73668735  1
  O  O15  1  0.45544179  0.26411043  0.80647799  1
  O  O16  1  0.45586196  0.19311780  0.45669060  1
  O  O17  1  0.95581832  0.45616940  0.26331265  1
  O  O18  1  0.95544179  0.73588957  0.19352201  1
  O  O19  1  0.95586196  0.80688220  0.54330940  1
  O  O20  1  0.54705485  0.45969188  0.26701575  1
  O  O21  1  0.54715577  0.73258170  0.19303837  1
  O  O22  1  0.54719004  0.80700057  0.53966084  1
  O  O23  1  0.04705485  0.54030812  0.73298425  1
  O  O24  1  0.04715577  0.26741830  0.80696163  1
  O  O25  1  0.04719004  0.19299943  0.46033916  1
  O  O26  1  0.76098558  0.96833739  0.78492977  1
  O  O27  1  0.76090784  0.21628389  0.18346785  1
  O  O28  1  0.76152654  0.81487018  0.03105350  1
  O  O29  1  0.26098558  0.03166261  0.21507023  1
  O  O30  1  0.26090784  0.78371611  0.81653215  1
  O  O31  1  0.26152654  0.18512982  0.96894650  1
  O  O32  1  0.75037030  0.03755255  0.57294346  1
  O  O33  1  0.75011886  0.42555150  0.46509217  1
  O  O34  1  0.75040918  0.53562722  0.96090905  1
  O  O35  1  0.25037030  0.96244745  0.42705654  1
  O  O36  1  0.25011886  0.57444850  0.53490783  1
  O  O37  1  0.25040918  0.46437278  0.03909095  1
