# generated using pymatgen
data_Li9Mn2Co5O16
_symmetry_space_group_name_H-M   'P 1'
_cell_length_a   3.02124874
_cell_length_b   10.12496340
_cell_length_c   9.82837279
_cell_angle_alpha   102.85343286
_cell_angle_beta   85.78648915
_cell_angle_gamma   91.77465204
_symmetry_Int_Tables_number   1
_chemical_formula_structural   Li9Mn2Co5O16
_chemical_formula_sum   'Li9 Mn2 Co5 O16'
_cell_volume   292.29134222
_cell_formula_units_Z   1
loop_
 _symmetry_equiv_pos_site_id
 _symmetry_equiv_pos_as_xyz
  1  'x, y, z'
loop_
 _atom_site_type_symbol
 _atom_site_label
 _atom_site_symmetry_multiplicity
 _atom_site_fract_x
 _atom_site_fract_y
 _atom_site_fract_z
 _atom_site_occupancy
  Li  Li0  1  0.99608369  0.13427516  0.74855358  1
  Li  Li1  1  0.51128082  0.49703235  0.49960566  1
  Li  Li2  1  0.00343350  0.87533189  0.24989379  1
  Li  Li3  1  0.49329345  0.25594467  0.00171957  1
  Li  Li4  1  0.49931342  0.00041521  0.50001759  1
  Li  Li5  1  -0.00149527  0.37395206  0.25044665  1
  Li  Li6  1  0.49970376  0.74633598  0.99904063  1
  Li  Li7  1  0.00158050  0.61713571  0.75215788  1
  Li  Li8  1  0.50180989  0.37472022  0.74979901  1
  Mn  Mn9  1  -0.00048225  0.00198293  0.00360913  1
  Mn  Mn10  1  0.49770050  0.87436581  0.74702116  1
  Co  Co11  1  0.98861828  0.74661907  0.49652430  1
  Co  Co12  1  0.50265912  0.12761950  0.25439771  1
  Co  Co13  1  0.00391735  0.49667990  0.99015431  1
  Co  Co14  1  0.00667110  0.25545953  0.51029685  1
  Co  Co15  1  0.49130944  0.62247154  0.24825999  1
  O  O16  1  0.46416807  0.05644633  0.87421588  1
  O  O17  1  0.00205810  0.42068136  0.61024722  1
  O  O18  1  0.45690668  0.80087082  0.37248057  1
  O  O19  1  0.97281461  0.17973521  0.13170954  1
  O  O20  1  0.97018297  0.92372412  0.61878537  1
  O  O21  1  0.47849064  0.30043442  0.37865885  1
  O  O22  1  0.00964794  0.66931006  0.12023241  1
  O  O23  1  0.48458487  0.55684698  0.88388017  1
  O  O24  1  0.53412094  0.19245304  0.61502106  1
  O  O25  1  0.97690587  0.57322373  0.37148826  1
  O  O26  1  0.53018428  0.94821231  0.13143225  1
  O  O27  1  0.00576119  0.33085845  0.89122809  1
  O  O28  1  0.03049767  0.08201282  0.37840424  1
  O  O29  1  0.53280988  0.44841438  0.12426359  1
  O  O30  1  0.03202900  0.82223515  0.87626557  1
  O  O31  1  0.52344000  0.69419429  0.62018911  1
