# generated using pymatgen
data_Bi2Se2S
_symmetry_space_group_name_H-M   'P 1'
_cell_length_a   4.13357306
_cell_length_b   11.47033220
_cell_length_c   11.89988659
_cell_angle_alpha   90.00000000
_cell_angle_beta   90.00000000
_cell_angle_gamma   90.00000000
_symmetry_Int_Tables_number   1
_chemical_formula_structural   Bi2Se2S
_chemical_formula_sum   'Bi8 Se8 S4'
_cell_volume   564.21475128
_cell_formula_units_Z   4
loop_
 _symmetry_equiv_pos_site_id
 _symmetry_equiv_pos_as_xyz
  1  'x, y, z'
loop_
 _atom_site_type_symbol
 _atom_site_label
 _atom_site_symmetry_multiplicity
 _atom_site_fract_x
 _atom_site_fract_y
 _atom_site_fract_z
 _atom_site_occupancy
  Bi  Bi0  1  0.25000000  0.16553863  0.51582988  1
  Bi  Bi1  1  0.25000000  0.33446137  0.01582988  1
  Bi  Bi2  1  0.75000000  0.83446137  0.48417012  1
  Bi  Bi3  1  0.75000000  0.66553863  0.98417012  1
  Bi  Bi4  1  0.75000000  0.46398144  0.65782000  1
  Bi  Bi5  1  0.75000000  0.03601856  0.15782000  1
  Bi  Bi6  1  0.25000000  0.53601856  0.34218000  1
  Bi  Bi7  1  0.25000000  0.96398144  0.84218000  1
  Se  Se8  1  0.25000000  0.63468455  0.55261201  1
  Se  Se9  1  0.25000000  0.86531545  0.05261201  1
  Se  Se10  1  0.75000000  0.36531545  0.44738799  1
  Se  Se11  1  0.75000000  0.13468455  0.94738799  1
  Se  Se12  1  0.25000000  0.30299216  0.72000345  1
  Se  Se13  1  0.25000000  0.19700784  0.22000345  1
  Se  Se14  1  0.75000000  0.69700784  0.27999655  1
  Se  Se15  1  0.75000000  0.80299216  0.77999655  1
  S  S16  1  0.75000000  0.05430045  0.61710390  1
  S  S17  1  0.75000000  0.44569955  0.11710390  1
  S  S18  1  0.25000000  0.94569955  0.38289610  1
  S  S19  1  0.25000000  0.55430045  0.88289610  1
