# generated using pymatgen
data_Ca2GaSn
_symmetry_space_group_name_H-M   'P 1'
_cell_length_a   4.37901199
_cell_length_b   4.62078122
_cell_length_c   6.15028195
_cell_angle_alpha   67.93512834
_cell_angle_beta   90.00000000
_cell_angle_gamma   90.00000000
_symmetry_Int_Tables_number   1
_chemical_formula_structural   Ca2GaSn
_chemical_formula_sum   'Ca2 Ga1 Sn1'
_cell_volume   115.33295930
_cell_formula_units_Z   1
loop_
 _symmetry_equiv_pos_site_id
 _symmetry_equiv_pos_as_xyz
  1  'x, y, z'
loop_
 _atom_site_type_symbol
 _atom_site_label
 _atom_site_symmetry_multiplicity
 _atom_site_fract_x
 _atom_site_fract_y
 _atom_site_fract_z
 _atom_site_occupancy
  Ca  Ca0  1  0.25000000  0.63947167  0.72105666  1
  Ca  Ca1  1  0.75000000  0.36263669  0.27472662  1
  Ga  Ga2  1  0.25000000  0.92252787  0.15494427  1
  Sn  Sn3  1  0.75000000  0.07536378  0.84927245  1
