# generated using pymatgen
data_CaLuMn2O6
_symmetry_space_group_name_H-M   'P 1'
_cell_length_a   5.29373712
_cell_length_b   5.53865896
_cell_length_c   7.56328817
_cell_angle_alpha   90.00000000
_cell_angle_beta   90.00000000
_cell_angle_gamma   90.00000000
_symmetry_Int_Tables_number   1
_chemical_formula_structural   CaLuMn2O6
_chemical_formula_sum   'Ca2 Lu2 Mn4 O12'
_cell_volume   221.75715608
_cell_formula_units_Z   2
loop_
 _symmetry_equiv_pos_site_id
 _symmetry_equiv_pos_as_xyz
  1  'x, y, z'
loop_
 _atom_site_type_symbol
 _atom_site_label
 _atom_site_symmetry_multiplicity
 _atom_site_fract_x
 _atom_site_fract_y
 _atom_site_fract_z
 _atom_site_occupancy
  Ca  Ca0  1  0.48599050  0.44476775  0.75000000  1
  Ca  Ca1  1  0.01400950  0.94476775  0.75000000  1
  Lu  Lu2  1  0.51526094  0.57145219  0.25000000  1
  Lu  Lu3  1  0.98473906  0.07145219  0.25000000  1
  Mn  Mn4  1  0.00389587  0.50250809  0.99959062  1
  Mn  Mn5  1  0.49610413  0.00250809  0.50040938  1
  Mn  Mn6  1  0.00389587  0.50250809  0.50040938  1
  Mn  Mn7  1  0.49610413  0.00250809  0.99959062  1
  O  O8  1  0.79731577  0.79902680  0.06410927  1
  O  O9  1  0.70268423  0.29902680  0.43589073  1
  O  O10  1  0.19049761  0.19450748  0.53550948  1
  O  O11  1  0.30950239  0.69450748  0.96449052  1
  O  O12  1  0.19049761  0.19450748  0.96449052  1
  O  O13  1  0.30950239  0.69450748  0.53550948  1
  O  O14  1  0.79731577  0.79902680  0.43589073  1
  O  O15  1  0.70268423  0.29902680  0.06410927  1
  O  O16  1  0.38995198  0.96272014  0.25000000  1
  O  O17  1  0.11004802  0.46272014  0.25000000  1
  O  O18  1  0.58695073  0.02897519  0.75000000  1
  O  O19  1  0.91304927  0.52897519  0.75000000  1
