# generated using pymatgen
data_Ca4Ti3FeO12
_symmetry_space_group_name_H-M   'P 1'
_cell_length_a   5.47801936
_cell_length_b   5.46855529
_cell_length_c   7.67474430
_cell_angle_alpha   90.02973718
_cell_angle_beta   89.90393942
_cell_angle_gamma   89.84010143
_symmetry_Int_Tables_number   1
_chemical_formula_structural   Ca4Ti3FeO12
_chemical_formula_sum   'Ca4 Ti3 Fe1 O12'
_cell_volume   229.90992739
_cell_formula_units_Z   1
loop_
 _symmetry_equiv_pos_site_id
 _symmetry_equiv_pos_as_xyz
  1  'x, y, z'
loop_
 _atom_site_type_symbol
 _atom_site_label
 _atom_site_symmetry_multiplicity
 _atom_site_fract_x
 _atom_site_fract_y
 _atom_site_fract_z
 _atom_site_occupancy
  Ca  Ca0  1  0.98551058  0.99811850  0.75237537  1
  Ca  Ca1  1  0.01447553  0.00158452  0.24757617  1
  Ca  Ca2  1  0.49050358  0.50366287  0.24603335  1
  Ca  Ca3  1  0.50955469  0.49593197  0.75411752  1
  Ti  Ti4  1  0.00005120  0.49975362  0.00003691  1
  Ti  Ti5  1  0.50003606  0.99986971  0.50003668  1
  Ti  Ti6  1  0.00005852  0.49987602  0.50000850  1
  Fe  Fe7  1  0.49992411  0.99965729  0.00022424  1
  O  O8  1  0.75167057  0.24877031  0.54262293  1
  O  O9  1  0.24804957  0.75086944  0.45728368  1
  O  O10  1  0.08004962  0.50036269  0.74918080  1
  O  O11  1  0.91994943  0.49892065  0.25073407  1
  O  O12  1  0.25308872  0.25345781  0.04644156  1
  O  O13  1  0.74704548  0.74595675  0.95349118  1
  O  O14  1  0.74851769  0.74800536  0.54521291  1
  O  O15  1  0.25137935  0.25153832  0.45469681  1
  O  O16  1  0.41464009  0.00611140  0.74916091  1
  O  O17  1  0.58534775  0.99321127  0.25079922  1
  O  O18  1  0.24559694  0.75017982  0.04496437  1
  O  O19  1  0.75455052  0.24915167  0.95500283  1
