# generated using pymatgen
data_Ce2HfCo16
_symmetry_space_group_name_H-M   'P 1'
_cell_length_a   8.24981694
_cell_length_b   8.36601635
_cell_length_c   8.36696963
_cell_angle_alpha   60.00376877
_cell_angle_beta   90.01430927
_cell_angle_gamma   90.00000000
_symmetry_Int_Tables_number   1
_chemical_formula_structural   Ce2HfCo16
_chemical_formula_sum   'Ce4 Hf2 Co32'
_cell_volume   500.12471694
_cell_formula_units_Z   2
loop_
 _symmetry_equiv_pos_site_id
 _symmetry_equiv_pos_as_xyz
  1  'x, y, z'
loop_
 _atom_site_type_symbol
 _atom_site_label
 _atom_site_symmetry_multiplicity
 _atom_site_fract_x
 _atom_site_fract_y
 _atom_site_fract_z
 _atom_site_occupancy
  Ce  Ce0  1  0.26744027  0.66671500  0.66657000  1
  Ce  Ce1  1  0.73255973  0.33328500  0.33343000  1
  Ce  Ce2  1  0.75072174  0.99999116  0.00001768  1
  Ce  Ce3  1  0.24927826  0.00000884  0.99998232  1
  Hf  Hf4  1  0.11805182  0.33307740  0.33384520  1
  Hf  Hf5  1  0.88194818  0.66692260  0.66615480  1
  Co  Co6  1  0.74872260  0.67241564  0.36305836  1
  Co  Co7  1  0.74856163  0.36310447  0.96452029  1
  Co  Co8  1  0.74884605  0.96471888  0.67228934  1
  Co  Co9  1  0.74884605  0.36299178  0.67228934  1
  Co  Co10  1  0.74872260  0.96452600  0.36305836  1
  Co  Co11  1  0.74856163  0.67237524  0.96452029  1
  Co  Co12  1  0.25127740  0.32758436  0.63694164  1
  Co  Co13  1  0.25143837  0.63689553  0.03547971  1
  Co  Co14  1  0.25115395  0.03528112  0.32771066  1
  Co  Co15  1  0.25115395  0.63700822  0.32771066  1
  Co  Co16  1  0.25127740  0.03547400  0.63694164  1
  Co  Co17  1  0.25143837  0.32762476  0.03547971  1
  Co  Co18  1  0.48569627  0.83451744  0.83455832  1
  Co  Co19  1  0.48579559  0.83441054  0.33117891  1
  Co  Co20  1  0.48569627  0.33092424  0.83455832  1
  Co  Co21  1  0.51430373  0.16548256  0.16544168  1
  Co  Co22  1  0.51420441  0.16558946  0.66882109  1
  Co  Co23  1  0.51430373  0.66907576  0.16544168  1
  Co  Co24  1  0.97581885  0.16362120  0.16394106  1
  Co  Co25  1  0.97598473  0.16363230  0.67273541  1
  Co  Co26  1  0.97581885  0.67243775  0.16394106  1
  Co  Co27  1  0.02418115  0.83637880  0.83605894  1
  Co  Co28  1  0.02401527  0.83636770  0.32726459  1
  Co  Co29  1  0.02418115  0.32756225  0.83605894  1
  Co  Co30  1  0.50000000  0.50000000  0.50000000  1
  Co  Co31  1  0.50000000  0.50000000  -0.00000000  1
  Co  Co32  1  0.50000000  -0.00000000  0.50000000  1
  Co  Co33  1  -0.00000000  0.50000000  0.50000000  1
  Co  Co34  1  -0.00000000  0.50000000  -0.00000000  1
  Co  Co35  1  -0.00000000  -0.00000000  0.50000000  1
  Co  Co36  1  0.58921712  0.66677896  0.66644208  1
  Co  Co37  1  0.41078288  0.33322104  0.33355792  1
