# generated using pymatgen
data_BaSrCaMg(SiO4)2
_symmetry_space_group_name_H-M   'P 1'
_cell_length_a   5.53166482
_cell_length_b   5.53167504
_cell_length_c   6.99092960
_cell_angle_alpha   90.00065552
_cell_angle_beta   90.00063356
_cell_angle_gamma   60.00026066
_symmetry_Int_Tables_number   1
_chemical_formula_structural   BaSrCaMg(SiO4)2
_chemical_formula_sum   'Ba1 Sr1 Ca1 Mg1 Si2 O8'
_cell_volume   185.25895816
_cell_formula_units_Z   1
loop_
 _symmetry_equiv_pos_site_id
 _symmetry_equiv_pos_as_xyz
  1  'x, y, z'
loop_
 _atom_site_type_symbol
 _atom_site_label
 _atom_site_symmetry_multiplicity
 _atom_site_fract_x
 _atom_site_fract_y
 _atom_site_fract_z
 _atom_site_occupancy
  Ba  Ba0  1  0.99999924  0.99999831  0.49903887  1
  Sr  Sr1  1  0.66666631  0.66666628  0.84077070  1
  Ca  Ca2  1  0.33330841  0.33330769  0.16747070  1
  Mg  Mg3  1  0.99999925  0.99999885  0.00000404  1
  Si  Si4  1  0.66667116  0.66667164  0.27232850  1
  Si  Si5  1  0.33333076  0.33333129  0.72613002  1
  O  O6  1  0.66667630  0.66667557  0.50261590  1
  O  O7  1  0.33332500  0.33332541  0.49278253  1
  O  O8  1  0.82536519  0.82536511  0.17776628  1
  O  O9  1  0.34928400  0.82537585  0.17777262  1
  O  O10  1  0.82537574  0.34928360  0.17777133  1
  O  O11  1  0.17518077  0.17518189  0.82185615  1
  O  O12  1  0.64963835  0.17517971  0.82184584  1
  O  O13  1  0.17517953  0.64963880  0.82184652  1
