# generated using pymatgen
data_BaSrYTlCu2O7
_symmetry_space_group_name_H-M   'P 1'
_cell_length_a   3.85118540
_cell_length_b   3.87001322
_cell_length_c   12.49511486
_cell_angle_alpha   90.16426354
_cell_angle_beta   90.00000000
_cell_angle_gamma   90.00000000
_symmetry_Int_Tables_number   1
_chemical_formula_structural   BaSrYTlCu2O7
_chemical_formula_sum   'Ba1 Sr1 Y1 Tl1 Cu2 O7'
_cell_volume   186.22815579
_cell_formula_units_Z   1
loop_
 _symmetry_equiv_pos_site_id
 _symmetry_equiv_pos_as_xyz
  1  'x, y, z'
loop_
 _atom_site_type_symbol
 _atom_site_label
 _atom_site_symmetry_multiplicity
 _atom_site_fract_x
 _atom_site_fract_y
 _atom_site_fract_z
 _atom_site_occupancy
  Ba  Ba0  1  0.50000000  0.51552780  0.79428722  1
  Sr  Sr1  1  0.50000000  0.51621772  0.21022242  1
  Y  Y2  1  0.50000000  0.50228032  0.49568812  1
  Tl  Tl3  1  -0.00000000  0.08283024  0.00785770  1
  Cu  Cu4  1  0.00000000  0.00466680  0.62596019  1
  Cu  Cu5  1  -0.00000000  0.00394229  0.35930673  1
  O  O6  1  0.50000000  0.00447884  0.61030789  1
  O  O7  1  0.00000000  0.50439818  0.61082031  1
  O  O8  1  0.50000000  0.00236623  0.37989997  1
  O  O9  1  0.00000000  0.50384280  0.37888543  1
  O  O10  1  0.00000000  0.00714831  0.83783433  1
  O  O11  1  0.00000000  0.99928700  0.17761131  1
  O  O12  1  0.50000000  0.43801348  0.01131837  1
