# generated using pymatgen
data_Ca3Er2(SnS4)3
_symmetry_space_group_name_H-M   'P 1'
_cell_length_a   3.90346522
_cell_length_b   11.55458611
_cell_length_c   11.55458557
_cell_angle_alpha   59.47713532
_cell_angle_beta   90.00000000
_cell_angle_gamma   90.00000000
_symmetry_Int_Tables_number   1
_chemical_formula_structural   Ca3Er2(SnS4)3
_chemical_formula_sum   'Ca3 Er2 Sn3 S12'
_cell_volume   448.92866275
_cell_formula_units_Z   1
loop_
 _symmetry_equiv_pos_site_id
 _symmetry_equiv_pos_as_xyz
  1  'x, y, z'
loop_
 _atom_site_type_symbol
 _atom_site_label
 _atom_site_symmetry_multiplicity
 _atom_site_fract_x
 _atom_site_fract_y
 _atom_site_fract_z
 _atom_site_occupancy
  Ca  Ca0  1  -0.00000000  0.33008736  0.33809158  1
  Ca  Ca1  1  0.00000000  0.66190842  0.66991264  1
  Ca  Ca2  1  -0.00000000  0.28317523  0.71682477  1
  Er  Er3  1  -0.00000000  0.71524503  0.99869775  1
  Er  Er4  1  -0.00000000  0.00130225  0.28475497  1
  Sn  Sn5  1  0.50000000  0.67215433  0.32784567  1
  Sn  Sn6  1  0.50000000  0.32934798  0.99716590  1
  Sn  Sn7  1  0.50000000  0.00283410  0.67065202  1
  S  S8  1  -0.00000000  0.82732486  0.17267514  1
  S  S9  1  0.00000000  0.17128416  0.00785778  1
  S  S10  1  0.00000000  0.99214222  0.82871584  1
  S  S11  1  0.00000000  0.52796352  0.47203648  1
  S  S12  1  0.00000000  0.47410736  0.00330959  1
  S  S13  1  0.00000000  0.99669041  0.52589264  1
  S  S14  1  0.50000000  0.56179556  0.18483229  1
  S  S15  1  0.50000000  0.18658445  0.25358144  1
  S  S16  1  0.50000000  0.25415727  0.54979078  1
  S  S17  1  0.50000000  0.81516771  0.43820444  1
  S  S18  1  0.50000000  0.74641856  0.81341555  1
  S  S19  1  0.50000000  0.45020922  0.74584273  1
