# generated using pymatgen
data_BaSr4(FeO2)5
_symmetry_space_group_name_H-M   'P 1'
_cell_length_a   4.08990176
_cell_length_b   13.45052023
_cell_length_c   5.44638591
_cell_angle_alpha   93.62729863
_cell_angle_beta   90.00000000
_cell_angle_gamma   90.00000000
_symmetry_Int_Tables_number   1
_chemical_formula_structural   BaSr4(FeO2)5
_chemical_formula_sum   'Ba1 Sr4 Fe5 O10'
_cell_volume   299.01258889
_cell_formula_units_Z   1
loop_
 _symmetry_equiv_pos_site_id
 _symmetry_equiv_pos_as_xyz
  1  'x, y, z'
loop_
 _atom_site_type_symbol
 _atom_site_label
 _atom_site_symmetry_multiplicity
 _atom_site_fract_x
 _atom_site_fract_y
 _atom_site_fract_z
 _atom_site_occupancy
  Ba  Ba0  1  0.50000000  0.00000000  0.50000000  1
  Sr  Sr1  1  0.50000000  0.20413988  0.09676469  1
  Sr  Sr2  1  0.50000000  0.40180259  0.70076391  1
  Sr  Sr3  1  0.50000000  0.59819741  0.29923609  1
  Sr  Sr4  1  0.50000000  0.79586012  0.90323531  1
  Fe  Fe5  1  0.00000000  0.79397974  0.40530346  1
  Fe  Fe6  1  -0.00000000  0.40061089  0.20059772  1
  Fe  Fe7  1  -0.00000000  0.59938911  0.79940228  1
  Fe  Fe8  1  0.00000000  0.00000000  0.00000000  1
  Fe  Fe9  1  0.00000000  0.20602026  0.59469654  1
  O  O10  1  0.00000000  0.89017129  0.71649703  1
  O  O11  1  0.00000000  0.50000000  0.50000000  1
  O  O12  1  0.00000000  0.69767533  0.10009857  1
  O  O13  1  -0.00000000  0.10982871  0.28350297  1
  O  O14  1  0.00000000  0.30232467  0.89990143  1
  O  O15  1  0.50000000  0.79269011  0.40066570  1
  O  O16  1  0.50000000  0.40052392  0.20014219  1
  O  O17  1  0.50000000  0.59947608  0.79985781  1
  O  O18  1  0.50000000  0.00000000  0.00000000  1
  O  O19  1  0.50000000  0.20730989  0.59933430  1
