# generated using pymatgen
data_Li9Mn2Co5O16
_symmetry_space_group_name_H-M   'P 1'
_cell_length_a   3.02282494
_cell_length_b   7.79535827
_cell_length_c   12.49609119
_cell_angle_alpha   90.59860651
_cell_angle_beta   90.21347000
_cell_angle_gamma   82.32925544
_symmetry_Int_Tables_number   1
_chemical_formula_structural   Li9Mn2Co5O16
_chemical_formula_sum   'Li9 Mn2 Co5 O16'
_cell_volume   291.80623959
_cell_formula_units_Z   1
loop_
 _symmetry_equiv_pos_site_id
 _symmetry_equiv_pos_as_xyz
  1  'x, y, z'
loop_
 _atom_site_type_symbol
 _atom_site_label
 _atom_site_symmetry_multiplicity
 _atom_site_fract_x
 _atom_site_fract_y
 _atom_site_fract_z
 _atom_site_occupancy
  Li  Li0  1  0.81020755  0.37583975  0.06459226  1
  Li  Li1  1  0.06105546  0.87941687  0.31744812  1
  Li  Li2  1  0.31755622  0.37449977  0.56011054  1
  Li  Li3  1  0.18579257  0.62727637  0.93677606  1
  Li  Li4  1  0.43374304  0.12620248  0.19035745  1
  Li  Li5  1  0.68291351  0.62362365  0.44041927  1
  Li  Li6  1  0.56407000  0.87384725  0.80916221  1
  Li  Li7  1  0.94279506  0.12034808  0.68121810  1
  Li  Li8  1  0.49985409  0.00035043  0.49934657  1
  Mn  Mn9  1  0.01125256  0.99777641  0.00078393  1
  Mn  Mn10  1  0.36919058  0.25314040  0.87265329  1
  Co  Co11  1  0.24182257  0.49771299  0.25359282  1
  Co  Co12  1  0.74356112  0.50372763  0.74487643  1
  Co  Co13  1  0.62644219  0.74515489  0.12902003  1
  Co  Co14  1  0.88512307  0.23952673  0.37982177  1
  Co  Co15  1  0.11657721  0.76272650  0.62022745  1
  O  O16  1  0.37772778  0.18710999  0.02475848  1
  O  O17  1  0.61317027  0.67913394  0.27804144  1
  O  O18  1  0.90163109  0.19773192  0.51634162  1
  O  O19  1  0.73927729  0.44140086  0.89583107  1
  O  O20  1  0.04826392  0.92769037  0.14994968  1
  O  O21  1  0.26800897  0.42545000  0.39736705  1
  O  O22  1  0.16427515  0.68650302  0.76587638  1
  O  O23  1  0.51488563  0.92392496  0.65211903  1
  O  O24  1  0.20095777  0.56568266  0.10712441  1
  O  O25  1  0.49846782  0.07625806  0.34631193  1
  O  O26  1  0.74634752  0.57052020  0.60020440  1
  O  O27  1  0.63728454  0.81154809  0.97663763  1
  O  O28  1  0.87093246  0.31743145  0.23357958  1
  O  O29  1  0.09958367  0.80210215  0.48308076  1
  O  O30  1  0.99840816  0.06735100  0.85012393  1
  O  O31  1  0.32882117  0.31899114  0.72224432  1
