# generated using pymatgen
data_BaSr3Mn4O12
_symmetry_space_group_name_H-M   'P 1'
_cell_length_a   5.59171913
_cell_length_b   5.59172478
_cell_length_c   9.33598553
_cell_angle_alpha   90.00000000
_cell_angle_beta   90.00000000
_cell_angle_gamma   59.99996659
_symmetry_Int_Tables_number   1
_chemical_formula_structural   BaSr3Mn4O12
_chemical_formula_sum   'Ba1 Sr3 Mn4 O12'
_cell_volume   252.80274897
_cell_formula_units_Z   1
loop_
 _symmetry_equiv_pos_site_id
 _symmetry_equiv_pos_as_xyz
  1  'x, y, z'
loop_
 _atom_site_type_symbol
 _atom_site_label
 _atom_site_symmetry_multiplicity
 _atom_site_fract_x
 _atom_site_fract_y
 _atom_site_fract_z
 _atom_site_occupancy
  Ba  Ba0  1  0.33334030  0.33332985  0.75000000  1
  Sr  Sr1  1  0.66664109  0.66667946  0.25000000  1
  Sr  Sr2  1  -0.00000016  0.00000008  0.49769249  1
  Sr  Sr3  1  -0.00000016  0.00000008  0.00230751  1
  Mn  Mn4  1  0.33333286  0.33333357  0.11324610  1
  Mn  Mn5  1  0.66666941  0.66666529  0.88820919  1
  Mn  Mn6  1  0.66666941  0.66666529  0.61179081  1
  Mn  Mn7  1  0.33333286  0.33333357  0.38675390  1
  O  O8  1  0.81705474  0.36589563  0.75000000  1
  O  O9  1  0.36591077  0.81704462  0.75000000  1
  O  O10  1  0.81705474  0.81704963  0.75000000  1
  O  O11  1  0.18217379  0.63565693  0.25000000  1
  O  O12  1  0.63564128  0.18217936  0.25000000  1
  O  O13  1  0.18217379  0.18216928  0.25000000  1
  O  O14  1  0.50195198  0.99609590  0.49610908  1
  O  O15  1  0.99609869  0.50195065  0.49611030  1
  O  O16  1  0.50195198  0.50195212  0.49610908  1
  O  O17  1  0.50195198  0.99609590  0.00389092  1
  O  O18  1  0.99609869  0.50195065  0.00388970  1
  O  O19  1  0.50195198  0.50195212  0.00389092  1
