# generated using pymatgen
data_BaSr3(ZrSe3)4
_symmetry_space_group_name_H-M   'P 1'
_cell_length_a   4.02098296
_cell_length_b   9.04196992
_cell_length_c   14.82634502
_cell_angle_alpha   89.97659459
_cell_angle_beta   90.00000000
_cell_angle_gamma   90.00000000
_symmetry_Int_Tables_number   1
_chemical_formula_structural   BaSr3(ZrSe3)4
_chemical_formula_sum   'Ba1 Sr3 Zr4 Se12'
_cell_volume   539.05038037
_cell_formula_units_Z   1
loop_
 _symmetry_equiv_pos_site_id
 _symmetry_equiv_pos_as_xyz
  1  'x, y, z'
loop_
 _atom_site_type_symbol
 _atom_site_label
 _atom_site_symmetry_multiplicity
 _atom_site_fract_x
 _atom_site_fract_y
 _atom_site_fract_z
 _atom_site_occupancy
  Ba  Ba0  1  0.75000000  0.06768740  0.17650763  1
  Sr  Sr1  1  0.75000000  0.56356861  0.32392283  1
  Sr  Sr2  1  0.25000000  0.93731246  0.82144500  1
  Sr  Sr3  1  0.25000000  0.43642998  0.67774243  1
  Zr  Zr4  1  0.75000000  0.33406081  0.93965935  1
  Zr  Zr5  1  0.75000000  0.83011784  0.55849380  1
  Zr  Zr6  1  0.25000000  0.66628176  0.05738496  1
  Zr  Zr7  1  0.25000000  0.16978657  0.44438171  1
  Se  Se8  1  0.75000000  0.33913711  0.51313270  1
  Se  Se9  1  0.75000000  0.83574569  0.98762199  1
  Se  Se10  1  0.25000000  0.66156431  0.48903886  1
  Se  Se11  1  0.25000000  0.16175208  0.00484710  1
  Se  Se12  1  0.75000000  0.47499590  0.10667413  1
  Se  Se13  1  0.75000000  0.97862321  0.39392217  1
  Se  Se14  1  0.25000000  0.52398705  0.89093343  1
  Se  Se15  1  0.25000000  0.02137740  0.60848966  1
  Se  Se16  1  0.75000000  0.20915724  0.78101031  1
  Se  Se17  1  0.75000000  0.70873016  0.71803010  1
  Se  Se18  1  0.25000000  0.77875770  0.21908074  1
  Se  Se19  1  0.25000000  0.30092671  0.28768112  1
