# generated using pymatgen
data_Ba3HfNb4O15
_symmetry_space_group_name_H-M   'P 1'
_cell_length_a   4.11259297
_cell_length_b   12.81272529
_cell_length_c   12.81272529
_cell_angle_alpha   90.00000000
_cell_angle_beta   90.00000000
_cell_angle_gamma   90.00000000
_symmetry_Int_Tables_number   1
_chemical_formula_structural   Ba3HfNb4O15
_chemical_formula_sum   'Ba6 Hf2 Nb8 O30'
_cell_volume   675.14764699
_cell_formula_units_Z   2
loop_
 _symmetry_equiv_pos_site_id
 _symmetry_equiv_pos_as_xyz
  1  'x, y, z'
loop_
 _atom_site_type_symbol
 _atom_site_label
 _atom_site_symmetry_multiplicity
 _atom_site_fract_x
 _atom_site_fract_y
 _atom_site_fract_z
 _atom_site_occupancy
  Ba  Ba0  1  0.33458660  0.50000000  0.50000000  1
  Ba  Ba1  1  0.33458660  0.00000000  0.00000000  1
  Ba  Ba2  1  0.34424246  0.83222699  0.33222699  1
  Ba  Ba3  1  0.34424246  0.16777301  0.66777301  1
  Ba  Ba4  1  0.34424246  0.66777301  0.83222699  1
  Ba  Ba5  1  0.34424246  0.33222699  0.16777301  1
  Hf  Hf6  1  0.82670550  0.00000000  0.50000000  1
  Hf  Hf7  1  0.82670550  0.50000000  0.00000000  1
  Nb  Nb8  1  0.85481758  0.28612520  0.42540756  1
  Nb  Nb9  1  0.85481758  0.71387480  0.57459244  1
  Nb  Nb10  1  0.85481758  0.21387480  0.92540756  1
  Nb  Nb11  1  0.85481758  0.78612520  0.07459244  1
  Nb  Nb12  1  0.85481758  0.42540756  0.71387480  1
  Nb  Nb13  1  0.85481758  0.57459244  0.28612520  1
  Nb  Nb14  1  0.85481758  0.92540756  0.78612520  1
  Nb  Nb15  1  0.85481758  0.07459244  0.21387480  1
  O  O16  1  0.81632852  0.48950679  0.16242481  1
  O  O17  1  0.81632852  0.51049321  0.83757519  1
  O  O18  1  0.81632852  0.01049321  0.66242481  1
  O  O19  1  0.81632852  0.98950679  0.33757519  1
  O  O20  1  0.81632852  0.16242481  0.51049321  1
  O  O21  1  0.81632852  0.83757519  0.48950679  1
  O  O22  1  0.81632852  0.66242481  0.98950679  1
  O  O23  1  0.81632852  0.33757519  0.01049321  1
  O  O24  1  0.80829803  0.43275218  0.36228466  1
  O  O25  1  0.80829803  0.56724782  0.63771534  1
  O  O26  1  0.80829803  0.06724782  0.86228466  1
  O  O27  1  0.80829803  0.93275218  0.13771534  1
  O  O28  1  0.80829803  0.36228466  0.56724782  1
  O  O29  1  0.80829803  0.63771534  0.43275218  1
  O  O30  1  0.80829803  0.86228466  0.93275218  1
  O  O31  1  0.80829803  0.13771534  0.06724782  1
  O  O32  1  0.31140558  0.29470869  0.42096118  1
  O  O33  1  0.31140558  0.70529131  0.57903882  1
  O  O34  1  0.31140558  0.20529131  0.92096118  1
  O  O35  1  0.31140558  0.79470869  0.07903882  1
  O  O36  1  0.31140558  0.42096118  0.70529131  1
  O  O37  1  0.31140558  0.57903882  0.29470869  1
  O  O38  1  0.31140558  0.92096118  0.79470869  1
  O  O39  1  0.31140558  0.07903882  0.20529131  1
  O  O40  1  0.32048209  0.00000000  0.50000000  1
  O  O41  1  0.32048209  0.50000000  0.00000000  1
  O  O42  1  0.81367101  0.71702092  0.21702092  1
  O  O43  1  0.81367101  0.28297908  0.78297908  1
  O  O44  1  0.81367101  0.78297908  0.71702092  1
  O  O45  1  0.81367101  0.21702092  0.28297908  1
