# generated using pymatgen
data_Ba4Ti11O26
_symmetry_space_group_name_H-M   'P 1'
_cell_length_a   7.85805381
_cell_length_b   10.04860983
_cell_length_c   7.92014688
_cell_angle_alpha   92.63586951
_cell_angle_beta   75.70259548
_cell_angle_gamma   66.95850237
_symmetry_Int_Tables_number   1
_chemical_formula_structural   Ba4Ti11O26
_chemical_formula_sum   'Ba4 Ti11 O26'
_cell_volume   550.49509444
_cell_formula_units_Z   1
loop_
 _symmetry_equiv_pos_site_id
 _symmetry_equiv_pos_as_xyz
  1  'x, y, z'
loop_
 _atom_site_type_symbol
 _atom_site_label
 _atom_site_symmetry_multiplicity
 _atom_site_fract_x
 _atom_site_fract_y
 _atom_site_fract_z
 _atom_site_occupancy
  Ba  Ba0  1  0.09202565  0.76909260  0.09301021  1
  Ba  Ba1  1  0.58759946  0.77778596  0.09578666  1
  Ba  Ba2  1  0.90584584  0.23669251  0.87801983  1
  Ba  Ba3  1  0.41776779  0.23514175  0.88602432  1
  Ti  Ti4  1  0.93962785  0.43480181  0.34519721  1
  Ti  Ti5  1  0.45532772  0.43269026  0.34612566  1
  Ti  Ti6  1  0.05479567  0.55884068  0.66327174  1
  Ti  Ti7  1  0.55806804  0.55052528  0.66590314  1
  Ti  Ti8  1  0.12033490  0.10625728  0.25092347  1
  Ti  Ti9  1  0.65263400  0.10035054  0.24385996  1
  Ti  Ti10  1  0.85151759  0.91508545  0.76015656  1
  Ti  Ti11  1  0.35581755  0.90661634  0.76710634  1
  Ti  Ti12  1  0.26477944  0.22326013  0.50708726  1
  Ti  Ti13  1  0.24710385  0.77029576  0.47623271  1
  Ti  Ti14  1  0.74392140  0.77021016  0.47771503  1
  O  O15  1  0.02156396  0.24150789  0.46535384  1
  O  O16  1  0.50309054  0.24234789  0.46561383  1
  O  O17  1  0.98938268  0.75846008  0.52717100  1
  O  O18  1  0.48876680  0.76573667  0.51115473  1
  O  O19  1  0.18556593  0.42834954  0.39985329  1
  O  O20  1  0.67621922  0.44620464  0.40214254  1
  O  O21  1  0.81595632  0.56863589  0.59996319  1
  O  O22  1  0.31490119  0.56928882  0.60039756  1
  O  O23  1  0.12755391  0.37889875  0.73409781  1
  O  O24  1  0.59443512  0.41237954  0.79265040  1
  O  O25  1  0.87991308  0.61759748  0.26742842  1
  O  O26  1  0.36801965  0.61796323  0.26878259  1
  O  O27  1  0.29247977  0.08655080  0.66029094  1
  O  O28  1  0.78463803  0.08311404  0.69246756  1
  O  O29  1  0.71373338  0.91396882  0.34357344  1
  O  O30  1  0.20232284  0.91342490  0.33869094  1
  O  O31  1  0.37884928  0.10430714  0.27143096  1
  O  O32  1  0.89853707  0.09020702  0.22691452  1
  O  O33  1  0.62608094  0.88085304  0.72414000  1
  O  O34  1  0.12871459  0.88351978  0.72831553  1
  O  O35  1  0.93903782  0.68900134  0.86253543  1
  O  O36  1  0.43153385  0.71365482  0.84906078  1
  O  O37  1  0.05982759  0.29525579  0.14487580  1
  O  O38  1  0.57290589  0.29357110  0.14581630  1
  O  O39  1  0.73866232  0.98935044  0.00840996  1
  O  O40  1  0.26329149  0.00000403  0.99624856  1
