# generated using pymatgen
data_Ba5Mn(Co2O7)2
_symmetry_space_group_name_H-M   'P 1'
_cell_length_a   5.78992920
_cell_length_b   10.01660654
_cell_length_c   12.08968284
_cell_angle_alpha   90.05262305
_cell_angle_beta   90.23444388
_cell_angle_gamma   90.33131038
_symmetry_Int_Tables_number   1
_chemical_formula_structural   Ba5Mn(Co2O7)2
_chemical_formula_sum   'Ba10 Mn2 Co8 O28'
_cell_volume   701.12860594
_cell_formula_units_Z   2
loop_
 _symmetry_equiv_pos_site_id
 _symmetry_equiv_pos_as_xyz
  1  'x, y, z'
loop_
 _atom_site_type_symbol
 _atom_site_label
 _atom_site_symmetry_multiplicity
 _atom_site_fract_x
 _atom_site_fract_y
 _atom_site_fract_z
 _atom_site_occupancy
  Ba  Ba0  1  0.99986734  0.99864653  0.00118710  1
  Ba  Ba1  1  0.50013266  0.50135347  0.99881290  1
  Ba  Ba2  1  0.99849619  0.33179337  0.42230386  1
  Ba  Ba3  1  0.50026641  0.83482121  0.42150582  1
  Ba  Ba4  1  0.50150381  0.16820663  0.57769614  1
  Ba  Ba5  1  0.99973359  0.66517879  0.57849418  1
  Ba  Ba6  1  0.00005455  0.33666165  0.76959162  1
  Ba  Ba7  1  0.49962207  0.82987063  0.77127925  1
  Ba  Ba8  1  0.49994545  0.16333835  0.23040838  1
  Ba  Ba9  1  0.00037793  0.67012937  0.22872075  1
  Mn  Mn10  1  0.49927755  0.50020956  0.29396997  1
  Mn  Mn11  1  0.00072245  0.99979044  0.70603003  1
  Co  Co12  1  0.99903329  0.33503367  0.13829159  1
  Co  Co13  1  0.50091391  0.83198642  0.13662350  1
  Co  Co14  1  0.50096671  0.16496633  0.86170841  1
  Co  Co15  1  0.99908609  0.66801358  0.86337650  1
  Co  Co16  1  0.00199085  0.99903519  0.29748644  1
  Co  Co17  1  0.49800915  0.50096481  0.70251356  1
  Co  Co18  1  0.99690230  0.00017957  0.49867057  1
  Co  Co19  1  0.50309770  0.49982043  0.50132943  1
  O  O20  1  0.25566735  0.41911645  0.19561206  1
  O  O21  1  0.75419037  0.91761996  0.19247958  1
  O  O22  1  0.74454563  0.41909386  0.19574963  1
  O  O23  1  0.25047237  0.91545509  0.19076746  1
  O  O24  1  0.99894866  0.16737932  0.19181715  1
  O  O25  1  0.50071555  0.66173771  0.19593162  1
  O  O26  1  0.24433265  0.08088355  0.80438794  1
  O  O27  1  0.74580963  0.58238004  0.80752042  1
  O  O28  1  0.75545437  0.08090614  0.80425037  1
  O  O29  1  0.24952763  0.58454491  0.80923254  1
  O  O30  1  0.50105134  0.33262068  0.80818285  1
  O  O31  1  0.99928445  0.83826229  0.80406838  1
  O  O32  1  0.00011339  0.33518674  0.99458086  1
  O  O33  1  0.50047525  0.83148066  0.99258246  1
  O  O34  1  0.49988661  0.16481326  0.00541914  1
  O  O35  1  0.99952475  0.66851934  0.00741754  1
  O  O36  1  0.27527148  0.42537721  0.59981679  1
  O  O37  1  0.77954638  0.92638713  0.60464292  1
  O  O38  1  0.73099669  0.42286346  0.59671486  1
  O  O39  1  0.21940303  0.92713741  0.60510242  1
  O  O40  1  0.00086543  0.14649927  0.60484290  1
  O  O41  1  0.49810716  0.65207072  0.59812272  1
  O  O42  1  0.22472852  0.07462279  0.40018321  1
  O  O43  1  0.72045362  0.57361287  0.39535708  1
  O  O44  1  0.76900331  0.07713654  0.40328514  1
  O  O45  1  0.28059697  0.57286259  0.39489758  1
  O  O46  1  0.49913457  0.35350073  0.39515710  1
  O  O47  1  0.00189284  0.84792928  0.40187728  1
