# generated using pymatgen
data_Ba8Ca3Nb5O24
_symmetry_space_group_name_H-M   'P 1'
_cell_length_a   8.49333302
_cell_length_b   8.49333303
_cell_length_c   10.50748309
_cell_angle_alpha   113.85038054
_cell_angle_beta   66.14962148
_cell_angle_gamma   90.00901196
_symmetry_Int_Tables_number   1
_chemical_formula_structural   Ba8Ca3Nb5O24
_chemical_formula_sum   'Ba8 Ca3 Nb5 O24'
_cell_volume   621.84192716
_cell_formula_units_Z   1
loop_
 _symmetry_equiv_pos_site_id
 _symmetry_equiv_pos_as_xyz
  1  'x, y, z'
loop_
 _atom_site_type_symbol
 _atom_site_label
 _atom_site_symmetry_multiplicity
 _atom_site_fract_x
 _atom_site_fract_y
 _atom_site_fract_z
 _atom_site_occupancy
  Ba  Ba0  1  0.87877881  0.12122119  0.74982097  1
  Ba  Ba1  1  0.12145022  0.37175110  0.25018333  1
  Ba  Ba2  1  0.37167040  0.62832960  0.74986433  1
  Ba  Ba3  1  0.62824890  0.87854978  0.25018333  1
  Ba  Ba4  1  0.62832960  0.37167040  0.25013567  1
  Ba  Ba5  1  0.87854978  0.62824890  0.74981667  1
  Ba  Ba6  1  0.12122119  0.87877881  0.25017903  1
  Ba  Ba7  1  0.37175110  0.12145022  0.74981667  1
  Ca  Ca8  1  0.25009040  0.25009040  0.50000000  1
  Ca  Ca9  1  0.50000000  0.50000000  0.00000000  1
  Ca  Ca10  1  0.74990960  0.74990960  0.50000000  1
  Nb  Nb11  1  0.74483149  0.25516851  0.51030923  1
  Nb  Nb12  1  0.00000000  0.50000000  0.00000000  1
  Nb  Nb13  1  0.25516851  0.74483149  0.48969077  1
  Nb  Nb14  1  0.50000000  0.00000000  0.00000000  1
  Nb  Nb15  1  0.00000000  0.00000000  0.00000000  1
  O  O16  1  0.99107106  0.24138303  0.48292227  1
  O  O17  1  0.23202372  0.49972437  0.00013242  1
  O  O18  1  0.47373350  0.75870764  0.51737054  1
  O  O19  1  0.75528455  0.00002986  0.99993555  1
  O  O20  1  0.63413225  0.36586775  0.73142321  1
  O  O21  1  0.88459456  0.61496590  0.23069700  1
  O  O22  1  0.11536352  0.88463648  0.76951003  1
  O  O23  1  0.38503410  0.11540544  0.23069700  1
  O  O24  1  0.75861697  0.00892894  0.48292227  1
  O  O25  1  0.99997014  0.24471545  0.99993555  1
  O  O26  1  0.24129236  0.52626650  0.51737054  1
  O  O27  1  0.50027563  0.76797628  0.00013242  1
  O  O28  1  0.52626650  0.24129236  0.48262946  1
  O  O29  1  0.76797628  0.50027563  0.99986758  1
  O  O30  1  0.00892894  0.75861697  0.51707773  1
  O  O31  1  0.24471545  0.99997014  0.00006445  1
  O  O32  1  0.88463648  0.11536352  0.23048997  1
  O  O33  1  0.11540544  0.38503410  0.76930300  1
  O  O34  1  0.36586775  0.63413225  0.26857679  1
  O  O35  1  0.61496590  0.88459456  0.76930300  1
  O  O36  1  0.75870764  0.47373350  0.48262946  1
  O  O37  1  0.00002986  0.75528455  0.00006445  1
  O  O38  1  0.24138303  0.99107106  0.51707773  1
  O  O39  1  0.49972437  0.23202372  0.99986758  1
