# generated using pymatgen
data_Ba6Pr2Y(CuO2)12
_symmetry_space_group_name_H-M   'P 1'
_cell_length_a   5.54686611
_cell_length_b   14.54606313
_cell_length_c   8.78413567
_cell_angle_alpha   72.42571662
_cell_angle_beta   71.00478237
_cell_angle_gamma   84.35993067
_symmetry_Int_Tables_number   1
_chemical_formula_structural   Ba6Pr2Y(CuO2)12
_chemical_formula_sum   'Ba6 Pr2 Y1 Cu12 O24'
_cell_volume   638.87559713
_cell_formula_units_Z   1
loop_
 _symmetry_equiv_pos_site_id
 _symmetry_equiv_pos_as_xyz
  1  'x, y, z'
loop_
 _atom_site_type_symbol
 _atom_site_label
 _atom_site_symmetry_multiplicity
 _atom_site_fract_x
 _atom_site_fract_y
 _atom_site_fract_z
 _atom_site_occupancy
  Ba  Ba0  1  0.50000000  0.72958495  0.13520753  1
  Ba  Ba1  1  0.16656950  0.72693152  0.80268078  1
  Ba  Ba2  1  0.83343050  0.72693152  0.47038770  1
  Ba  Ba3  1  0.16656950  0.27306848  0.52961230  1
  Ba  Ba4  1  0.83343050  0.27306848  0.19731922  1
  Ba  Ba5  1  0.50000000  0.27041505  0.86479247  1
  Pr  Pr6  1  0.83371004  0.00000000  0.33246554  1
  Pr  Pr7  1  0.16628996  0.00000000  0.66753446  1
  Y  Y8  1  0.50000000  0.00000000  -0.00000000  1
  Cu  Cu9  1  0.66589905  0.12601799  0.60481385  1
  Cu  Cu10  1  0.33410095  0.12601799  0.26916817  1
  Cu  Cu11  1  -0.00000000  0.12503106  0.93748447  1
  Cu  Cu12  1  0.33410095  0.87398201  0.39518615  1
  Cu  Cu13  1  0.00000000  0.87496894  0.06251553  1
  Cu  Cu14  1  0.66589905  0.87398201  0.73083183  1
  Cu  Cu15  1  0.66665360  0.42561910  0.45427794  1
  Cu  Cu16  1  0.33334640  0.42561910  0.12010296  1
  Cu  Cu17  1  -0.00000000  0.42527725  0.78736137  1
  Cu  Cu18  1  0.33334640  0.57438090  0.54572206  1
  Cu  Cu19  1  -0.00000000  0.57472275  0.21263863  1
  Cu  Cu20  1  0.66665360  0.57438090  0.87989704  1
  O  O21  1  0.50000000  0.11334302  0.44332849  1
  O  O22  1  0.17416108  0.10876201  0.10900391  1
  O  O23  1  0.82583892  0.10876201  0.78223408  1
  O  O24  1  0.17416108  0.89123799  0.21776592  1
  O  O25  1  0.82583892  0.89123799  0.89099609  1
  O  O26  1  0.50000000  0.88665698  0.55667151  1
  O  O27  1  0.66330199  0.89466860  0.21497388  1
  O  O28  1  0.33669801  0.89466860  0.89035753  1
  O  O29  1  -0.00000000  0.88958252  0.55520874  1
  O  O30  1  0.33669801  0.10533140  0.78502612  1
  O  O31  1  -0.00000000  0.11041748  0.44479126  1
  O  O32  1  0.66330199  0.10533140  0.10964247  1
  O  O33  1  0.66626243  0.29263213  0.52056942  1
  O  O34  1  0.33373757  0.29263213  0.18679846  1
  O  O35  1  -0.00000000  0.29219395  0.85390303  1
  O  O36  1  0.33373757  0.70736787  0.47943058  1
  O  O37  1  0.00000000  0.70780605  0.14609697  1
  O  O38  1  0.66626243  0.70736787  0.81320154  1
  O  O39  1  0.66704078  0.56163994  0.38631462  1
  O  O40  1  0.33295922  0.56163994  0.05204544  1
  O  O41  1  0.00000000  0.56159887  0.71920057  1
  O  O42  1  0.33295922  0.43836006  0.61368538  1
  O  O43  1  0.00000000  0.43840113  0.28079943  1
  O  O44  1  0.66704078  0.43836006  0.94795456  1
