# generated using pymatgen
data_Ba2Ca3Cu4HgO10
_symmetry_space_group_name_H-M   'P 1'
_cell_length_a   3.89770919
_cell_length_b   3.89770919
_cell_length_c   19.40210040
_cell_angle_alpha   90.00000000
_cell_angle_beta   90.00000000
_cell_angle_gamma   90.00000000
_symmetry_Int_Tables_number   1
_chemical_formula_structural   Ba2Ca3Cu4HgO10
_chemical_formula_sum   'Ba2 Ca3 Cu4 Hg1 O10'
_cell_volume   294.75936600
_cell_formula_units_Z   1
loop_
 _symmetry_equiv_pos_site_id
 _symmetry_equiv_pos_as_xyz
  1  'x, y, z'
loop_
 _atom_site_type_symbol
 _atom_site_label
 _atom_site_symmetry_multiplicity
 _atom_site_fract_x
 _atom_site_fract_y
 _atom_site_fract_z
 _atom_site_occupancy
  Ba  Ba0  1  0.50000000  0.50000000  0.84938079  1
  Ba  Ba1  1  0.50000000  0.50000000  0.15061921  1
  Ca  Ca2  1  0.50000000  0.50000000  0.66806319  1
  Ca  Ca3  1  0.50000000  0.50000000  0.33193681  1
  Ca  Ca4  1  0.50000000  0.50000000  0.50000000  1
  Cu  Cu5  1  0.00000000  0.00000000  0.74765152  1
  Cu  Cu6  1  0.00000000  -0.00000000  0.25234848  1
  Cu  Cu7  1  0.00000000  0.00000000  0.58492378  1
  Cu  Cu8  1  0.00000000  -0.00000000  0.41507622  1
  Hg  Hg9  1  0.00000000  -0.00000000  0.00000000  1
  O  O10  1  0.00000000  0.00000000  0.89661138  1
  O  O11  1  -0.00000000  -0.00000000  0.10338862  1
  O  O12  1  0.00000000  0.50000000  0.58410965  1
  O  O13  1  0.50000000  0.00000000  0.58410965  1
  O  O14  1  0.00000000  0.50000000  0.41589035  1
  O  O15  1  0.50000000  -0.00000000  0.41589035  1
  O  O16  1  -0.00000000  0.50000000  0.74999882  1
  O  O17  1  0.50000000  0.00000000  0.74999882  1
  O  O18  1  0.00000000  0.50000000  0.25000118  1
  O  O19  1  0.50000000  -0.00000000  0.25000118  1
