# generated using pymatgen
data_Li9Mn2Co5O16
_symmetry_space_group_name_H-M   'P 1'
_cell_length_a   2.92438878
_cell_length_b   19.35065373
_cell_length_c   5.12463232
_cell_angle_alpha   92.58229382
_cell_angle_beta   89.17805231
_cell_angle_gamma   86.38535064
_symmetry_Int_Tables_number   1
_chemical_formula_structural   Li9Mn2Co5O16
_chemical_formula_sum   'Li9 Mn2 Co5 O16'
_cell_volume   289.08321116
_cell_formula_units_Z   1
loop_
 _symmetry_equiv_pos_site_id
 _symmetry_equiv_pos_as_xyz
  1  'x, y, z'
loop_
 _atom_site_type_symbol
 _atom_site_label
 _atom_site_symmetry_multiplicity
 _atom_site_fract_x
 _atom_site_fract_y
 _atom_site_fract_z
 _atom_site_occupancy
  Li  Li0  1  0.92688964  0.13508244  0.69959952  1
  Li  Li1  1  0.32302743  0.36894038  0.55349889  1
  Li  Li2  1  0.68578165  0.62351657  0.43589133  1
  Li  Li3  1  0.06195402  0.87562578  0.31039333  1
  Li  Li4  1  0.42723925  0.13177915  0.19802520  1
  Li  Li5  1  0.81749540  0.36973419  0.05039925  1
  Li  Li6  1  0.18733030  0.62082965  0.94409598  1
  Li  Li7  1  0.56389148  0.87545820  0.81381366  1
  Li  Li8  1  0.37507411  0.25061849  0.87568697  1
  Mn  Mn9  1  0.99833898  0.00199457  0.00103927  1
  Mn  Mn10  1  0.12464279  0.75009217  0.62539513  1
  Co  Co11  1  0.75068919  0.49716482  0.74690528  1
  Co  Co12  1  0.49798781  0.00251351  0.50214329  1
  Co  Co13  1  0.87574143  0.25009347  0.37496458  1
  Co  Co14  1  0.25175808  0.49807303  0.24801487  1
  Co  Co15  1  0.62538998  0.74920650  0.12514882  1
  O  O16  1  0.47617871  0.05789298  0.86440849  1
  O  O17  1  0.84835751  0.30441045  0.66933983  1
  O  O18  1  0.20255663  0.55594417  0.60138871  1
  O  O19  1  0.60359799  0.80703173  0.49032446  1
  O  O20  1  0.97082235  0.05727690  0.32306399  1
  O  O21  1  0.35484298  0.30518992  0.23216508  1
  O  O22  1  0.70204291  0.55728135  0.09687072  1
  O  O23  1  0.09800457  0.80679788  0.94958216  1
  O  O24  1  0.39801347  0.19403054  0.52044044  1
  O  O25  1  0.80050636  0.44170832  0.39348625  1
  O  O26  1  0.15158964  0.69286798  0.30400164  1
  O  O27  1  0.52197930  0.94495600  0.13970950  1
  O  O28  1  0.90288068  0.19592191  0.07830592  1
  O  O29  1  0.30293419  0.43938613  0.89672038  1
  O  O30  1  0.64495690  0.69379099  0.75780459  1
  O  O31  1  0.02750430  0.94478981  0.67737249  1
