# generated using pymatgen
data_B8O
_symmetry_space_group_name_H-M   'P 1'
_cell_length_a   5.13987445
_cell_length_b   5.13987445
_cell_length_c   9.06911895
_cell_angle_alpha   74.43245802
_cell_angle_beta   92.00271157
_cell_angle_gamma   62.30263121
_symmetry_Int_Tables_number   1
_chemical_formula_structural   B8O
_chemical_formula_sum   'B24 O3'
_cell_volume   200.74150324
_cell_formula_units_Z   3
loop_
 _symmetry_equiv_pos_site_id
 _symmetry_equiv_pos_as_xyz
  1  'x, y, z'
loop_
 _atom_site_type_symbol
 _atom_site_label
 _atom_site_symmetry_multiplicity
 _atom_site_fract_x
 _atom_site_fract_y
 _atom_site_fract_z
 _atom_site_occupancy
  B  B0  1  0.16830767  0.00280929  0.49719626  1
  B  B1  1  0.66192899  0.99720814  0.00362466  1
  B  B2  1  0.33402521  0.00410783  0.32991738  1
  B  B3  1  0.83213315  0.99764837  0.83448478  1
  B  B4  1  0.50000555  0.67111141  0.49719626  1
  B  B5  1  0.00083280  0.65830433  0.00362466  1
  B  B6  1  0.33657962  0.98892197  0.00801312  1
  B  B7  1  0.83485000  0.01225223  0.49187407  1
  B  B8  1  0.16527768  0.99244598  0.17283170  1
  B  B9  1  0.67072135  0.00747020  0.66325115  1
  B  B10  1  0.99693508  0.32856650  0.00801312  1
  B  B11  1  0.50412630  0.34297593  0.49187407  1
  B  B12  1  0.75533210  0.20560529  0.11085547  1
  B  B13  1  0.27947319  0.20561527  0.59824300  1
  B  B14  1  0.53694968  0.22078001  0.31616967  1
  B  B15  1  0.04049021  0.19884297  0.84164724  1
  B  B16  1  0.31646076  0.64447663  0.11085547  1
  B  B17  1  0.80385827  0.68123019  0.59824300  1
  B  B18  1  0.72215195  0.80649817  0.39504400  1
  B  B19  1  0.22575202  0.79231643  0.90387500  1
  B  B20  1  0.95934895  0.79522282  0.16412613  1
  B  B21  1  0.46253006  0.80157016  0.66095990  1
  B  B22  1  0.20154217  0.32710795  0.39504400  1
  B  B23  1  0.69619143  0.32187702  0.90387500  1
  O  O24  1  0.07081805  0.38065401  0.69016404  1
  O  O25  1  0.92704420  0.61749532  0.30954888  1
  O  O26  1  0.43383355  0.62188558  0.81194798  1
