# generated using pymatgen
data_ThGe2
_symmetry_space_group_name_H-M   'P 1'
_cell_length_a   4.03193916
_cell_length_b   4.17545186
_cell_length_c   8.70929264
_cell_angle_alpha   103.86956994
_cell_angle_beta   90.00000000
_cell_angle_gamma   90.00000000
_symmetry_Int_Tables_number   1
_chemical_formula_structural   ThGe2
_chemical_formula_sum   'Th2 Ge4'
_cell_volume   142.34747067
_cell_formula_units_Z   2
loop_
 _symmetry_equiv_pos_site_id
 _symmetry_equiv_pos_as_xyz
  1  'x, y, z'
loop_
 _atom_site_type_symbol
 _atom_site_label
 _atom_site_symmetry_multiplicity
 _atom_site_fract_x
 _atom_site_fract_y
 _atom_site_fract_z
 _atom_site_occupancy
  Ge  Ge0  1  0.25000000  0.54891237  0.09782474  1
  Ge  Ge1  1  0.75000000  0.45108763  0.90217526  1
  Ge  Ge2  1  0.75000000  0.74877721  0.49755443  1
  Ge  Ge3  1  0.25000000  0.25122279  0.50244557  1
  Th  Th4  1  0.25000000  0.89253805  0.78507610  1
  Th  Th5  1  0.75000000  0.10746195  0.21492390  1
