# generated using pymatgen
data_AgBi3PbS6
_symmetry_space_group_name_H-M   'P 1'
_cell_length_a   4.12020611
_cell_length_b   7.16618916
_cell_length_c   20.00088330
_cell_angle_alpha   90.00000000
_cell_angle_beta   90.00000000
_cell_angle_gamma   73.29312401
_symmetry_Int_Tables_number   1
_chemical_formula_structural   AgBi3PbS6
_chemical_formula_sum   'Ag2 Bi6 Pb2 S12'
_cell_volume   565.62132907
_cell_formula_units_Z   2
loop_
 _symmetry_equiv_pos_site_id
 _symmetry_equiv_pos_as_xyz
  1  'x, y, z'
loop_
 _atom_site_type_symbol
 _atom_site_label
 _atom_site_symmetry_multiplicity
 _atom_site_fract_x
 _atom_site_fract_y
 _atom_site_fract_z
 _atom_site_occupancy
  Ag  Ag0  1  0.06083877  0.87832247  0.14015994  1
  Ag  Ag1  1  0.93916123  0.12167753  0.64015994  1
  Bi  Bi2  1  0.36980564  0.26038871  0.45665720  1
  Bi  Bi3  1  0.64414086  0.71171828  0.55476611  1
  Bi  Bi4  1  0.35585914  0.28828172  0.05476611  1
  Bi  Bi5  1  0.63019436  0.73961129  0.95665720  1
  Bi  Bi6  1  0.90018249  0.19963501  0.85882396  1
  Bi  Bi7  1  0.09981751  0.80036499  0.35882396  1
  Pb  Pb8  1  0.82342403  0.35315193  0.24321236  1
  Pb  Pb9  1  0.17657597  0.64684807  0.74321236  1
  S  S10  1  0.98409450  0.03181099  0.50689810  1
  S  S11  1  0.01590550  0.96818901  0.00689810  1
  S  S12  1  0.73827531  0.52344938  0.40509743  1
  S  S13  1  0.26085960  0.47828080  0.58969532  1
  S  S14  1  0.73914040  0.52171920  0.08969532  1
  S  S15  1  0.26172469  0.47655062  0.90509743  1
  S  S16  1  0.17516694  0.64966611  0.24023689  1
  S  S17  1  0.82483306  0.35033389  0.74023689  1
  S  S18  1  0.46416932  0.07166137  0.33673036  1
  S  S19  1  0.55610817  0.88778367  0.66772233  1
  S  S20  1  0.44389183  0.11221633  0.16772233  1
  S  S21  1  0.53583068  0.92833863  0.83673036  1
