# generated using pymatgen
data_Ca4AlSiH24SO16F13
_symmetry_space_group_name_H-M   'P 1'
_cell_length_a   12.01158881
_cell_length_b   11.98680637
_cell_length_c   11.98680637
_cell_angle_alpha   89.98376176
_cell_angle_beta   59.97508675
_cell_angle_gamma   120.02491325
_symmetry_Int_Tables_number   1
_chemical_formula_structural   Ca4AlSiH24SO16F13
_chemical_formula_sum   'Ca8 Al2 Si2 H48 S2 O32 F26'
_cell_volume   1219.27946515
_cell_formula_units_Z   2
loop_
 _symmetry_equiv_pos_site_id
 _symmetry_equiv_pos_as_xyz
  1  'x, y, z'
loop_
 _atom_site_type_symbol
 _atom_site_label
 _atom_site_symmetry_multiplicity
 _atom_site_fract_x
 _atom_site_fract_y
 _atom_site_fract_z
 _atom_site_occupancy
  Ca  Ca0  1  0.92114596  0.62668649  0.28394854  1
  Ca  Ca1  1  0.57885404  0.28394854  0.62668649  1
  Ca  Ca2  1  0.91514619  0.28806775  0.28689120  1
  Ca  Ca3  1  0.58485381  0.28689120  0.28806775  1
  Ca  Ca4  1  0.07885404  0.37331351  0.71605146  1
  Ca  Ca5  1  0.42114596  0.71605146  0.37331351  1
  Ca  Ca6  1  0.08485381  0.71193225  0.71310880  1
  Ca  Ca7  1  0.41514619  0.71310880  0.71193225  1
  Al  Al8  1  0.50000000  0.00000000  0.50000000  1
  Al  Al9  1  0.00000000  0.50000000  -0.00000000  1
  Si  Si10  1  0.50000000  0.50000000  0.50000000  1
  Si  Si11  1  0.00000000  0.50000000  0.50000000  1
  H  H12  1  0.03869182  0.78096206  0.44807333  1
  H  H13  1  0.46130818  0.44807333  0.78096206  1
  H  H14  1  0.04328459  0.26295258  0.00986586  1
  H  H15  1  0.45671541  0.00986586  0.26295258  1
  H  H16  1  0.22932848  0.44765374  0.25798414  1
  H  H17  1  0.22683478  0.77935814  0.01098769  1
  H  H18  1  0.27316522  0.01098769  0.77935814  1
  H  H19  1  0.27067152  0.25798414  0.44765374  1
  H  H20  1  0.70557378  0.25796901  0.78335632  1
  H  H21  1  0.79054507  0.01290474  0.44712639  1
  H  H22  1  0.79442622  0.78335632  0.25796901  1
  H  H23  1  0.70945493  0.44712639  0.01290474  1
  H  H24  1  0.96130818  0.21903794  0.55192667  1
  H  H25  1  0.53869182  0.55192667  0.21903794  1
  H  H26  1  0.95671541  0.73704742  0.99013414  1
  H  H27  1  0.54328459  0.99013414  0.73704742  1
  H  H28  1  0.77067152  0.55234626  0.74201586  1
  H  H29  1  0.77316522  0.22064186  0.98901231  1
  H  H30  1  0.72683478  0.98901231  0.22064186  1
  H  H31  1  0.72932848  0.74201586  0.55234626  1
  H  H32  1  0.29442622  0.74203099  0.21664368  1
  H  H33  1  0.20945493  0.98709526  0.55287361  1
  H  H34  1  0.20557378  0.21664368  0.74203099  1
  H  H35  1  0.29054507  0.55287361  0.98709526  1
  H  H36  1  0.05473255  0.88931633  0.35605277  1
  H  H37  1  0.44526745  0.35605277  0.88931633  1
  H  H38  1  0.05932329  0.16640130  0.08247564  1
  H  H39  1  0.44067671  0.08247564  0.16640130  1
  H  H40  1  0.24725737  0.35586827  0.16555719  1
  H  H41  1  0.24923505  0.89082148  0.08456818  1
  H  H42  1  0.25076495  0.08456818  0.89082148  1
  H  H43  1  0.25274263  0.16555719  0.35586827  1
  H  H44  1  0.52136382  0.16516640  0.89248392  1
  H  H45  1  0.97526429  0.08596333  0.35800178  1
  H  H46  1  0.97863618  0.89248392  0.16516640  1
  H  H47  1  0.52473571  0.35800178  0.08596333  1
  H  H48  1  0.94526745  0.11068367  0.64394723  1
  H  H49  1  0.55473255  0.64394723  0.11068367  1
  H  H50  1  0.94067671  0.83359870  0.91752436  1
  H  H51  1  0.55932329  0.91752436  0.83359870  1
  H  H52  1  0.75274263  0.64413173  0.83444281  1
  H  H53  1  0.75076495  0.10917852  0.91543182  1
  H  H54  1  0.74923505  0.91543182  0.10917852  1
  H  H55  1  0.74725737  0.83444281  0.64413173  1
  H  H56  1  0.47863618  0.83483360  0.10751608  1
  H  H57  1  0.02473571  0.91403667  0.64199822  1
  H  H58  1  0.02136382  0.10751608  0.83483360  1
  H  H59  1  0.47526429  0.64199822  0.91403667  1
  S  S60  1  0.25000000  0.12466460  0.12466460  1
  S  S61  1  0.75000000  0.87533540  0.87533540  1
  O  O62  1  0.00008810  0.79033180  0.39609482  1
  O  O63  1  0.49991190  0.39609482  0.79033180  1
  O  O64  1  0.00216775  0.20819709  0.09886150  1
  O  O65  1  0.49783225  0.09886150  0.20819709  1
  O  O66  1  0.18726605  0.39474412  0.21045053  1
  O  O67  1  0.19158292  0.79169021  0.10070003  1
  O  O68  1  0.30841708  0.10070003  0.79169021  1
  O  O69  1  0.31273395  0.21045053  0.39474412  1
  O  O70  1  0.60563902  0.21060677  0.79345451  1
  O  O71  1  0.89295588  0.10243798  0.39902456  1
  O  O72  1  0.89436098  0.79345451  0.21060677  1
  O  O73  1  0.60704412  0.39902456  0.10243798  1
  O  O74  1  0.99991190  0.20966820  0.60390518  1
  O  O75  1  0.50008810  0.60390518  0.20966820  1
  O  O76  1  0.99783225  0.79180291  0.90113850  1
  O  O77  1  0.50216775  0.90113850  0.79180291  1
  O  O78  1  0.81273395  0.60525588  0.78954947  1
  O  O79  1  0.80841708  0.20830979  0.89929997  1
  O  O80  1  0.69158292  0.89929997  0.20830979  1
  O  O81  1  0.68726605  0.78954947  0.60525588  1
  O  O82  1  0.39436098  0.78939323  0.20654549  1
  O  O83  1  0.10704412  0.89756202  0.60097544  1
  O  O84  1  0.10563902  0.20654549  0.78939323  1
  O  O85  1  0.39295588  0.60097544  0.89756202  1
  O  O86  1  0.35207673  0.27775676  0.07329396  1
  O  O87  1  0.14792327  0.07329396  0.27775676  1
  O  O88  1  0.35174741  0.07357174  0.07352379  1
  O  O89  1  0.14825259  0.07352379  0.07357174  1
  O  O90  1  0.64792327  0.72224324  0.92670604  1
  O  O91  1  0.85207673  0.92670604  0.72224324  1
  O  O92  1  0.64825259  0.92642826  0.92647621  1
  O  O93  1  0.85174741  0.92647621  0.92642826  1
  F  F94  1  0.75000000  0.37861610  0.37861610  1
  F  F95  1  0.25000000  0.62138390  0.62138390  1
  F  F96  1  0.82631037  0.48527752  0.57145205  1
  F  F97  1  0.67368963  0.57145205  0.48527752  1
  F  F98  1  0.81717179  0.33096325  0.10757743  1
  F  F99  1  0.68282821  0.10757743  0.33096325  1
  F  F100  1  0.05831829  0.57322999  0.34100040  1
  F  F101  1  0.05889099  0.48669051  0.11102234  1
  F  F102  1  0.44110901  0.11102234  0.48669051  1
  F  F103  1  0.44168171  0.34100040  0.57322999  1
  F  F104  1  0.91362282  0.34173281  0.48431920  1
  F  F105  1  0.59575183  0.10795646  0.57537891  1
  F  F106  1  0.58637718  0.48431920  0.34173281  1
  F  F107  1  0.90424817  0.57537891  0.10795646  1
  F  F108  1  0.17368963  0.51472248  0.42854795  1
  F  F109  1  0.32631037  0.42854795  0.51472248  1
  F  F110  1  0.18282821  0.66903675  0.89242257  1
  F  F111  1  0.31717179  0.89242257  0.66903675  1
  F  F112  1  0.94168171  0.42677001  0.65899960  1
  F  F113  1  0.94110901  0.51330949  0.88897766  1
  F  F114  1  0.55889099  0.88897766  0.51330949  1
  F  F115  1  0.55831829  0.65899960  0.42677001  1
  F  F116  1  0.08637718  0.65826719  0.51568080  1
  F  F117  1  0.40424817  0.89204354  0.42462109  1
  F  F118  1  0.41362282  0.51568080  0.65826719  1
  F  F119  1  0.09575183  0.42462109  0.89204354  1
