# generated using pymatgen
data_NaTa3O8
_symmetry_space_group_name_H-M   'P 1'
_cell_length_a   7.08557714
_cell_length_b   7.31216075
_cell_length_c   7.31989559
_cell_angle_alpha   119.96505124
_cell_angle_beta   118.94661008
_cell_angle_gamma   90.00000000
_symmetry_Int_Tables_number   1
_chemical_formula_structural   NaTa3O8
_chemical_formula_sum   'Na2 Ta6 O16'
_cell_volume   272.50058214
_cell_formula_units_Z   2
loop_
 _symmetry_equiv_pos_site_id
 _symmetry_equiv_pos_as_xyz
  1  'x, y, z'
loop_
 _atom_site_type_symbol
 _atom_site_label
 _atom_site_symmetry_multiplicity
 _atom_site_fract_x
 _atom_site_fract_y
 _atom_site_fract_z
 _atom_site_occupancy
  O  O0  1  0.43862664  0.83658760  0.28467908  1
  O  O1  1  0.15394756  0.16341240  0.71532092  1
  O  O2  1  0.06137336  0.55190851  0.71532092  1
  O  O3  1  0.34605244  0.44809149  0.28467908  1
  O  O4  1  0.56137336  0.16341240  0.71532092  1
  O  O5  1  0.84605244  0.83658760  0.28467908  1
  O  O6  1  0.93862664  0.44809149  0.28467908  1
  O  O7  1  0.65394756  0.55190851  0.71532092  1
  O  O8  1  0.17368355  0.16283137  0.34736709  1
  O  O9  1  0.82631645  0.83716863  0.65263291  1
  O  O10  1  0.32631645  0.81546428  0.65263291  1
  O  O11  1  0.67368355  0.18453572  0.34736709  1
  O  O12  1  0.43052000  0.54644158  0.86104000  1
  O  O13  1  0.56948000  0.45355842  0.13896000  1
  O  O14  1  0.06948000  0.68540158  0.13896000  1
  O  O15  1  0.93052000  0.31459842  0.86104000  1
  Na  Na16  1  0.75000000  0.00000000  0.00000000  1
  Na  Na17  1  0.25000000  0.00000000  0.00000000  1
  Ta  Ta18  1  0.76283744  0.02387836  0.52567488  1
  Ta  Ta19  1  0.23716256  0.97612164  0.47432512  1
  Ta  Ta20  1  0.73716256  0.49820348  0.47432512  1
  Ta  Ta21  1  0.26283744  0.50179652  0.52567488  1
  Ta  Ta22  1  0.75000000  0.50000000  0.00000000  1
  Ta  Ta23  1  0.25000000  0.50000000  0.00000000  1
