# generated using pymatgen
data_Sc2Te3
_symmetry_space_group_name_H-M   'P 1'
_cell_length_a   7.19923751
_cell_length_b   7.19923751
_cell_length_c   13.09619309
_cell_angle_alpha   100.58364044
_cell_angle_beta   100.58364043
_cell_angle_gamma   109.37601390
_symmetry_Int_Tables_number   1
_chemical_formula_structural   Sc2Te3
_chemical_formula_sum   'Sc8 Te12'
_cell_volume   607.13321756
_cell_formula_units_Z   4
loop_
 _symmetry_equiv_pos_site_id
 _symmetry_equiv_pos_as_xyz
  1  'x, y, z'
loop_
 _atom_site_type_symbol
 _atom_site_label
 _atom_site_symmetry_multiplicity
 _atom_site_fract_x
 _atom_site_fract_y
 _atom_site_fract_z
 _atom_site_occupancy
  Sc  Sc0  1  0.20704885  0.95704885  0.91409769  1
  Sc  Sc1  1  0.04295115  0.79295115  0.58590231  1
  Sc  Sc2  1  0.79295115  0.04295115  0.08590231  1
  Sc  Sc3  1  0.95704885  0.20704885  0.41409769  1
  Sc  Sc4  1  0.87542690  0.62542690  0.25085380  1
  Sc  Sc5  1  0.37457310  0.12457310  0.24914620  1
  Sc  Sc6  1  0.12457310  0.37457310  0.74914620  1
  Sc  Sc7  1  0.62542690  0.87542690  0.75085380  1
  Te  Te8  1  0.37741777  0.12741777  0.75000000  1
  Te  Te9  1  0.87258223  0.62258223  0.75000000  1
  Te  Te10  1  0.62258223  0.87258223  0.25000000  1
  Te  Te11  1  0.12741777  0.37741777  0.25000000  1
  Te  Te12  1  0.04236600  0.79325651  0.08401235  1
  Te  Te13  1  0.70924416  0.45835366  0.41598765  1
  Te  Te14  1  0.20674349  0.95763400  0.41598765  1
  Te  Te15  1  0.54164634  0.29075584  0.08401235  1
  Te  Te16  1  0.95763400  0.20674349  0.91598765  1
  Te  Te17  1  0.29075584  0.54164634  0.58401235  1
  Te  Te18  1  0.79325651  0.04236600  0.58401235  1
  Te  Te19  1  0.45835366  0.70924416  0.91598765  1
