# generated using pymatgen
data_Ba2Ca4TlCu5O13
_symmetry_space_group_name_H-M   'P 1'
_cell_length_a   3.83776304
_cell_length_b   3.85260329
_cell_length_c   22.66977238
_cell_angle_alpha   90.00000000
_cell_angle_beta   90.00000000
_cell_angle_gamma   90.00000000
_symmetry_Int_Tables_number   1
_chemical_formula_structural   Ba2Ca4TlCu5O13
_chemical_formula_sum   'Ba2 Ca4 Tl1 Cu5 O13'
_cell_volume   335.18116547
_cell_formula_units_Z   1
loop_
 _symmetry_equiv_pos_site_id
 _symmetry_equiv_pos_as_xyz
  1  'x, y, z'
loop_
 _atom_site_type_symbol
 _atom_site_label
 _atom_site_symmetry_multiplicity
 _atom_site_fract_x
 _atom_site_fract_y
 _atom_site_fract_z
 _atom_site_occupancy
  Ba  Ba0  1  0.00000000  0.01106027  0.61776933  1
  Ba  Ba1  1  0.00000000  0.01106027  0.38223067  1
  Ca  Ca2  1  0.00000000  0.00000816  0.92664671  1
  Ca  Ca3  1  0.00000000  0.00000816  0.07335329  1
  Ca  Ca4  1  0.00000000  0.00107936  0.77973450  1
  Ca  Ca5  1  0.00000000  0.00107936  0.22026550  1
  Tl  Tl6  1  0.50000000  0.58358106  0.50000000  1
  Cu  Cu7  1  0.50000000  0.50286237  0.70846653  1
  Cu  Cu8  1  0.50000000  0.50286237  0.29153347  1
  Cu  Cu9  1  0.50000000  0.50008921  0.85468318  1
  Cu  Cu10  1  0.50000000  0.50008921  0.14531682  1
  Cu  Cu11  1  0.50000000  0.50001738  0.00000000  1
  O  O12  1  0.50000000  0.00007878  0.85776522  1
  O  O13  1  0.00000000  0.50007487  0.85793223  1
  O  O14  1  0.50000000  0.00007878  0.14223478  1
  O  O15  1  0.00000000  0.50007487  0.14206777  1
  O  O16  1  0.50000000  0.50344818  0.59315287  1
  O  O17  1  0.50000000  0.50344818  0.40684713  1
  O  O18  1  0.50000000  0.00264775  0.71711310  1
  O  O19  1  0.00000000  0.50237013  0.71754044  1
  O  O20  1  0.50000000  0.00264775  0.28288690  1
  O  O21  1  0.00000000  0.50237013  0.28245956  1
  O  O22  1  0.00000000  0.93693377  0.50000000  1
  O  O23  1  0.50000000  0.00001278  -0.00000000  1
  O  O24  1  0.00000000  0.50001683  0.00000000  1
