# generated using pymatgen
data_Tm3Sb
_symmetry_space_group_name_H-M   'P 1'
_cell_length_a   6.11243293
_cell_length_b   12.21396061
_cell_length_c   12.21396061
_cell_angle_alpha   90.00000000
_cell_angle_beta   90.00000000
_cell_angle_gamma   90.00000000
_symmetry_Int_Tables_number   1
_chemical_formula_structural   Tm3Sb
_chemical_formula_sum   'Tm24 Sb8'
_cell_volume   911.85784094
_cell_formula_units_Z   8
loop_
 _symmetry_equiv_pos_site_id
 _symmetry_equiv_pos_as_xyz
  1  'x, y, z'
loop_
 _atom_site_type_symbol
 _atom_site_label
 _atom_site_symmetry_multiplicity
 _atom_site_fract_x
 _atom_site_fract_y
 _atom_site_fract_z
 _atom_site_occupancy
  Sb  Sb0  1  0.04042128  0.29268704  0.05059175  1
  Sb  Sb1  1  0.54042128  0.94940825  0.79268704  1
  Sb  Sb2  1  0.54042128  0.55059175  0.70731296  1
  Sb  Sb3  1  0.04042128  0.20731296  0.44940825  1
  Sb  Sb4  1  0.95957872  0.70731296  0.94940825  1
  Sb  Sb5  1  0.45957872  0.05059175  0.20731296  1
  Sb  Sb6  1  0.45957872  0.44940825  0.29268704  1
  Sb  Sb7  1  0.95957872  0.79268704  0.55059175  1
  Tm  Tm8  1  0.26670895  0.42367609  0.53621144  1
  Tm  Tm9  1  0.76670895  0.46378856  0.92367609  1
  Tm  Tm10  1  0.76670895  0.03621144  0.57632391  1
  Tm  Tm11  1  0.26670895  0.07632391  0.96378856  1
  Tm  Tm12  1  0.73329105  0.57632391  0.46378856  1
  Tm  Tm13  1  0.23329105  0.53621144  0.07632391  1
  Tm  Tm14  1  0.23329105  0.96378856  0.42367609  1
  Tm  Tm15  1  0.73329105  0.92367609  0.03621144  1
  Tm  Tm16  1  0.96360469  0.39527697  0.28116192  1
  Tm  Tm17  1  0.46360469  0.71883808  0.89527697  1
  Tm  Tm18  1  0.46360469  0.78116192  0.60472303  1
  Tm  Tm19  1  0.96360469  0.10472303  0.21883808  1
  Tm  Tm20  1  0.03639531  0.60472303  0.71883808  1
  Tm  Tm21  1  0.53639531  0.28116192  0.10472303  1
  Tm  Tm22  1  0.53639531  0.21883808  0.39527697  1
  Tm  Tm23  1  0.03639531  0.89527697  0.78116192  1
  Tm  Tm24  1  0.78666027  0.16668353  0.85836297  1
  Tm  Tm25  1  0.28666027  0.14163703  0.66668353  1
  Tm  Tm26  1  0.28666027  0.35836297  0.83331647  1
  Tm  Tm27  1  0.78666027  0.33331647  0.64163703  1
  Tm  Tm28  1  0.21333973  0.83331647  0.14163703  1
  Tm  Tm29  1  0.71333973  0.85836297  0.33331647  1
  Tm  Tm30  1  0.71333973  0.64163703  0.16668353  1
  Tm  Tm31  1  0.21333973  0.66668353  0.35836297  1
