# generated using pymatgen
data_Sm2Si2O7
_symmetry_space_group_name_H-M   'P 1'
_cell_length_a   6.66276306
_cell_length_b   6.77073925
_cell_length_c   12.42446823
_cell_angle_alpha   90.00000000
_cell_angle_beta   102.26709167
_cell_angle_gamma   90.00000000
_symmetry_Int_Tables_number   1
_chemical_formula_structural   Sm2Si2O7
_chemical_formula_sum   'Sm8 Si8 O28'
_cell_volume   547.69326675
_cell_formula_units_Z   4
loop_
 _symmetry_equiv_pos_site_id
 _symmetry_equiv_pos_as_xyz
  1  'x, y, z'
loop_
 _atom_site_type_symbol
 _atom_site_label
 _atom_site_symmetry_multiplicity
 _atom_site_fract_x
 _atom_site_fract_y
 _atom_site_fract_z
 _atom_site_occupancy
  O  O0  1  0.29639342  0.10566987  0.95941853  1
  O  O1  1  0.20360658  0.60566987  0.54058147  1
  O  O2  1  0.70360658  0.89433013  0.04058147  1
  O  O3  1  0.79639342  0.39433013  0.45941853  1
  O  O4  1  0.35939800  0.82944072  0.14981115  1
  O  O5  1  0.14060200  0.32944072  0.35018885  1
  O  O6  1  0.64060200  0.17055928  0.85018885  1
  O  O7  1  0.85939800  0.67055928  0.64981115  1
  O  O8  1  0.03408932  0.59144130  0.15979524  1
  O  O9  1  0.46591068  0.09144130  0.34020476  1
  O  O10  1  0.96591068  0.40855870  0.84020476  1
  O  O11  1  0.53408932  0.90855870  0.65979524  1
  O  O12  1  0.99258579  0.98555529  0.78916125  1
  O  O13  1  0.50741421  0.48555529  0.71083875  1
  O  O14  1  0.00741421  0.01444471  0.21083875  1
  O  O15  1  0.49258579  0.51444471  0.28916125  1
  O  O16  1  0.56391078  0.71984083  0.46908923  1
  O  O17  1  0.93608922  0.21984083  0.03091077  1
  O  O18  1  0.43608922  0.28015917  0.53091077  1
  O  O19  1  0.06391078  0.78015917  0.96908923  1
  O  O20  1  0.82523003  0.01256321  0.54976725  1
  O  O21  1  0.67476997  0.51256321  0.95023275  1
  O  O22  1  0.17476997  0.98743679  0.45023275  1
  O  O23  1  0.32523003  0.48743679  0.04976725  1
  O  O24  1  0.83145168  0.72173056  0.33290574  1
  O  O25  1  0.66854832  0.22173056  0.16709426  1
  O  O26  1  0.16854832  0.27826944  0.66709426  1
  O  O27  1  0.33145168  0.77826944  0.83290574  1
  Si  Si28  1  0.18119200  0.92068116  0.89006037  1
  Si  Si29  1  0.31880800  0.42068116  0.60993963  1
  Si  Si30  1  0.81880800  0.07931884  0.10993963  1
  Si  Si31  1  0.68119200  0.57931884  0.39006037  1
  Si  Si32  1  0.18926878  0.67246980  0.08542229  1
  Si  Si33  1  0.31073122  0.17246980  0.41457771  1
  Si  Si34  1  0.81073122  0.32753020  0.91457771  1
  Si  Si35  1  0.68926878  0.82753020  0.58542229  1
  Sm  Sm36  1  0.69616607  0.82465735  0.84663508  1
  Sm  Sm37  1  0.80383393  0.32465735  0.65336492  1
  Sm  Sm38  1  0.30383393  0.17534265  0.15336492  1
  Sm  Sm39  1  0.19616607  0.67534265  0.34663508  1
  Sm  Sm40  1  0.66608220  0.60940273  0.13791519  1
  Sm  Sm41  1  0.83391780  0.10940273  0.36208481  1
  Sm  Sm42  1  0.33391780  0.39059727  0.86208481  1
  Sm  Sm43  1  0.16608220  0.89059727  0.63791519  1
