# generated using pymatgen
data_Sr2EuNb(CuO4)2
_symmetry_space_group_name_H-M   'P 1'
_cell_length_a   5.51403575
_cell_length_b   5.51403575
_cell_length_c   12.47769617
_cell_angle_alpha   102.76517103
_cell_angle_beta   102.76517102
_cell_angle_gamma   90.00000003
_symmetry_Int_Tables_number   1
_chemical_formula_structural   Sr2EuNb(CuO4)2
_chemical_formula_sum   'Sr4 Eu2 Nb2 Cu4 O16'
_cell_volume   360.38175742
_cell_formula_units_Z   2
loop_
 _symmetry_equiv_pos_site_id
 _symmetry_equiv_pos_as_xyz
  1  'x, y, z'
loop_
 _atom_site_type_symbol
 _atom_site_label
 _atom_site_symmetry_multiplicity
 _atom_site_fract_x
 _atom_site_fract_y
 _atom_site_fract_z
 _atom_site_occupancy
  O  O0  1  0.81938224  0.68061776  0.00000000  1
  O  O1  1  0.31938224  0.81938224  0.00000000  1
  O  O2  1  0.68061776  0.18061776  0.00000000  1
  O  O3  1  0.18061776  0.31938224  0.00000000  1
  O  O4  1  0.93264378  0.93596767  0.36861146  1
  O  O5  1  0.06735622  0.06403233  0.63138854  1
  O  O6  1  0.56403233  0.56735622  0.63138854  1
  O  O7  1  0.06403233  0.56403233  0.63138854  1
  O  O8  1  0.56735622  0.06735622  0.63138854  1
  O  O9  1  0.43264378  0.93264378  0.36861146  1
  O  O10  1  0.93596767  0.43596767  0.36861146  1
  O  O11  1  0.43596767  0.43264378  0.36861146  1
  O  O12  1  0.08368153  0.08368153  0.16736306  1
  O  O13  1  0.41631847  0.41631847  0.83263694  1
  O  O14  1  0.91631847  0.91631847  0.83263694  1
  O  O15  1  0.58368153  0.58368153  0.16736306  1
  Cu  Cu16  1  0.67844514  0.67844514  0.35689027  1
  Cu  Cu17  1  0.82155486  0.82155486  0.64310973  1
  Cu  Cu18  1  0.32155486  0.32155486  0.64310973  1
  Cu  Cu19  1  0.17844514  0.17844514  0.35689027  1
  Sr  Sr20  1  0.10001780  0.60001780  0.20003559  1
  Sr  Sr21  1  0.89998220  0.39998220  0.79996441  1
  Sr  Sr22  1  0.60001780  0.10001780  0.20003559  1
  Sr  Sr23  1  0.39998220  0.89998220  0.79996441  1
  Nb  Nb24  1  0.50000000  0.50000000  0.00000000  1
  Nb  Nb25  1  0.00000000  0.00000000  0.00000000  1
  Eu  Eu26  1  0.75000000  0.25000000  0.50000000  1
  Eu  Eu27  1  0.25000000  0.75000000  0.50000000  1
