# generated using pymatgen
data_Hg2Te2O7
_symmetry_space_group_name_H-M   'P 1'
_cell_length_a   7.54932106
_cell_length_b   7.65116336
_cell_length_c   13.20695440
_cell_angle_alpha   77.05819302
_cell_angle_beta   73.39281428
_cell_angle_gamma   60.43934605
_symmetry_Int_Tables_number   1
_chemical_formula_structural   Hg2Te2O7
_chemical_formula_sum   'Hg8 Te8 O28'
_cell_volume   632.71516881
_cell_formula_units_Z   4
loop_
 _symmetry_equiv_pos_site_id
 _symmetry_equiv_pos_as_xyz
  1  'x, y, z'
loop_
 _atom_site_type_symbol
 _atom_site_label
 _atom_site_symmetry_multiplicity
 _atom_site_fract_x
 _atom_site_fract_y
 _atom_site_fract_z
 _atom_site_occupancy
  O  O0  1  0.28703278  0.96927980  0.95463931  1
  O  O1  1  0.21095189  0.53072020  0.54536069  1
  O  O2  1  0.71296722  0.03072020  0.04536069  1
  O  O3  1  0.78904811  0.46927980  0.45463931  1
  O  O4  1  0.37794604  0.96171322  0.69948408  1
  O  O5  1  0.03914334  0.53828678  0.80051592  1
  O  O6  1  0.62205396  0.03828678  0.30051592  1
  O  O7  1  0.96085666  0.46171322  0.19948408  1
  O  O8  1  0.42253622  0.69071788  0.60143535  1
  O  O9  1  0.71468945  0.80928212  0.89856465  1
  O  O10  1  0.57746378  0.30928212  0.39856465  1
  O  O11  1  0.28531055  0.19071788  0.10143535  1
  O  O12  1  0.12781371  0.70943286  0.99454268  1
  O  O13  1  0.83178925  0.79056714  0.50545732  1
  O  O14  1  0.87218629  0.29056714  0.00545732  1
  O  O15  1  0.16821075  0.20943286  0.49454268  1
  O  O16  1  0.11090810  0.54031178  0.34633403  1
  O  O17  1  0.99755392  0.95968822  0.15366597  1
  O  O18  1  0.88909190  0.45968822  0.65366597  1
  O  O19  1  0.00244608  0.04031178  0.84633403  1
  O  O20  1  0.38878598  0.44803941  0.17095379  1
  O  O21  1  0.00777918  0.05196059  0.32904621  1
  O  O22  1  0.61121402  0.55196059  0.82904621  1
  O  O23  1  0.99222082  0.94803941  0.67095379  1
  O  O24  1  0.54420745  0.76930225  0.10594068  1
  O  O25  1  0.41945039  0.73069775  0.39405932  1
  O  O26  1  0.45579255  0.23069775  0.89405932  1
  O  O27  1  0.58054961  0.26930225  0.60594068  1
  Te  Te28  1  0.00000000  0.00000000  0.00000000  1
  Te  Te29  1  0.00000000  0.50000000  0.50000000  1
  Te  Te30  1  0.50000000  0.50000000  0.50000000  1
  Te  Te31  1  0.50000000  0.00000000  0.00000000  1
  Te  Te32  1  0.22182480  0.80620598  0.74292771  1
  Te  Te33  1  0.77095850  0.69379402  0.75707229  1
  Te  Te34  1  0.77817520  0.19379402  0.25707229  1
  Te  Te35  1  0.22904150  0.30620598  0.24292771  1
  Hg  Hg36  1  0.00000000  0.00000000  0.50000000  1
  Hg  Hg37  1  0.50000000  0.50000000  0.00000000  1
  Hg  Hg38  1  0.00000000  0.50000000  0.00000000  1
  Hg  Hg39  1  0.50000000  0.00000000  0.50000000  1
  Hg  Hg40  1  0.23411354  0.25000000  0.75000000  1
  Hg  Hg41  1  0.76588646  0.75000000  0.25000000  1
  Hg  Hg42  1  0.70951289  0.25000000  0.75000000  1
  Hg  Hg43  1  0.29048711  0.75000000  0.25000000  1
