# generated using pymatgen
data_NaSr4(SbO4)3
_symmetry_space_group_name_H-M   'P 1'
_cell_length_a   8.20589060
_cell_length_b   8.23106646
_cell_length_c   8.23325328
_cell_angle_alpha   90.63597477
_cell_angle_beta   90.00000000
_cell_angle_gamma   90.00000000
_symmetry_Int_Tables_number   1
_chemical_formula_structural   NaSr4(SbO4)3
_chemical_formula_sum   'Na2 Sr8 Sb6 O24'
_cell_volume   556.06627018
_cell_formula_units_Z   2
loop_
 _symmetry_equiv_pos_site_id
 _symmetry_equiv_pos_as_xyz
  1  'x, y, z'
loop_
 _atom_site_type_symbol
 _atom_site_label
 _atom_site_symmetry_multiplicity
 _atom_site_fract_x
 _atom_site_fract_y
 _atom_site_fract_z
 _atom_site_occupancy
  O  O0  1  0.53849606  0.25034784  0.03942232  1
  O  O1  1  0.03849606  0.24965216  0.46057768  1
  O  O2  1  0.46150394  0.74965216  0.96057768  1
  O  O3  1  0.96150394  0.75034784  0.53942232  1
  O  O4  1  0.74983117  0.04861394  0.52938531  1
  O  O5  1  0.24983117  0.45138606  0.97061469  1
  O  O6  1  0.25016883  0.95138606  0.47061469  1
  O  O7  1  0.75016883  0.54861394  0.02938531  1
  O  O8  1  0.54132201  0.96260071  0.24951604  1
  O  O9  1  0.04132201  0.53739929  0.25048396  1
  O  O10  1  0.45867799  0.03739929  0.75048396  1
  O  O11  1  0.95867799  0.46260071  0.74951604  1
  O  O12  1  0.77206835  0.47510989  0.45640344  1
  O  O13  1  0.27206835  0.02489011  0.04359656  1
  O  O14  1  0.22793165  0.52489011  0.54359656  1
  O  O15  1  0.72793165  0.97510989  0.95640344  1
  O  O16  1  0.03908305  0.72673796  0.96494841  1
  O  O17  1  0.53908305  0.77326204  0.53505159  1
  O  O18  1  0.96091695  0.27326204  0.03505159  1
  O  O19  1  0.46091695  0.22673796  0.46494841  1
  O  O20  1  0.03617981  0.03506293  0.72772349  1
  O  O21  1  0.53617981  0.46493707  0.77227651  1
  O  O22  1  0.96382019  0.96493707  0.27227651  1
  O  O23  1  0.46382019  0.53506293  0.22772349  1
  Na  Na24  1  0.50000000  0.50000000  0.50000000  1
  Na  Na25  1  0.00000000  0.00000000  0.00000000  1
  Sr  Sr26  1  0.25493896  0.26831322  0.23657586  1
  Sr  Sr27  1  0.75493896  0.23168678  0.26342414  1
  Sr  Sr28  1  0.74575487  0.73401684  0.27713232  1
  Sr  Sr29  1  0.24575487  0.76598316  0.22286768  1
  Sr  Sr30  1  0.74506104  0.73168678  0.76342414  1
  Sr  Sr31  1  0.24506104  0.76831322  0.73657586  1
  Sr  Sr32  1  0.75424513  0.23401684  0.77713232  1
  Sr  Sr33  1  0.25424513  0.26598316  0.72286768  1
  Sb  Sb34  1  0.00000000  0.00000000  0.50000000  1
  Sb  Sb35  1  0.50000000  0.50000000  0.00000000  1
  Sb  Sb36  1  0.00000000  0.50000000  0.50000000  1
  Sb  Sb37  1  0.50000000  0.00000000  0.00000000  1
  Sb  Sb38  1  0.00000000  0.50000000  0.00000000  1
  Sb  Sb39  1  0.50000000  0.00000000  0.50000000  1
