# generated using pymatgen
data_Cu3SbS3
_symmetry_space_group_name_H-M   'P 1'
_cell_length_a   6.54146320
_cell_length_b   8.09905926
_cell_length_c   10.26864359
_cell_angle_alpha   90.00000000
_cell_angle_beta   90.00000000
_cell_angle_gamma   90.00000000
_symmetry_Int_Tables_number   1
_chemical_formula_structural   Cu3SbS3
_chemical_formula_sum   'Cu12 Sb4 S12'
_cell_volume   544.02963733
_cell_formula_units_Z   4
loop_
 _symmetry_equiv_pos_site_id
 _symmetry_equiv_pos_as_xyz
  1  'x, y, z'
loop_
 _atom_site_type_symbol
 _atom_site_label
 _atom_site_symmetry_multiplicity
 _atom_site_fract_x
 _atom_site_fract_y
 _atom_site_fract_z
 _atom_site_occupancy
  S  S0  1  0.60208664  0.68195205  0.07377251  1
  S  S1  1  0.10208664  0.81804795  0.92622749  1
  S  S2  1  0.89791336  0.31804795  0.57377251  1
  S  S3  1  0.39791336  0.18195205  0.42622749  1
  S  S4  1  0.87483270  0.04972710  0.25481809  1
  S  S5  1  0.37483270  0.45027290  0.74518191  1
  S  S6  1  0.12516730  0.54972710  0.24518191  1
  S  S7  1  0.62516730  0.95027290  0.75481809  1
  S  S8  1  0.39772120  0.16169791  0.05452845  1
  S  S9  1  0.89772120  0.33830209  0.94547155  1
  S  S10  1  0.60227880  0.66169791  0.44547155  1
  S  S11  1  0.10227880  0.83830209  0.55452845  1
  Cu  Cu12  1  0.98758701  0.07619461  0.46664156  1
  Cu  Cu13  1  0.48758701  0.42380539  0.53335844  1
  Cu  Cu14  1  0.51241299  0.92380539  0.96664156  1
  Cu  Cu15  1  0.01241299  0.57619461  0.03335844  1
  Cu  Cu16  1  0.12995539  0.36779636  0.41227670  1
  Cu  Cu17  1  0.62995539  0.13220364  0.58772330  1
  Cu  Cu18  1  0.87004461  0.86779636  0.08772330  1
  Cu  Cu19  1  0.37004461  0.63220364  0.91227670  1
  Cu  Cu20  1  0.05453057  0.16910944  0.09444102  1
  Cu  Cu21  1  0.55453057  0.33089056  0.90555898  1
  Cu  Cu22  1  0.94546943  0.66910944  0.40555898  1
  Cu  Cu23  1  0.44546943  0.83089056  0.59444102  1
  Sb  Sb24  1  0.88628941  0.72529076  0.73602145  1
  Sb  Sb25  1  0.38628941  0.77470924  0.26397855  1
  Sb  Sb26  1  0.11371059  0.22529076  0.76397855  1
  Sb  Sb27  1  0.61371059  0.27470924  0.23602145  1
