# generated using pymatgen
data_Li3Fe4(P2O7)4
_symmetry_space_group_name_H-M   'P 1'
_cell_length_a   9.59709475
_cell_length_b   9.75744210
_cell_length_c   11.26858101
_cell_angle_alpha   89.88341728
_cell_angle_beta   101.25426764
_cell_angle_gamma   90.32071324
_symmetry_Int_Tables_number   1
_chemical_formula_structural   Li3Fe4(P2O7)4
_chemical_formula_sum   'Li6 Fe8 P16 O56'
_cell_volume   1034.91694054
_cell_formula_units_Z   2
loop_
 _symmetry_equiv_pos_site_id
 _symmetry_equiv_pos_as_xyz
  1  'x, y, z'
loop_
 _atom_site_type_symbol
 _atom_site_label
 _atom_site_symmetry_multiplicity
 _atom_site_fract_x
 _atom_site_fract_y
 _atom_site_fract_z
 _atom_site_occupancy
  Li  Li0  1  0.41409928  0.59804376  0.97690565  1
  Li  Li1  1  0.33206223  0.91194791  0.46251393  1
  Li  Li2  1  0.38791216  0.21396330  0.54679383  1
  Li  Li3  1  0.91501642  0.90126508  0.97753172  1
  Li  Li4  1  0.83216282  0.58860637  0.46258900  1
  Li  Li5  1  0.88642048  0.28556363  0.54630058  1
  Fe  Fe6  1  0.20635979  0.91361688  0.68025440  1
  Fe  Fe7  1  0.25012832  0.20793244  0.82602944  1
  Fe  Fe8  1  0.23762085  0.72269727  0.17027336  1
  Fe  Fe9  1  0.29325273  0.43454093  0.33380025  1
  Fe  Fe10  1  0.70433463  0.58772463  0.68012655  1
  Fe  Fe11  1  0.74940824  0.29678467  0.82122398  1
  Fe  Fe12  1  0.73896988  0.77756700  0.17037222  1
  Fe  Fe13  1  0.79271758  0.06580026  0.33391486  1
  P  P14  1  0.02105897  0.44307734  0.75307830  1
  P  P15  1  0.11176832  0.70941179  0.88576574  1
  P  P16  1  0.06544622  0.91836782  0.24217807  1
  P  P17  1  0.12363362  0.14732001  0.41708178  1
  P  P18  1  0.37688754  0.64196434  0.57590440  1
  P  P19  1  0.43183975  0.42279207  0.76204986  1
  P  P20  1  0.52484784  0.05641788  0.75179342  1
  P  P21  1  0.38371973  0.21485409  0.11811682  1
  P  P22  1  0.61291469  0.79142902  0.88546271  1
  P  P23  1  0.47725927  0.94603090  0.24805525  1
  P  P24  1  0.56528563  0.58128851  0.24172577  1
  P  P25  1  0.62355595  0.35233468  0.41688945  1
  P  P26  1  0.87724051  0.85844320  0.57615620  1
  P  P27  1  0.93146079  0.07670957  0.76300255  1
  P  P28  1  0.88207031  0.28451369  0.11687037  1
  P  P29  1  0.97664581  0.55367802  0.24749683  1
  O  O30  1  0.01855369  0.42092100  0.62194394  1
  O  O31  1  0.03560436  0.85319869  0.57181666  1
  O  O32  1  0.08803069  0.08295185  0.73710458  1
  O  O33  1  0.09960220  0.58495034  0.78996612  1
  O  O34  1  0.10182024  0.33657008  0.84119583  1
  O  O35  1  0.18539721  0.82071371  0.82282655  1
  O  O36  1  0.21612914  0.65964047  0.00215434  1
  O  O37  1  0.02889454  0.25035876  0.08947288  1
  O  O38  1  0.11869626  0.06881501  0.28956036  1
  O  O39  1  0.08035099  0.89979973  0.11158762  1
  O  O40  1  0.13275585  0.54365403  0.22290211  1
  O  O41  1  0.18751084  0.28752866  0.39950986  1
  O  O42  1  0.17167835  0.81562626  0.31433801  1
  O  O43  1  0.22190453  0.06569956  0.51584761  1
  O  O44  1  0.29050535  0.56587463  0.46886906  1
  O  O45  1  0.34161873  0.30127666  0.69868014  1
  O  O46  1  0.32141299  0.78646686  0.59615894  1
  O  O47  1  0.36888632  0.03998877  0.77922109  1
  O  O48  1  0.36469764  0.56004768  0.69781007  1
  O  O49  1  0.41730215  0.42688887  0.89147584  1
  O  O50  1  0.46846353  0.75662570  0.90391796  1
  O  O51  1  0.29522655  0.16454241  0.99712441  1
  O  O52  1  0.32032891  0.32968407  0.18130119  1
  O  O53  1  0.39982406  0.09102483  0.21223337  1
  O  O54  1  0.40874947  0.58849400  0.26144748  1
  O  O55  1  0.39606896  0.84195337  0.15733268  1
  O  O56  1  0.46905170  0.34324610  0.43450074  1
  O  O57  1  0.52245619  0.08002895  0.62053419  1
  O  O58  1  0.47318137  0.92420109  0.37759398  1
  O  O59  1  0.53517238  0.64782847  0.57115391  1
  O  O60  1  0.60499761  0.16646237  0.83912447  1
  O  O61  1  0.58832223  0.41869536  0.73663664  1
  O  O62  1  0.60520368  0.91610832  0.79027261  1
  O  O63  1  0.68496515  0.67931629  0.82312650  1
  O  O64  1  0.71712761  0.84030646  0.00248112  1
  O  O65  1  0.53118458  0.25190759  0.09158121  1
  O  O66  1  0.57947089  0.59976781  0.11101115  1
  O  O67  1  0.61868398  0.43137922  0.28936322  1
  O  O68  1  0.63295261  0.95682648  0.22280989  1
  O  O69  1  0.68723571  0.21277128  0.39946882  1
  O  O70  1  0.67192143  0.68472363  0.31363309  1
  O  O71  1  0.72169530  0.43432435  0.51575320  1
  O  O72  1  0.79105306  0.93347538  0.46865022  1
  O  O73  1  0.84026575  0.19752036  0.69964384  1
  O  O74  1  0.82128377  0.71312550  0.59632648  1
  O  O75  1  0.86342688  0.45623742  0.78054397  1
  O  O76  1  0.91992454  0.06993666  0.89289358  1
  O  O77  1  0.86414738  0.93969639  0.69735559  1
  O  O78  1  0.96811379  0.74394232  0.90470693  1
  O  O79  1  0.79379468  0.33392310  0.99539763  1
  O  O80  1  0.81937564  0.16962968  0.18145218  1
  O  O81  1  0.89626380  0.65782945  0.15712969  1
  O  O82  1  0.89892001  0.40836628  0.21116903  1
  O  O83  1  0.90861188  0.91081946  0.26125357  1
  O  O84  1  0.96939342  0.15617708  0.43484699  1
  O  O85  1  0.97247107  0.57491109  0.37720155  1
