# generated using pymatgen
data_Na2Cu(Si2O5)2
_symmetry_space_group_name_H-M   'P 1'
_cell_length_a   7.00289707
_cell_length_b   7.79261585
_cell_length_c   9.92341939
_cell_angle_alpha   102.86269799
_cell_angle_beta   103.06811834
_cell_angle_gamma   114.32529296
_symmetry_Int_Tables_number   1
_chemical_formula_structural   Na2Cu(Si2O5)2
_chemical_formula_sum   'Na4 Si8 Cu2 O20'
_cell_volume   449.23270113
_cell_formula_units_Z   2
loop_
 _symmetry_equiv_pos_site_id
 _symmetry_equiv_pos_as_xyz
  1  'x, y, z'
loop_
 _atom_site_type_symbol
 _atom_site_label
 _atom_site_symmetry_multiplicity
 _atom_site_fract_x
 _atom_site_fract_y
 _atom_site_fract_z
 _atom_site_occupancy
  O  O0  1  0.81548444  0.10594893  0.99054250  1
  O  O1  1  0.24041216  0.60508271  0.85642573  1
  O  O2  1  0.67076678  0.82740145  0.73419302  1
  O  O3  1  0.32923322  0.17259855  0.26580698  1
  O  O4  1  0.83237819  0.53467885  0.84875168  1
  O  O5  1  0.16762181  0.46532115  0.15124832  1
  O  O6  1  0.88914002  0.64739373  0.42014169  1
  O  O7  1  0.11085998  0.35260627  0.57985831  1
  O  O8  1  0.95082301  0.21842191  0.28619208  1
  O  O9  1  0.04917699  0.78157809  0.71380792  1
  O  O10  1  0.47904429  0.66478178  0.43137123  1
  O  O11  1  0.58160735  0.62622390  0.17960194  1
  O  O12  1  0.58548640  0.13380399  0.74663761  1
  O  O13  1  0.41451360  0.86619601  0.25336239  1
  O  O14  1  0.00837029  0.20805628  0.79855128  1
  O  O15  1  0.99162971  0.79194372  0.20144872  1
  O  O16  1  0.18451556  0.89405107  0.00945750  1
  O  O17  1  0.52095571  0.33521822  0.56862877  1
  O  O18  1  0.41839265  0.37377610  0.82039806  1
  O  O19  1  0.75958784  0.39491729  0.14357427  1
  Na  Na20  1  0.34153187  0.24323959  0.02469219  1
  Na  Na21  1  0.65846813  0.75676041  0.97530781  1
  Na  Na22  1  0.26629698  0.71798665  0.57904988  1
  Na  Na23  1  0.73370302  0.28201335  0.42095012  1
  Si  Si24  1  0.92934980  0.29486715  0.15012519  1
  Si  Si25  1  0.07065020  0.70513285  0.84987481  1
  Si  Si26  1  0.81683739  0.62128433  0.24910229  1
  Si  Si27  1  0.41321544  0.65775267  0.26435264  1
  Si  Si28  1  0.58678456  0.34224733  0.73564736  1
  Si  Si29  1  0.76937848  0.06502700  0.81143464  1
  Si  Si30  1  0.23062152  0.93497300  0.18856536  1
  Si  Si31  1  0.18316261  0.37871567  0.75089771  1
  Cu  Cu32  1  0.76701719  0.72669891  0.57325018  1
  Cu  Cu33  1  0.23298281  0.27330109  0.42674982  1
