# generated using pymatgen
data_BaHoCo4O7
_symmetry_space_group_name_H-M   'P 1'
_cell_length_a   6.38258126
_cell_length_b   6.38258126
_cell_length_c   10.40487575
_cell_angle_alpha   90.00000000
_cell_angle_beta   90.00000000
_cell_angle_gamma   120.00000001
_symmetry_Int_Tables_number   1
_chemical_formula_structural   BaHoCo4O7
_chemical_formula_sum   'Ba2 Ho2 Co8 O14'
_cell_volume   367.07958784
_cell_formula_units_Z   2
loop_
 _symmetry_equiv_pos_site_id
 _symmetry_equiv_pos_as_xyz
  1  'x, y, z'
loop_
 _atom_site_type_symbol
 _atom_site_label
 _atom_site_symmetry_multiplicity
 _atom_site_fract_x
 _atom_site_fract_y
 _atom_site_fract_z
 _atom_site_occupancy
  O  O0  1  0.83219803  0.16780197  0.99914307  1
  O  O1  1  0.66439606  0.83219803  0.49914307  1
  O  O2  1  0.16780197  0.33560394  0.49914307  1
  O  O3  1  0.83219803  0.66439606  0.99914307  1
  O  O4  1  0.33560394  0.16780197  0.99914307  1
  O  O5  1  0.16780197  0.83219803  0.49914307  1
  O  O6  1  0.00000000  0.00000000  0.74038933  1
  O  O7  1  0.00000000  0.00000000  0.24038933  1
  O  O8  1  0.50798452  0.49201548  0.25648430  1
  O  O9  1  0.01596903  0.50798452  0.75648430  1
  O  O10  1  0.49201548  0.98403097  0.75648430  1
  O  O11  1  0.50798452  0.01596903  0.25648430  1
  O  O12  1  0.49201548  0.50798452  0.75648430  1
  O  O13  1  0.98403097  0.49201548  0.25648430  1
  Co  Co14  1  0.83047456  0.16952544  0.18370069  1
  Co  Co15  1  0.66094912  0.83047456  0.68370069  1
  Co  Co16  1  0.16952544  0.33905088  0.68370069  1
  Co  Co17  1  0.83047456  0.66094912  0.18370069  1
  Co  Co18  1  0.33905088  0.16952544  0.18370069  1
  Co  Co19  1  0.16952544  0.83047456  0.68370069  1
  Co  Co20  1  0.00000000  0.00000000  0.93885831  1
  Co  Co21  1  0.00000000  0.00000000  0.43885831  1
  Ba  Ba22  1  0.33333333  0.66666667  0.97725142  1
  Ba  Ba23  1  0.66666667  0.33333333  0.47725142  1
  Ho  Ho24  1  0.33333333  0.66666667  0.37351677  1
  Ho  Ho25  1  0.66666667  0.33333333  0.87351677  1
