# generated using pymatgen
data_RbAlPdF6
_symmetry_space_group_name_H-M   'P 1'
_cell_length_a   7.23291013
_cell_length_b   7.39311137
_cell_length_c   10.28940506
_cell_angle_alpha   90.00000000
_cell_angle_beta   90.00000000
_cell_angle_gamma   90.00000000
_symmetry_Int_Tables_number   1
_chemical_formula_structural   RbAlPdF6
_chemical_formula_sum   'Rb4 Al4 Pd4 F24'
_cell_volume   550.21266349
_cell_formula_units_Z   4
loop_
 _symmetry_equiv_pos_site_id
 _symmetry_equiv_pos_as_xyz
  1  'x, y, z'
loop_
 _atom_site_type_symbol
 _atom_site_label
 _atom_site_symmetry_multiplicity
 _atom_site_fract_x
 _atom_site_fract_y
 _atom_site_fract_z
 _atom_site_occupancy
  F  F0  1  0.53112637  0.79336686  0.09484552  1
  F  F1  1  0.03112637  0.20663314  0.90515448  1
  F  F2  1  0.96887363  0.29336686  0.40515448  1
  F  F3  1  0.46887363  0.70663314  0.59484552  1
  F  F4  1  0.46887363  0.20663314  0.90515448  1
  F  F5  1  0.96887363  0.79336686  0.09484552  1
  F  F6  1  0.03112637  0.70663314  0.59484552  1
  F  F7  1  0.53112637  0.29336686  0.40515448  1
  F  F8  1  0.00081816  0.63416394  0.35140602  1
  F  F9  1  0.50081816  0.36583606  0.64859398  1
  F  F10  1  0.49918184  0.13416394  0.14859398  1
  F  F11  1  0.99918184  0.86583606  0.85140602  1
  F  F12  1  0.75000000  0.95982161  0.35925525  1
  F  F13  1  0.25000000  0.04017839  0.64074475  1
  F  F14  1  0.75000000  0.45982161  0.14074475  1
  F  F15  1  0.25000000  0.54017839  0.85925525  1
  F  F16  1  0.75000000  0.03010741  0.98388299  1
  F  F17  1  0.25000000  0.96989259  0.01611701  1
  F  F18  1  0.75000000  0.53010741  0.51611701  1
  F  F19  1  0.25000000  0.46989259  0.48388299  1
  F  F20  1  0.00081816  0.13416394  0.14859398  1
  F  F21  1  0.50081816  0.86583606  0.85140602  1
  F  F22  1  0.49918184  0.63416394  0.35140602  1
  F  F23  1  0.99918184  0.36583606  0.64859398  1
  Al  Al24  1  0.00000000  0.50000000  0.50000000  1
  Al  Al25  1  0.50000000  0.50000000  0.50000000  1
  Al  Al26  1  0.50000000  0.00000000  0.00000000  1
  Al  Al27  1  0.00000000  0.00000000  0.00000000  1
  Rb  Rb28  1  0.25000000  0.48094118  0.13182904  1
  Rb  Rb29  1  0.75000000  0.01905882  0.63182904  1
  Rb  Rb30  1  0.75000000  0.51905882  0.86817096  1
  Rb  Rb31  1  0.25000000  0.98094118  0.36817096  1
  Pd  Pd32  1  0.75000000  0.21926515  0.26257203  1
  Pd  Pd33  1  0.75000000  0.71926515  0.23742797  1
  Pd  Pd34  1  0.25000000  0.28073485  0.76257203  1
  Pd  Pd35  1  0.25000000  0.78073485  0.73742797  1
