# generated using pymatgen
data_HoCrO4
_symmetry_space_group_name_H-M   'P 1'
_cell_length_a   5.04048566
_cell_length_b   5.04048567
_cell_length_c   6.68862553
_cell_angle_alpha   112.13531847
_cell_angle_beta   112.13531854
_cell_angle_gamma   90.00000004
_symmetry_Int_Tables_number   1
_chemical_formula_structural   HoCrO4
_chemical_formula_sum   'Ho2 Cr2 O8'
_cell_volume   143.79821507
_cell_formula_units_Z   2
loop_
 _symmetry_equiv_pos_site_id
 _symmetry_equiv_pos_as_xyz
  1  'x, y, z'
loop_
 _atom_site_type_symbol
 _atom_site_label
 _atom_site_symmetry_multiplicity
 _atom_site_fract_x
 _atom_site_fract_y
 _atom_site_fract_z
 _atom_site_occupancy
  O  O0  1  0.94308961  0.28762179  0.59452640  1
  O  O1  1  0.30690461  0.44308961  0.09452640  1
  O  O2  1  0.78762179  0.15143679  0.09452640  1
  O  O3  1  0.65143679  0.80690461  0.59452640  1
  O  O4  1  0.34856321  0.19309539  0.40547360  1
  O  O5  1  0.21237821  0.84856321  0.90547360  1
  O  O6  1  0.69309539  0.55691039  0.90547360  1
  O  O7  1  0.05691039  0.71237821  0.40547360  1
  Cr  Cr8  1  0.87500000  0.62500000  0.75000000  1
  Cr  Cr9  1  0.12500000  0.37500000  0.25000000  1
  Ho  Ho10  1  0.37500000  0.12500000  0.75000000  1
  Ho  Ho11  1  0.62500000  0.87500000  0.25000000  1
