# generated using pymatgen
data_W3O8
_symmetry_space_group_name_H-M   'P 1'
_cell_length_a   3.85647173
_cell_length_b   6.25323125
_cell_length_c   6.25323125
_cell_angle_alpha   117.33241168
_cell_angle_beta   90.00000000
_cell_angle_gamma   90.00000000
_symmetry_Int_Tables_number   1
_chemical_formula_structural   W3O8
_chemical_formula_sum   'W3 O8'
_cell_volume   133.96364983
_cell_formula_units_Z   1
loop_
 _symmetry_equiv_pos_site_id
 _symmetry_equiv_pos_as_xyz
  1  'x, y, z'
loop_
 _atom_site_type_symbol
 _atom_site_label
 _atom_site_symmetry_multiplicity
 _atom_site_fract_x
 _atom_site_fract_y
 _atom_site_fract_z
 _atom_site_occupancy
  O  O0  1  0.00000131  0.96611950  0.66324079  1
  O  O1  1  0.00000131  0.03387904  0.33675862  1
  O  O2  1  0.00000000  0.66324172  0.96611973  1
  O  O3  1  0.00000000  0.50000018  0.50000011  1
  O  O4  1  0.49999934  0.00000000  0.00000000  1
  O  O5  1  0.00000000  0.33675863  0.03388049  1
  O  O6  1  0.49999934  0.68918265  0.31081787  1
  O  O7  1  0.49999934  0.31081770  0.68918235  1
  W  W8  1  0.00000000  0.68409735  0.31590274  1
  W  W9  1  0.00000000  0.31590300  0.68409747  1
  W  W10  1  0.00000000  0.00000000  0.00000000  1
