# generated using pymatgen
data_AlV2O4
_symmetry_space_group_name_H-M   'P 1'
_cell_length_a   5.91860277
_cell_length_b   5.91860282
_cell_length_c   5.91860318
_cell_angle_alpha   60.95330735
_cell_angle_beta   60.95330906
_cell_angle_gamma   60.95330625
_symmetry_Int_Tables_number   1
_chemical_formula_structural   AlV2O4
_chemical_formula_sum   'Al2 V4 O8'
_cell_volume   149.75193549
_cell_formula_units_Z   2
loop_
 _symmetry_equiv_pos_site_id
 _symmetry_equiv_pos_as_xyz
  1  'x, y, z'
loop_
 _atom_site_type_symbol
 _atom_site_label
 _atom_site_symmetry_multiplicity
 _atom_site_fract_x
 _atom_site_fract_y
 _atom_site_fract_z
 _atom_site_occupancy
  Al  Al0  1  0.62421670  0.62421670  0.62421670  1
  Al  Al1  1  0.37578330  0.37578330  0.37578330  1
  V  V2  1  0.00000000  0.50000000  0.00000000  1
  V  V3  1  0.00000000  0.00000000  0.00000000  1
  V  V4  1  0.50000000  0.00000000  0.00000000  1
  V  V5  1  0.00000000  0.00000000  0.50000000  1
  O  O6  1  0.25148004  0.74673911  0.74673911  1
  O  O7  1  0.25326089  0.25326089  0.74851996  1
  O  O8  1  0.25326089  0.74851996  0.25326089  1
  O  O9  1  0.25114300  0.25114300  0.25114300  1
  O  O10  1  0.74673911  0.74673911  0.25148004  1
  O  O11  1  0.74851996  0.25326089  0.25326089  1
  O  O12  1  0.74673911  0.25148004  0.74673911  1
  O  O13  1  0.74885700  0.74885700  0.74885700  1
