# generated using pymatgen
data_CaV4O9
_symmetry_space_group_name_H-M   'P 1'
_cell_length_a   5.19846868
_cell_length_b   8.42453086
_cell_length_c   8.42453086
_cell_angle_alpha   90.00000000
_cell_angle_beta   90.00000000
_cell_angle_gamma   90.00000000
_symmetry_Int_Tables_number   1
_chemical_formula_structural   CaV4O9
_chemical_formula_sum   'Ca2 V8 O18'
_cell_volume   368.94946315
_cell_formula_units_Z   2
loop_
 _symmetry_equiv_pos_site_id
 _symmetry_equiv_pos_as_xyz
  1  'x, y, z'
loop_
 _atom_site_type_symbol
 _atom_site_label
 _atom_site_symmetry_multiplicity
 _atom_site_fract_x
 _atom_site_fract_y
 _atom_site_fract_z
 _atom_site_occupancy
  Ca  Ca0  1  0.15757121  0.25000000  0.25000000  1
  Ca  Ca1  1  0.84242979  0.75000000  0.74999900  1
  V  V2  1  0.62672588  0.53511721  0.34039229  1
  V  V3  1  0.37327512  0.84039129  0.46488379  1
  V  V4  1  0.62672588  0.34039129  0.96488379  1
  V  V5  1  0.37327512  0.03511621  0.84039129  1
  V  V6  1  0.62672588  0.96488379  0.15960771  1
  V  V7  1  0.62672588  0.15960871  0.53511721  1
  V  V8  1  0.37327512  0.46488379  0.65960771  1
  V  V9  1  0.37327512  0.65960771  0.03511621  1
  O  O10  1  0.49999900  0.75000000  0.25000000  1
  O  O11  1  0.49999900  0.25000100  0.75000000  1
  O  O12  1  0.06349071  0.68007868  0.99600614  1
  O  O13  1  0.06349071  0.50399486  0.68007768  1
  O  O14  1  0.06349071  0.99600614  0.81992232  1
  O  O15  1  0.06349071  0.81992232  0.50399386  1
  O  O16  1  0.93651029  0.31992232  0.00399386  1
  O  O17  1  0.93651029  0.49600514  0.31992232  1
  O  O18  1  0.93651029  0.00399386  0.18007768  1
  O  O19  1  0.93651029  0.18007768  0.49600514  1
  O  O20  1  0.46086946  0.04312542  0.35693958  1
  O  O21  1  0.46086946  0.14305942  0.04312642  1
  O  O22  1  0.46086946  0.35693958  0.45687458  1
  O  O23  1  0.46086946  0.45687458  0.14306042  1
  O  O24  1  0.53912954  0.54312542  0.85693958  1
  O  O25  1  0.53912954  0.85693958  0.95687458  1
  O  O26  1  0.53912954  0.64306042  0.54312542  1
  O  O27  1  0.53912954  0.95687358  0.64306042  1
