# generated using pymatgen
data_LiGa(WO4)2
_symmetry_space_group_name_H-M   'P 1'
_cell_length_a   5.01207409
_cell_length_b   5.73776952
_cell_length_c   9.46010833
_cell_angle_alpha   90.00000000
_cell_angle_beta   91.06362616
_cell_angle_gamma   90.00000000
_symmetry_Int_Tables_number   1
_chemical_formula_structural   LiGa(WO4)2
_chemical_formula_sum   'Li2 Ga2 W4 O16'
_cell_volume   272.00811127
_cell_formula_units_Z   2
loop_
 _symmetry_equiv_pos_site_id
 _symmetry_equiv_pos_as_xyz
  1  'x, y, z'
loop_
 _atom_site_type_symbol
 _atom_site_label
 _atom_site_symmetry_multiplicity
 _atom_site_fract_x
 _atom_site_fract_y
 _atom_site_fract_z
 _atom_site_occupancy
  Li  Li0  1  0.75000000  0.34738706  0.50000000  1
  Li  Li1  1  0.25000000  0.65261294  0.50000000  1
  O  O2  1  0.40986724  0.38049886  0.88733899  1
  O  O3  1  0.92191769  0.12108425  0.87029826  1
  O  O4  1  0.57808231  0.12108425  0.12970174  1
  O  O5  1  0.07808231  0.87891575  0.12970174  1
  O  O6  1  0.42191769  0.87891575  0.87029826  1
  O  O7  1  0.55898186  0.10078980  0.65382342  1
  O  O8  1  0.60275045  0.62170866  0.62819588  1
  O  O9  1  0.09013276  0.38049886  0.11266101  1
  O  O10  1  0.59013276  0.61950114  0.11266101  1
  O  O11  1  0.90986724  0.61950114  0.88733899  1
  O  O12  1  0.89724955  0.62170866  0.37180412  1
  O  O13  1  0.44101814  0.89921020  0.34617658  1
  O  O14  1  0.39724955  0.37829134  0.37180412  1
  O  O15  1  0.10275045  0.37829134  0.62819588  1
  O  O16  1  0.05898186  0.89921020  0.65382342  1
  O  O17  1  0.94101814  0.10078980  0.34617658  1
  Ga  Ga18  1  0.75000000  0.33756575  0.00000000  1
  Ga  Ga19  1  0.25000000  0.66243425  0.00000000  1
  W  W20  1  0.23954240  0.17700140  0.75145815  1
  W  W21  1  0.26045760  0.17700140  0.24854185  1
  W  W22  1  0.73954240  0.82299860  0.75145815  1
  W  W23  1  0.76045760  0.82299860  0.24854185  1
