# generated using pymatgen
data_Sc3P2
_symmetry_space_group_name_H-M   'P 1'
_cell_length_a   3.72389561
_cell_length_b   10.16332390
_cell_length_c   10.06845270
_cell_angle_alpha   90.00000000
_cell_angle_beta   90.00000000
_cell_angle_gamma   90.00000000
_symmetry_Int_Tables_number   1
_chemical_formula_structural   Sc3P2
_chemical_formula_sum   'Sc12 P8'
_cell_volume   381.06231264
_cell_formula_units_Z   4
loop_
 _symmetry_equiv_pos_site_id
 _symmetry_equiv_pos_as_xyz
  1  'x, y, z'
loop_
 _atom_site_type_symbol
 _atom_site_label
 _atom_site_symmetry_multiplicity
 _atom_site_fract_x
 _atom_site_fract_y
 _atom_site_fract_z
 _atom_site_occupancy
  P  P0  1  0.25000000  0.98906050  0.68085078  1
  P  P1  1  0.75000000  0.01093950  0.31914922  1
  P  P2  1  0.25000000  0.48906050  0.81914922  1
  P  P3  1  0.75000000  0.51093950  0.18085078  1
  P  P4  1  0.25000000  0.81388672  0.00280799  1
  P  P5  1  0.75000000  0.18611328  0.99719201  1
  P  P6  1  0.25000000  0.31388672  0.49719201  1
  P  P7  1  0.75000000  0.68611328  0.50280799  1
  Sc  Sc8  1  0.75000000  0.77706003  0.19888297  1
  Sc  Sc9  1  0.25000000  0.22293997  0.80111703  1
  Sc  Sc10  1  0.75000000  0.27706003  0.30111703  1
  Sc  Sc11  1  0.25000000  0.72293997  0.69888297  1
  Sc  Sc12  1  0.25000000  0.87497345  0.43699491  1
  Sc  Sc13  1  0.75000000  0.12502655  0.56300509  1
  Sc  Sc14  1  0.25000000  0.37497345  0.06300509  1
  Sc  Sc15  1  0.75000000  0.62502655  0.93699491  1
  Sc  Sc16  1  0.25000000  0.54734613  0.36771429  1
  Sc  Sc17  1  0.75000000  0.45265387  0.63228571  1
  Sc  Sc18  1  0.25000000  0.04734613  0.13228571  1
  Sc  Sc19  1  0.75000000  0.95265387  0.86771429  1
