# generated using pymatgen
data_Si3Ru2
_symmetry_space_group_name_H-M   'P 1'
_cell_length_a   5.60316374
_cell_length_b   5.60316374
_cell_length_c   8.93334025
_cell_angle_alpha   90.00000000
_cell_angle_beta   90.00000000
_cell_angle_gamma   90.00000000
_symmetry_Int_Tables_number   1
_chemical_formula_structural   Si3Ru2
_chemical_formula_sum   'Si12 Ru8'
_cell_volume   280.46618263
_cell_formula_units_Z   4
loop_
 _symmetry_equiv_pos_site_id
 _symmetry_equiv_pos_as_xyz
  1  'x, y, z'
loop_
 _atom_site_type_symbol
 _atom_site_label
 _atom_site_symmetry_multiplicity
 _atom_site_fract_x
 _atom_site_fract_y
 _atom_site_fract_z
 _atom_site_occupancy
  Si  Si0  1  0.82982536  0.82982536  0.75000000  1
  Si  Si1  1  0.82982536  0.17017464  0.25000000  1
  Si  Si2  1  0.17017464  0.82982536  0.25000000  1
  Si  Si3  1  0.17017464  0.17017464  0.75000000  1
  Si  Si4  1  0.20741908  0.64433912  0.59034166  1
  Si  Si5  1  0.79258092  0.35566088  0.59034166  1
  Si  Si6  1  0.64433912  0.79258092  0.40965834  1
  Si  Si7  1  0.35566088  0.20741908  0.40965834  1
  Si  Si8  1  0.20741908  0.35566088  0.09034166  1
  Si  Si9  1  0.35566088  0.79258092  0.90965834  1
  Si  Si10  1  0.64433912  0.20741908  0.90965834  1
  Si  Si11  1  0.79258092  0.64433912  0.09034166  1
  Ru  Ru12  1  0.00000000  0.00000000  0.50000000  1
  Ru  Ru13  1  0.00000000  0.00000000  0.00000000  1
  Ru  Ru14  1  0.50000000  0.50000000  0.75000000  1
  Ru  Ru15  1  0.50000000  0.50000000  0.25000000  1
  Ru  Ru16  1  0.00000000  0.50000000  0.87232883  1
  Ru  Ru17  1  0.50000000  0.00000000  0.12767117  1
  Ru  Ru18  1  0.50000000  0.00000000  0.62767117  1
  Ru  Ru19  1  0.00000000  0.50000000  0.37232883  1
