# generated using pymatgen
data_In4Se3
_symmetry_space_group_name_H-M   'P 1'
_cell_length_a   4.17892750
_cell_length_b   12.57113038
_cell_length_c   15.59367881
_cell_angle_alpha   90.00000000
_cell_angle_beta   90.00000000
_cell_angle_gamma   90.00000000
_symmetry_Int_Tables_number   1
_chemical_formula_structural   In4Se3
_chemical_formula_sum   'In16 Se12'
_cell_volume   819.19586584
_cell_formula_units_Z   4
loop_
 _symmetry_equiv_pos_site_id
 _symmetry_equiv_pos_as_xyz
  1  'x, y, z'
loop_
 _atom_site_type_symbol
 _atom_site_label
 _atom_site_symmetry_multiplicity
 _atom_site_fract_x
 _atom_site_fract_y
 _atom_site_fract_z
 _atom_site_occupancy
  Se  Se0  1  0.50000000  0.65629833  0.07550886  1
  Se  Se1  1  0.50000000  0.34370167  0.92449114  1
  Se  Se2  1  0.00000000  0.15629833  0.42449114  1
  Se  Se3  1  0.00000000  0.84370167  0.57550886  1
  Se  Se4  1  0.50000000  0.63697997  0.73068241  1
  Se  Se5  1  0.50000000  0.36302003  0.26931759  1
  Se  Se6  1  0.00000000  0.13697997  0.76931759  1
  Se  Se7  1  0.00000000  0.86302003  0.23068241  1
  Se  Se8  1  0.50000000  0.34918351  0.59641886  1
  Se  Se9  1  0.50000000  0.65081649  0.40358114  1
  Se  Se10  1  0.00000000  0.84918351  0.90358114  1
  Se  Se11  1  0.00000000  0.15081649  0.09641886  1
  In  In12  1  0.00000000  0.60458204  0.57688815  1
  In  In13  1  0.00000000  0.39541796  0.42311185  1
  In  In14  1  0.50000000  0.10458204  0.92311185  1
  In  In15  1  0.50000000  0.89541796  0.07688815  1
  In  In16  1  0.50000000  0.14543205  0.53196708  1
  In  In17  1  0.50000000  0.85456795  0.46803292  1
  In  In18  1  0.00000000  0.64543205  0.96803292  1
  In  In19  1  0.00000000  0.35456795  0.03196708  1
  In  In20  1  0.50000000  0.02460380  0.68497953  1
  In  In21  1  0.50000000  0.97539620  0.31502047  1
  In  In22  1  0.00000000  0.52460380  0.81502047  1
  In  In23  1  0.00000000  0.47539620  0.18497953  1
  In  In24  1  0.50000000  0.83817344  0.78976823  1
  In  In25  1  0.50000000  0.16182656  0.21023177  1
  In  In26  1  0.00000000  0.33817344  0.71023177  1
  In  In27  1  0.00000000  0.66182656  0.28976823  1
