# generated using pymatgen
data_Fe5(O4F)2
_symmetry_space_group_name_H-M   'P 1'
_cell_length_a   4.64049440
_cell_length_b   12.98456322
_cell_length_c   5.53717660
_cell_angle_alpha   102.62748941
_cell_angle_beta   90.30890052
_cell_angle_gamma   90.02295378
_symmetry_Int_Tables_number   1
_chemical_formula_structural   Fe5(O4F)2
_chemical_formula_sum   'Fe10 O16 F4'
_cell_volume   325.56614928
_cell_formula_units_Z   2
loop_
 _symmetry_equiv_pos_site_id
 _symmetry_equiv_pos_as_xyz
  1  'x, y, z'
loop_
 _atom_site_type_symbol
 _atom_site_label
 _atom_site_symmetry_multiplicity
 _atom_site_fract_x
 _atom_site_fract_y
 _atom_site_fract_z
 _atom_site_occupancy
  Fe  Fe0  1  0.48351786  0.99514540  0.50811395  1
  Fe  Fe1  1  0.50000000  0.40000000  0.30000000  1
  Fe  Fe2  1  0.52138831  0.19103977  0.89821900  1
  Fe  Fe3  1  0.47861169  0.60896023  0.70178100  1
  Fe  Fe4  1  0.51648214  0.80485460  0.09188605  1
  Fe  Fe5  1  0.00000000  0.40000000  0.80000000  1
  Fe  Fe6  1  0.98308932  0.79968591  0.60946711  1
  Fe  Fe7  1  0.01334611  0.20549182  0.40178381  1
  Fe  Fe8  1  0.98665389  0.59450818  0.19821619  1
  Fe  Fe9  1  0.01691068  0.00031409  0.99053289  1
  O  O10  1  0.81247606  0.26446663  0.71600996  1
  O  O11  1  0.81032037  0.86682210  0.92366141  1
  O  O12  1  0.80757179  0.66158748  0.51435581  1
  O  O13  1  0.79828562  0.45533022  0.10804346  1
  O  O14  1  0.69965239  0.05422442  0.80928812  1
  O  O15  1  0.69055552  0.66616585  0.01864341  1
  O  O16  1  0.68979455  0.86068535  0.41377955  1
  O  O17  1  0.69234116  0.26118491  0.21772644  1
  O  O18  1  0.30034761  0.74577558  0.79071188  1
  O  O19  1  0.30944448  0.13383415  0.58135659  1
  O  O20  1  0.31020545  0.93931465  0.18622045  1
  O  O21  1  0.30765884  0.53881509  0.38227356  1
  O  O22  1  0.19242821  0.13841252  0.08564419  1
  O  O23  1  0.18967963  0.93317790  0.67633859  1
  O  O24  1  0.18752394  0.53553337  0.88399004  1
  O  O25  1  0.20171438  0.34466978  0.49195654  1
  F  F26  1  0.80388712  0.06029980  0.31895368  1
  F  F27  1  0.69612605  0.46551009  0.62055535  1
  F  F28  1  0.30387395  0.33448991  0.97944465  1
  F  F29  1  0.19611288  0.73970020  0.28104632  1
