# generated using pymatgen
data_Co3B
_symmetry_space_group_name_H-M   'P 1'
_cell_length_a   4.40802746
_cell_length_b   5.15088882
_cell_length_c   6.61887176
_cell_angle_alpha   90.00000000
_cell_angle_beta   90.00000000
_cell_angle_gamma   90.00000000
_symmetry_Int_Tables_number   1
_chemical_formula_structural   Co3B
_chemical_formula_sum   'Co12 B4'
_cell_volume   150.28319999
_cell_formula_units_Z   4
loop_
 _symmetry_equiv_pos_site_id
 _symmetry_equiv_pos_as_xyz
  1  'x, y, z'
loop_
 _atom_site_type_symbol
 _atom_site_label
 _atom_site_symmetry_multiplicity
 _atom_site_fract_x
 _atom_site_fract_y
 _atom_site_fract_z
 _atom_site_occupancy
  B  B0  1  0.56171139  0.12035246  0.75000000  1
  B  B1  1  0.06171139  0.37964754  0.25000000  1
  B  B2  1  0.93828861  0.62035246  0.75000000  1
  B  B3  1  0.43828861  0.87964754  0.25000000  1
  Co  Co4  1  0.65020798  0.81581864  0.94070259  1
  Co  Co5  1  0.15020798  0.68418136  0.05929741  1
  Co  Co6  1  0.84979202  0.31581864  0.55929741  1
  Co  Co7  1  0.34979202  0.18418136  0.44070259  1
  Co  Co8  1  0.86592686  0.02424661  0.25000000  1
  Co  Co9  1  0.36592686  0.47575339  0.75000000  1
  Co  Co10  1  0.63407314  0.52424661  0.25000000  1
  Co  Co11  1  0.13407314  0.97575339  0.75000000  1
  Co  Co12  1  0.65020798  0.81581864  0.55929741  1
  Co  Co13  1  0.15020798  0.68418136  0.44070259  1
  Co  Co14  1  0.84979202  0.31581864  0.94070259  1
  Co  Co15  1  0.34979202  0.18418136  0.05929741  1
