# generated using pymatgen
data_NaEuTiO4
_symmetry_space_group_name_H-M   'P 1'
_cell_length_a   5.31994337
_cell_length_b   5.40085911
_cell_length_c   12.84569102
_cell_angle_alpha   90.00000000
_cell_angle_beta   90.00000000
_cell_angle_gamma   90.00000000
_symmetry_Int_Tables_number   1
_chemical_formula_structural   NaEuTiO4
_chemical_formula_sum   'Na4 Eu4 Ti4 O16'
_cell_volume   369.08579354
_cell_formula_units_Z   4
loop_
 _symmetry_equiv_pos_site_id
 _symmetry_equiv_pos_as_xyz
  1  'x, y, z'
loop_
 _atom_site_type_symbol
 _atom_site_label
 _atom_site_symmetry_multiplicity
 _atom_site_fract_x
 _atom_site_fract_y
 _atom_site_fract_z
 _atom_site_occupancy
  O  O0  1  0.25000000  0.53443509  0.59435057  1
  O  O1  1  0.75000000  0.46556491  0.40564943  1
  O  O2  1  0.25000000  0.03443509  0.40564943  1
  O  O3  1  0.75000000  0.96556491  0.59435057  1
  O  O4  1  0.25000000  0.44783508  0.93273266  1
  O  O5  1  0.75000000  0.55216492  0.06726734  1
  O  O6  1  0.25000000  0.94783508  0.06726734  1
  O  O7  1  0.75000000  0.05216492  0.93273266  1
  O  O8  1  0.50000000  0.75000000  0.24455699  1
  O  O9  1  0.00000000  0.25000000  0.75544301  1
  O  O10  1  0.50000000  0.25000000  0.75544301  1
  O  O11  1  0.00000000  0.75000000  0.24455699  1
  O  O12  1  0.00000000  0.75000000  0.77699012  1
  O  O13  1  0.50000000  0.25000000  0.22300988  1
  O  O14  1  0.00000000  0.25000000  0.22300988  1
  O  O15  1  0.50000000  0.75000000  0.77699012  1
  Na  Na16  1  0.75000000  0.99767878  0.41463900  1
  Na  Na17  1  0.75000000  0.49767878  0.58536100  1
  Na  Na18  1  0.25000000  0.00232122  0.58536100  1
  Na  Na19  1  0.25000000  0.50232122  0.41463900  1
  Ti  Ti20  1  0.25000000  0.00756266  0.26922819  1
  Ti  Ti21  1  0.75000000  0.49243734  0.26922819  1
  Ti  Ti22  1  0.25000000  0.50756266  0.73077181  1
  Ti  Ti23  1  0.75000000  0.99243734  0.73077181  1
  Eu  Eu24  1  0.75000000  0.98059252  0.10752167  1
  Eu  Eu25  1  0.75000000  0.48059252  0.89247833  1
  Eu  Eu26  1  0.25000000  0.51940748  0.10752167  1
  Eu  Eu27  1  0.25000000  0.01940748  0.89247833  1
