# generated using pymatgen
data_Sr2GdCu3(PbO4)2
_symmetry_space_group_name_H-M   'P 1'
_cell_length_a   3.84619471
_cell_length_b   3.84619471
_cell_length_c   16.04175277
_cell_angle_alpha   90.00000000
_cell_angle_beta   90.00000000
_cell_angle_gamma   89.99775326
_symmetry_Int_Tables_number   1
_chemical_formula_structural   Sr2GdCu3(PbO4)2
_chemical_formula_sum   'Sr2 Gd1 Cu3 Pb2 O8'
_cell_volume   237.30907719
_cell_formula_units_Z   1
loop_
 _symmetry_equiv_pos_site_id
 _symmetry_equiv_pos_as_xyz
  1  'x, y, z'
loop_
 _atom_site_type_symbol
 _atom_site_label
 _atom_site_symmetry_multiplicity
 _atom_site_fract_x
 _atom_site_fract_y
 _atom_site_fract_z
 _atom_site_occupancy
  O  O0  1  0.00000000  0.50000000  0.90634782  1
  O  O1  1  0.50000000  0.00000000  0.09365218  1
  O  O2  1  0.00000000  0.50000000  0.09365218  1
  O  O3  1  0.50000000  0.00000000  0.90634782  1
  O  O4  1  0.00000000  0.00000000  0.38400547  1
  O  O5  1  0.50000000  0.50000000  0.74834859  1
  O  O6  1  0.50000000  0.50000000  0.25165141  1
  O  O7  1  0.00000000  0.00000000  0.61599453  1
  Cu  Cu8  1  0.00000000  0.00000000  0.50000000  1
  Cu  Cu9  1  0.50000000  0.50000000  0.89361002  1
  Cu  Cu10  1  0.50000000  0.50000000  0.10638998  1
  Sr  Sr11  1  0.00000000  0.00000000  0.77809220  1
  Sr  Sr12  1  0.00000000  0.00000000  0.22190780  1
  Gd  Gd13  1  0.00000000  0.00000000  0.00000000  1
  Pb  Pb14  1  0.50000000  0.50000000  0.38778770  1
  Pb  Pb15  1  0.50000000  0.50000000  0.61221230  1
