# generated using pymatgen
data_Ba(Co5As3)2
_symmetry_space_group_name_H-M   'P 1'
_cell_length_a   6.81229047
_cell_length_b   8.90452430
_cell_length_c   16.42082287
_cell_angle_alpha   90.00000000
_cell_angle_beta   90.00000000
_cell_angle_gamma   90.00000000
_symmetry_Int_Tables_number   1
_chemical_formula_structural   Ba(Co5As3)2
_chemical_formula_sum   'Ba4 Co40 As24'
_cell_volume   996.09049846
_cell_formula_units_Z   4
loop_
 _symmetry_equiv_pos_site_id
 _symmetry_equiv_pos_as_xyz
  1  'x, y, z'
loop_
 _atom_site_type_symbol
 _atom_site_label
 _atom_site_symmetry_multiplicity
 _atom_site_fract_x
 _atom_site_fract_y
 _atom_site_fract_z
 _atom_site_occupancy
  Co  Co0  1  0.75000000  0.74202366  0.06554730  1
  Co  Co1  1  0.43776457  0.49989969  0.42801648  1
  Co  Co2  1  0.93776457  0.50010031  0.57198352  1
  Co  Co3  1  0.56223543  -0.00010031  0.07198352  1
  Co  Co4  1  0.25000000  0.64671911  0.20496766  1
  Co  Co5  1  0.75000000  0.35328089  0.79503234  1
  Co  Co6  1  0.75000000  0.14671911  0.29503234  1
  Co  Co7  1  0.25000000  0.85328089  0.70496766  1
  Co  Co8  1  0.25000000  0.08342628  0.79853972  1
  Co  Co9  1  0.75000000  0.91657372  0.20146028  1
  Co  Co10  1  0.75000000  0.58342628  0.70146028  1
  Co  Co11  1  0.25000000  0.41657372  0.29853972  1
  Co  Co12  1  0.25000000  0.82137369  0.03600916  1
  Co  Co13  1  0.75000000  0.17862631  0.96399084  1
  Co  Co14  1  0.75000000  0.32137369  0.46399084  1
  Co  Co15  1  0.56223543  0.50010031  0.57198352  1
  Co  Co16  1  0.25000000  0.25797634  0.93445270  1
  Co  Co17  1  0.25000000  0.67862631  0.53600916  1
  Co  Co18  1  0.75000000  0.75797634  0.56554730  1
  Co  Co19  1  0.25000000  0.24202366  0.43445270  1
  Co  Co20  1  0.06070980  0.56950183  0.06881168  1
  Co  Co21  1  0.56070980  0.43049817  0.93118832  1
  Co  Co22  1  0.93929020  0.06950183  0.43118832  1
  Co  Co23  1  0.43929020  0.93049817  0.56881168  1
  Co  Co24  1  0.93929020  0.43049817  0.93118832  1
  Co  Co25  1  0.43929020  0.56950183  0.06881168  1
  Co  Co26  1  0.06070980  0.93049817  0.56881168  1
  Co  Co27  1  0.56070980  0.06950183  0.43118832  1
  Co  Co28  1  0.00015404  0.28317223  0.07108507  1
  Co  Co29  1  0.50015404  0.71682777  0.92891493  1
  Co  Co30  1  0.99984596  0.78317223  0.42891493  1
  Co  Co31  1  0.49984596  0.21682777  0.57108507  1
  Co  Co32  1  0.99984596  0.71682777  0.92891493  1
  Co  Co33  1  0.49984596  0.28317223  0.07108507  1
  Co  Co34  1  0.00015404  0.21682777  0.57108507  1
  Co  Co35  1  0.50015404  0.78317223  0.42891493  1
  Co  Co36  1  0.93776457  -0.00010031  0.07198352  1
  Co  Co37  1  0.43776457  1.00010031  0.92801648  1
  Co  Co38  1  0.06223543  0.49989969  0.42801648  1
  Co  Co39  1  0.06223543  1.00010031  0.92801648  1
  As  As40  1  0.48654860  0.71170216  0.64774500  1
  As  As41  1  0.98654860  0.21170216  0.85225500  1
  As  As42  1  0.48654860  0.78829784  0.14774500  1
  As  As43  1  0.01345140  0.71170216  0.64774500  1
  As  As44  1  0.25000000  0.09427584  0.04273904  1
  As  As45  1  0.75000000  0.90572416  0.95726096  1
  As  As46  1  0.75000000  0.59427584  0.45726096  1
  As  As47  1  0.25000000  0.40572416  0.54273904  1
  As  As48  1  0.25000000  0.52723494  0.95425132  1
  As  As49  1  0.75000000  0.47276506  0.04574868  1
  As  As50  1  0.75000000  0.02723494  0.54574868  1
  As  As51  1  0.25000000  0.97276506  0.45425132  1
  As  As52  1  0.25000000  0.82894027  0.84567345  1
  As  As53  1  0.75000000  0.17105973  0.15432655  1
  As  As54  1  0.51345140  0.28829784  0.35225500  1
  As  As55  1  0.25000000  0.67105973  0.34567345  1
  As  As56  1  0.25000000  0.39843115  0.15632170  1
  As  As57  1  0.75000000  0.60156885  0.84367830  1
  As  As58  1  0.75000000  0.89843115  0.34367830  1
  As  As59  1  0.25000000  0.10156885  0.65632170  1
  As  As60  1  0.01345140  0.78829784  0.14774500  1
  As  As61  1  0.51345140  0.21170216  0.85225500  1
  As  As62  1  0.98654860  0.28829784  0.35225500  1
  As  As63  1  0.75000000  0.32894027  0.65432655  1
  Ba  Ba64  1  0.25000000  0.45859178  0.74951029  1
  Ba  Ba65  1  0.75000000  0.54140822  0.25048971  1
  Ba  Ba66  1  0.75000000  0.95859178  0.75048971  1
  Ba  Ba67  1  0.25000000  0.04140822  0.24951029  1
