# generated using pymatgen
data_Hf3(NbGe2)2
_symmetry_space_group_name_H-M   'P 1'
_cell_length_a   6.90152985
_cell_length_b   7.01497725
_cell_length_c   13.33442842
_cell_angle_alpha   90.00000000
_cell_angle_beta   90.00000000
_cell_angle_gamma   90.00000000
_symmetry_Int_Tables_number   1
_chemical_formula_structural   Hf3(NbGe2)2
_chemical_formula_sum   'Hf12 Nb8 Ge16'
_cell_volume   645.57401611
_cell_formula_units_Z   4
loop_
 _symmetry_equiv_pos_site_id
 _symmetry_equiv_pos_as_xyz
  1  'x, y, z'
loop_
 _atom_site_type_symbol
 _atom_site_label
 _atom_site_symmetry_multiplicity
 _atom_site_fract_x
 _atom_site_fract_y
 _atom_site_fract_z
 _atom_site_occupancy
  Hf  Hf0  1  0.98720390  0.82636869  0.40725792  1
  Hf  Hf1  1  0.16981167  0.50592113  0.75000000  1
  Hf  Hf2  1  0.48720390  0.67363131  0.09274208  1
  Hf  Hf3  1  0.51279610  0.32636869  0.90725792  1
  Hf  Hf4  1  0.66981167  0.99407887  0.75000000  1
  Hf  Hf5  1  0.83018833  0.49407887  0.25000000  1
  Hf  Hf6  1  0.33018833  0.00592113  0.25000000  1
  Hf  Hf7  1  0.48720390  0.67363131  0.40725792  1
  Hf  Hf8  1  0.98720390  0.82636869  0.09274208  1
  Hf  Hf9  1  0.51279610  0.32636869  0.59274208  1
  Hf  Hf10  1  0.01279610  0.17363131  0.90725792  1
  Hf  Hf11  1  0.01279610  0.17363131  0.59274208  1
  Nb  Nb12  1  0.65722727  0.17118306  0.37710809  1
  Nb  Nb13  1  0.15722727  0.32881694  0.37710809  1
  Nb  Nb14  1  0.34277273  0.82881694  0.87710809  1
  Nb  Nb15  1  0.84277273  0.67118306  0.87710809  1
  Nb  Nb16  1  0.65722727  0.17118306  0.12289191  1
  Nb  Nb17  1  0.15722727  0.32881694  0.12289191  1
  Nb  Nb18  1  0.34277273  0.82881694  0.62289191  1
  Nb  Nb19  1  0.84277273  0.67118306  0.62289191  1
  Ge  Ge20  1  0.95400633  0.11522380  0.25000000  1
  Ge  Ge21  1  0.81628093  0.46445708  0.03828893  1
  Ge  Ge22  1  0.80921857  0.35456135  0.75000000  1
  Ge  Ge23  1  0.69078143  0.85456135  0.25000000  1
  Ge  Ge24  1  0.54599367  0.61522380  0.75000000  1
  Ge  Ge25  1  0.68371907  0.96445708  0.53828893  1
  Ge  Ge26  1  0.31628093  0.03554292  0.03828893  1
  Ge  Ge27  1  0.81628093  0.46445708  0.46171107  1
  Ge  Ge28  1  0.04599367  0.88477620  0.75000000  1
  Ge  Ge29  1  0.18371907  0.53554292  0.96171107  1
  Ge  Ge30  1  0.31628093  0.03554292  0.46171107  1
  Ge  Ge31  1  0.19078143  0.64543865  0.25000000  1
  Ge  Ge32  1  0.68371907  0.96445708  0.96171107  1
  Ge  Ge33  1  0.30921857  0.14543865  0.75000000  1
  Ge  Ge34  1  0.45400633  0.38477620  0.25000000  1
  Ge  Ge35  1  0.18371907  0.53554292  0.53828893  1
