# generated using pymatgen
data_Fe3O5F
_symmetry_space_group_name_H-M   'P 1'
_cell_length_a   4.64370290
_cell_length_b   7.60072683
_cell_length_c   5.54552804
_cell_angle_alpha   94.78303668
_cell_angle_beta   90.18705541
_cell_angle_gamma   89.81709735
_symmetry_Int_Tables_number   1
_chemical_formula_structural   Fe3O5F
_chemical_formula_sum   'Fe6 O10 F2'
_cell_volume   195.04878341
_cell_formula_units_Z   2
loop_
 _symmetry_equiv_pos_site_id
 _symmetry_equiv_pos_as_xyz
  1  'x, y, z'
loop_
 _atom_site_type_symbol
 _atom_site_label
 _atom_site_symmetry_multiplicity
 _atom_site_fract_x
 _atom_site_fract_y
 _atom_site_fract_z
 _atom_site_occupancy
  Fe  Fe0  1  0.53495450  0.66222959  0.15950857  1
  Fe  Fe1  1  0.50692354  0.99794810  0.51277456  1
  Fe  Fe2  1  0.49009405  0.33729617  0.83005213  1
  Fe  Fe3  1  0.99756044  0.67021417  0.67450051  1
  Fe  Fe4  1  0.98680662  0.32052097  0.33751991  1
  Fe  Fe5  1  0.98520576  0.00705421  0.99118256  1
  O  O6  1  0.81269787  0.44193497  0.62286775  1
  O  O7  1  0.80788165  0.78054169  0.96718648  1
  O  O8  1  0.80222670  0.08799523  0.29049538  1
  O  O9  1  0.68990939  0.11684577  0.79478163  1
  O  O10  1  0.69469051  0.76607771  0.46619283  1
  O  O11  1  0.69326518  0.42716459  0.12435133  1
  O  O12  1  0.31097738  0.56456123  0.86756875  1
  O  O13  1  0.30472502  0.23418724  0.53891371  1
  O  O14  1  0.18891093  0.22358529  0.04518294  1
  O  O15  1  0.19102632  0.90066690  0.71042536  1
  F  F16  1  0.30225589  0.89098732  0.20747911  1
  F  F17  1  0.19988624  0.57018784  0.35901650  1
