# generated using pymatgen
data_InSn2I5
_symmetry_space_group_name_H-M   'P 1'
_cell_length_a   8.92200251
_cell_length_b   8.92200251
_cell_length_c   10.05281555
_cell_angle_alpha   116.34380112
_cell_angle_beta   116.34380107
_cell_angle_gamma   90.00000000
_symmetry_Int_Tables_number   1
_chemical_formula_structural   InSn2I5
_chemical_formula_sum   'In2 Sn4 I10'
_cell_volume   623.02606605
_cell_formula_units_Z   2
loop_
 _symmetry_equiv_pos_site_id
 _symmetry_equiv_pos_as_xyz
  1  'x, y, z'
loop_
 _atom_site_type_symbol
 _atom_site_label
 _atom_site_symmetry_multiplicity
 _atom_site_fract_x
 _atom_site_fract_y
 _atom_site_fract_z
 _atom_site_occupancy
  In  In0  1  0.25000000  0.25000000  0.50000000  1
  In  In1  1  0.75000000  0.75000000  0.50000000  1
  Sn  Sn2  1  0.17169893  0.67169893  0.00000000  1
  Sn  Sn3  1  0.32830107  0.17169893  0.00000000  1
  Sn  Sn4  1  0.67169893  0.82830107  0.00000000  1
  Sn  Sn5  1  0.82830107  0.32830107  0.00000000  1
  I  I6  1  0.00000000  0.00000000  0.00000000  1
  I  I7  1  0.50000000  0.50000000  0.00000000  1
  I  I8  1  0.52145492  0.02145492  0.72417408  1
  I  I9  1  0.70271915  0.52145492  0.72417408  1
  I  I10  1  0.02145492  0.20271915  0.72417408  1
  I  I11  1  0.29728085  0.47854508  0.27582592  1
  I  I12  1  0.97854508  0.79728085  0.27582592  1
  I  I13  1  0.79728085  0.29728085  0.27582592  1
  I  I14  1  0.47854508  0.97854508  0.27582592  1
  I  I15  1  0.20271915  0.70271915  0.72417408  1
