# generated using pymatgen
data_Cu2NiO4
_symmetry_space_group_name_H-M   'P 1'
_cell_length_a   6.21032474
_cell_length_b   6.11243538
_cell_length_c   6.21032474
_cell_angle_alpha   128.51395519
_cell_angle_beta   77.60577539
_cell_angle_gamma   127.68962788
_symmetry_Int_Tables_number   1
_chemical_formula_structural   Cu2NiO4
_chemical_formula_sum   'Cu4 Ni2 O8'
_cell_volume   140.62131970
_cell_formula_units_Z   2
loop_
 _symmetry_equiv_pos_site_id
 _symmetry_equiv_pos_as_xyz
  1  'x, y, z'
loop_
 _atom_site_type_symbol
 _atom_site_label
 _atom_site_symmetry_multiplicity
 _atom_site_fract_x
 _atom_site_fract_y
 _atom_site_fract_z
 _atom_site_occupancy
  Cu  Cu0  1  0.50000000  0.00000000  -0.00000000  1
  Cu  Cu1  1  0.50000000  0.50000000  -0.00000000  1
  Cu  Cu2  1  0.50000000  0.00000000  0.50000000  1
  Cu  Cu3  1  -0.00000000  0.50000000  -0.00000000  1
  Ni  Ni4  1  0.91689535  0.75000000  0.66689535  1
  Ni  Ni5  1  0.08310465  0.25000000  0.33310465  1
  O  O6  1  0.84032970  0.72046279  0.20678126  1
  O  O7  1  0.51368153  0.22046279  0.38013309  1
  O  O8  1  0.72013790  0.88067207  0.99726507  1
  O  O9  1  0.88340700  0.38067207  0.66053417  1
  O  O10  1  0.11659300  0.61932793  0.33946583  1
  O  O11  1  0.27986210  0.11932793  0.00273493  1
  O  O12  1  0.48631847  0.77953721  0.61986691  1
  O  O13  1  0.15967030  0.27953721  0.79321874  1
