# generated using pymatgen
data_MnSeO3
_symmetry_space_group_name_H-M   'P 1'
_cell_length_a   5.20879867
_cell_length_b   6.19022030
_cell_length_c   8.02169598
_cell_angle_alpha   90.00000000
_cell_angle_beta   90.00000000
_cell_angle_gamma   90.00000000
_symmetry_Int_Tables_number   1
_chemical_formula_structural   MnSeO3
_chemical_formula_sum   'Mn4 Se4 O12'
_cell_volume   258.64844687
_cell_formula_units_Z   4
loop_
 _symmetry_equiv_pos_site_id
 _symmetry_equiv_pos_as_xyz
  1  'x, y, z'
loop_
 _atom_site_type_symbol
 _atom_site_label
 _atom_site_symmetry_multiplicity
 _atom_site_fract_x
 _atom_site_fract_y
 _atom_site_fract_z
 _atom_site_occupancy
  O  O0  1  0.86530262  0.18133852  0.41707468  1
  O  O1  1  0.36530262  0.31866148  0.58292532  1
  O  O2  1  0.63469738  0.68133852  0.08292532  1
  O  O3  1  0.13469738  0.81866148  0.91707468  1
  O  O4  1  0.13469738  0.81866148  0.58292532  1
  O  O5  1  0.63469738  0.68133852  0.41707468  1
  O  O6  1  0.36530262  0.31866148  0.91707468  1
  O  O7  1  0.86530262  0.18133852  0.08292532  1
  O  O8  1  0.31164975  0.07796705  0.25000000  1
  O  O9  1  0.81164975  0.42203295  0.75000000  1
  O  O10  1  0.18835025  0.57796705  0.25000000  1
  O  O11  1  0.68835025  0.92203295  0.75000000  1
  Mn  Mn12  1  0.50000000  0.00000000  0.00000000  1
  Mn  Mn13  1  0.00000000  0.50000000  0.00000000  1
  Mn  Mn14  1  0.00000000  0.50000000  0.50000000  1
  Mn  Mn15  1  0.50000000  0.00000000  0.50000000  1
  Se  Se16  1  0.98274010  0.02671395  0.25000000  1
  Se  Se17  1  0.48274010  0.47328605  0.75000000  1
  Se  Se18  1  0.51725990  0.52671395  0.25000000  1
  Se  Se19  1  0.01725990  0.97328605  0.75000000  1
