# generated using pymatgen
data_Na2CuH6C2O9
_symmetry_space_group_name_H-M   'P 1'
_cell_length_a   6.17104461
_cell_length_b   9.87132001
_cell_length_c   13.80238508
_cell_angle_alpha   92.29986576
_cell_angle_beta   90.00000000
_cell_angle_gamma   90.00000000
_symmetry_Int_Tables_number   1
_chemical_formula_structural   Na2CuH6C2O9
_chemical_formula_sum   'Na8 Cu4 H24 C8 O36'
_cell_volume   840.11373942
_cell_formula_units_Z   4
loop_
 _symmetry_equiv_pos_site_id
 _symmetry_equiv_pos_as_xyz
  1  'x, y, z'
loop_
 _atom_site_type_symbol
 _atom_site_label
 _atom_site_symmetry_multiplicity
 _atom_site_fract_x
 _atom_site_fract_y
 _atom_site_fract_z
 _atom_site_occupancy
  H  H0  1  0.54727194  0.11140614  0.39122733  1
  H  H1  1  0.04727194  0.38859386  0.10877267  1
  H  H2  1  0.45272806  0.88859386  0.60877267  1
  H  H3  1  0.95272806  0.61140614  0.89122733  1
  H  H4  1  0.60665780  0.19296633  0.48780658  1
  H  H5  1  0.10665780  0.30703367  0.01219342  1
  H  H6  1  0.39334220  0.80703367  0.51219342  1
  H  H7  1  0.89334220  0.69296633  0.98780658  1
  H  H8  1  0.47624721  0.68632201  0.11422155  1
  H  H9  1  0.97624721  0.81367799  0.38577845  1
  H  H10  1  0.52375279  0.31367799  0.88577845  1
  H  H11  1  0.02375279  0.18632201  0.61422155  1
  H  H12  1  0.24054063  0.64289579  0.08774364  1
  H  H13  1  0.74054063  0.85710421  0.41225636  1
  H  H14  1  0.75945937  0.35710421  0.91225636  1
  H  H15  1  0.25945937  0.14289579  0.58774364  1
  H  H16  1  0.92784969  0.55061470  0.40972744  1
  H  H17  1  0.42784969  0.94938530  0.09027256  1
  H  H18  1  0.07215031  0.44938530  0.59027256  1
  H  H19  1  0.57215031  0.05061470  0.90972744  1
  H  H20  1  0.75923372  0.50910558  0.48806325  1
  H  H21  1  0.25923372  0.99089442  0.01193675  1
  H  H22  1  0.24076628  0.49089442  0.51193675  1
  H  H23  1  0.74076628  0.00910558  0.98806325  1
  C  C24  1  0.25853401  0.42281066  0.32958804  1
  C  C25  1  0.75853401  0.07718934  0.17041196  1
  C  C26  1  0.74146599  0.57718934  0.67041196  1
  C  C27  1  0.24146599  0.92281066  0.82958804  1
  C  C28  1  0.84647644  0.61649852  0.17335649  1
  C  C29  1  0.34647644  0.88350148  0.32664351  1
  C  C30  1  0.15352356  0.38350148  0.82664351  1
  C  C31  1  0.65352356  0.11649852  0.67335649  1
  O  O32  1  0.65217345  0.17898147  0.41974356  1
  O  O33  1  0.15217345  0.32101853  0.08025644  1
  O  O34  1  0.34782655  0.82101853  0.58025644  1
  O  O35  1  0.84782655  0.67898147  0.91974356  1
  O  O36  1  0.39460875  0.62782185  0.06844935  1
  O  O37  1  0.89460875  0.87217815  0.43155065  1
  O  O38  1  0.60539125  0.37217815  0.93155065  1
  O  O39  1  0.10539125  0.12782185  0.56844935  1
  O  O40  1  0.77350850  0.52808594  0.41823717  1
  O  O41  1  0.27350850  0.97191406  0.08176283  1
  O  O42  1  0.22649150  0.47191406  0.58176283  1
  O  O43  1  0.72649150  0.02808594  0.91823717  1
  O  O44  1  0.14096448  0.31850113  0.33041756  1
  O  O45  1  0.64096448  0.18149887  0.16958244  1
  O  O46  1  0.85903552  0.68149887  0.66958244  1
  O  O47  1  0.35903552  0.81850113  0.83041756  1
  O  O48  1  0.41936222  0.43596651  0.26806070  1
  O  O49  1  0.91936222  0.06403349  0.23193930  1
  O  O50  1  0.58063778  0.56403349  0.73193930  1
  O  O51  1  0.08063778  0.93596651  0.76806070  1
  O  O52  1  0.23434249  0.53015977  0.38892852  1
  O  O53  1  0.73434249  0.96984023  0.11107148  1
  O  O54  1  0.76565751  0.46984023  0.61107148  1
  O  O55  1  0.26565751  0.03015977  0.88892852  1
  O  O56  1  0.84982441  0.48738971  0.16671805  1
  O  O57  1  0.34982441  0.01261029  0.33328195  1
  O  O58  1  0.15017559  0.51261029  0.83328195  1
  O  O59  1  0.65017559  0.98738971  0.66671805  1
  O  O60  1  0.97792531  0.68944077  0.12030499  1
  O  O61  1  0.47792531  0.81055923  0.37969501  1
  O  O62  1  0.02207469  0.31055923  0.87969501  1
  O  O63  1  0.52207469  0.18944077  0.62030499  1
  O  O64  1  0.71391311  0.68635191  0.22955005  1
  O  O65  1  0.21391311  0.81364809  0.27044995  1
  O  O66  1  0.28608689  0.31364809  0.77044995  1
  O  O67  1  0.78608689  0.18635191  0.72955005  1
  Na  Na68  1  0.76121174  0.33852871  0.30167510  1
  Na  Na69  1  0.26121174  0.16147129  0.19832490  1
  Na  Na70  1  0.23878826  0.66147129  0.69832490  1
  Na  Na71  1  0.73878826  0.83852871  0.80167510  1
  Na  Na72  1  0.48118271  0.60526816  0.90227553  1
  Na  Na73  1  0.98118271  0.89473184  0.59772447  1
  Na  Na74  1  0.51881729  0.39473184  0.09772447  1
  Na  Na75  1  0.01881729  0.10526816  0.40227553  1
  Cu  Cu76  1  0.49157823  0.62271696  0.32117714  1
  Cu  Cu77  1  0.99157823  0.87728304  0.17882286  1
  Cu  Cu78  1  0.50842177  0.37728304  0.67882286  1
  Cu  Cu79  1  0.00842177  0.12271696  0.82117714  1
