# generated using pymatgen
data_TiFe2O5
_symmetry_space_group_name_H-M   'P 1'
_cell_length_a   3.79520449
_cell_length_b   5.32951972
_cell_length_c   10.02789855
_cell_angle_alpha   90.00000000
_cell_angle_beta   90.00000000
_cell_angle_gamma   110.85811786
_symmetry_Int_Tables_number   1
_chemical_formula_structural   TiFe2O5
_chemical_formula_sum   'Ti2 Fe4 O10'
_cell_volume   189.53796914
_cell_formula_units_Z   2
loop_
 _symmetry_equiv_pos_site_id
 _symmetry_equiv_pos_as_xyz
  1  'x, y, z'
loop_
 _atom_site_type_symbol
 _atom_site_label
 _atom_site_symmetry_multiplicity
 _atom_site_fract_x
 _atom_site_fract_y
 _atom_site_fract_z
 _atom_site_occupancy
  O  O0  1  0.30597855  0.61195710  0.57858998  1
  O  O1  1  0.69402082  0.38804290  0.42141053  1
  O  O2  1  0.69402082  0.38804290  0.07859022  1
  O  O3  1  0.30597855  0.61195710  0.92141029  1
  O  O4  1  0.04698557  0.09397114  0.61977645  1
  O  O5  1  0.95301380  0.90602886  0.38022308  1
  O  O6  1  0.74586476  0.49173079  0.74999964  1
  O  O7  1  0.25413461  0.50826921  0.24999988  1
  O  O8  1  0.95301380  0.90602886  0.11977668  1
  O  O9  1  0.04698557  0.09397114  0.88022383  1
  Ti  Ti10  1  0.18128172  0.36256343  0.74999964  1
  Ti  Ti11  1  0.81871765  0.63743657  0.24999988  1
  Fe  Fe12  1  0.14069462  0.28138924  0.43958258  1
  Fe  Fe13  1  0.85930474  0.71861076  0.56041793  1
  Fe  Fe14  1  0.85930474  0.71861076  0.93958235  1
  Fe  Fe15  1  0.14069462  0.28138924  0.06041817  1
