# generated using pymatgen
data_NaZnP3(H4O5)2
_symmetry_space_group_name_H-M   'P 1'
_cell_length_a   9.34676271
_cell_length_b   14.84485349
_cell_length_c   14.98446890
_cell_angle_alpha   90.00000000
_cell_angle_beta   90.00000000
_cell_angle_gamma   90.00000000
_symmetry_Int_Tables_number   1
_chemical_formula_structural   NaZnP3(H4O5)2
_chemical_formula_sum   'Na8 Zn8 P24 H64 O80'
_cell_volume   2079.11488486
_cell_formula_units_Z   8
loop_
 _symmetry_equiv_pos_site_id
 _symmetry_equiv_pos_as_xyz
  1  'x, y, z'
loop_
 _atom_site_type_symbol
 _atom_site_label
 _atom_site_symmetry_multiplicity
 _atom_site_fract_x
 _atom_site_fract_y
 _atom_site_fract_z
 _atom_site_occupancy
  H  H0  1  0.23584488  0.13951590  0.65787698  1
  H  H1  1  0.73584488  0.36048410  0.34212302  1
  H  H2  1  0.76415512  0.63951590  0.84212302  1
  H  H3  1  0.26415512  0.86048410  0.15787698  1
  H  H4  1  0.76415512  0.86048410  0.34212302  1
  H  H5  1  0.26415512  0.63951590  0.65787698  1
  H  H6  1  0.23584488  0.36048410  0.15787698  1
  H  H7  1  0.73584488  0.13951590  0.84212302  1
  H  H8  1  0.31540872  0.03628630  0.26221910  1
  H  H9  1  0.81540872  0.46371370  0.73778090  1
  H  H10  1  0.68459128  0.53628630  0.23778090  1
  H  H11  1  0.18459128  0.96371370  0.76221910  1
  H  H12  1  0.68459128  0.96371370  0.73778090  1
  H  H13  1  0.18459128  0.53628630  0.26221910  1
  H  H14  1  0.31540872  0.46371370  0.76221910  1
  H  H15  1  0.81540872  0.03628630  0.23778090  1
  H  H16  1  0.23887985  0.95184703  0.57266347  1
  H  H17  1  0.73887985  0.54815297  0.42733653  1
  H  H18  1  0.76112015  0.45184703  0.92733653  1
  H  H19  1  0.26112015  0.04815297  0.07266347  1
  H  H20  1  0.76112015  0.04815297  0.42733653  1
  H  H21  1  0.26112015  0.45184703  0.57266347  1
  H  H22  1  0.23887985  0.54815297  0.07266347  1
  H  H23  1  0.73887985  0.95184703  0.92733653  1
  H  H24  1  0.29384689  0.23467991  0.31138408  1
  H  H25  1  0.79384689  0.26532009  0.68861592  1
  H  H26  1  0.70615311  0.73467991  0.18861592  1
  H  H27  1  0.20615311  0.76532009  0.81138408  1
  H  H28  1  0.70615311  0.76532009  0.68861592  1
  H  H29  1  0.20615311  0.73467991  0.31138408  1
  H  H30  1  0.29384689  0.26532009  0.81138408  1
  H  H31  1  0.79384689  0.23467991  0.18861592  1
  H  H32  1  0.31325800  0.30660396  0.38978225  1
  H  H33  1  0.81325800  0.19339604  0.61021775  1
  H  H34  1  0.68674200  0.80660396  0.11021775  1
  H  H35  1  0.18674200  0.69339604  0.88978225  1
  H  H36  1  0.68674200  0.69339604  0.61021775  1
  H  H37  1  0.18674200  0.80660396  0.38978225  1
  H  H38  1  0.31325800  0.19339604  0.88978225  1
  H  H39  1  0.81325800  0.30660396  0.11021775  1
  H  H40  1  0.15179499  0.33582910  0.69591076  1
  H  H41  1  0.65179499  0.16417090  0.30408924  1
  H  H42  1  0.84820501  0.83582910  0.80408924  1
  H  H43  1  0.34820501  0.66417090  0.19591076  1
  H  H44  1  0.84820501  0.66417090  0.30408924  1
  H  H45  1  0.34820501  0.83582910  0.69591076  1
  H  H46  1  0.15179499  0.16417090  0.19591076  1
  H  H47  1  0.65179499  0.33582910  0.80408924  1
  H  H48  1  0.47361030  0.92349569  0.36193529  1
  H  H49  1  0.97361030  0.57650431  0.63806471  1
  H  H50  1  0.52638970  0.42349569  0.13806471  1
  H  H51  1  0.02638970  0.07650431  0.86193529  1
  H  H52  1  0.52638970  0.07650431  0.63806471  1
  H  H53  1  0.02638970  0.42349569  0.36193529  1
  H  H54  1  0.47361030  0.57650431  0.86193529  1
  H  H55  1  0.97361030  0.92349569  0.13806471  1
  H  H56  1  0.09533035  0.96758630  0.38623175  1
  H  H57  1  0.59533035  0.53241370  0.61376825  1
  H  H58  1  0.90466965  0.46758630  0.11376825  1
  H  H59  1  0.40466965  0.03241370  0.88623175  1
  H  H60  1  0.90466965  0.03241370  0.61376825  1
  H  H61  1  0.40466965  0.46758630  0.38623175  1
  H  H62  1  0.09533035  0.53241370  0.88623175  1
  H  H63  1  0.59533035  0.96758630  0.11376825  1
  O  O64  1  0.38131468  0.23451145  0.56753300  1
  O  O65  1  0.88131468  0.26548855  0.43246700  1
  O  O66  1  0.61868532  0.73451145  0.93246700  1
  O  O67  1  0.11868532  0.76548855  0.06753300  1
  O  O68  1  0.61868532  0.76548855  0.43246700  1
  O  O69  1  0.11868532  0.73451145  0.56753300  1
  O  O70  1  0.38131468  0.26548855  0.06753300  1
  O  O71  1  0.88131468  0.23451145  0.93246700  1
  O  O72  1  0.52098849  0.10562567  0.32455763  1
  O  O73  1  0.02098849  0.39437433  0.67544237  1
  O  O74  1  0.47901151  0.60562567  0.17544237  1
  O  O75  1  0.97901151  0.89437433  0.82455763  1
  O  O76  1  0.47901151  0.89437433  0.67544237  1
  O  O77  1  0.97901151  0.60562567  0.32455763  1
  O  O78  1  0.52098849  0.39437433  0.82455763  1
  O  O79  1  0.02098849  0.10562567  0.17544237  1
  O  O80  1  0.58430827  0.08435670  0.53548444  1
  O  O81  1  0.08430827  0.41564330  0.46451556  1
  O  O82  1  0.41569173  0.58435670  0.96451556  1
  O  O83  1  0.91569173  0.91564330  0.03548444  1
  O  O84  1  0.41569173  0.91564330  0.46451556  1
  O  O85  1  0.91569173  0.58435670  0.53548444  1
  O  O86  1  0.58430827  0.41564330  0.03548444  1
  O  O87  1  0.08430827  0.08435670  0.96451556  1
  O  O88  1  0.28030707  0.06855900  0.46508378  1
  O  O89  1  0.78030707  0.43144100  0.53491622  1
  O  O90  1  0.71969293  0.56855900  0.03491622  1
  O  O91  1  0.21969293  0.93144100  0.96508378  1
  O  O92  1  0.71969293  0.93144100  0.53491622  1
  O  O93  1  0.21969293  0.56855900  0.46508378  1
  O  O94  1  0.28030707  0.43144100  0.96508378  1
  O  O95  1  0.78030707  0.06855900  0.03491622  1
  O  O96  1  0.60352598  0.26227450  0.43700375  1
  O  O97  1  0.10352598  0.23772550  0.56299625  1
  O  O98  1  0.39647402  0.76227450  0.06299625  1
  O  O99  1  0.89647402  0.73772550  0.93700375  1
  O  O100  1  0.39647402  0.73772550  0.56299625  1
  O  O101  1  0.89647402  0.76227450  0.43700375  1
  O  O102  1  0.60352598  0.23772550  0.93700375  1
  O  O103  1  0.10352598  0.26227450  0.06299625  1
  O  O104  1  0.29397927  0.24229442  0.37705526  1
  O  O105  1  0.79397927  0.25770558  0.62294474  1
  O  O106  1  0.70602073  0.74229442  0.12294474  1
  O  O107  1  0.20602073  0.75770558  0.87705526  1
  O  O108  1  0.70602073  0.75770558  0.62294474  1
  O  O109  1  0.20602073  0.74229442  0.37705526  1
  O  O110  1  0.29397927  0.25770558  0.87705526  1
  O  O111  1  0.79397927  0.24229442  0.12294474  1
  O  O112  1  0.23933681  0.29333652  0.69961631  1
  O  O113  1  0.73933681  0.20666348  0.30038369  1
  O  O114  1  0.76066319  0.79333652  0.80038369  1
  O  O115  1  0.26066319  0.70666348  0.19961631  1
  O  O116  1  0.76066319  0.70666348  0.30038369  1
  O  O117  1  0.26066319  0.79333652  0.69961631  1
  O  O118  1  0.23933681  0.20666348  0.19961631  1
  O  O119  1  0.73933681  0.29333652  0.80038369  1
  O  O120  1  0.50346245  0.93397565  0.29748599  1
  O  O121  1  0.00346245  0.56602435  0.70251401  1
  O  O122  1  0.49653755  0.43397565  0.20251401  1
  O  O123  1  0.99653755  0.06602435  0.79748599  1
  O  O124  1  0.49653755  0.06602435  0.70251401  1
  O  O125  1  0.99653755  0.43397565  0.29748599  1
  O  O126  1  0.50346245  0.56602435  0.79748599  1
  O  O127  1  0.00346245  0.93397565  0.20251401  1
  O  O128  1  0.52015734  0.03884554  0.16625793  1
  O  O129  1  0.02015734  0.46115446  0.83374207  1
  O  O130  1  0.47984266  0.53884554  0.33374207  1
  O  O131  1  0.97984266  0.96115446  0.66625793  1
  O  O132  1  0.47984266  0.96115446  0.83374207  1
  O  O133  1  0.97984266  0.53884554  0.16625793  1
  O  O134  1  0.52015734  0.46115446  0.66625793  1
  O  O135  1  0.02015734  0.03884554  0.33374207  1
  O  O136  1  0.15133384  0.92279791  0.42718642  1
  O  O137  1  0.65133384  0.57720209  0.57281358  1
  O  O138  1  0.84866616  0.42279791  0.07281358  1
  O  O139  1  0.34866616  0.07720209  0.92718642  1
  O  O140  1  0.84866616  0.07720209  0.57281358  1
  O  O141  1  0.34866616  0.42279791  0.42718642  1
  O  O142  1  0.15133384  0.57720209  0.92718642  1
  O  O143  1  0.65133384  0.92279791  0.07281358  1
  Na  Na144  1  0.07446336  0.16387560  0.42665910  1
  Na  Na145  1  0.57446336  0.33612440  0.57334090  1
  Na  Na146  1  0.92553664  0.66387560  0.07334090  1
  Na  Na147  1  0.42553664  0.83612440  0.92665910  1
  Na  Na148  1  0.92553664  0.83612440  0.57334090  1
  Na  Na149  1  0.42553664  0.66387560  0.42665910  1
  Na  Na150  1  0.07446336  0.33612440  0.92665910  1
  Na  Na151  1  0.57446336  0.16387560  0.07334090  1
  P  P152  1  0.23986898  0.22469061  0.61689716  1
  P  P153  1  0.73986898  0.27530939  0.38310284  1
  P  P154  1  0.76013102  0.72469061  0.88310284  1
  P  P155  1  0.26013102  0.77530939  0.11689716  1
  P  P156  1  0.76013102  0.77530939  0.38310284  1
  P  P157  1  0.26013102  0.72469061  0.61689716  1
  P  P158  1  0.23986898  0.27530939  0.11689716  1
  P  P159  1  0.73986898  0.22469061  0.88310284  1
  P  P160  1  0.46596367  0.03163425  0.26154978  1
  P  P161  1  0.96596367  0.46836575  0.73845022  1
  P  P162  1  0.53403633  0.53163425  0.23845022  1
  P  P163  1  0.03403633  0.96836575  0.76154978  1
  P  P164  1  0.53403633  0.96836575  0.73845022  1
  P  P165  1  0.03403633  0.53163425  0.26154978  1
  P  P166  1  0.46596367  0.46836575  0.76154978  1
  P  P167  1  0.96596367  0.03163425  0.23845022  1
  P  P168  1  0.27784213  0.96764955  0.48337986  1
  P  P169  1  0.77784213  0.53235045  0.51662014  1
  P  P170  1  0.72215787  0.46764955  0.01662014  1
  P  P171  1  0.22215787  0.03235045  0.98337986  1
  P  P172  1  0.72215787  0.03235045  0.51662014  1
  P  P173  1  0.22215787  0.46764955  0.48337986  1
  P  P174  1  0.27784213  0.53235045  0.98337986  1
  P  P175  1  0.77784213  0.96764955  0.01662014  1
  Zn  Zn176  1  0.44841217  0.16162917  0.45217375  1
  Zn  Zn177  1  0.94841217  0.33837083  0.54782625  1
  Zn  Zn178  1  0.55158783  0.66162917  0.04782625  1
  Zn  Zn179  1  0.05158783  0.83837083  0.95217375  1
  Zn  Zn180  1  0.55158783  0.83837083  0.54782625  1
  Zn  Zn181  1  0.05158783  0.66162917  0.45217375  1
  Zn  Zn182  1  0.44841217  0.33837083  0.95217375  1
  Zn  Zn183  1  0.94841217  0.16162917  0.04782625  1
