# generated using pymatgen
data_LiTi(PO3)4
_symmetry_space_group_name_H-M   'P 1'
_cell_length_a   12.87403033
_cell_length_b   8.38438325
_cell_length_c   9.50487418
_cell_angle_alpha   90.00000000
_cell_angle_beta   90.00000000
_cell_angle_gamma   90.00000000
_symmetry_Int_Tables_number   1
_chemical_formula_structural   LiTi(PO3)4
_chemical_formula_sum   'Li4 Ti4 P16 O48'
_cell_volume   1025.96376337
_cell_formula_units_Z   4
loop_
 _symmetry_equiv_pos_site_id
 _symmetry_equiv_pos_as_xyz
  1  'x, y, z'
loop_
 _atom_site_type_symbol
 _atom_site_label
 _atom_site_symmetry_multiplicity
 _atom_site_fract_x
 _atom_site_fract_y
 _atom_site_fract_z
 _atom_site_occupancy
  Li  Li0  1  0.00000000  -0.00002364  0.75000000  1
  Li  Li1  1  0.00000000  1.00002364  0.25000000  1
  Li  Li2  1  0.50000000  0.50002364  0.25000000  1
  Li  Li3  1  0.50000000  0.49997636  0.75000000  1
  O  O4  1  0.06557157  0.18629652  0.63027709  1
  O  O5  1  0.06557157  0.81370348  0.13027709  1
  O  O6  1  0.07313081  0.46451925  0.12659403  1
  O  O7  1  0.07313081  0.53548075  0.62659403  1
  O  O8  1  0.10226098  0.09299199  0.37496021  1
  O  O9  1  0.10226098  0.90700801  0.87496021  1
  O  O10  1  0.12365905  0.37430943  0.87823602  1
  O  O11  1  0.12365905  0.62569057  0.37823602  1
  O  O12  1  0.17877502  0.35309816  0.46374107  1
  O  O13  1  0.17877502  0.64690184  0.96374107  1
  O  O14  1  0.24175728  0.09782271  0.56944614  1
  O  O15  1  0.24175728  0.90217729  0.06944614  1
  O  O16  1  0.25824272  0.40217729  0.06944614  1
  O  O17  1  0.25824272  0.59782271  0.56944614  1
  O  O18  1  0.32122498  0.14690184  0.96374107  1
  O  O19  1  0.32122498  0.85309816  0.46374107  1
  O  O20  1  0.37634095  0.12569057  0.37823602  1
  O  O21  1  0.37634095  0.87430943  0.87823602  1
  O  O22  1  0.39773902  0.40700801  0.87496021  1
  O  O23  1  0.39773902  0.59299199  0.37496021  1
  O  O24  1  0.42686919  0.03548075  0.62659403  1
  O  O25  1  0.42686919  0.96451925  0.12659403  1
  O  O26  1  0.43442843  0.31370348  0.13027709  1
  O  O27  1  0.43442843  0.68629652  0.63027709  1
  O  O28  1  0.56557157  0.31370348  0.36972291  1
  O  O29  1  0.56557157  0.68629652  0.86972291  1
  O  O30  1  0.57313081  0.03548075  0.87340597  1
  O  O31  1  0.57313081  0.96451925  0.37340597  1
  O  O32  1  0.60226098  0.40700801  0.62503979  1
  O  O33  1  0.60226098  0.59299199  0.12503979  1
  O  O34  1  0.62365905  0.12569057  0.12176398  1
  O  O35  1  0.62365905  0.87430943  0.62176398  1
  O  O36  1  0.67877502  0.14690184  0.53625893  1
  O  O37  1  0.67877502  0.85309816  0.03625893  1
  O  O38  1  0.74175728  0.40217729  0.43055386  1
  O  O39  1  0.74175728  0.59782271  0.93055386  1
  O  O40  1  0.75824272  0.09782271  0.93055386  1
  O  O41  1  0.75824272  0.90217729  0.43055386  1
  O  O42  1  0.82122498  0.35309816  0.03625893  1
  O  O43  1  0.82122498  0.64690184  0.53625893  1
  O  O44  1  0.87634095  0.37430943  0.62176398  1
  O  O45  1  0.87634095  0.62569057  0.12176398  1
  O  O46  1  0.89773902  0.09299199  0.12503979  1
  O  O47  1  0.89773902  0.90700801  0.62503979  1
  O  O48  1  0.92686919  0.46451925  0.37340597  1
  O  O49  1  0.92686919  0.53548075  0.87340597  1
  O  O50  1  0.93442843  0.18629652  0.86972291  1
  O  O51  1  0.93442843  0.81370348  0.36972291  1
  P  P52  1  0.13751471  0.17626845  0.50329343  1
  P  P53  1  0.13751471  0.82373155  0.00329343  1
  P  P54  1  0.15113068  0.46782188  0.00894540  1
  P  P55  1  0.15113068  0.53217812  0.50894540  1
  P  P56  1  0.34886932  0.03217812  0.50894540  1
  P  P57  1  0.34886932  0.96782188  0.00894540  1
  P  P58  1  0.36248529  0.32373155  0.00329343  1
  P  P59  1  0.36248529  0.67626845  0.50329343  1
  P  P60  1  0.63751471  0.32373155  0.49670657  1
  P  P61  1  0.63751471  0.67626845  0.99670657  1
  P  P62  1  0.65113068  0.03217812  0.99105460  1
  P  P63  1  0.65113068  0.96782188  0.49105460  1
  P  P64  1  0.84886932  0.46782188  0.49105460  1
  P  P65  1  0.84886932  0.53217812  0.99105460  1
  P  P66  1  0.86248529  0.17626845  0.99670657  1
  P  P67  1  0.86248529  0.82373155  0.49670657  1
  Ti  Ti68  1  0.00000000  0.36667963  0.75000000  1
  Ti  Ti69  1  0.00000000  0.63332037  0.25000000  1
  Ti  Ti70  1  0.50000000  0.13332037  0.25000000  1
  Ti  Ti71  1  0.50000000  0.86667963  0.75000000  1
