# generated using pymatgen
data_Li2Cu(PO3)4
_symmetry_space_group_name_H-M   'P 1'
_cell_length_a   9.43413303
_cell_length_b   10.13378849
_cell_length_c   9.43126344
_cell_angle_alpha   90.00000000
_cell_angle_beta   90.00000000
_cell_angle_gamma   90.00000000
_symmetry_Int_Tables_number   1
_chemical_formula_structural   Li2Cu(PO3)4
_chemical_formula_sum   'Li8 Cu4 P16 O48'
_cell_volume   901.66187646
_cell_formula_units_Z   4
loop_
 _symmetry_equiv_pos_site_id
 _symmetry_equiv_pos_as_xyz
  1  'x, y, z'
loop_
 _atom_site_type_symbol
 _atom_site_label
 _atom_site_symmetry_multiplicity
 _atom_site_fract_x
 _atom_site_fract_y
 _atom_site_fract_z
 _atom_site_occupancy
  Li  Li0  1  0.00890572  0.82063268  0.09579137  1
  Li  Li1  1  0.99109428  0.17936732  0.90420863  1
  Li  Li2  1  0.99109428  0.17936732  0.59579137  1
  Li  Li3  1  0.50890572  0.67936732  0.40420863  1
  Li  Li4  1  0.50890572  0.67936732  0.09579137  1
  Li  Li5  1  0.00890572  0.82063268  0.40420863  1
  Li  Li6  1  0.49109428  0.32063268  0.59579137  1
  Li  Li7  1  0.49109428  0.32063268  0.90420863  1
  O  O8  1  0.35008819  0.97897585  0.11719368  1
  O  O9  1  0.88199151  0.27822954  0.06239014  1
  O  O10  1  0.88352714  0.04952904  0.25000000  1
  O  O11  1  0.89812185  0.72798341  0.25000000  1
  O  O12  1  0.10187815  0.27201659  0.75000000  1
  O  O13  1  0.11647286  0.95047096  0.75000000  1
  O  O14  1  0.11800849  0.72177046  0.56239014  1
  O  O15  1  0.11800849  0.72177046  0.93760986  1
  O  O16  1  0.12950702  0.11628335  0.05440898  1
  O  O17  1  0.12950702  0.11628335  0.44559102  1
  O  O18  1  0.13551733  0.34411398  0.25000000  1
  O  O19  1  0.14991181  0.47897585  0.61719368  1
  O  O20  1  0.14991181  0.47897585  0.88280632  1
  O  O21  1  0.14458642  0.87077811  0.25000000  1
  O  O22  1  0.17608728  0.56233527  0.12504554  1
  O  O23  1  0.17608728  0.56233527  0.37495446  1
  O  O24  1  0.32391272  0.06233527  0.62504554  1
  O  O25  1  0.32391272  0.06233527  0.87495446  1
  O  O26  1  0.35541358  0.37077811  0.75000000  1
  O  O27  1  0.88199151  0.27822954  0.43760986  1
  O  O28  1  0.35008819  0.97897585  0.38280632  1
  O  O29  1  0.36448267  0.84411398  0.75000000  1
  O  O30  1  0.37049298  0.61628335  0.55440898  1
  O  O31  1  0.37049298  0.61628335  0.94559102  1
  O  O32  1  0.38199151  0.22177046  0.06239014  1
  O  O33  1  0.38199151  0.22177046  0.43760986  1
  O  O34  1  0.38352714  0.45047096  0.25000000  1
  O  O35  1  0.39812185  0.77201659  0.25000000  1
  O  O36  1  0.60187815  0.22798341  0.75000000  1
  O  O37  1  0.61647286  0.54952904  0.75000000  1
  O  O38  1  0.61800849  0.77822954  0.56239014  1
  O  O39  1  0.61800849  0.77822954  0.93760986  1
  O  O40  1  0.62950702  0.38371665  0.05440898  1
  O  O41  1  0.62950702  0.38371665  0.44559102  1
  O  O42  1  0.63551733  0.15588602  0.25000000  1
  O  O43  1  0.64991181  0.02102415  0.61719368  1
  O  O44  1  0.64991181  0.02102415  0.88280632  1
  O  O45  1  0.64458642  0.62922189  0.25000000  1
  O  O46  1  0.67608728  0.93766473  0.12504554  1
  O  O47  1  0.67608728  0.93766473  0.37495446  1
  O  O48  1  0.82391272  0.43766473  0.62504554  1
  O  O49  1  0.82391272  0.43766473  0.87495446  1
  O  O50  1  0.85541358  0.12922189  0.75000000  1
  O  O51  1  0.85008819  0.52102415  0.11719368  1
  O  O52  1  0.87049298  0.88371665  0.94559102  1
  O  O53  1  0.86448267  0.65588602  0.75000000  1
  O  O54  1  0.87049298  0.88371665  0.55440898  1
  O  O55  1  0.85008819  0.52102415  0.38280632  1
  P  P56  1  0.77657555  0.53403046  0.75000000  1
  P  P57  1  0.72342445  0.03403046  0.25000000  1
  P  P58  1  0.78705319  0.39537776  0.03435148  1
  P  P59  1  0.78705319  0.39537776  0.46564852  1
  P  P60  1  0.19822027  0.38925009  0.75000000  1
  P  P61  1  0.21294681  0.60462224  0.53435148  1
  P  P62  1  0.21294681  0.60462224  0.96564852  1
  P  P63  1  0.22342445  0.46596954  0.25000000  1
  P  P64  1  0.27657555  0.96596954  0.75000000  1
  P  P65  1  0.28705319  0.10462224  0.03435148  1
  P  P66  1  0.28705319  0.10462224  0.46564852  1
  P  P67  1  0.30177973  0.88925009  0.25000000  1
  P  P68  1  0.69822027  0.11074991  0.75000000  1
  P  P69  1  0.71294681  0.89537776  0.53435148  1
  P  P70  1  0.71294681  0.89537776  0.96564852  1
  P  P71  1  0.80177973  0.61074991  0.25000000  1
  Cu  Cu72  1  1.00237792  0.79351312  0.75000000  1
  Cu  Cu73  1  0.49762208  0.29351312  0.25000000  1
  Cu  Cu74  1  0.50237792  0.70648688  0.75000000  1
  Cu  Cu75  1  -0.00237792  0.20648688  0.25000000  1
