# generated using pymatgen
data_Nb2P5
_symmetry_space_group_name_H-M   'P 1'
_cell_length_a   3.35763472
_cell_length_b   7.94821274
_cell_length_c   16.87381957
_cell_angle_alpha   90.00000000
_cell_angle_beta   90.00000000
_cell_angle_gamma   90.00000000
_symmetry_Int_Tables_number   1
_chemical_formula_structural   Nb2P5
_chemical_formula_sum   'Nb8 P20'
_cell_volume   450.31491423
_cell_formula_units_Z   4
loop_
 _symmetry_equiv_pos_site_id
 _symmetry_equiv_pos_as_xyz
  1  'x, y, z'
loop_
 _atom_site_type_symbol
 _atom_site_label
 _atom_site_symmetry_multiplicity
 _atom_site_fract_x
 _atom_site_fract_y
 _atom_site_fract_z
 _atom_site_occupancy
  P  P0  1  0.75000000  0.15216451  0.68600185  1
  P  P1  1  0.25000000  0.84783549  0.31399815  1
  P  P2  1  0.25000000  0.65216451  0.81399815  1
  P  P3  1  0.75000000  0.34783549  0.18600185  1
  P  P4  1  0.25000000  0.00599307  0.81571397  1
  P  P5  1  0.75000000  0.99400693  0.18428603  1
  P  P6  1  0.75000000  0.50599307  0.68428603  1
  P  P7  1  0.25000000  0.49400693  0.31571397  1
  P  P8  1  0.25000000  0.46194445  0.04045300  1
  P  P9  1  0.75000000  0.53805555  0.95954700  1
  P  P10  1  0.75000000  0.96194445  0.45954700  1
  P  P11  1  0.25000000  0.03805555  0.54045300  1
  P  P12  1  0.75000000  0.18404713  0.38451505  1
  P  P13  1  0.25000000  0.81595287  0.61548495  1
  P  P14  1  0.25000000  0.68404713  0.11548495  1
  P  P15  1  0.75000000  0.31595287  0.88451505  1
  P  P16  1  0.75000000  0.11959198  0.97840067  1
  P  P17  1  0.25000000  0.88040802  0.02159933  1
  P  P18  1  0.25000000  0.61959198  0.52159933  1
  P  P19  1  0.75000000  0.38040802  0.47840067  1
  Nb  Nb20  1  0.25000000  0.32783247  0.77426439  1
  Nb  Nb21  1  0.75000000  0.67216753  0.22573561  1
  Nb  Nb22  1  0.75000000  0.82783247  0.72573561  1
  Nb  Nb23  1  0.25000000  0.17216753  0.27426439  1
  Nb  Nb24  1  0.25000000  0.33571537  0.59528315  1
  Nb  Nb25  1  0.75000000  0.66428463  0.40471685  1
  Nb  Nb26  1  0.75000000  0.83571537  0.90471685  1
  Nb  Nb27  1  0.25000000  0.16428463  0.09528315  1
