# generated using pymatgen
data_Ag3AuS2
_symmetry_space_group_name_H-M   'P 1'
_cell_length_a   9.87438493
_cell_length_b   9.87438493
_cell_length_c   9.87438493
_cell_angle_alpha   90.00000000
_cell_angle_beta   90.00000000
_cell_angle_gamma   90.00000000
_symmetry_Int_Tables_number   1
_chemical_formula_structural   Ag3AuS2
_chemical_formula_sum   'Ag24 Au8 S16'
_cell_volume   962.78687128
_cell_formula_units_Z   8
loop_
 _symmetry_equiv_pos_site_id
 _symmetry_equiv_pos_as_xyz
  1  'x, y, z'
loop_
 _atom_site_type_symbol
 _atom_site_label
 _atom_site_symmetry_multiplicity
 _atom_site_fract_x
 _atom_site_fract_y
 _atom_site_fract_z
 _atom_site_occupancy
  S  S0  1  0.76082879  0.76082879  0.76082879  1
  S  S1  1  0.01082879  0.48917121  0.51082879  1
  S  S2  1  0.48917121  0.51082879  0.01082879  1
  S  S3  1  0.51082879  0.01082879  0.48917121  1
  S  S4  1  0.26082879  0.73917121  0.23917121  1
  S  S5  1  0.73917121  0.23917121  0.26082879  1
  S  S6  1  0.23917121  0.26082879  0.73917121  1
  S  S7  1  0.98917121  0.98917121  0.98917121  1
  S  S8  1  0.76647102  0.23352898  0.73352898  1
  S  S9  1  0.23352898  0.73352898  0.76647102  1
  S  S10  1  0.98352898  0.01647102  0.51647102  1
  S  S11  1  0.01647102  0.51647102  0.98352898  1
  S  S12  1  0.51647102  0.98352898  0.01647102  1
  S  S13  1  0.26647102  0.26647102  0.26647102  1
  S  S14  1  0.48352898  0.48352898  0.48352898  1
  S  S15  1  0.73352898  0.76647102  0.23352898  1
  Ag  Ag16  1  0.25149748  0.38422248  0.00093960  1
  Ag  Ag17  1  0.49906040  0.74850252  0.88422248  1
  Ag  Ag18  1  0.75149748  0.11577752  0.99906040  1
  Ag  Ag19  1  0.00093960  0.25149748  0.38422248  1
  Ag  Ag20  1  0.24850252  0.61577752  0.50093960  1
  Ag  Ag21  1  0.74850252  0.88422248  0.49906040  1
  Ag  Ag22  1  0.50093960  0.24850252  0.61577752  1
  Ag  Ag23  1  0.88422248  0.49906040  0.74850252  1
  Ag  Ag24  1  0.61577752  0.50093960  0.24850252  1
  Ag  Ag25  1  0.11577752  0.99906040  0.75149748  1
  Ag  Ag26  1  0.75093960  0.63422248  0.99850252  1
  Ag  Ag27  1  0.74906040  0.36577752  0.49850252  1
  Ag  Ag28  1  0.50149748  0.24906040  0.13422248  1
  Ag  Ag29  1  0.49850252  0.74906040  0.36577752  1
  Ag  Ag30  1  0.86577752  0.00149748  0.25093960  1
  Ag  Ag31  1  0.36577752  0.49850252  0.74906040  1
  Ag  Ag32  1  0.24906040  0.13422248  0.50149748  1
  Ag  Ag33  1  0.99850252  0.75093960  0.63422248  1
  Ag  Ag34  1  0.00149748  0.25093960  0.86577752  1
  Ag  Ag35  1  0.13422248  0.50149748  0.24906040  1
  Ag  Ag36  1  0.63422248  0.99850252  0.75093960  1
  Ag  Ag37  1  0.38422248  0.00093960  0.25149748  1
  Ag  Ag38  1  0.99906040  0.75149748  0.11577752  1
  Ag  Ag39  1  0.25093960  0.86577752  0.00149748  1
  Au  Au40  1  0.62205614  0.62205614  0.62205614  1
  Au  Au41  1  0.87205614  0.62794386  0.37205614  1
  Au  Au42  1  0.62794386  0.37205614  0.87205614  1
  Au  Au43  1  0.37205614  0.87205614  0.62794386  1
  Au  Au44  1  0.12205614  0.87794386  0.37794386  1
  Au  Au45  1  0.87794386  0.37794386  0.12205614  1
  Au  Au46  1  0.37794386  0.12205614  0.87794386  1
  Au  Au47  1  0.12794386  0.12794386  0.12794386  1
