# generated using pymatgen
data_FePO4
_symmetry_space_group_name_H-M   'P 1'
_cell_length_a   19.35033763
_cell_length_b   5.27450500
_cell_length_c   7.92685306
_cell_angle_alpha   90.00000000
_cell_angle_beta   90.00000000
_cell_angle_gamma   90.00000000
_symmetry_Int_Tables_number   1
_chemical_formula_structural   FePO4
_chemical_formula_sum   'Fe12 P12 O48'
_cell_volume   809.04199141
_cell_formula_units_Z   12
loop_
 _symmetry_equiv_pos_site_id
 _symmetry_equiv_pos_as_xyz
  1  'x, y, z'
loop_
 _atom_site_type_symbol
 _atom_site_label
 _atom_site_symmetry_multiplicity
 _atom_site_fract_x
 _atom_site_fract_y
 _atom_site_fract_z
 _atom_site_occupancy
  Fe  Fe0  1  0.00004285  0.73523168  0.25009384  1
  Fe  Fe1  1  0.16660265  0.23679913  0.74908475  1
  Fe  Fe2  1  0.16669479  0.73630343  0.24888440  1
  Fe  Fe3  1  0.33330521  0.23630343  0.74888440  1
  Fe  Fe4  1  0.33339735  0.73679913  0.24908475  1
  Fe  Fe5  1  0.49995715  0.23523168  0.75009384  1
  Fe  Fe6  1  0.50004285  0.73523168  0.24990616  1
  Fe  Fe7  1  0.66660265  0.23679913  0.75091525  1
  Fe  Fe8  1  0.66669479  0.73630343  0.25111560  1
  Fe  Fe9  1  0.83330521  0.23630343  0.75111560  1
  Fe  Fe10  1  0.83339735  0.73679913  0.25091525  1
  Fe  Fe11  1  0.99995715  0.23523168  0.74990616  1
  O  O12  1  0.01750256  0.23547997  0.50958872  1
  O  O13  1  0.01758091  0.73579090  0.00979918  1
  O  O14  1  0.08323608  0.47827128  0.28618079  1
  O  O15  1  0.08320204  0.97867324  0.78628977  1
  O  O16  1  0.08321446  0.49327216  0.78626005  1
  O  O17  1  0.08327064  0.99287582  0.28634537  1
  O  O18  1  0.14903056  0.23601427  0.50923711  1
  O  O19  1  0.14911198  0.73617428  0.00904471  1
  O  O20  1  0.18421938  0.23639130  0.98901378  1
  O  O21  1  0.18425397  0.73619227  0.48882047  1
  O  O22  1  0.25001469  0.99390280  0.21213083  1
  O  O23  1  0.24995947  0.97934460  0.71188462  1
  O  O24  1  0.25004053  0.47934460  0.21188462  1
  O  O25  1  0.24998531  0.49390280  0.71213083  1
  O  O26  1  0.31574603  0.23619227  0.98882047  1
  O  O27  1  0.31578062  0.73639130  0.48901378  1
  O  O28  1  0.35088802  0.23617428  0.50904471  1
  O  O29  1  0.35096944  0.73601427  0.00923711  1
  O  O30  1  0.41672936  0.49287582  0.78634537  1
  O  O31  1  0.41678554  0.99327216  0.28626005  1
  O  O32  1  0.41679796  0.47867324  0.28628977  1
  O  O33  1  0.41676392  0.97827128  0.78618079  1
  O  O34  1  0.48241909  0.23579090  0.50979918  1
  O  O35  1  0.48249744  0.73547997  0.00958872  1
  O  O36  1  0.51750256  0.23547997  0.99041128  1
  O  O37  1  0.51758091  0.73579090  0.49020082  1
  O  O38  1  0.58323608  0.47827128  0.21381921  1
  O  O39  1  0.58320204  0.97867324  0.71371023  1
  O  O40  1  0.58321446  0.49327216  0.71373995  1
  O  O41  1  0.58327064  0.99287582  0.21365463  1
  O  O42  1  0.64903056  0.23601427  0.99076289  1
  O  O43  1  0.64911198  0.73617428  0.49095529  1
  O  O44  1  0.68421938  0.23639130  0.51098622  1
  O  O45  1  0.68425397  0.73619227  0.01117953  1
  O  O46  1  0.75001469  0.99390280  0.28786917  1
  O  O47  1  0.74995947  0.97934460  0.78811538  1
  O  O48  1  0.75004053  0.47934460  0.28811538  1
  O  O49  1  0.74998531  0.49390280  0.78786917  1
  O  O50  1  0.81574603  0.23619227  0.51117953  1
  O  O51  1  0.81578062  0.73639130  0.01098622  1
  O  O52  1  0.85088802  0.23617428  0.99095529  1
  O  O53  1  0.85096944  0.73601427  0.49076289  1
  O  O54  1  0.91672936  0.49287582  0.71365463  1
  O  O55  1  0.91678554  0.99327216  0.21373995  1
  O  O56  1  0.91679796  0.47867324  0.21371023  1
  O  O57  1  0.91676392  0.97827128  0.71381921  1
  O  O58  1  0.98241909  0.23579090  0.99020082  1
  O  O59  1  0.98249744  0.73547997  0.49041128  1
  P  P60  1  0.08321890  0.23565285  0.40290472  1
  P  P61  1  0.08322221  0.73595839  0.90290088  1
  P  P62  1  0.24999696  0.23649764  0.09544704  1
  P  P63  1  0.25000304  0.73649764  0.59544704  1
  P  P64  1  0.41677779  0.23595839  0.40290088  1
  P  P65  1  0.41678110  0.73565285  0.90290472  1
  P  P66  1  0.58321890  0.23565285  0.09709528  1
  P  P67  1  0.58322221  0.73595839  0.59709912  1
  P  P68  1  0.74999696  0.23649764  0.40455296  1
  P  P69  1  0.75000304  0.73649764  0.90455296  1
  P  P70  1  0.91677779  0.23595839  0.09709912  1
  P  P71  1  0.91678110  0.73565285  0.59709528  1
