# generated using pymatgen
data_Cu5P3O13
_symmetry_space_group_name_H-M   'P 1'
_cell_length_a   6.18595120
_cell_length_b   8.09309599
_cell_length_c   9.95559263
_cell_angle_alpha   92.14272103
_cell_angle_beta   90.24192964
_cell_angle_gamma   90.05829714
_symmetry_Int_Tables_number   1
_chemical_formula_structural   Cu5P3O13
_chemical_formula_sum   'Cu10 P6 O26'
_cell_volume   498.05850282
_cell_formula_units_Z   2
loop_
 _symmetry_equiv_pos_site_id
 _symmetry_equiv_pos_as_xyz
  1  'x, y, z'
loop_
 _atom_site_type_symbol
 _atom_site_label
 _atom_site_symmetry_multiplicity
 _atom_site_fract_x
 _atom_site_fract_y
 _atom_site_fract_z
 _atom_site_occupancy
  Cu  Cu0  1  0.50051836  0.13575405  0.77769720  1
  Cu  Cu1  1  0.74905642  0.22851208  0.46117848  1
  Cu  Cu2  1  0.25094358  0.77148792  0.53882152  1
  Cu  Cu3  1  0.49948164  0.86424595  0.22230280  1
  Cu  Cu4  1  0.99645432  0.86439003  0.22062802  1
  Cu  Cu5  1  0.25481964  0.84978882  0.92174423  1
  Cu  Cu6  1  0.75301801  0.42860681  0.88721983  1
  Cu  Cu7  1  0.24698199  0.57139319  0.11278017  1
  Cu  Cu8  1  0.00354568  0.13560997  0.77937198  1
  Cu  Cu9  1  0.74518036  0.15021118  0.07825577  1
  P  P10  1  0.24948971  0.13228215  0.50457380  1
  P  P11  1  0.75051029  0.86771785  0.49542620  1
  P  P12  1  0.74816711  0.51074415  0.22934423  1
  P  P13  1  0.24965162  0.15894657  0.11210331  1
  P  P14  1  0.75034838  0.84105343  0.88789669  1
  P  P15  1  0.25183289  0.48925585  0.77065577  1
  O  O16  1  0.25041796  0.95764547  0.42905624  1
  O  O17  1  0.74997031  0.91076261  0.33908221  1
  O  O18  1  0.95451622  0.62453105  0.21817723  1
  O  O19  1  0.54274154  0.90175851  0.81288124  1
  O  O20  1  0.74770741  0.38976833  0.10265682  1
  O  O21  1  0.04193559  0.09712585  0.18475547  1
  O  O22  1  0.94583535  0.76261225  0.53068911  1
  O  O23  1  0.95806441  0.90287415  0.81524453  1
  O  O24  1  0.25229259  0.61023167  0.89734318  1
  O  O25  1  0.25298368  0.08901803  0.96367254  1
  O  O26  1  0.75175807  0.65542412  0.88716020  1
  O  O27  1  0.45758109  0.37545449  0.78215845  1
  O  O28  1  0.25120229  0.57637487  0.63953100  1
  O  O29  1  0.24731706  0.80601873  0.11931600  1
  O  O30  1  0.54241891  0.62454551  0.21784155  1
  O  O31  1  0.44436025  0.23871760  0.47068611  1
  O  O32  1  0.74958204  0.04235453  0.57094376  1
  O  O33  1  0.45725846  0.09824149  0.18711876  1
  O  O34  1  0.25002969  0.08923739  0.66091779  1
  O  O35  1  0.74879771  0.42362513  0.36046900  1
  O  O36  1  0.55563975  0.76128240  0.52931389  1
  O  O37  1  0.05416465  0.23738775  0.46931089  1
  O  O38  1  0.74701632  0.91098197  0.03632746  1
  O  O39  1  0.75268294  0.19398127  0.88068400  1
  O  O40  1  0.04548378  0.37546895  0.78182277  1
  O  O41  1  0.24824193  0.34457588  0.11283980  1
