# generated using pymatgen
data_Li3Sb5(PO4)6
_symmetry_space_group_name_H-M   'P 1'
_cell_length_a   8.78750761
_cell_length_b   8.64153219
_cell_length_c   8.78572281
_cell_angle_alpha   109.75628542
_cell_angle_beta   108.69989252
_cell_angle_gamma   109.01722096
_symmetry_Int_Tables_number   1
_chemical_formula_structural   Li3Sb5(PO4)6
_chemical_formula_sum   'Li3 Sb5 P6 O24'
_cell_volume   519.42384170
_cell_formula_units_Z   1
loop_
 _symmetry_equiv_pos_site_id
 _symmetry_equiv_pos_as_xyz
  1  'x, y, z'
loop_
 _atom_site_type_symbol
 _atom_site_label
 _atom_site_symmetry_multiplicity
 _atom_site_fract_x
 _atom_site_fract_y
 _atom_site_fract_z
 _atom_site_occupancy
  Li  Li0  1  0.46277441  0.01015833  0.27033894  1
  Li  Li1  1  0.23903578  0.19425990  0.21541148  1
  Li  Li2  1  0.78068640  0.49868726  0.98757121  1
  O  O3  1  0.90441191  0.07378357  0.25723397  1
  O  O4  1  0.66294816  0.33516753  0.07225602  1
  O  O5  1  0.85924302  0.14985545  0.58476164  1
  O  O6  1  0.65829216  0.24027961  0.31477096  1
  O  O7  1  0.81803691  0.73608887  0.16693548  1
  O  O8  1  0.43698154  0.35608876  0.19078672  1
  O  O9  1  0.77310034  0.58009121  0.40432079  1
  O  O10  1  0.73775290  0.16367050  0.80903067  1
  O  O11  1  0.35351553  0.16226094  0.42540419  1
  O  O12  1  0.57239682  0.83726058  0.15249356  1
  O  O13  1  0.36340712  0.10244114  0.69067521  1
  O  O14  1  0.31801490  0.65519257  0.24418505  1
  O  O15  1  0.90756159  0.65671294  0.82827299  1
  O  O16  1  0.19771551  0.42565080  0.35746769  1
  O  O17  1  0.56345334  0.43273128  0.76102560  1
  O  O18  1  0.21855546  0.28971635  0.62849045  1
  O  O19  1  0.23477913  0.93081695  0.05417253  1
  O  O20  1  0.84983232  0.92554463  0.70808205  1
  O  O21  1  0.08672536  0.65931309  0.34572291  1
  O  O22  1  0.42052178  0.77606386  0.58147610  1
  O  O23  1  0.69700168  0.83288479  0.92816232  1
  O  O24  1  0.07546962  0.27168703  0.92745778  1
  O  O25  1  0.16600642  0.59054905  0.86373198  1
  O  O26  1  0.12754006  0.77931233  0.70857987  1
  P  P27  1  0.62758314  0.37111290  0.24129852  1
  P  P28  1  0.88301230  0.12764594  0.75738210  1
  P  P29  1  0.74331371  0.86528748  0.13020996  1
  P  P30  1  0.37689773  0.24818938  0.61704401  1
  P  P31  1  0.25604842  0.62422677  0.38518647  1
  P  P32  1  0.11534974  0.75040076  0.87172893  1
  Sb  Sb33  1  0.99000444  0.31395816  0.48656028  1
  Sb  Sb34  1  0.33009513  0.50608571  0.01813469  1
  Sb  Sb35  1  0.99611919  0.81707613  0.48089864  1
  Sb  Sb36  1  0.52352012  0.03235244  0.84747368  1
  Sb  Sb37  1  0.67229590  0.65524501  0.68526458  1
