# generated using pymatgen
data_ZrSnCl6
_symmetry_space_group_name_H-M   'P 1'
_cell_length_a   6.68519602
_cell_length_b   11.97743939
_cell_length_c   18.83345160
_cell_angle_alpha   91.95033278
_cell_angle_beta   90.00000000
_cell_angle_gamma   90.00000000
_symmetry_Int_Tables_number   1
_chemical_formula_structural   ZrSnCl6
_chemical_formula_sum   'Zr6 Sn6 Cl36'
_cell_volume   1507.14969556
_cell_formula_units_Z   6
loop_
 _symmetry_equiv_pos_site_id
 _symmetry_equiv_pos_as_xyz
  1  'x, y, z'
loop_
 _atom_site_type_symbol
 _atom_site_label
 _atom_site_symmetry_multiplicity
 _atom_site_fract_x
 _atom_site_fract_y
 _atom_site_fract_z
 _atom_site_occupancy
  Cl  Cl0  1  0.15463490  0.83196862  0.25255095  1
  Cl  Cl1  1  0.84536510  0.83196862  0.75255095  1
  Cl  Cl2  1  0.69172588  0.31911370  0.23460463  1
  Cl  Cl3  1  0.30827412  0.31911370  0.73460463  1
  Cl  Cl4  1  0.30689745  1.01612658  0.07209893  1
  Cl  Cl5  1  0.69310255  1.01612658  0.57209893  1
  Cl  Cl6  1  0.34591293  0.63708535  0.44128854  1
  Cl  Cl7  1  0.65408707  0.63708535  0.94128854  1
  Cl  Cl8  1  0.85377404  0.15266642  0.41703449  1
  Cl  Cl9  1  0.14622596  0.15266642  0.91703449  1
  Cl  Cl10  1  0.14094562  0.17218162  0.57547552  1
  Cl  Cl11  1  0.85905438  0.17218162  0.07547552  1
  Cl  Cl12  1  0.34286487  0.67871973  0.75737616  1
  Cl  Cl13  1  0.65713513  0.67871973  0.25737616  1
  Cl  Cl14  1  0.83997680  0.18737076  0.72835445  1
  Cl  Cl15  1  0.16002320  0.18737076  0.22835445  1
  Cl  Cl16  1  0.84352056  0.85577470  0.42181767  1
  Cl  Cl17  1  0.15647944  0.85577470  0.92181767  1
  Cl  Cl18  1  0.35360690  0.33755052  0.43645557  1
  Cl  Cl19  1  0.64639310  0.33755052  0.93645557  1
  Cl  Cl20  1  0.80463247  0.48927823  0.42452319  1
  Cl  Cl21  1  0.19536753  0.48927823  0.92452319  1
  Cl  Cl22  1  0.30848810  0.00897649  0.42510469  1
  Cl  Cl23  1  0.69151190  0.00897649  0.92510469  1
  Cl  Cl24  1  0.85104171  0.86980325  0.07366568  1
  Cl  Cl25  1  0.14895829  0.86980325  0.57366568  1
  Cl  Cl26  1  0.29637827  0.34007161  0.07856590  1
  Cl  Cl27  1  0.70362173  0.34007161  0.57856590  1
  Cl  Cl28  1  0.65558403  -0.00728547  0.25706935  1
  Cl  Cl29  1  0.34441597  -0.00728547  0.75706935  1
  Cl  Cl30  1  0.86453068  0.48351573  0.73488834  1
  Cl  Cl31  1  0.13546932  0.48351573  0.23488834  1
  Cl  Cl32  1  0.34491356  0.62737054  0.08961903  1
  Cl  Cl33  1  0.65508644  0.62737054  0.58961903  1
  Cl  Cl34  1  0.80203584  0.47046946  0.08757657  1
  Cl  Cl35  1  0.19796416  0.47046946  0.58757657  1
  Zr  Zr36  1  0.48094646  0.49304203  1.00200319  1
  Zr  Zr37  1  0.51905354  0.49304203  0.50200319  1
  Zr  Zr38  1  0.99295971  0.33060887  0.16345679  1
  Zr  Zr39  1  0.00704029  0.33060887  0.66345679  1
  Zr  Zr40  1  -0.00985428  1.00499767  0.49977980  1
  Zr  Zr41  1  1.00985428  1.00499767  0.99977980  1
  Sn  Sn42  1  0.98930775  0.67785956  0.32983905  1
  Sn  Sn43  1  0.01069225  0.67785956  0.82983905  1
  Sn  Sn44  1  0.49168008  0.15692150  0.83968101  1
  Sn  Sn45  1  0.50831992  0.15692150  0.33968101  1
  Sn  Sn46  1  0.48995589  0.83381252  0.17507047  1
  Sn  Sn47  1  0.51004411  0.83381252  0.67507047  1
