# generated using pymatgen
data_Er7Ru2C11
_symmetry_space_group_name_H-M   'P 1'
_cell_length_a   3.40562406
_cell_length_b   8.40949797
_cell_length_c   19.73231834
_cell_angle_alpha   90.00000000
_cell_angle_beta   90.00000000
_cell_angle_gamma   101.68241601
_symmetry_Int_Tables_number   1
_chemical_formula_structural   Er7Ru2C11
_chemical_formula_sum   'Er14 Ru4 C22'
_cell_volume   553.41890548
_cell_formula_units_Z   2
loop_
 _symmetry_equiv_pos_site_id
 _symmetry_equiv_pos_as_xyz
  1  'x, y, z'
loop_
 _atom_site_type_symbol
 _atom_site_label
 _atom_site_symmetry_multiplicity
 _atom_site_fract_x
 _atom_site_fract_y
 _atom_site_fract_z
 _atom_site_occupancy
  C  C0  1  0.49960947  0.99921893  0.25000000  1
  C  C1  1  0.50039053  0.00078107  0.75000000  1
  C  C2  1  0.72207327  0.44414654  0.25000000  1
  C  C3  1  0.27792673  0.55585346  0.75000000  1
  C  C4  1  0.80301847  0.60603694  0.25000000  1
  C  C5  1  0.19698153  0.39396306  0.75000000  1
  C  C6  1  0.20645054  0.41290109  0.56371937  1
  C  C7  1  0.79354946  0.58709891  0.43628063  1
  C  C8  1  0.79354946  0.58709891  0.06371937  1
  C  C9  1  0.20645054  0.41290109  0.93628063  1
  C  C10  1  0.13293627  0.26587254  0.12370227  1
  C  C11  1  0.86706373  0.73412746  0.87629773  1
  C  C12  1  0.86706373  0.73412746  0.62370227  1
  C  C13  1  0.13293627  0.26587254  0.37629773  1
  C  C14  1  0.12682830  0.25365660  0.58475822  1
  C  C15  1  0.87317170  0.74634340  0.41524178  1
  C  C16  1  0.87317170  0.74634340  0.08475822  1
  C  C17  1  0.12682830  0.25365660  0.91524178  1
  C  C18  1  0.07471908  0.14943815  0.42109818  1
  C  C19  1  0.92528092  0.85056185  0.57890182  1
  C  C20  1  0.92528092  0.85056185  0.92109818  1
  C  C21  1  0.07471908  0.14943815  0.07890182  1
  Ru  Ru22  1  0.00000000  0.00000000  0.50000000  1
  Ru  Ru23  1  0.00000000  0.00000000  0.00000000  1
  Ru  Ru24  1  0.92013728  0.84027457  0.25000000  1
  Ru  Ru25  1  0.07986272  0.15972543  0.75000000  1
  Er  Er26  1  0.10411589  0.20823179  0.25000000  1
  Er  Er27  1  0.89588411  0.79176821  0.75000000  1
  Er  Er28  1  0.52181805  0.04363611  0.62711337  1
  Er  Er29  1  0.47818195  0.95636389  0.37288663  1
  Er  Er30  1  0.47818195  0.95636389  0.12711337  1
  Er  Er31  1  0.52181805  0.04363611  0.87288663  1
  Er  Er32  1  0.33823133  0.67646265  0.51877738  1
  Er  Er33  1  0.66176867  0.32353735  0.48122262  1
  Er  Er34  1  0.66176867  0.32353735  0.01877738  1
  Er  Er35  1  0.33823133  0.67646265  0.98122262  1
  Er  Er36  1  0.27869734  0.55739469  0.15498107  1
  Er  Er37  1  0.72130266  0.44260531  0.84501893  1
  Er  Er38  1  0.72130266  0.44260531  0.65498107  1
  Er  Er39  1  0.27869734  0.55739469  0.34501893  1
