# generated using pymatgen
data_B5H11
_symmetry_space_group_name_H-M   'P 1'
_cell_length_a   7.00706045
_cell_length_b   8.87340123
_cell_length_c   10.60468456
_cell_angle_alpha   90.00000000
_cell_angle_beta   94.80507852
_cell_angle_gamma   90.00000000
_symmetry_Int_Tables_number   1
_chemical_formula_structural   B5H11
_chemical_formula_sum   'B20 H44'
_cell_volume   657.04436502
_cell_formula_units_Z   4
loop_
 _symmetry_equiv_pos_site_id
 _symmetry_equiv_pos_as_xyz
  1  'x, y, z'
loop_
 _atom_site_type_symbol
 _atom_site_label
 _atom_site_symmetry_multiplicity
 _atom_site_fract_x
 _atom_site_fract_y
 _atom_site_fract_z
 _atom_site_occupancy
  H  H0  1  0.55608784  0.37135624  0.91890035  1
  H  H1  1  0.94391216  0.87135624  0.58109965  1
  H  H2  1  0.44391216  0.62864376  0.08109965  1
  H  H3  1  0.05608784  0.12864376  0.41890035  1
  H  H4  1  0.34970534  0.21332822  0.76191334  1
  H  H5  1  0.15029466  0.71332822  0.73808666  1
  H  H6  1  0.65029466  0.78667178  0.23808666  1
  H  H7  1  0.84970534  0.28667178  0.26191334  1
  H  H8  1  0.52194913  0.27477203  0.64176511  1
  H  H9  1  0.97805087  0.77477203  0.85823489  1
  H  H10  1  0.47805087  0.72522797  0.35823489  1
  H  H11  1  0.02194913  0.22522797  0.14176511  1
  H  H12  1  0.78683380  0.31843786  0.70903271  1
  H  H13  1  0.71316620  0.81843786  0.79096729  1
  H  H14  1  0.21316620  0.68156214  0.29096729  1
  H  H15  1  0.46612393  0.18202211  0.92546626  1
  H  H16  1  0.28683380  0.18156214  0.20903271  1
  H  H17  1  0.26275073  0.82654312  0.58713698  1
  H  H18  1  0.76275073  0.67345688  0.08713698  1
  H  H19  1  0.73724927  0.17345688  0.41286302  1
  H  H20  1  0.40404259  0.00509179  0.31453116  1
  H  H21  1  0.09595741  0.50509179  0.18546884  1
  H  H22  1  0.59595741  0.99490821  0.68546884  1
  H  H23  1  0.90404259  0.49490821  0.81453116  1
  H  H24  1  0.32269437  0.20444348  0.39221939  1
  H  H25  1  0.17730563  0.70444348  0.10778061  1
  H  H26  1  0.67730563  0.79555652  0.60778061  1
  H  H27  1  0.82269437  0.29555652  0.89221939  1
  H  H28  1  0.14341953  0.01988373  0.09780651  1
  H  H29  1  0.35658047  0.51988373  0.40219349  1
  H  H30  1  0.85658047  0.98011627  0.90219349  1
  H  H31  1  0.64341953  0.48011627  0.59780651  1
  H  H32  1  0.97806645  0.92327952  0.33574771  1
  H  H33  1  0.52193355  0.42327952  0.16425229  1
  H  H34  1  0.02193355  0.07672048  0.66425229  1
  H  H35  1  0.47806645  0.57672048  0.83574771  1
  H  H36  1  0.76249629  0.11692586  0.14066372  1
  H  H37  1  0.73750371  0.61692586  0.35933628  1
  H  H38  1  0.23750371  0.88307414  0.85933628  1
  H  H39  1  0.26249629  0.38307414  0.64066372  1
  H  H40  1  0.96612393  0.31797789  0.42546626  1
  H  H41  1  0.53387607  0.81797789  0.07453374  1
  H  H42  1  0.03387607  0.68202211  0.57453374  1
  H  H43  1  0.23724927  0.32654312  0.91286302  1
  B  B44  1  0.38633936  0.28959939  0.87503729  1
  B  B45  1  0.11366064  0.78959939  0.62496271  1
  B  B46  1  0.61366064  0.71040061  0.12496271  1
  B  B47  1  0.88633936  0.21040061  0.37503729  1
  B  B48  1  0.39287588  0.33877876  0.70986658  1
  B  B49  1  0.10712412  0.83877876  0.79013342  1
  B  B50  1  0.60712412  0.66122124  0.29013342  1
  B  B51  1  0.89287588  0.16122124  0.20986658  1
  B  B52  1  0.52763938  0.45001088  0.81919963  1
  B  B53  1  0.97236062  0.95001088  0.68080037  1
  B  B54  1  0.47236062  0.54998912  0.18080037  1
  B  B55  1  0.02763938  0.04998912  0.31919963  1
  B  B56  1  0.62972423  0.39561862  0.68378611  1
  B  B57  1  0.87027577  0.89561862  0.81621389  1
  B  B58  1  0.37027577  0.60438138  0.31621389  1
  B  B59  1  0.12972423  0.10438138  0.18378611  1
  B  B60  1  0.78641371  0.39758773  0.81999790  1
  B  B61  1  0.71358629  0.89758773  0.68000210  1
  B  B62  1  0.21358629  0.60241227  0.18000210  1
  B  B63  1  0.28641371  0.10241227  0.31999790  1
