# generated using pymatgen
data_LiMoS2
_symmetry_space_group_name_H-M   'P 1'
_cell_length_a   6.27668201
_cell_length_b   6.80222772
_cell_length_c   6.67196689
_cell_angle_alpha   61.09447246
_cell_angle_beta   90.20150555
_cell_angle_gamma   90.09834455
_symmetry_Int_Tables_number   1
_chemical_formula_structural   LiMoS2
_chemical_formula_sum   'Li4 Mo4 S8'
_cell_volume   249.37212837
_cell_formula_units_Z   4
loop_
 _symmetry_equiv_pos_site_id
 _symmetry_equiv_pos_as_xyz
  1  'x, y, z'
loop_
 _atom_site_type_symbol
 _atom_site_label
 _atom_site_symmetry_multiplicity
 _atom_site_fract_x
 _atom_site_fract_y
 _atom_site_fract_z
 _atom_site_occupancy
  Li  Li0  1  0.99005989  0.29016482  0.48190918  1
  Li  Li1  1  0.00994011  0.70983518  0.51809082  1
  Li  Li2  1  0.02089642  0.73991853  0.00921420  1
  Li  Li3  1  0.97910358  0.26008147  0.99078580  1
  S  S4  1  0.22675159  0.06856585  0.34486066  1
  S  S5  1  0.77324841  0.93143415  0.65513934  1
  S  S6  1  0.25355208  0.10476395  0.81784911  1
  S  S7  1  0.74644792  0.89523605  0.18215089  1
  S  S8  1  0.30166279  0.59074017  0.32222244  1
  S  S9  1  0.69833721  0.40925983  0.67777756  1
  S  S10  1  0.28162941  0.56886509  0.84786249  1
  S  S11  1  0.71837059  0.43113491  0.15213751  1
  Mo  Mo12  1  0.49974468  0.21023258  0.49174152  1
  Mo  Mo13  1  0.50025532  0.78976742  0.50825848  1
  Mo  Mo14  1  0.50391043  0.80779710  0.94301891  1
  Mo  Mo15  1  0.49608957  0.19220290  0.05698109  1
