# generated using pymatgen
data_LiGeTe2
_symmetry_space_group_name_H-M   'P 1'
_cell_length_a   7.34283620
_cell_length_b   9.25002794
_cell_length_c   11.47994511
_cell_angle_alpha   75.69309053
_cell_angle_beta   77.10427228
_cell_angle_gamma   70.62424738
_symmetry_Int_Tables_number   1
_chemical_formula_structural   LiGeTe2
_chemical_formula_sum   'Li6 Ge6 Te12'
_cell_volume   704.20567601
_cell_formula_units_Z   6
loop_
 _symmetry_equiv_pos_site_id
 _symmetry_equiv_pos_as_xyz
  1  'x, y, z'
loop_
 _atom_site_type_symbol
 _atom_site_label
 _atom_site_symmetry_multiplicity
 _atom_site_fract_x
 _atom_site_fract_y
 _atom_site_fract_z
 _atom_site_occupancy
  Li  Li0  1  0.99117046  0.65322958  0.81023513  1
  Li  Li1  1  0.00882954  0.34677042  0.18976487  1
  Li  Li2  1  0.52683193  0.67979065  0.32129236  1
  Li  Li3  1  0.47316807  0.32020935  0.67870764  1
  Li  Li4  1  0.50000000  0.00000000  0.00000000  1
  Li  Li5  1  0.00000000  0.00000000  0.50000000  1
  Ge  Ge6  1  0.06643797  0.61072828  0.44984290  1
  Ge  Ge7  1  0.93356203  0.38927172  0.55015710  1
  Ge  Ge8  1  0.96201644  0.96017132  0.20657161  1
  Ge  Ge9  1  0.03798356  0.03982868  0.79342839  1
  Ge  Ge10  1  0.04741522  0.74157162  0.09711155  1
  Ge  Ge11  1  0.95258478  0.25842838  0.90288845  1
  Te  Te12  1  0.75486711  0.66684005  0.07238157  1
  Te  Te13  1  0.24513289  0.33315995  0.92761843  1
  Te  Te14  1  0.69942960  0.20076895  0.10059344  1
  Te  Te15  1  0.30057040  0.79923105  0.89940656  1
  Te  Te16  1  0.27434223  0.52027907  0.24283497  1
  Te  Te17  1  0.72565777  0.47972093  0.75716503  1
  Te  Te18  1  0.26678378  0.66726499  0.58014957  1
  Te  Te19  1  0.73321622  0.33273501  0.41985043  1
  Te  Te20  1  0.75063685  0.85030149  0.40717195  1
  Te  Te21  1  0.24936315  0.14969851  0.59282805  1
  Te  Te22  1  0.25667540  0.01241703  0.25275882  1
  Te  Te23  1  0.74332460  0.98758297  0.74724118  1
