# generated using pymatgen
data_Ag4Bi2O5
_symmetry_space_group_name_H-M   'P 1'
_cell_length_a   5.98093660
_cell_length_b   8.77015958
_cell_length_c   14.60488914
_cell_angle_alpha   90.00000000
_cell_angle_beta   90.00000000
_cell_angle_gamma   90.00000000
_symmetry_Int_Tables_number   1
_chemical_formula_structural   Ag4Bi2O5
_chemical_formula_sum   'Ag16 Bi8 O20'
_cell_volume   766.08147275
_cell_formula_units_Z   4
loop_
 _symmetry_equiv_pos_site_id
 _symmetry_equiv_pos_as_xyz
  1  'x, y, z'
loop_
 _atom_site_type_symbol
 _atom_site_label
 _atom_site_symmetry_multiplicity
 _atom_site_fract_x
 _atom_site_fract_y
 _atom_site_fract_z
 _atom_site_occupancy
  O  O0  1  0.63046104  0.91296560  0.61570094  1
  O  O1  1  0.13046104  0.58703440  0.88429906  1
  O  O2  1  0.36953896  0.91296560  0.88429906  1
  O  O3  1  0.86953896  0.58703440  0.61570094  1
  O  O4  1  0.36953896  0.08703440  0.38429906  1
  O  O5  1  0.86953896  0.41296560  0.11570094  1
  O  O6  1  0.63046104  0.08703440  0.11570094  1
  O  O7  1  0.13046104  0.41296560  0.38429906  1
  O  O8  1  0.45631404  0.63012982  0.04273872  1
  O  O9  1  0.95631404  0.86987018  0.45726128  1
  O  O10  1  0.45631404  0.36987018  0.54273872  1
  O  O11  1  0.95631404  0.13012982  0.95726128  1
  O  O12  1  0.54368596  0.36987018  0.95726128  1
  O  O13  1  0.04368596  0.13012982  0.54273872  1
  O  O14  1  0.50000000  0.56341978  0.25000000  1
  O  O15  1  0.00000000  0.93658022  0.25000000  1
  O  O16  1  0.50000000  0.43658022  0.75000000  1
  O  O17  1  0.04368596  0.86987018  0.04273872  1
  O  O18  1  0.00000000  0.06341978  0.75000000  1
  O  O19  1  0.54368596  0.63012982  0.45726128  1
  Ag  Ag20  1  0.99062847  0.63957671  0.08154842  1
  Ag  Ag21  1  0.49062847  0.86042329  0.41845158  1
  Ag  Ag22  1  0.00937153  0.63957671  0.41845158  1
  Ag  Ag23  1  0.50937153  0.86042329  0.08154842  1
  Ag  Ag24  1  0.99062847  0.36042329  0.58154842  1
  Ag  Ag25  1  0.00937153  0.36042329  0.91845158  1
  Ag  Ag26  1  0.50000000  0.93284189  0.75000000  1
  Ag  Ag27  1  0.00000000  0.56715811  0.75000000  1
  Ag  Ag28  1  0.50000000  0.06715811  0.25000000  1
  Ag  Ag29  1  0.00000000  0.43284189  0.25000000  1
  Ag  Ag30  1  0.25000000  0.75000000  0.24772771  1
  Ag  Ag31  1  0.75000000  0.75000000  0.25227229  1
  Ag  Ag32  1  0.75000000  0.25000000  0.75227229  1
  Ag  Ag33  1  0.25000000  0.25000000  0.74772771  1
  Ag  Ag34  1  0.50937153  0.13957671  0.58154842  1
  Ag  Ag35  1  0.49062847  0.13957671  0.91845158  1
  Bi  Bi36  1  0.50992785  0.58378145  0.61122838  1
  Bi  Bi37  1  0.00992785  0.91621855  0.88877162  1
  Bi  Bi38  1  0.49007215  0.58378145  0.88877162  1
  Bi  Bi39  1  0.99007215  0.91621855  0.61122838  1
  Bi  Bi40  1  0.49007215  0.41621855  0.38877162  1
  Bi  Bi41  1  0.99007215  0.08378145  0.11122838  1
  Bi  Bi42  1  0.50992785  0.41621855  0.11122838  1
  Bi  Bi43  1  0.00992785  0.08378145  0.38877162  1
