# generated using pymatgen
data_Sr2Ru3O10
_symmetry_space_group_name_H-M   'P 1'
_cell_length_a   5.59356895
_cell_length_b   6.35184049
_cell_length_c   6.66170671
_cell_angle_alpha   101.34719601
_cell_angle_beta   90.00000000
_cell_angle_gamma   116.12371813
_symmetry_Int_Tables_number   1
_chemical_formula_structural   Sr2Ru3O10
_chemical_formula_sum   'Sr2 Ru3 O10'
_cell_volume   207.34282897
_cell_formula_units_Z   1
loop_
 _symmetry_equiv_pos_site_id
 _symmetry_equiv_pos_as_xyz
  1  'x, y, z'
loop_
 _atom_site_type_symbol
 _atom_site_label
 _atom_site_symmetry_multiplicity
 _atom_site_fract_x
 _atom_site_fract_y
 _atom_site_fract_z
 _atom_site_occupancy
  O  O0  1  0.13460248  0.26920496  0.55380166  1
  O  O1  1  0.86539752  0.73079504  0.44619834  1
  O  O2  1  0.61060934  0.22121868  0.53106598  1
  O  O3  1  0.38939066  0.77878132  0.46893402  1
  O  O4  1  0.83015617  0.66031235  0.93981019  1
  O  O5  1  0.75481487  0.99947924  0.20442636  1
  O  O6  1  0.75533564  0.00052076  0.79557364  1
  O  O7  1  0.24518513  0.00052076  0.79557364  1
  O  O8  1  0.24466436  0.99947924  0.20442636  1
  O  O9  1  0.16984383  0.33968765  0.06018981  1
  Sr  Sr10  1  0.32235578  0.64471156  0.83678448  1
  Sr  Sr11  1  0.67764422  0.35528844  0.16321552  1
  Ru  Ru12  1  0.22798998  0.00000000  0.50000000  1
  Ru  Ru13  1  0.77201002  0.00000000  0.50000000  1
  Ru  Ru14  1  0.00000000  0.00000000  0.00000000  1
