# generated using pymatgen
data_Zr8Ni21
_symmetry_space_group_name_H-M   'P 1'
_cell_length_a   6.45119089
_cell_length_b   8.08198410
_cell_length_c   8.56679916
_cell_angle_alpha   75.35020571
_cell_angle_beta   68.02580832
_cell_angle_gamma   75.32519695
_symmetry_Int_Tables_number   1
_chemical_formula_structural   Zr8Ni21
_chemical_formula_sum   'Zr8 Ni21'
_cell_volume   394.42592365
_cell_formula_units_Z   1
loop_
 _symmetry_equiv_pos_site_id
 _symmetry_equiv_pos_as_xyz
  1  'x, y, z'
loop_
 _atom_site_type_symbol
 _atom_site_label
 _atom_site_symmetry_multiplicity
 _atom_site_fract_x
 _atom_site_fract_y
 _atom_site_fract_z
 _atom_site_occupancy
  Ni  Ni0  1  0.00000000  0.00000000  0.00000000  1
  Ni  Ni1  1  0.09801498  0.75942382  0.84751423  1
  Ni  Ni2  1  0.90198502  0.24057618  0.15248577  1
  Ni  Ni3  1  0.28667908  0.88535700  0.52977759  1
  Ni  Ni4  1  0.71332092  0.11464300  0.47022241  1
  Ni  Ni5  1  0.51528101  0.61730817  0.75567287  1
  Ni  Ni6  1  0.48471899  0.38269183  0.24432713  1
  Ni  Ni7  1  0.51528017  0.29219531  0.72572374  1
  Ni  Ni8  1  0.09923591  0.27976252  0.84583966  1
  Ni  Ni9  1  0.90076409  0.72023748  0.15416034  1
  Ni  Ni10  1  0.11913371  0.55517658  0.34854565  1
  Ni  Ni11  1  0.88086629  0.44482342  0.65145435  1
  Ni  Ni12  1  0.13624563  0.21273257  0.34241407  1
  Ni  Ni13  1  0.86375437  0.78726743  0.65758593  1
  Ni  Ni14  1  0.30339067  0.24530455  0.54142187  1
  Ni  Ni15  1  0.69660933  0.75469545  0.45857813  1
  Ni  Ni16  1  0.31642950  0.09885212  0.03575649  1
  Ni  Ni17  1  0.68357050  0.90114788  0.96424351  1
  Ni  Ni18  1  0.31757133  0.74384028  0.04803747  1
  Ni  Ni19  1  0.68242867  0.25615972  0.95196253  1
  Ni  Ni20  1  0.48471983  0.70780469  0.27427626  1
  Zr  Zr21  1  0.43302303  0.96234789  0.75253184  1
  Zr  Zr22  1  0.56697697  0.03765211  0.24746816  1
  Zr  Zr23  1  0.75263381  0.44029007  0.39270428  1
  Zr  Zr24  1  0.24736619  0.55970993  0.60729572  1
  Zr  Zr25  1  0.75165985  0.56345611  0.96618475  1
  Zr  Zr26  1  0.24834015  0.43654389  0.03381525  1
  Zr  Zr27  1  0.93062048  0.09556184  0.68552478  1
  Zr  Zr28  1  0.06937952  0.90443816  0.31447522  1
