# generated using pymatgen
data_LiMo2P3O11
_symmetry_space_group_name_H-M   'P 1'
_cell_length_a   7.48402611
_cell_length_b   7.48402611
_cell_length_c   9.07355201
_cell_angle_alpha   69.44031997
_cell_angle_beta   110.55968004
_cell_angle_gamma   105.78800774
_symmetry_Int_Tables_number   1
_chemical_formula_structural   LiMo2P3O11
_chemical_formula_sum   'Li2 Mo4 P6 O22'
_cell_volume   439.07731326
_cell_formula_units_Z   2
loop_
 _symmetry_equiv_pos_site_id
 _symmetry_equiv_pos_as_xyz
  1  'x, y, z'
loop_
 _atom_site_type_symbol
 _atom_site_label
 _atom_site_symmetry_multiplicity
 _atom_site_fract_x
 _atom_site_fract_y
 _atom_site_fract_z
 _atom_site_occupancy
  Li  Li0  1  0.48730938  0.99190679  0.01413967  1
  Li  Li1  1  0.99190688  0.48730874  0.48586034  1
  O  O2  1  0.04292477  0.25489950  0.74804059  1
  O  O3  1  0.89107205  0.01345012  0.59335903  1
  O  O4  1  0.75813095  0.38262028  0.21411768  1
  O  O5  1  0.52695526  0.15143670  0.37356426  1
  O  O6  1  0.01345117  0.89107128  0.90664090  1
  O  O7  1  0.10710112  0.98698654  0.40631207  1
  O  O8  1  0.24400068  0.61736724  0.79161081  1
  O  O9  1  0.47172807  0.84745974  0.62758477  1
  O  O10  1  0.59791402  0.72166996  0.93772623  1
  O  O11  1  0.98698711  0.10710036  0.09368812  1
  O  O12  1  0.38261961  0.75813031  0.28588211  1
  O  O13  1  0.50000746  0.50000736  0.74999973  1
  O  O14  1  0.15143620  0.52695501  0.12643547  1
  O  O15  1  0.27476011  0.40436458  0.43637144  1
  O  O16  1  0.74371790  0.95599892  0.24834067  1
  O  O17  1  0.40436504  0.27476030  0.06362844  1
  O  O18  1  0.72166999  0.59791355  0.56227444  1
  O  O19  1  0.84746025  0.47172768  0.87241490  1
  O  O20  1  0.49811600  0.49811532  0.25000010  1
  O  O21  1  0.61736672  0.24400015  0.70838860  1
  O  O22  1  0.95599961  0.74371863  0.25165912  1
  O  O23  1  0.25489987  0.04292475  0.75195893  1
  P  P24  1  0.54942062  0.32158818  0.21871866  1
  P  P25  1  0.95482598  0.95482584  0.24999994  1
  P  P26  1  0.67673814  0.45059040  0.71711708  1
  P  P27  1  0.32158784  0.54942047  0.28128220  1
  P  P28  1  0.45059112  0.67673834  0.78288248  1
  P  P29  1  0.04409585  0.04409518  0.74999990  1
  Mo  Mo30  1  0.11848553  0.36060342  0.95221256  1
  Mo  Mo31  1  0.63801840  0.88076516  0.45306284  1
  Mo  Mo32  1  0.36060325  0.11848548  0.54778681  1
  Mo  Mo33  1  0.88076562  0.63801920  0.04693687  1
