# generated using pymatgen
data_Li3Mn(PO4)2
_symmetry_space_group_name_H-M   'P 1'
_cell_length_a   4.85322224
_cell_length_b   18.28744620
_cell_length_c   6.44353251
_cell_angle_alpha   89.99961298
_cell_angle_beta   93.31643786
_cell_angle_gamma   89.99986801
_symmetry_Int_Tables_number   1
_chemical_formula_structural   Li3Mn(PO4)2
_chemical_formula_sum   'Li12 Mn4 P8 O32'
_cell_volume   570.92534757
_cell_formula_units_Z   4
loop_
 _symmetry_equiv_pos_site_id
 _symmetry_equiv_pos_as_xyz
  1  'x, y, z'
loop_
 _atom_site_type_symbol
 _atom_site_label
 _atom_site_symmetry_multiplicity
 _atom_site_fract_x
 _atom_site_fract_y
 _atom_site_fract_z
 _atom_site_occupancy
  Li  Li0  1  0.18236551  0.69671585  0.85385286  1
  Li  Li1  1  0.21811331  0.88420357  0.51371264  1
  Li  Li2  1  0.28187682  0.38420418  0.98629761  1
  Li  Li3  1  0.21078078  0.56144871  0.22263129  1
  Li  Li4  1  0.28921254  0.06144842  0.27737107  1
  Li  Li5  1  0.31762327  0.19671467  0.64615283  1
  Li  Li6  1  0.68236929  0.80328320  0.35385304  1
  Li  Li7  1  0.71078099  0.93854771  0.72263648  1
  Li  Li8  1  0.78921515  0.43854843  0.77737294  1
  Li  Li9  1  0.71811542  0.61579219  0.01370416  1
  Li  Li10  1  0.78187529  0.11579290  0.48630241  1
  Li  Li11  1  0.81762528  0.30328414  0.14615354  1
  O  O12  1  0.14650405  0.06900746  0.56359391  1
  O  O13  1  0.97915106  0.31154105  0.47104337  1
  O  O14  1  0.94415030  0.32873620  0.86044433  1
  O  O15  1  0.89961703  0.56246242  0.73112217  1
  O  O16  1  0.01494017  0.20052691  0.13814304  1
  O  O17  1  0.02085158  0.68846278  0.52895533  1
  O  O18  1  0.05583905  0.67126445  0.13956218  1
  O  O19  1  0.10036664  0.43753760  0.26887296  1
  O  O20  1  0.14503003  0.06769584  0.95813267  1
  O  O21  1  0.98505337  0.79947235  0.86186713  1
  O  O22  1  0.10820437  0.79785355  0.31122820  1
  O  O23  1  0.20719694  0.45308776  0.73280955  1
  O  O24  1  0.29279723  0.95308111  0.76720035  1
  O  O25  1  0.35350018  0.56901235  0.93643284  1
  O  O26  1  0.35495405  0.56769796  0.54185951  1
  O  O27  1  0.39178576  0.29785611  0.18877224  1
  O  O28  1  0.85496170  0.93230155  0.04187289  1
  O  O29  1  0.44414700  0.17125977  0.36044340  1
  O  O30  1  0.51494612  0.29947319  0.63813755  1
  O  O31  1  0.47913144  0.18845933  0.97104121  1
  O  O32  1  0.52086150  0.81153590  0.02896656  1
  O  O33  1  0.48503925  0.70052927  0.36185901  1
  O  O34  1  0.55583724  0.82873571  0.63955932  1
  O  O35  1  0.60035822  0.06246314  0.76888010  1
  O  O36  1  0.60821150  0.70214637  0.81123101  1
  O  O37  1  0.64504931  0.43230359  0.45813514  1
  O  O38  1  0.64651098  0.43098827  0.06360046  1
  O  O39  1  0.70720092  0.04690821  0.23281122  1
  O  O40  1  0.79279502  0.54691724  0.26719023  1
  O  O41  1  0.89178740  0.20214062  0.68877379  1
  O  O42  1  0.85351519  0.93098412  0.43644754  1
  O  O43  1  0.39963169  0.93753879  0.23113314  1
  P  P44  1  0.83551292  0.28542224  0.67081289  1
  P  P45  1  0.78504517  0.46223458  0.26169539  1
  P  P46  1  0.71495097  0.96223166  0.23830395  1
  P  P47  1  0.66449123  0.78542138  0.82919134  1
  P  P48  1  0.16447902  0.71457861  0.32918091  1
  P  P49  1  0.21494025  0.53776848  0.73829614  1
  P  P50  1  0.33550675  0.21457684  0.17081519  1
  P  P51  1  0.28504228  0.03776378  0.76169864  1
  Mn  Mn52  1  0.19031352  0.87224169  0.03660413  1
  Mn  Mn53  1  0.30971023  0.37228455  0.46339928  1
  Mn  Mn54  1  0.69033927  0.62777027  0.53647746  1
  Mn  Mn55  1  0.80979429  0.12773724  0.96336251  1
