# generated using pymatgen
data_Zr2Cr4Si5
_symmetry_space_group_name_H-M   'P 1'
_cell_length_a   4.95953231
_cell_length_b   7.60707234
_cell_length_c   9.25200473
_cell_angle_alpha   114.27420532
_cell_angle_beta   105.54676113
_cell_angle_gamma   90.00000000
_symmetry_Int_Tables_number   1
_chemical_formula_structural   Zr2Cr4Si5
_chemical_formula_sum   'Zr4 Cr8 Si10'
_cell_volume   304.13030611
_cell_formula_units_Z   2
loop_
 _symmetry_equiv_pos_site_id
 _symmetry_equiv_pos_as_xyz
  1  'x, y, z'
loop_
 _atom_site_type_symbol
 _atom_site_label
 _atom_site_symmetry_multiplicity
 _atom_site_fract_x
 _atom_site_fract_y
 _atom_site_fract_z
 _atom_site_occupancy
  Si  Si0  1  0.75000000  0.00000000  0.00000000  1
  Si  Si1  1  0.25000000  0.00000000  0.00000000  1
  Si  Si2  1  0.28911792  0.99832740  0.57823584  1
  Si  Si3  1  0.71088208  0.00167260  0.42176416  1
  Si  Si4  1  0.06397436  0.63664580  0.12794872  1
  Si  Si5  1  0.93602564  0.36335420  0.87205128  1
  Si  Si6  1  0.43602564  0.50869707  0.87205128  1
  Si  Si7  1  0.56397436  0.49130293  0.12794872  1
  Si  Si8  1  0.78911792  0.57990844  0.57823584  1
  Si  Si9  1  0.21088208  0.42009156  0.42176416  1
  Cr  Cr10  1  0.05893415  0.30893415  0.61786831  1
  Cr  Cr11  1  0.44106585  0.69106585  0.38213169  1
  Cr  Cr12  1  0.43858621  0.19145554  0.87717242  1
  Cr  Cr13  1  0.56141379  0.80854446  0.12282758  1
  Cr  Cr14  1  0.06141379  0.31428312  0.12282758  1
  Cr  Cr15  1  0.93858621  0.68571688  0.87717242  1
  Cr  Cr16  1  0.94106585  0.69106585  0.38213169  1
  Cr  Cr17  1  0.55893415  0.30893415  0.61786831  1
  Zr  Zr18  1  0.14124202  0.01939615  0.28248404  1
  Zr  Zr19  1  0.85875798  0.98060385  0.71751596  1
  Zr  Zr20  1  0.35875798  0.73691211  0.71751596  1
  Zr  Zr21  1  0.64124202  0.26308789  0.28248404  1
