# generated using pymatgen
data_Ta2Mn3O8
_symmetry_space_group_name_H-M   'P 1'
_cell_length_a   9.47934252
_cell_length_b   9.47934252
_cell_length_c   9.47934252
_cell_angle_alpha   105.98038792
_cell_angle_beta   105.98038791
_cell_angle_gamma   116.70412992
_symmetry_Int_Tables_number   1
_chemical_formula_structural   Ta2Mn3O8
_chemical_formula_sum   'Ta8 Mn12 O32'
_cell_volume   647.78007276
_cell_formula_units_Z   4
loop_
 _symmetry_equiv_pos_site_id
 _symmetry_equiv_pos_as_xyz
  1  'x, y, z'
loop_
 _atom_site_type_symbol
 _atom_site_label
 _atom_site_symmetry_multiplicity
 _atom_site_fract_x
 _atom_site_fract_y
 _atom_site_fract_z
 _atom_site_occupancy
  O  O0  1  0.21325059  0.07993869  0.78415724  1
  O  O1  1  0.57993869  0.29578145  0.86668810  1
  O  O2  1  0.92909335  0.71325059  0.63331190  1
  O  O3  1  0.79578145  0.42909335  0.71584276  1
  O  O4  1  0.78674941  0.92006131  0.21584276  1
  O  O5  1  0.42006131  0.70421855  0.13331190  1
  O  O6  1  0.07090665  0.28674941  0.36668810  1
  O  O7  1  0.20421855  0.57090665  0.28415724  1
  O  O8  1  0.81698293  0.20087514  0.00877472  1
  O  O9  1  0.70087514  0.19210042  0.38389221  1
  O  O10  1  0.30820820  0.31698293  0.11610779  1
  O  O11  1  0.69210042  0.80820820  0.49122528  1
  O  O12  1  0.18301707  0.79912486  0.99122528  1
  O  O13  1  0.29912486  0.80789958  0.61610779  1
  O  O14  1  0.69179180  0.68301707  0.88389221  1
  O  O15  1  0.30789958  0.19179180  0.50877472  1
  O  O16  1  0.37854224  0.44340985  0.85897507  1
  O  O17  1  0.94340985  0.58443478  0.06486761  1
  O  O18  1  0.01956717  0.87854224  0.43513239  1
  O  O19  1  0.08443478  0.51956717  0.64102493  1
  O  O20  1  0.41524011  0.58825650  0.56870256  1
  O  O21  1  0.08825650  0.01955394  0.17301638  1
  O  O22  1  0.34653756  0.91524011  0.32698362  1
  O  O23  1  0.51955394  0.84653756  0.93129744  1
  O  O24  1  0.58475989  0.41174350  0.43129744  1
  O  O25  1  0.91174350  0.98044606  0.82698362  1
  O  O26  1  0.65346244  0.08475989  0.67301638  1
  O  O27  1  0.48044606  0.15346244  0.06870256  1
  O  O28  1  0.91556522  0.48043283  0.35897507  1
  O  O29  1  0.98043283  0.12145776  0.56486761  1
  O  O30  1  0.05659015  0.41556522  0.93513239  1
  O  O31  1  0.62145776  0.55659015  0.14102493  1
  Mn  Mn32  1  0.12500000  0.37500000  0.75000000  1
  Mn  Mn33  1  0.87500000  0.62500000  0.25000000  1
  Mn  Mn34  1  0.62500000  0.87500000  0.75000000  1
  Mn  Mn35  1  0.37500000  0.12500000  0.25000000  1
  Mn  Mn36  1  0.95056534  0.79227391  0.93252934  1
  Mn  Mn37  1  0.29227391  0.85974457  0.84170857  1
  Mn  Mn38  1  0.51803599  0.45056534  0.65829143  1
  Mn  Mn39  1  0.35974457  0.01803599  0.56747066  1
  Mn  Mn40  1  0.04943466  0.20772609  0.06747066  1
  Mn  Mn41  1  0.70772609  0.14025543  0.15829143  1
  Mn  Mn42  1  0.48196401  0.54943466  0.34170857  1
  Mn  Mn43  1  0.64025543  0.98196401  0.43252934  1
  Ta  Ta44  1  0.42454452  0.29438991  0.97792525  1
  Ta  Ta45  1  0.79438991  0.31646465  0.86984539  1
  Ta  Ta46  1  0.94661926  0.92454452  0.63015461  1
  Ta  Ta47  1  0.81646465  0.44661926  0.52207475  1
  Ta  Ta48  1  0.57545548  0.70561009  0.02207475  1
  Ta  Ta49  1  0.20561009  0.68353535  0.13015461  1
  Ta  Ta50  1  0.05338074  0.07545548  0.36984539  1
  Ta  Ta51  1  0.18353535  0.55338074  0.47792525  1
