# generated using pymatgen
data_SiH12N2(O2F3)2
_symmetry_space_group_name_H-M   'P 1'
_cell_length_a   9.21651291
_cell_length_b   7.67597489
_cell_length_c   9.21651291
_cell_angle_alpha   98.94812760
_cell_angle_beta   133.02246115
_cell_angle_gamma   103.05809696
_symmetry_Int_Tables_number   1
_chemical_formula_structural   SiH12N2(O2F3)2
_chemical_formula_sum   'Si2 H24 N4 O8 F12'
_cell_volume   418.15921695
_cell_formula_units_Z   2
loop_
 _symmetry_equiv_pos_site_id
 _symmetry_equiv_pos_as_xyz
  1  'x, y, z'
loop_
 _atom_site_type_symbol
 _atom_site_label
 _atom_site_symmetry_multiplicity
 _atom_site_fract_x
 _atom_site_fract_y
 _atom_site_fract_z
 _atom_site_occupancy
  Si  Si0  1  0.36996774  0.75000000  0.11996774  1
  Si  Si1  1  0.63003226  0.25000000  0.88003226  1
  H  H2  1  0.06762794  0.74178626  0.38314646  1
  H  H3  1  0.64136020  0.75821374  0.82584169  1
  H  H4  1  0.93237206  0.25821374  0.61685354  1
  H  H5  1  0.35863980  0.24178626  0.17415831  1
  H  H6  1  0.08297697  0.66581131  0.21160587  1
  H  H7  1  0.54579456  0.83418869  0.91716566  1
  H  H8  1  0.91702303  0.33418869  0.78839413  1
  H  H9  1  0.45420544  0.16581131  0.08283434  1
  H  H10  1  0.29213614  0.88263542  0.44953688  1
  H  H11  1  0.56690146  0.61736458  0.90950072  1
  H  H12  1  0.70786386  0.11736458  0.55046312  1
  H  H13  1  0.43309854  0.38263542  0.09049928  1
  H  H14  1  0.10477412  0.00823194  0.22769057  1
  H  H15  1  0.21945863  0.49176806  0.59654219  1
  H  H16  1  0.89522588  0.99176806  0.77230943  1
  H  H17  1  0.78054137  0.50823194  0.40345781  1
  H  H18  1  0.07060195  0.78256140  0.64435874  1
  H  H19  1  0.86179734  0.71743860  0.78804056  1
  H  H20  1  0.92939805  0.21743860  0.35564126  1
  H  H21  1  0.13820266  0.28256140  0.21195944  1
  H  H22  1  0.85700163  0.79172040  0.43148468  1
  H  H23  1  0.63976428  0.70827960  0.56528123  1
  H  H24  1  0.14299837  0.20827960  0.56851532  1
  H  H25  1  0.36023572  0.29172040  0.43471877  1
  N  N26  1  0.12062714  0.78834816  0.31913575  1
  N  N27  1  0.53078759  0.71165184  0.83227899  1
  N  N28  1  0.87937286  0.21165184  0.68086425  1
  N  N29  1  0.46921241  0.28834816  0.16772101  1
  O  O30  1  0.00066122  0.88937044  0.20367653  1
  O  O31  1  0.31430609  0.61062956  0.61129077  1
  O  O32  1  0.99933878  0.11062956  0.79632347  1
  O  O33  1  0.68569391  0.38937044  0.38870923  1
  O  O34  1  0.94862815  0.72017586  0.48244426  1
  O  O35  1  0.76226840  0.77982414  0.72845229  1
  O  O36  1  0.05137185  0.27982414  0.51755574  1
  O  O37  1  0.23773160  0.22017586  0.27154771  1
  F  F38  1  0.64973879  0.86109997  0.28014674  1
  F  F39  1  0.41904677  0.63890003  0.28863882  1
  F  F40  1  0.35026121  0.13890003  0.71985326  1
  F  F41  1  0.58095323  0.36109997  0.71136118  1
  F  F42  1  0.32913801  0.54678301  0.96423265  1
  F  F43  1  0.41744964  0.95321699  0.28235500  1
  F  F44  1  0.67086199  0.45321699  0.03576735  1
  F  F45  1  0.58255036  0.04678301  0.71764500  1
  F  F46  1  0.31695595  0.85847282  0.94807334  1
  F  F47  1  0.08960052  0.64152718  0.95848313  1
  F  F48  1  0.68304405  0.14152718  0.05192666  1
  F  F49  1  0.91039948  0.35847282  0.04151687  1
