# generated using pymatgen
data_Zn36Ga5Ni8
_symmetry_space_group_name_H-M   'P 1'
_cell_length_a   8.87071107
_cell_length_b   8.87071107
_cell_length_c   8.87071107
_cell_angle_alpha   90.00000000
_cell_angle_beta   90.00000000
_cell_angle_gamma   90.00000000
_symmetry_Int_Tables_number   1
_chemical_formula_structural   Zn36Ga5Ni8
_chemical_formula_sum   'Zn36 Ga5 Ni8'
_cell_volume   698.03195080
_cell_formula_units_Z   1
loop_
 _symmetry_equiv_pos_site_id
 _symmetry_equiv_pos_as_xyz
  1  'x, y, z'
loop_
 _atom_site_type_symbol
 _atom_site_label
 _atom_site_symmetry_multiplicity
 _atom_site_fract_x
 _atom_site_fract_y
 _atom_site_fract_z
 _atom_site_occupancy
  Ni  Ni0  1  0.33548011  0.33548011  0.33548011  1
  Ni  Ni1  1  0.66451989  0.33548011  0.66451989  1
  Ni  Ni2  1  0.66451989  0.66451989  0.33548011  1
  Ni  Ni3  1  0.33548011  0.66451989  0.66451989  1
  Ni  Ni4  1  0.82470769  0.82470769  0.82470769  1
  Ni  Ni5  1  0.17529231  0.82470769  0.17529231  1
  Ni  Ni6  1  0.17529231  0.17529231  0.82470769  1
  Ni  Ni7  1  0.82470769  0.17529231  0.17529231  1
  Zn  Zn8  1  0.31202640  0.00000000  0.00000000  1
  Zn  Zn9  1  0.68797360  0.00000000  0.00000000  1
  Zn  Zn10  1  0.00000000  0.00000000  0.31202640  1
  Zn  Zn11  1  0.00000000  0.00000000  0.68797360  1
  Zn  Zn12  1  0.00000000  0.68797360  0.00000000  1
  Zn  Zn13  1  0.00000000  0.31202640  0.00000000  1
  Zn  Zn14  1  0.86157029  0.50000000  0.50000000  1
  Zn  Zn15  1  0.13842971  0.50000000  0.50000000  1
  Zn  Zn16  1  0.50000000  0.50000000  0.86157029  1
  Zn  Zn17  1  0.50000000  0.50000000  0.13842971  1
  Zn  Zn18  1  0.50000000  0.13842971  0.50000000  1
  Zn  Zn19  1  0.50000000  0.86157029  0.50000000  1
  Zn  Zn20  1  0.29404558  0.29404558  0.05470108  1
  Zn  Zn21  1  0.70595442  0.05470108  0.70595442  1
  Zn  Zn22  1  0.70595442  0.94529892  0.29404558  1
  Zn  Zn23  1  0.94529892  0.70595442  0.29404558  1
  Zn  Zn24  1  0.05470108  0.70595442  0.70595442  1
  Zn  Zn25  1  0.29404558  0.70595442  0.94529892  1
  Zn  Zn26  1  0.70595442  0.29404558  0.94529892  1
  Zn  Zn27  1  0.05470108  0.29404558  0.29404558  1
  Zn  Zn28  1  0.29404558  0.05470108  0.29404558  1
  Zn  Zn29  1  0.94529892  0.29404558  0.70595442  1
  Zn  Zn30  1  0.29404558  0.94529892  0.70595442  1
  Zn  Zn31  1  0.70595442  0.70595442  0.05470108  1
  Zn  Zn32  1  0.82049961  0.82049961  0.53911030  1
  Zn  Zn33  1  0.17950039  0.53911030  0.17950039  1
  Zn  Zn34  1  0.17950039  0.46088970  0.82049961  1
  Zn  Zn35  1  0.46088970  0.17950039  0.82049961  1
  Zn  Zn36  1  0.53911030  0.17950039  0.17950039  1
  Zn  Zn37  1  0.82049961  0.17950039  0.46088970  1
  Zn  Zn38  1  0.17950039  0.82049961  0.46088970  1
  Zn  Zn39  1  0.53911030  0.82049961  0.82049961  1
  Zn  Zn40  1  0.82049961  0.53911030  0.82049961  1
  Zn  Zn41  1  0.46088970  0.82049961  0.17950039  1
  Zn  Zn42  1  0.82049961  0.46088970  0.17950039  1
  Zn  Zn43  1  0.17950039  0.17950039  0.53911030  1
  Ga  Ga44  1  0.00000000  0.00000000  0.00000000  1
  Ga  Ga45  1  0.61539114  0.61539114  0.61539114  1
  Ga  Ga46  1  0.38460886  0.61539114  0.38460886  1
  Ga  Ga47  1  0.38460886  0.38460886  0.61539114  1
  Ga  Ga48  1  0.61539114  0.38460886  0.38460886  1
