# generated using pymatgen
data_LiMn2(PO4)3
_symmetry_space_group_name_H-M   'P 1'
_cell_length_a   8.25956098
_cell_length_b   8.53474584
_cell_length_c   11.76774612
_cell_angle_alpha   90.00000000
_cell_angle_beta   90.01369432
_cell_angle_gamma   90.00000000
_symmetry_Int_Tables_number   1
_chemical_formula_structural   LiMn2(PO4)3
_chemical_formula_sum   'Li4 Mn8 P12 O48'
_cell_volume   829.54668919
_cell_formula_units_Z   4
loop_
 _symmetry_equiv_pos_site_id
 _symmetry_equiv_pos_as_xyz
  1  'x, y, z'
loop_
 _atom_site_type_symbol
 _atom_site_label
 _atom_site_symmetry_multiplicity
 _atom_site_fract_x
 _atom_site_fract_y
 _atom_site_fract_z
 _atom_site_occupancy
  Li  Li0  1  0.31864921  0.29009848  0.67948717  1
  Li  Li1  1  0.42600516  0.60237110  0.19638800  1
  Li  Li2  1  0.81864990  0.20990135  0.17948684  1
  Li  Li3  1  0.92600478  0.89762838  0.69638803  1
  O  O4  1  0.27266082  0.55474913  0.55012736  1
  O  O5  1  0.93549145  0.32502111  0.60551769  1
  O  O6  1  0.94003220  0.12229227  0.44121380  1
  O  O7  1  0.93180831  0.41855106  0.17963804  1
  O  O8  1  0.90368182  0.63785189  0.58581332  1
  O  O9  1  0.83785341  0.71792180  0.18225863  1
  O  O10  1  0.85887795  0.57244713  0.97683788  1
  O  O11  1  0.86525160  0.00056941  0.24339560  1
  O  O12  1  0.06861967  0.88407112  0.10761265  1
  O  O13  1  0.06473635  0.67302094  0.39401504  1
  O  O14  1  0.05716535  0.87359824  0.56041223  1
  O  O15  1  0.06645546  0.57284165  0.81866491  1
  O  O16  1  0.09345978  0.36435972  0.41456336  1
  O  O17  1  0.11626139  0.20314095  0.15832026  1
  O  O18  1  0.13966272  0.43216755  0.02210072  1
  O  O19  1  0.12721865  0.00113879  0.75260154  1
  O  O20  1  0.17163738  0.27656548  0.81618733  1
  O  O21  1  0.18444474  0.17559623  0.56428979  1
  O  O22  1  0.22798155  0.47908253  0.22277495  1
  O  O23  1  0.22910318  0.05615254  0.95207671  1
  O  O24  1  0.27356185  0.98059187  0.27490741  1
  O  O25  1  0.93408365  0.11458964  0.89350096  1
  O  O26  1  0.31458360  0.67482911  0.93570917  1
  O  O27  1  0.33785394  0.78207768  0.68225810  1
  O  O28  1  0.35887712  0.92755234  0.47683786  1
  O  O29  1  0.37696846  0.70492170  0.33703979  1
  O  O30  1  0.36525213  0.49943160  0.74339593  1
  O  O31  1  0.40368221  0.86214759  0.08581330  1
  O  O32  1  0.43549184  0.17497872  0.10551767  1
  O  O33  1  0.43408403  0.38541018  0.39350094  1
  O  O34  1  0.43180762  0.08144877  0.67963836  1
  O  O35  1  0.44003152  0.37770756  0.94121412  1
  O  O36  1  0.55716482  0.62640124  0.06041190  1
  O  O37  1  0.56645493  0.92715783  0.31866458  1
  O  O38  1  0.56862050  0.61592835  0.60761267  1
  O  O39  1  0.56473718  0.82697854  0.89401507  1
  O  O40  1  0.59345939  0.13564011  0.91456339  1
  O  O41  1  0.62721812  0.49886103  0.25260206  1
  O  O42  1  0.61626100  0.29685887  0.65832029  1
  O  O43  1  0.63966355  0.06783228  0.52210075  1
  O  O44  1  0.67163807  0.22343552  0.31618701  1
  O  O45  1  0.68444421  0.32440360  0.06428947  1
  O  O46  1  0.72910265  0.44384729  0.45207639  1
  O  O47  1  0.72798238  0.02091729  0.72277497  1
  O  O48  1  0.77266151  0.94525035  0.05012703  1
  O  O49  1  0.77356146  0.51940879  0.77490744  1
  O  O50  1  0.81458308  0.82517037  0.43570884  1
  O  O51  1  0.87696929  0.79507896  0.83703981  1
  P  P52  1  0.96404603  0.74725302  0.48991419  1
  P  P53  1  0.89009193  0.61275361  0.85184609  1
  P  P54  1  0.89003879  0.88285861  0.14371178  1
  P  P55  1  0.61143441  0.11590309  0.64556726  1
  P  P56  1  0.61370418  0.38778635  0.35764770  1
  P  P57  1  0.53220500  0.25051182  0.00633046  1
  P  P58  1  0.46404534  0.75274764  0.98991452  1
  P  P59  1  0.39003810  0.61714087  0.64371211  1
  P  P60  1  0.03220552  0.24948918  0.50632994  1
  P  P61  1  0.11143479  0.38409674  0.14556724  1
  P  P62  1  0.39009110  0.88724705  0.35184607  1
  P  P63  1  0.11370349  0.11221347  0.85764717  1
  Mn  Mn64  1  0.25349140  0.02990920  0.11280150  1
  Mn  Mn65  1  0.24518910  0.52841902  0.39147773  1
  Mn  Mn66  1  0.25354807  0.96663749  0.61395117  1
  Mn  Mn67  1  0.24830971  0.47296183  0.88524937  1
  Mn  Mn68  1  0.75354876  0.53336199  0.11395169  1
  Mn  Mn69  1  0.74831040  0.02703800  0.38524904  1
  Mn  Mn70  1  0.75349101  0.47009063  0.61280153  1
  Mn  Mn71  1  0.74518872  0.97158164  0.89147776  1
