# generated using pymatgen
data_Li3Fe3(PO4)4
_symmetry_space_group_name_H-M   'P 1'
_cell_length_a   14.49635118
_cell_length_b   4.99991000
_cell_length_c   8.31869108
_cell_angle_alpha   90.00000000
_cell_angle_beta   99.48031684
_cell_angle_gamma   90.00000000
_symmetry_Int_Tables_number   1
_chemical_formula_structural   Li3Fe3(PO4)4
_chemical_formula_sum   'Li6 Fe6 P8 O32'
_cell_volume   594.70764122
_cell_formula_units_Z   2
loop_
 _symmetry_equiv_pos_site_id
 _symmetry_equiv_pos_as_xyz
  1  'x, y, z'
loop_
 _atom_site_type_symbol
 _atom_site_label
 _atom_site_symmetry_multiplicity
 _atom_site_fract_x
 _atom_site_fract_y
 _atom_site_fract_z
 _atom_site_occupancy
  Li  Li0  1  0.12172319  0.48507136  0.82662107  1
  Li  Li1  1  0.87827651  0.51492823  0.17337952  1
  Li  Li2  1  0.62172313  0.01492844  0.32662008  1
  Li  Li3  1  0.50000020  0.49999980  0.49999980  1
  Li  Li4  1  0.37827656  0.98507315  0.67337931  1
  Li  Li5  1  0.00000000  0.00000000  0.00000000  1
  O  O6  1  0.24350666  0.09368487  0.56834879  1
  O  O7  1  0.98039505  0.47811682  0.73744667  1
  O  O8  1  0.87241477  0.29044123  0.39641961  1
  O  O9  1  0.74350661  0.40631493  0.06834900  1
  O  O10  1  0.92781865  0.82052294  0.47553386  1
  O  O11  1  0.84331831  0.91144118  0.19141811  1
  O  O12  1  0.15668209  0.08856040  0.80858149  1
  O  O13  1  0.07218105  0.17947665  0.52446553  1
  O  O14  1  0.25649378  0.59368466  0.93165060  1
  O  O15  1  0.12758493  0.70956035  0.60357978  1
  O  O16  1  0.01960464  0.52188277  0.26255272  1
  O  O17  1  0.37241482  0.20955857  0.89642060  1
  O  O18  1  0.30205927  0.03775533  0.19370598  1
  O  O19  1  0.42781870  0.67947645  0.97553365  1
  O  O20  1  0.11104154  0.20354550  0.10553512  1
  O  O21  1  0.34331836  0.58856019  0.69141790  1
  O  O22  1  0.75649373  0.90631672  0.43165081  1
  O  O23  1  0.10130443  0.69423452  0.04269339  1
  O  O24  1  0.39869506  0.19423473  0.45730620  1
  O  O25  1  0.51960484  0.97811662  0.76255372  1
  O  O26  1  0.62758557  0.79044102  0.10358020  1
  O  O27  1  0.38895866  0.70354529  0.39446588  1
  O  O28  1  0.61104173  0.29645430  0.60553492  1
  O  O29  1  0.69794042  0.96224625  0.80629341  1
  O  O30  1  0.48039555  0.02188297  0.23744708  1
  O  O31  1  0.60130463  0.80576686  0.54269439  1
  O  O32  1  0.89869526  0.30576507  0.95730600  1
  O  O33  1  0.80205947  0.46224447  0.69370578  1
  O  O34  1  0.65668203  0.41143940  0.30858170  1
  O  O35  1  0.88895816  0.79645409  0.89446547  1
  O  O36  1  0.57218099  0.32052314  0.02446574  1
  O  O37  1  0.19794092  0.53775512  0.30629382  1
  P  P38  1  0.35068576  0.51174877  0.87730876  1
  P  P39  1  0.10781196  0.48185968  0.18447563  1
  P  P40  1  0.39218824  0.98185947  0.31552417  1
  P  P41  1  0.60781215  0.01814012  0.68447543  1
  P  P42  1  0.89218774  0.51814191  0.81552376  1
  P  P43  1  0.64931464  0.48825082  0.12269084  1
  P  P44  1  0.14931469  0.01174897  0.62269183  1
  P  P45  1  0.85068570  0.98825062  0.37730897  1
  Fe  Fe46  1  0.70661976  0.56266652  0.52127813  1
  Fe  Fe47  1  0.49999972  0.00000000  0.99999990  1
  Fe  Fe48  1  0.79338014  0.06266672  0.97872226  1
  Fe  Fe49  1  0.20662026  0.93733486  0.02127733  1
  Fe  Fe50  1  0.29337994  0.43733507  0.47872246  1
  Fe  Fe51  1  0.99999978  0.49999980  0.49999969  1
