# generated using pymatgen
data_LiMoP4O13
_symmetry_space_group_name_H-M   'P 1'
_cell_length_a   5.22456308
_cell_length_b   8.02232941
_cell_length_c   14.38368644
_cell_angle_alpha   82.66260709
_cell_angle_beta   84.09453740
_cell_angle_gamma   80.08978924
_symmetry_Int_Tables_number   1
_chemical_formula_structural   LiMoP4O13
_chemical_formula_sum   'Li2 Mo2 P8 O26'
_cell_volume   586.98416555
_cell_formula_units_Z   2
loop_
 _symmetry_equiv_pos_site_id
 _symmetry_equiv_pos_as_xyz
  1  'x, y, z'
loop_
 _atom_site_type_symbol
 _atom_site_label
 _atom_site_symmetry_multiplicity
 _atom_site_fract_x
 _atom_site_fract_y
 _atom_site_fract_z
 _atom_site_occupancy
  Li  Li0  1  0.49700246  0.49661564  0.50258904  1
  Li  Li1  1  -0.00062505  0.60152338  0.01564778  1
  O  O2  1  0.20136152  0.56147307  0.90430809  1
  O  O3  1  0.86051655  0.84906243  0.64659564  1
  O  O4  1  0.15664094  0.02375811  0.17011468  1
  O  O5  1  0.01905228  0.74992429  0.25444591  1
  O  O6  1  0.12789035  0.15159610  0.34452997  1
  O  O7  1  0.05404096  0.79596894  0.07331570  1
  O  O8  1  0.27108801  0.53447334  0.37634421  1
  O  O9  1  0.29272911  0.02243238  0.82416755  1
  O  O10  1  0.17291750  0.62576693  0.72816743  1
  O  O11  1  0.43933262  0.29996210  0.19069458  1
  O  O12  1  0.23367247  0.68357621  0.54850370  1
  O  O13  1  0.84118766  0.96203703  0.82295534  1
  O  O14  1  0.46542535  0.60829075  0.20672106  1
  O  O15  1  0.40865384  0.82584105  0.32062545  1
  O  O16  1  0.31561036  0.90418962  0.65111762  1
  O  O17  1  0.67258085  0.09743307  0.34274818  1
  O  O18  1  0.58151036  0.17423987  0.67825153  1
  O  O19  1  0.96169952  0.24917019  0.75186298  1
  O  O20  1  0.78452885  0.45828063  0.09172332  1
  O  O21  1  0.76061839  0.31396350  0.44723188  1
  O  O22  1  0.69855987  0.97049937  0.17170864  1
  O  O23  1  0.81485775  0.37683902  0.26725905  1
  O  O24  1  0.56019128  0.69634092  0.80120979  1
  O  O25  1  0.72231032  0.46284899  0.62618419  1
  O  O26  1  0.92955727  0.17077907  0.93422611  1
  O  O27  1  0.50846888  0.39029635  0.79360548  1
  P  P28  1  0.99739075  0.10240308  0.84375398  1
  P  P29  1  0.99073654  0.88505898  0.15826161  1
  P  P30  1  0.29002284  0.67167612  0.29903453  1
  P  P31  1  0.15583094  0.76453000  0.63569525  1
  P  P32  1  0.35609426  0.57467579  0.81331384  1
  P  P33  1  0.69715620  0.32643324  0.70388031  1
  P  P34  1  0.83259030  0.23680110  0.35887454  1
  P  P35  1  0.63119429  0.42938100  0.18209149  1
  Mo  Mo36  1  0.41222720  0.06393768  0.25734234  1
  Mo  Mo37  1  0.57862632  0.93400113  0.73739440  1
