# generated using pymatgen
data_LiCrP2O7
_symmetry_space_group_name_H-M   'P 1'
_cell_length_a   6.37579375
_cell_length_b   6.35138489
_cell_length_c   6.84442889
_cell_angle_alpha   113.17970502
_cell_angle_beta   94.78438271
_cell_angle_gamma   82.19969080
_symmetry_Int_Tables_number   1
_chemical_formula_structural   LiCrP2O7
_chemical_formula_sum   'Li2 Cr2 P4 O14'
_cell_volume   252.29729957
_cell_formula_units_Z   2
loop_
 _symmetry_equiv_pos_site_id
 _symmetry_equiv_pos_as_xyz
  1  'x, y, z'
loop_
 _atom_site_type_symbol
 _atom_site_label
 _atom_site_symmetry_multiplicity
 _atom_site_fract_x
 _atom_site_fract_y
 _atom_site_fract_z
 _atom_site_occupancy
  Li  Li0  1  0.00467069  0.70829088  0.16882031  1
  Li  Li1  1  0.99532825  0.29170803  0.83117789  1
  O  O2  1  0.31307335  0.21988262  0.77117099  1
  O  O3  1  0.95046248  0.61069347  0.85972459  1
  O  O4  1  0.04953711  0.38930543  0.14027443  1
  O  O5  1  0.03440202  0.93489242  0.75449060  1
  O  O6  1  0.20877046  0.35508873  0.47337438  1
  O  O7  1  0.59638651  0.22458284  0.52809938  1
  O  O8  1  0.33080431  0.05167420  0.11934024  1
  O  O9  1  0.79123052  0.64491217  0.52662522  1
  O  O10  1  0.40361420  0.77541745  0.47190165  1
  O  O11  1  0.96559874  0.06510732  0.24551018  1
  O  O12  1  0.59213092  0.40216603  0.20579785  1
  O  O13  1  0.66919629  0.94832593  0.88066013  1
  O  O14  1  0.68692606  0.78011688  0.22882830  1
  O  O15  1  0.40786902  0.59783393  0.79420301  1
  P  P16  1  0.39380027  0.34731286  0.64858211  1
  P  P17  1  0.60619989  0.65268720  0.35141811  1
  P  P18  1  0.13101209  0.21686750  0.23478456  1
  P  P19  1  0.86898825  0.78313243  0.76521540  1
  Cr  Cr20  1  0.64289521  0.09283410  0.21674812  1
  Cr  Cr21  1  0.35710528  0.90716621  0.78325308  1
