# generated using pymatgen
data_V3(P2O7)2
_symmetry_space_group_name_H-M   'P 1'
_cell_length_a   7.30869876
_cell_length_b   8.02106781
_cell_length_c   9.52478432
_cell_angle_alpha   90.00000000
_cell_angle_beta   111.11608614
_cell_angle_gamma   90.00000000
_symmetry_Int_Tables_number   1
_chemical_formula_structural   V3(P2O7)2
_chemical_formula_sum   'V6 P8 O28'
_cell_volume   520.88319455
_cell_formula_units_Z   2
loop_
 _symmetry_equiv_pos_site_id
 _symmetry_equiv_pos_as_xyz
  1  'x, y, z'
loop_
 _atom_site_type_symbol
 _atom_site_label
 _atom_site_symmetry_multiplicity
 _atom_site_fract_x
 _atom_site_fract_y
 _atom_site_fract_z
 _atom_site_occupancy
  O  O0  1  0.01190780  0.71431812  0.86633839  1
  O  O1  1  0.03485171  0.08095274  0.89171525  1
  O  O2  1  0.15347308  0.37475135  0.88132741  1
  O  O3  1  0.01190722  0.78568137  0.36633793  1
  O  O4  1  0.03485113  0.41904709  0.39171479  1
  O  O5  1  0.31549350  0.13201370  0.79961666  1
  O  O6  1  0.37459483  0.84597442  0.92243859  1
  O  O7  1  0.15347396  0.12524975  0.38132735  1
  O  O8  1  0.27559751  0.86980835  0.64064995  1
  O  O9  1  0.38489444  0.48001226  0.68117407  1
  O  O10  1  0.31549438  0.36798613  0.29961660  1
  O  O11  1  0.37459425  0.65402633  0.42243813  1
  O  O12  1  0.27559693  0.63019241  0.14064949  1
  O  O13  1  0.61510527  0.98001209  0.81882623  1
  O  O14  1  0.38489386  0.01998758  0.18117361  1
  O  O15  1  0.72440366  0.36980725  0.85935075  1
  O  O16  1  0.62540634  0.34597459  0.57756211  1
  O  O17  1  0.68450621  0.63201353  0.70038365  1
  O  O18  1  0.61510615  0.51998741  0.31882617  1
  O  O19  1  0.72440308  0.13019258  0.35935029  1
  O  O20  1  0.84652663  0.87475118  0.61867289  1
  O  O21  1  0.98809279  0.28568154  0.13366185  1
  O  O22  1  0.68450563  0.86798596  0.20038319  1
  O  O23  1  0.96514946  0.58095257  0.60828545  1
  O  O24  1  0.98809190  0.21431829  0.63366191  1
  O  O25  1  0.84652605  0.62524958  0.11867243  1
  O  O26  1  0.96514888  0.91904692  0.10828499  1
  O  O27  1  0.62540576  0.15402650  0.07756165  1
  P  P28  1  0.11678939  0.21016876  0.80371495  1
  P  P29  1  0.11679027  0.28983107  0.30371488  1
  P  P30  1  0.40088476  0.94620157  0.79422046  1
  P  P31  1  0.40088564  0.55379792  0.29422040  1
  P  P32  1  0.59911495  0.44620174  0.70577985  1
  P  P33  1  0.59911437  0.05379809  0.20577939  1
  P  P34  1  0.88321032  0.71016859  0.69628536  1
  P  P35  1  0.88320974  0.78983090  0.19628490  1
  V  V36  1  0.00000058  0.00000000  0.50000046  1
  V  V37  1  0.19008864  0.62803627  0.52685531  1
  V  V38  1  0.00000000  0.49999983  0.00000000  1
  V  V39  1  0.19008806  0.87196448  0.02685485  1
  V  V40  1  0.80991107  0.12803644  0.97314500  1
  V  V41  1  0.80991195  0.37196339  0.47314494  1
