# generated using pymatgen
data_LiVP2O7
_symmetry_space_group_name_H-M   'P 1'
_cell_length_a   5.28851516
_cell_length_b   5.28851554
_cell_length_c   4.57517476
_cell_angle_alpha   81.87158454
_cell_angle_beta   98.12841612
_cell_angle_gamma   76.86266494
_symmetry_Int_Tables_number   1
_chemical_formula_structural   LiVP2O7
_chemical_formula_sum   'Li1 V1 P2 O7'
_cell_volume   121.34454424
_cell_formula_units_Z   1
loop_
 _symmetry_equiv_pos_site_id
 _symmetry_equiv_pos_as_xyz
  1  'x, y, z'
loop_
 _atom_site_type_symbol
 _atom_site_label
 _atom_site_symmetry_multiplicity
 _atom_site_fract_x
 _atom_site_fract_y
 _atom_site_fract_z
 _atom_site_occupancy
  Li  Li0  1  0.74815472  0.74815472  0.00000000  1
  V  V1  1  0.12546754  0.12546754  1.00000000  1
  P  P2  1  0.66833757  0.25286972  0.41075313  1
  P  P3  1  0.25286972  0.66833757  0.58924687  1
  O  O4  1  0.81613397  0.07402156  0.70912020  1
  O  O5  1  0.84257490  0.34559146  0.19556211  1
  O  O6  1  0.46507820  0.12830307  0.25964170  1
  O  O7  1  0.12830307  0.46507820  0.74035830  1
  O  O8  1  0.34559146  0.84257490  0.80443789  1
  O  O9  1  0.07402156  0.81613397  0.29087980  1
  O  O10  1  0.52831729  0.52831729  0.50000000  1
