# generated using pymatgen
data_Sr(GdS2)2
_symmetry_space_group_name_H-M   'P 1'
_cell_length_a   7.43067498
_cell_length_b   7.43067493
_cell_length_c   7.43067505
_cell_angle_alpha   109.32772583
_cell_angle_beta   109.75859188
_cell_angle_gamma   109.32772643
_symmetry_Int_Tables_number   1
_chemical_formula_structural   Sr(GdS2)2
_chemical_formula_sum   'Sr2 Gd4 S8'
_cell_volume   315.83096761
_cell_formula_units_Z   2
loop_
 _symmetry_equiv_pos_site_id
 _symmetry_equiv_pos_as_xyz
  1  'x, y, z'
loop_
 _atom_site_type_symbol
 _atom_site_label
 _atom_site_symmetry_multiplicity
 _atom_site_fract_x
 _atom_site_fract_y
 _atom_site_fract_z
 _atom_site_occupancy
  Gd  Gd0  1  0.25000000  0.62430799  0.37430799  1
  Gd  Gd1  1  0.75000000  0.87569201  0.12569201  1
  Gd  Gd2  1  0.62569201  0.37569201  0.25000000  1
  Gd  Gd3  1  0.87430799  0.12430799  0.75000000  1
  S  S4  1  0.98455641  0.84746421  0.48762622  1
  S  S5  1  0.98762622  0.34746421  0.48455641  1
  S  S6  1  0.13709220  0.15253579  0.14016201  1
  S  S7  1  0.36290780  0.50306981  0.01544359  1
  S  S8  1  0.64016201  0.65253579  0.63709220  1
  S  S9  1  0.51544359  0.00306981  0.86290780  1
  S  S10  1  0.51237378  0.99693019  0.35983799  1
  S  S11  1  0.85983799  0.49693019  0.01237378  1
  Sr  Sr12  1  0.12500000  0.75000000  0.87500000  1
  Sr  Sr13  1  0.37500000  0.25000000  0.62500000  1
