# generated using pymatgen
data_PrYSi2O7
_symmetry_space_group_name_H-M   'P 1'
_cell_length_a   6.14449983
_cell_length_b   10.73660648
_cell_length_c   11.16593275
_cell_angle_alpha   90.00000000
_cell_angle_beta   102.97473097
_cell_angle_gamma   90.00000000
_symmetry_Int_Tables_number   1
_chemical_formula_structural   PrYSi2O7
_chemical_formula_sum   'Pr4 Y4 Si8 O28'
_cell_volume   717.82187381
_cell_formula_units_Z   4
loop_
 _symmetry_equiv_pos_site_id
 _symmetry_equiv_pos_as_xyz
  1  'x, y, z'
loop_
 _atom_site_type_symbol
 _atom_site_label
 _atom_site_symmetry_multiplicity
 _atom_site_fract_x
 _atom_site_fract_y
 _atom_site_fract_z
 _atom_site_occupancy
  Pr  Pr0  1  0.60277794  0.13585071  0.28408729  1
  Pr  Pr1  1  0.89722206  0.63585071  0.21591271  1
  Pr  Pr2  1  0.39722206  0.86414929  0.71591271  1
  Pr  Pr3  1  0.10277794  0.36414929  0.78408729  1
  Y  Y4  1  0.25408845  0.37687824  0.44592087  1
  Y  Y5  1  0.24591155  0.87687824  0.05407913  1
  Y  Y6  1  0.74591155  0.62312176  0.55407913  1
  Y  Y7  1  0.75408845  0.12312176  0.94592087  1
  Si  Si8  1  0.73849951  0.84917115  0.02314805  1
  Si  Si9  1  0.76150049  0.34917115  0.47685195  1
  Si  Si10  1  0.26150049  0.15082885  0.97685195  1
  Si  Si11  1  0.23849951  0.65082885  0.52314805  1
  Si  Si12  1  0.95506440  0.70611942  0.83882462  1
  Si  Si13  1  0.54493560  0.20611942  0.66117538  1
  Si  Si14  1  0.04493660  0.29388058  0.16117538  1
  Si  Si15  1  0.45506340  0.79388058  0.33882462  1
  O  O16  1  0.82027175  0.20561888  0.14012564  1
  O  O17  1  0.67972825  0.70561888  0.35987436  1
  O  O18  1  0.17972825  0.79438112  0.85987436  1
  O  O19  1  0.32027175  0.29438112  0.64012564  1
  O  O20  1  0.89049251  0.73296064  0.97967961  1
  O  O21  1  0.60950749  0.23296064  0.52032039  1
  O  O22  1  0.10950749  0.26703936  0.02032039  1
  O  O23  1  0.39049251  0.76703936  0.47967961  1
  O  O24  1  0.58434282  0.92908290  0.91150699  1
  O  O25  1  0.91565718  0.42908290  0.58849301  1
  O  O26  1  0.41565718  0.07091710  0.08849301  1
  O  O27  1  0.08434282  0.57091710  0.41150699  1
  O  O28  1  0.58848744  0.77660177  0.10323183  1
  O  O29  1  0.91151256  0.27660177  0.39676817  1
  O  O30  1  0.41151256  0.22339823  0.89676817  1
  O  O31  1  0.08848744  0.72339823  0.60323183  1
  O  O32  1  0.42149120  0.55313201  0.59626171  1
  O  O33  1  0.07850880  0.05313201  0.90373829  1
  O  O34  1  0.57850880  0.44686799  0.40373829  1
  O  O35  1  0.92149120  0.94686799  0.09626171  1
  O  O36  1  0.00630600  0.55991999  0.82520222  1
  O  O37  1  0.49369400  0.05991999  0.67479778  1
  O  O38  1  0.99369400  0.44008001  0.17479778  1
  O  O39  1  0.50630600  0.94008001  0.32520222  1
  O  O40  1  0.76352592  0.24910963  0.76826190  1
  O  O41  1  0.73647408  0.74910963  0.73173810  1
  O  O42  1  0.23647408  0.75089037  0.23173810  1
  O  O43  1  0.26352592  0.25089037  0.26826190  1
