# generated using pymatgen
data_Li3Mo2(PO4)3
_symmetry_space_group_name_H-M   'P 1'
_cell_length_a   9.18899842
_cell_length_b   8.83212785
_cell_length_c   9.18900119
_cell_angle_alpha   58.27390795
_cell_angle_beta   121.62705272
_cell_angle_gamma   121.72608879
_symmetry_Int_Tables_number   1
_chemical_formula_structural   Li3Mo2(PO4)3
_chemical_formula_sum   'Li6 Mo4 P6 O24'
_cell_volume   506.88823366
_cell_formula_units_Z   2
loop_
 _symmetry_equiv_pos_site_id
 _symmetry_equiv_pos_as_xyz
  1  'x, y, z'
loop_
 _atom_site_type_symbol
 _atom_site_label
 _atom_site_symmetry_multiplicity
 _atom_site_fract_x
 _atom_site_fract_y
 _atom_site_fract_z
 _atom_site_occupancy
  Li  Li0  1  0.30719993  0.56913512  0.93941053  1
  Li  Li1  1  0.06059034  0.06913601  0.69280016  1
  Li  Li2  1  0.62705781  0.74221114  0.63123871  1
  Li  Li3  1  0.36876036  0.24221010  0.37294221  1
  Li  Li4  1  0.94035371  0.91987570  0.30438220  1
  Li  Li5  1  0.69561772  0.41987678  0.05964710  1
  Mo  Mo6  1  0.64159908  0.92396942  0.85004754  1
  Mo  Mo7  1  0.14995156  0.42396772  0.35840068  1
  Mo  Mo8  1  0.85169357  0.56623555  0.63963565  1
  Mo  Mo9  1  0.36036475  0.06623589  0.14830643  1
  P  P10  1  0.75586018  0.22543679  0.47376240  1
  P  P11  1  0.05445542  0.24505251  0.05257881  1
  P  P12  1  0.52623724  0.72543693  0.24413993  1
  P  P13  1  0.47543041  0.26435001  0.75390702  1
  P  P14  1  0.24609251  0.76434906  0.52456945  1
  P  P15  1  0.94742074  0.74505247  0.94554432  1
  O  O16  1  0.30262836  0.97068565  0.38923165  1
  O  O17  1  0.97805717  0.56033261  0.09802903  1
  O  O18  1  0.94351711  0.26141041  0.48167818  1
  O  O19  1  0.62033199  0.24466522  0.27498478  1
  O  O20  1  0.09928809  0.92976167  0.97666453  1
  O  O21  1  0.02333647  0.42976196  0.90071260  1
  O  O22  1  0.05846387  0.72798657  0.51677792  1
  O  O23  1  0.38209840  0.74502523  0.72325262  1
  O  O24  1  0.90197158  0.06033307  0.02194201  1
  O  O25  1  0.75520434  0.71728706  0.92697661  1
  O  O26  1  0.24824769  0.62785459  0.47258597  1
  O  O27  1  0.48322206  0.22798732  0.94153559  1
  O  O28  1  0.27674719  0.24502465  0.61790211  1
  O  O29  1  0.61076830  0.47068577  0.69737142  1
  O  O30  1  0.69889044  0.01921187  0.60908661  1
  O  O31  1  0.93014876  0.77257271  0.75412576  1
  O  O32  1  0.07302311  0.21728584  0.24479611  1
  O  O33  1  0.52741409  0.12785489  0.75175193  1
  O  O34  1  0.39091250  0.51921071  0.30110954  1
  O  O35  1  0.72501479  0.74466577  0.37966703  1
  O  O36  1  0.51832160  0.76141101  0.05648266  1
  O  O37  1  0.75480598  0.36239864  0.52597359  1
  O  O38  1  0.24587418  0.27257342  0.06985054  1
  O  O39  1  0.47402560  0.86239814  0.24519405  1
