# generated using pymatgen
data_V3(P3O10)2
_symmetry_space_group_name_H-M   'P 1'
_cell_length_a   8.57431118
_cell_length_b   8.57431118
_cell_length_c   12.69631967
_cell_angle_alpha   90.00000000
_cell_angle_beta   90.00000000
_cell_angle_gamma   72.60681749
_symmetry_Int_Tables_number   1
_chemical_formula_structural   V3(P3O10)2
_chemical_formula_sum   'V6 P12 O40'
_cell_volume   890.73863192
_cell_formula_units_Z   2
loop_
 _symmetry_equiv_pos_site_id
 _symmetry_equiv_pos_as_xyz
  1  'x, y, z'
loop_
 _atom_site_type_symbol
 _atom_site_label
 _atom_site_symmetry_multiplicity
 _atom_site_fract_x
 _atom_site_fract_y
 _atom_site_fract_z
 _atom_site_occupancy
  O  O0  1  0.04342808  0.17934709  0.70500486  1
  O  O1  1  0.06676591  0.13439929  0.44080994  1
  O  O2  1  0.08560456  0.28105978  0.19217500  1
  O  O3  1  0.01898345  0.66636941  0.77954030  1
  O  O4  1  0.06692232  0.65154475  0.58030233  1
  O  O5  1  0.05704602  0.65931768  0.27173868  1
  O  O6  1  0.26675301  0.20729410  0.86638392  1
  O  O7  1  0.21894069  0.41439493  0.69217500  1
  O  O8  1  0.30632819  0.14879504  0.55731726  1
  O  O9  1  0.29270477  0.23324719  0.36638391  1
  O  O10  1  0.35120518  0.19367262  0.05731726  1
  O  O11  1  0.20730435  0.72630679  0.11357800  1
  O  O12  1  0.32065306  0.45657130  0.20500485  1
  O  O13  1  0.28759333  0.67729914  0.69923117  1
  O  O14  1  0.36560096  0.43323319  0.94080994  1
  O  O15  1  0.27369417  0.79269512  0.88642201  1
  O  O16  1  0.32270040  0.71240676  0.30076884  1
  O  O17  1  0.51898311  0.16636873  0.72045971  1
  O  O18  1  0.56692198  0.15154406  0.91969769  1
  O  O19  1  0.55704531  0.15931821  0.22826132  1
  O  O20  1  0.34068175  0.94295464  0.72826133  1
  O  O21  1  0.33363037  0.98101668  0.22045971  1
  O  O22  1  0.34845601  0.93307776  0.41969768  1
  O  O23  1  0.54342873  0.67934656  0.79499516  1
  O  O24  1  0.56676656  0.63439876  0.05919007  1
  O  O25  1  0.70730518  0.22630611  0.38642200  1
  O  O26  1  0.58560520  0.78105925  0.30782501  1
  O  O27  1  0.78759263  0.17729968  0.80076885  1
  O  O28  1  0.77369346  0.29269565  0.61357800  1
  O  O29  1  0.86560124  0.93323388  0.55919007  1
  O  O30  1  0.76675330  0.70729479  0.63361610  1
  O  O31  1  0.84068258  0.44295395  0.77173869  1
  O  O32  1  0.83363083  0.48101722  0.27954030  1
  O  O33  1  0.71894016  0.91439440  0.80782501  1
  O  O34  1  0.84845531  0.43307830  0.08030232  1
  O  O35  1  0.80632767  0.64879451  0.94268275  1
  O  O36  1  0.79270541  0.73324666  0.13361609  1
  O  O37  1  0.85120583  0.69367209  0.44268275  1
  O  O38  1  0.82065334  0.95657199  0.29499515  1
  O  O39  1  0.82270086  0.21240729  0.19923116  1
  P  P40  1  0.24858820  0.12322600  0.44848171  1
  P  P41  1  0.14315771  0.59717868  0.69448401  1
  P  P42  1  0.22131095  0.63390818  0.21890467  1
  P  P43  1  0.37677404  0.25141170  0.94848172  1
  P  P44  1  0.36609183  0.77868937  0.78109534  1
  P  P45  1  0.40282084  0.85684291  0.30551600  1
  P  P46  1  0.64315700  0.09717922  0.80551600  1
  P  P47  1  0.72131141  0.13390871  0.28109534  1
  P  P48  1  0.74858768  0.62322547  0.05151829  1
  P  P49  1  0.87677432  0.75141239  0.55151830  1
  P  P50  1  0.90282167  0.35684222  0.19448401  1
  P  P51  1  0.86609149  0.27868868  0.71890467  1
  V  V52  1  0.27948363  0.17715170  0.71208028  1
  V  V53  1  0.32284788  0.22051592  0.21208028  1
  V  V54  1  0.35998721  0.64001322  0.00000000  1
  V  V55  1  0.85998686  0.14001253  0.50000000  1
  V  V56  1  0.77948391  0.67715239  0.78791973  1
  V  V57  1  0.82284816  0.72051661  0.28791973  1
