# generated using pymatgen
data_V(PO3)4
_symmetry_space_group_name_H-M   'P 1'
_cell_length_a   8.40757912
_cell_length_b   8.40757911
_cell_length_c   7.80447663
_cell_angle_alpha   82.13693045
_cell_angle_beta   97.86306953
_cell_angle_gamma   70.45339288
_symmetry_Int_Tables_number   1
_chemical_formula_structural   V(PO3)4
_chemical_formula_sum   'V2 P8 O24'
_cell_volume   505.05065483
_cell_formula_units_Z   2
loop_
 _symmetry_equiv_pos_site_id
 _symmetry_equiv_pos_as_xyz
  1  'x, y, z'
loop_
 _atom_site_type_symbol
 _atom_site_label
 _atom_site_symmetry_multiplicity
 _atom_site_fract_x
 _atom_site_fract_y
 _atom_site_fract_z
 _atom_site_occupancy
  O  O0  1  0.12860026  0.12859949  0.25000056  1
  O  O1  1  0.11491904  0.34691340  0.80952505  1
  O  O2  1  0.99799780  0.74672336  0.49634833  1
  O  O3  1  0.14959072  0.63020511  0.81617581  1
  O  O4  1  0.34691332  0.11491926  0.69047507  1
  O  O5  1  0.08240139  0.86159597  0.17203181  1
  O  O6  1  0.13840429  0.91759876  0.67203274  1
  O  O7  1  0.32689512  0.38282057  0.06593288  1
  O  O8  1  0.38757524  0.38757433  0.75000021  1
  O  O9  1  0.38282055  0.32689591  0.43406663  1
  O  O10  1  0.25327609  0.00200273  0.99634780  1
  O  O11  1  0.63020411  0.14959045  0.68382424  1
  O  O12  1  0.36979521  0.85040889  0.31617629  1
  O  O13  1  0.74672276  0.99799791  0.00365120  1
  O  O14  1  0.61717950  0.67310473  0.56593253  1
  O  O15  1  0.61242529  0.61242502  0.25000049  1
  O  O16  1  0.67310374  0.61718006  0.93406612  1
  O  O17  1  0.87140027  0.87139986  0.75000014  1
  O  O18  1  0.91759913  0.13840339  0.82796760  1
  O  O19  1  0.65308719  0.88508009  0.30952434  1
  O  O20  1  0.85040933  0.36979553  0.18382335  1
  O  O21  1  0.00200225  0.25327728  0.50365084  1
  O  O22  1  0.88507982  0.65308723  0.19047524  1
  O  O23  1  0.86159623  0.08240059  0.32796796  1
  P  P24  1  0.04217202  0.79360595  0.67184563  1
  P  P25  1  0.25014279  0.42470233  0.87882709  1
  P  P26  1  0.42470235  0.25014218  0.62117316  1
  P  P27  1  0.20639437  0.95782838  0.17184471  1
  P  P28  1  0.79360568  0.04217226  0.82815445  1
  P  P29  1  0.95782804  0.20639468  0.32815482  1
  P  P30  1  0.74985773  0.57529702  0.12117232  1
  P  P31  1  0.57529698  0.74985716  0.37882737  1
  V  V32  1  0.13251952  0.13252073  0.74999991  1
  V  V33  1  0.86747934  0.86747989  0.25000038  1
