# generated using pymatgen
data_LiMg9B20
_symmetry_space_group_name_H-M   'P 1'
_cell_length_a   6.13970727
_cell_length_b   15.32285718
_cell_length_c   7.07529426
_cell_angle_alpha   29.79460921
_cell_angle_beta   115.67982692
_cell_angle_gamma   119.93984021
_symmetry_Int_Tables_number   1
_chemical_formula_structural   LiMg9B20
_chemical_formula_sum   'Li1 Mg9 B20'
_cell_volume   286.60761886
_cell_formula_units_Z   1
loop_
 _symmetry_equiv_pos_site_id
 _symmetry_equiv_pos_as_xyz
  1  'x, y, z'
loop_
 _atom_site_type_symbol
 _atom_site_label
 _atom_site_symmetry_multiplicity
 _atom_site_fract_x
 _atom_site_fract_y
 _atom_site_fract_z
 _atom_site_occupancy
  B  B0  1  0.16684620  0.93332838  0.49976070  1
  B  B1  1  0.16576876  0.73320889  0.49957791  1
  B  B2  1  0.33479149  0.86802186  0.49851381  1
  B  B3  1  0.16675021  0.53363791  0.49907186  1
  B  B4  1  0.33492475  0.66664626  0.50028921  1
  B  B5  1  0.66507511  0.93335360  0.49971095  1
  B  B6  1  0.33535816  0.46770537  0.49992705  1
  B  B7  1  0.66520881  0.73197812  0.50148622  1
  B  B8  1  0.16567083  0.33262768  0.50102362  1
  B  B9  1  0.83423143  0.86679100  0.50042245  1
  B  B10  1  0.66504233  0.53337995  0.49970959  1
  B  B11  1  0.83315418  0.66667171  0.50023917  1
  B  B12  1  0.16510818  0.13252199  0.50028786  1
  B  B13  1  0.33473337  0.26688096  0.50075605  1
  B  B14  1  0.83489185  0.46747781  0.49971251  1
  B  B15  1  0.66526655  0.33311877  0.49924420  1
  B  B16  1  0.33495772  0.06662009  0.50029030  1
  B  B17  1  0.66464174  0.13229463  0.50007284  1
  B  B18  1  0.83432911  0.26737233  0.49897609  1
  B  B19  1  0.83324952  0.06636192  0.50092827  1
  Li  Li20  1  0.50000011  0.80000000  0.99999980  1
  Mg  Mg21  1  0.99999980  0.79999990  0.00000015  1
  Mg  Mg22  1  0.99989581  0.40025805  0.99937383  1
  Mg  Mg23  1  0.50023951  0.60173630  0.99950413  1
  Mg  Mg24  1  0.00010378  0.19974183  0.00062671  1
  Mg  Mg25  1  0.50029875  0.40153269  0.99649492  1
  Mg  Mg26  1  0.99630338  0.99820963  0.00064487  1
  Mg  Mg27  1  0.00369703  0.60179141  0.99935389  1
  Mg  Mg28  1  0.49970094  0.19846852  0.00350321  1
  Mg  Mg29  1  0.49976058  0.99826243  0.00049786  1
