# generated using pymatgen
data_SrNd5S8
_symmetry_space_group_name_H-M   'P 1'
_cell_length_a   7.48371954
_cell_length_b   7.48372026
_cell_length_c   7.48371937
_cell_angle_alpha   109.48423423
_cell_angle_beta   109.44519527
_cell_angle_gamma   109.48423732
_symmetry_Int_Tables_number   1
_chemical_formula_structural   SrNd5S8
_chemical_formula_sum   'Sr1 Nd5 S8'
_cell_volume   322.64918680
_cell_formula_units_Z   1
loop_
 _symmetry_equiv_pos_site_id
 _symmetry_equiv_pos_as_xyz
  1  'x, y, z'
loop_
 _atom_site_type_symbol
 _atom_site_label
 _atom_site_symmetry_multiplicity
 _atom_site_fract_x
 _atom_site_fract_y
 _atom_site_fract_z
 _atom_site_occupancy
  Nd  Nd0  1  0.24692020  0.62319821  0.37159671  1
  Nd  Nd1  1  0.37500000  0.25000000  0.62500000  1
  Nd  Nd2  1  0.74839850  0.87680179  0.12372199  1
  Nd  Nd3  1  0.62840329  0.37532349  0.25160150  1
  Nd  Nd4  1  0.87627801  0.12467651  0.75307980  1
  S  S5  1  0.99694762  0.85358746  0.49321219  1
  S  S6  1  0.15028176  0.15466429  0.15359791  1
  S  S7  1  0.50678781  0.00373542  0.36037527  1
  S  S8  1  0.35663984  0.49626458  0.00305238  1
  S  S9  1  0.63962473  0.64641254  0.64336016  1
  S  S10  1  0.50438254  0.00331615  0.84971824  1
  S  S11  1  0.84640209  0.49668385  0.00106639  1
  S  S12  1  0.99893361  0.34533571  0.49561746  1
  Sr  Sr13  1  0.12500000  0.75000000  0.87500000  1
