# generated using pymatgen
data_V2Cu3O8
_symmetry_space_group_name_H-M   'P 1'
_cell_length_a   5.13805030
_cell_length_b   5.78182978
_cell_length_c   6.58290439
_cell_angle_alpha   70.02941296
_cell_angle_beta   87.36803677
_cell_angle_gamma   67.58699693
_symmetry_Int_Tables_number   1
_chemical_formula_structural   V2Cu3O8
_chemical_formula_sum   'V2 Cu3 O8'
_cell_volume   169.11501418
_cell_formula_units_Z   1
loop_
 _symmetry_equiv_pos_site_id
 _symmetry_equiv_pos_as_xyz
  1  'x, y, z'
loop_
 _atom_site_type_symbol
 _atom_site_label
 _atom_site_symmetry_multiplicity
 _atom_site_fract_x
 _atom_site_fract_y
 _atom_site_fract_z
 _atom_site_occupancy
  O  O0  1  0.62166752  0.87132968  0.37268268  1
  O  O1  1  0.37833191  0.12867033  0.62731756  1
  O  O2  1  0.78379229  0.80592799  0.96279741  1
  O  O3  1  0.21620672  0.19407354  0.03720266  1
  O  O4  1  0.68450140  0.33181557  0.84492820  1
  O  O5  1  0.86537863  0.35205031  0.34797842  1
  O  O6  1  0.31549869  0.66818202  0.15507122  1
  O  O7  1  0.13462065  0.64795093  0.65201952  1
  V  V8  1  0.64002692  0.67174074  0.21050056  1
  V  V9  1  0.35997237  0.32825957  0.78949936  1
  Cu  Cu10  1  0.73909768  0.82571161  0.66491340  1
  Cu  Cu11  1  0.26090235  0.17428878  0.33508682  1
  Cu  Cu12  1  -0.00000013  -0.00000006  0.00000019  1
