# generated using pymatgen
data_KNaP2H2O7
_symmetry_space_group_name_H-M   'P 1'
_cell_length_a   8.01695345
_cell_length_b   8.03892261
_cell_length_c   11.48029459
_cell_angle_alpha   73.51250488
_cell_angle_beta   84.69608198
_cell_angle_gamma   90.06560230
_symmetry_Int_Tables_number   1
_chemical_formula_structural   KNaP2H2O7
_chemical_formula_sum   'K4 Na4 P8 H8 O28'
_cell_volume   706.12754533
_cell_formula_units_Z   4
loop_
 _symmetry_equiv_pos_site_id
 _symmetry_equiv_pos_as_xyz
  1  'x, y, z'
loop_
 _atom_site_type_symbol
 _atom_site_label
 _atom_site_symmetry_multiplicity
 _atom_site_fract_x
 _atom_site_fract_y
 _atom_site_fract_z
 _atom_site_occupancy
  K  K0  1  0.77713926  0.35312174  0.43614838  1
  K  K1  1  0.22286074  0.64687826  0.56385162  1
  K  K2  1  0.66059845  0.23509579  0.06332196  1
  K  K3  1  0.33940155  0.76490421  0.93667804  1
  Na  Na4  1  0.33202895  0.14855673  0.42002208  1
  Na  Na5  1  0.66797105  0.85144327  0.57997792  1
  Na  Na6  1  0.87635055  0.78967807  0.07693360  1
  Na  Na7  1  0.12364945  0.21032193  0.92306640  1
  P  P8  1  0.55132794  0.84093843  0.29320944  1
  P  P9  1  0.44867206  0.15906157  0.70679056  1
  P  P10  1  0.21644598  0.93141228  0.21059202  1
  P  P11  1  0.78355402  0.06858772  0.78940798  1
  P  P12  1  0.14764914  0.55300349  0.28600817  1
  P  P13  1  0.85235086  0.44699651  0.71399183  1
  P  P14  1  0.50817738  0.52897401  0.20921595  1
  P  P15  1  0.49182262  0.47102599  0.79078405  1
  O  O16  1  0.42098679  0.92171415  0.19115870  1
  O  O17  1  0.57901321  0.07828585  0.80884130  1
  O  O18  1  0.16605139  0.74414893  0.30954933  1
  O  O19  1  0.83394861  0.25585107  0.69045067  1
  O  O20  1  0.30956700  0.55746043  0.18756736  1
  O  O21  1  0.69043300  0.44253957  0.81243264  1
  O  O22  1  0.53311707  0.63213711  0.31110399  1
  O  O23  1  0.46688293  0.36786289  0.68889601  1
  O  O24  1  0.72155770  0.90805044  0.23187560  1
  O  O25  1  0.27844230  0.09194956  0.76812440  1
  O  O26  1  0.49109462  0.86778342  0.41388807  1
  O  O27  1  0.50890538  0.13221658  0.58611193  1
  O  O28  1  0.15477383  0.94206836  0.08947058  1
  O  O29  1  0.84522617  0.05793164  0.91052942  1
  O  O30  1  0.17109879  0.06706141  0.27405875  1
  O  O31  1  0.82890121  0.93293859  0.72594125  1
  O  O32  1  0.16622862  0.42228967  0.40587617  1
  O  O33  1  0.83377138  0.57771033  0.59412383  1
  O  O34  1  0.99423149  0.54963919  0.22088950  1
  O  O35  1  0.00576851  0.45036081  0.77911050  1
  O  O36  1  0.53533732  0.34148606  0.27146987  1
  O  O37  1  0.46466268  0.65851394  0.72853013  1
  O  O38  1  0.60416852  0.61893182  0.08957891  1
  O  O39  1  0.39583148  0.38106818  0.91042109  1
  O  O40  1  0.85525666  0.02859040  0.41392828  1
  O  O41  1  0.14474334  0.97140960  0.58607172  1
  O  O42  1  0.98780994  0.29985389  0.09292138  1
  O  O43  1  0.01219006  0.70014611  0.90707862  1
  H  H44  1  0.80865792  0.99571826  0.34649047  1
  H  H45  1  0.19134208  0.00428174  0.65350953  1
  H  H46  1  0.97644740  0.03163863  0.39024984  1
  H  H47  1  0.02355260  0.96836137  0.60975016  1
  H  H48  1  0.98965314  0.40652269  0.11904768  1
  H  H49  1  0.01034686  0.59347731  0.88095232  1
  H  H50  1  0.04161131  0.21655640  0.15824657  1
  H  H51  1  0.95838869  0.78344360  0.84175343  1
