# generated using pymatgen
data_P(HO)3
_symmetry_space_group_name_H-M   'P 1'
_cell_length_a   7.96270052
_cell_length_b   10.98541308
_cell_length_c   7.56944636
_cell_angle_alpha   90.00000000
_cell_angle_beta   90.00000000
_cell_angle_gamma   89.83762253
_symmetry_Int_Tables_number   1
_chemical_formula_structural   P(HO)3
_chemical_formula_sum   'P8 H24 O24'
_cell_volume   662.12371947
_cell_formula_units_Z   8
loop_
 _symmetry_equiv_pos_site_id
 _symmetry_equiv_pos_as_xyz
  1  'x, y, z'
loop_
 _atom_site_type_symbol
 _atom_site_label
 _atom_site_symmetry_multiplicity
 _atom_site_fract_x
 _atom_site_fract_y
 _atom_site_fract_z
 _atom_site_occupancy
  P  P0  1  0.49455121  0.38788693  0.02060715  1
  P  P1  1  0.50544879  0.61211307  0.52060715  1
  P  P2  1  0.00591991  0.88645234  0.51929430  1
  P  P3  1  0.99408009  0.11354766  0.01929430  1
  P  P4  1  0.55402704  0.11743719  0.45469838  1
  P  P5  1  0.44597296  0.88256281  0.95469838  1
  P  P6  1  0.94574637  0.61728132  0.95604528  1
  P  P7  1  0.05425363  0.38271868  0.45604528  1
  H  H8  1  0.75411025  0.46181089  0.97389752  1
  H  H9  1  0.24588975  0.53818911  0.47389752  1
  H  H10  1  0.74583843  0.95942920  0.47313193  1
  H  H11  1  0.25416157  0.04057080  0.97313193  1
  H  H12  1  0.33593687  0.23561777  0.92001661  1
  H  H13  1  0.66406313  0.76438223  0.42001661  1
  H  H14  1  0.16592633  0.73393886  0.41902283  1
  H  H15  1  0.83407367  0.26606114  0.91902283  1
  H  H16  1  0.47391311  0.59359435  0.95734688  1
  H  H17  1  0.52608689  0.40640565  0.45734688  1
  H  H18  1  0.02512729  0.09258989  0.45891057  1
  H  H19  1  0.97487271  0.90741011  0.95891057  1
  H  H20  1  0.48012480  0.25956178  0.65420827  1
  H  H21  1  0.51987520  0.74043822  0.15420827  1
  H  H22  1  0.02099065  0.75934849  0.15457617  1
  H  H23  1  0.97900935  0.24065151  0.65457617  1
  H  H24  1  0.55976135  0.08134146  0.16789005  1
  H  H25  1  0.44023865  0.91865854  0.66789005  1
  H  H26  1  0.93849913  0.58060310  0.66928539  1
  H  H27  1  0.06150087  0.41939690  0.16928539  1
  H  H28  1  0.28041235  0.04041113  0.47481033  1
  H  H29  1  0.71958765  0.95958887  0.97481033  1
  H  H30  1  0.21973406  0.53982549  0.97391293  1
  H  H31  1  0.78026594  0.46017451  0.47391293  1
  O  O32  1  0.69129221  0.38552115  0.94494054  1
  O  O33  1  0.30870779  0.61447885  0.44494054  1
  O  O34  1  0.80981924  0.88428360  0.44109701  1
  O  O35  1  0.19018076  0.11571640  0.94109701  1
  O  O36  1  0.42374274  0.29106657  0.87236970  1
  O  O37  1  0.57625726  0.70893343  0.37236970  1
  O  O38  1  0.07936531  0.79097365  0.37061414  1
  O  O39  1  0.92063469  0.20902635  0.87061414  1
  O  O40  1  0.42431924  0.51430495  0.92144072  1
  O  O41  1  0.57568076  0.48569505  0.42144072  1
  O  O42  1  0.07585080  0.01353798  0.42252954  1
  O  O43  1  0.92414920  0.98646202  0.92252954  1
  O  O44  1  0.49675935  0.25332452  0.52360744  1
  O  O45  1  0.50324065  0.74667548  0.02360744  1
  O  O46  1  0.00296490  0.75304726  0.02418895  1
  O  O47  1  0.99703510  0.24695274  0.52418895  1
  O  O48  1  0.51554145  0.14532424  0.24927274  1
  O  O49  1  0.48445855  0.85467576  0.74927274  1
  O  O50  1  0.98252813  0.64477081  0.75035262  1
  O  O51  1  0.01747187  0.35522919  0.25035262  1
  O  O52  1  0.39856014  0.03105510  0.52073071  1
  O  O53  1  0.60143986  0.96894490  0.02073071  1
  O  O54  1  0.10188614  0.53053212  0.02096531  1
  O  O55  1  0.89811386  0.46946788  0.52096431  1
