# generated using pymatgen
data_Ca3TiAl2Si3O13F2
_symmetry_space_group_name_H-M   'P 1'
_cell_length_a   5.42390499
_cell_length_b   16.29652792
_cell_length_c   7.06792620
_cell_angle_alpha   104.72872241
_cell_angle_beta   104.63878297
_cell_angle_gamma   105.57465992
_symmetry_Int_Tables_number   1
_chemical_formula_structural   Ca3TiAl2Si3O13F2
_chemical_formula_sum   'Ca6 Ti2 Al4 Si6 O26 F4'
_cell_volume   546.38801225
_cell_formula_units_Z   2
loop_
 _symmetry_equiv_pos_site_id
 _symmetry_equiv_pos_as_xyz
  1  'x, y, z'
loop_
 _atom_site_type_symbol
 _atom_site_label
 _atom_site_symmetry_multiplicity
 _atom_site_fract_x
 _atom_site_fract_y
 _atom_site_fract_z
 _atom_site_occupancy
  Al  Al0  1  0.49823398  0.83099077  0.49658310  1
  Al  Al1  1  0.49853931  0.83179899  0.99779889  1
  Al  Al2  1  0.50176602  0.50234223  0.50341690  1
  Al  Al3  1  0.50146069  0.50153401  0.00220111  1
  Ca  Ca4  1  0.16100734  0.94170376  0.74912343  1
  Ca  Ca5  1  0.16442176  0.61299063  0.74892454  1
  Ca  Ca6  1  0.17149004  0.27928150  0.75298505  1
  Ca  Ca7  1  0.83557824  0.72034337  0.25107546  1
  Ca  Ca8  1  0.83899266  0.39162924  0.25087657  1
  Ca  Ca9  1  0.82850996  0.05405150  0.24701495  1
  F  F10  1  0.43283450  0.85490461  0.74772363  1
  F  F11  1  0.43517388  0.52523289  0.75361744  1
  F  F12  1  0.56482612  0.80810011  0.24638256  1
  F  F13  1  0.56716550  0.47842839  0.25227637  1
  O  O14  1  0.12938822  0.75311594  0.90172676  1
  O  O15  1  0.19629617  0.86639386  0.38501988  1
  O  O16  1  0.13442832  0.42321436  0.90846058  1
  O  O17  1  0.26060974  0.70984627  0.40510097  1
  O  O18  1  0.38793902  0.93106523  0.10853549  1
  O  O19  1  0.19955762  0.53740025  0.39050704  1
  O  O20  1  0.60694877  0.73188330  0.88647545  1
  O  O21  1  0.73927410  0.95270966  0.58751535  1
  O  O22  1  0.11767497  0.08107791  0.91033018  1
  O  O23  1  0.26072590  0.38062434  0.41248465  1
  O  O24  1  0.39305123  0.60144970  0.11352455  1
  O  O25  1  0.18600544  0.20586445  0.38464479  1
  O  O26  1  0.80044238  0.79593375  0.60949296  1
  O  O27  1  0.61206098  0.40226877  0.89146451  1
  O  O28  1  0.73939026  0.62348673  0.59489903  1
  O  O29  1  0.42477961  0.18896225  0.74896459  1
  O  O30  1  0.86557168  0.91011864  0.09153942  1
  O  O31  1  0.25215033  0.03766213  0.40275443  1
  O  O32  1  0.39615069  0.27449502  0.12044867  1
  O  O33  1  0.80370383  0.46693914  0.61498012  1
  O  O34  1  0.60384931  0.05883798  0.87955133  1
  O  O35  1  0.74784967  0.29567087  0.59724557  1
  O  O36  1  0.87061178  0.58021706  0.09827324  1
  O  O37  1  0.57522039  0.14437175  0.25103541  1
  O  O38  1  0.81399456  0.12746855  0.61535521  1
  O  O39  1  0.88232503  0.25225609  0.08966982  1
  Si  Si40  1  0.17899457  0.93343477  0.24409920  1
  Si  Si41  1  0.18649232  0.60522124  0.25092615  1
  Si  Si42  1  0.18920328  0.27725828  0.25586795  1
  Si  Si43  1  0.81350768  0.72811176  0.74907385  1
  Si  Si44  1  0.82100543  0.39989823  0.75590080  1
  Si  Si45  1  0.81079672  0.05607572  0.74413205  1
  Ti  Ti46  1  0.50000000  0.16666700  0.50000000  1
  Ti  Ti47  1  0.50000000  0.16666700  0.00000000  1
