# generated using pymatgen
data_BaTi2O5
_symmetry_space_group_name_H-M   'P 1'
_cell_length_a   3.91524596
_cell_length_b   8.75671591
_cell_length_c   9.69479553
_cell_angle_alpha   102.55554760
_cell_angle_beta   90.00000000
_cell_angle_gamma   102.91802459
_symmetry_Int_Tables_number   1
_chemical_formula_structural   BaTi2O5
_chemical_formula_sum   'Ba3 Ti6 O15'
_cell_volume   315.81044406
_cell_formula_units_Z   3
loop_
 _symmetry_equiv_pos_site_id
 _symmetry_equiv_pos_as_xyz
  1  'x, y, z'
loop_
 _atom_site_type_symbol
 _atom_site_label
 _atom_site_symmetry_multiplicity
 _atom_site_fract_x
 _atom_site_fract_y
 _atom_site_fract_z
 _atom_site_occupancy
  O  O0  1  0.00000000  0.00000000  0.00000000  1
  O  O1  1  0.05824878  0.11649755  0.71070175  1
  O  O2  1  0.94175122  0.88350245  0.28929825  1
  O  O3  1  0.21057210  0.42114420  0.87867395  1
  O  O4  1  0.78942790  0.57885580  0.12132605  1
  O  O5  1  0.26427886  0.52855772  0.60017475  1
  O  O6  1  0.73572114  0.47144228  0.39982525  1
  O  O7  1  0.32436182  0.64872364  0.33765237  1
  O  O8  1  0.67563818  0.35127636  0.66234763  1
  O  O9  1  0.53352311  0.06704623  0.20672461  1
  O  O10  1  0.46647689  0.93295377  0.79327539  1
  O  O11  1  0.10671741  0.21343482  0.42265434  1
  O  O12  1  0.89328259  0.78656518  0.57734566  1
  O  O13  1  0.15217873  0.30435745  0.18782166  1
  O  O14  1  0.84782127  0.69564255  0.81217834  1
  Ti  Ti15  1  0.16726408  0.33452816  0.69861203  1
  Ti  Ti16  1  0.83273592  0.66547184  0.30138797  1
  Ti  Ti17  1  0.79497189  0.58994377  0.62645876  1
  Ti  Ti18  1  0.20502811  0.41005623  0.37354124  1
  Ti  Ti19  1  0.96207815  0.92415631  0.79115659  1
  Ti  Ti20  1  0.03792185  0.07584369  0.20884341  1
  Ba  Ba21  1  0.50000000  0.00000000  0.50000000  1
  Ba  Ba22  1  0.63133003  0.26266005  0.98680549  1
  Ba  Ba23  1  0.36866997  0.73733995  0.01319451  1
