# generated using pymatgen
data_Sm5AgS8
_symmetry_space_group_name_H-M   'P 1'
_cell_length_a   7.35542159
_cell_length_b   7.35542102
_cell_length_c   7.35542164
_cell_angle_alpha   109.68138141
_cell_angle_beta   109.68138056
_cell_angle_gamma   109.05171478
_symmetry_Int_Tables_number   1
_chemical_formula_structural   Sm5AgS8
_chemical_formula_sum   'Sm5 Ag1 S8'
_cell_volume   306.32562696
_cell_formula_units_Z   1
loop_
 _symmetry_equiv_pos_site_id
 _symmetry_equiv_pos_as_xyz
  1  'x, y, z'
loop_
 _atom_site_type_symbol
 _atom_site_label
 _atom_site_symmetry_multiplicity
 _atom_site_fract_x
 _atom_site_fract_y
 _atom_site_fract_z
 _atom_site_occupancy
  Ag  Ag0  1  0.87500000  0.12500000  0.75000000  1
  S  S1  1  0.99364167  0.85279139  0.49875815  1
  S  S2  1  0.00695196  0.36592004  0.49041130  1
  S  S3  1  0.14720861  0.14596676  0.14085028  1
  S  S4  1  0.37550874  0.51654066  0.00958870  1
  S  S5  1  0.48345934  0.99304804  0.85896808  1
  S  S6  1  0.63407996  0.62449126  0.64103192  1
  S  S7  1  0.50511647  0.00635833  0.35914972  1
  S  S8  1  0.85403324  0.49488353  0.00124185  1
  Sm  Sm9  1  0.11006197  0.74595749  0.86801856  1
  Sm  Sm10  1  0.25404251  0.62206107  0.36410448  1
  Sm  Sm11  1  0.37793893  0.24204341  0.63198144  1
  Sm  Sm12  1  0.62500000  0.37500000  0.25000000  1
  Sm  Sm13  1  0.75795659  0.88993803  0.13589552  1
