# generated using pymatgen
data_Eu3Sn2S7
_symmetry_space_group_name_H-M   'P 1'
_cell_length_a   3.99610885
_cell_length_b   11.40130511
_cell_length_c   12.66061769
_cell_angle_alpha   90.00000000
_cell_angle_beta   90.00000000
_cell_angle_gamma   90.00000000
_symmetry_Int_Tables_number   1
_chemical_formula_structural   Eu3Sn2S7
_chemical_formula_sum   'Eu6 Sn4 S14'
_cell_volume   576.82858263
_cell_formula_units_Z   2
loop_
 _symmetry_equiv_pos_site_id
 _symmetry_equiv_pos_as_xyz
  1  'x, y, z'
loop_
 _atom_site_type_symbol
 _atom_site_label
 _atom_site_symmetry_multiplicity
 _atom_site_fract_x
 _atom_site_fract_y
 _atom_site_fract_z
 _atom_site_occupancy
  Eu  Eu0  1  0.00000000  0.00000000  0.50000000  1
  Eu  Eu1  1  0.00000000  0.50000000  0.00000000  1
  Eu  Eu2  1  0.00000000  0.38312291  0.65179912  1
  Eu  Eu3  1  0.00000000  0.61687709  0.34820088  1
  Eu  Eu4  1  0.00000000  0.88312291  0.84820088  1
  Eu  Eu5  1  0.00000000  0.11687709  0.15179912  1
  Sn  Sn6  1  0.50000000  0.28693195  0.39103060  1
  Sn  Sn7  1  0.50000000  0.71306805  0.60896940  1
  Sn  Sn8  1  0.50000000  0.78693195  0.10896940  1
  Sn  Sn9  1  0.50000000  0.21306805  0.89103060  1
  S  S10  1  0.00000000  0.35501690  0.28719731  1
  S  S11  1  0.00000000  0.64498310  0.71280269  1
  S  S12  1  0.00000000  0.85501690  0.21280269  1
  S  S13  1  0.00000000  0.14498310  0.78719731  1
  S  S14  1  0.50000000  0.29772232  0.06976492  1
  S  S15  1  0.50000000  0.70227768  0.93023508  1
  S  S16  1  0.50000000  0.79772232  0.43023508  1
  S  S17  1  0.50000000  0.20227768  0.56976492  1
  S  S18  1  0.50000000  0.08041157  0.32135350  1
  S  S19  1  0.50000000  0.91958843  0.67864650  1
  S  S20  1  0.50000000  0.58041157  0.17864650  1
  S  S21  1  0.50000000  0.41958843  0.82135350  1
  S  S22  1  0.50000000  0.00000000  0.00000000  1
  S  S23  1  0.50000000  0.50000000  0.50000000  1
