# generated using pymatgen
data_CaAl2Si2(H2O5)2
_symmetry_space_group_name_H-M   'P 1'
_cell_length_a   5.93373861
_cell_length_b   8.85402171
_cell_length_c   13.22237950
_cell_angle_alpha   90.00000000
_cell_angle_beta   90.00000000
_cell_angle_gamma   90.00000000
_symmetry_Int_Tables_number   1
_chemical_formula_structural   CaAl2Si2(H2O5)2
_chemical_formula_sum   'Ca4 Al8 Si8 H16 O40'
_cell_volume   694.67010814
_cell_formula_units_Z   4
loop_
 _symmetry_equiv_pos_site_id
 _symmetry_equiv_pos_as_xyz
  1  'x, y, z'
loop_
 _atom_site_type_symbol
 _atom_site_label
 _atom_site_symmetry_multiplicity
 _atom_site_fract_x
 _atom_site_fract_y
 _atom_site_fract_z
 _atom_site_occupancy
  Ca  Ca0  1  0.75000000  0.08244884  0.25150461  1
  Ca  Ca1  1  0.25000000  0.91755116  0.74849539  1
  Ca  Ca2  1  0.25000000  0.58244884  0.24849539  1
  Ca  Ca3  1  0.75000000  0.41755116  0.75150461  1
  Al  Al4  1  0.00000000  0.00000000  0.00000000  1
  Al  Al5  1  0.50000000  0.00000000  0.00000000  1
  Al  Al6  1  0.00000000  0.50000000  0.50000000  1
  Al  Al7  1  0.50000000  0.50000000  0.50000000  1
  Al  Al8  1  0.00000000  0.00000000  0.50000000  1
  Al  Al9  1  0.50000000  0.00000000  0.50000000  1
  Al  Al10  1  0.00000000  0.50000000  0.00000000  1
  Al  Al11  1  0.50000000  0.50000000  0.00000000  1
  Si  Si12  1  0.75000000  0.73011245  0.13102928  1
  Si  Si13  1  0.25000000  0.26988755  0.86897072  1
  Si  Si14  1  0.25000000  0.23011245  0.36897072  1
  Si  Si15  1  0.75000000  0.76988755  0.63102928  1
  Si  Si16  1  0.75000000  0.72730003  0.36503447  1
  Si  Si17  1  0.25000000  0.27269997  0.63496553  1
  Si  Si18  1  0.25000000  0.22730003  0.13496553  1
  Si  Si19  1  0.75000000  0.77269997  0.86503447  1
  O  O20  1  0.75000000  0.79950008  0.24826298  1
  O  O21  1  0.25000000  0.20049992  0.75173702  1
  O  O22  1  0.25000000  0.29950008  0.25173702  1
  O  O23  1  0.75000000  0.70049992  0.74826298  1
  O  O24  1  0.02743090  0.12000903  0.12136783  1
  O  O25  1  0.52743090  0.87999097  0.87863217  1
  O  O26  1  0.97256910  0.62000903  0.37863217  1
  O  O27  1  0.47256910  0.37999097  0.62136783  1
  O  O28  1  0.97256910  0.87999097  0.87863217  1
  O  O29  1  0.47256910  0.12000903  0.12136783  1
  O  O30  1  0.02743090  0.37999097  0.62136783  1
  O  O31  1  0.52743090  0.62000903  0.37863217  1
  O  O32  1  0.02136888  0.12988662  0.38489112  1
  O  O33  1  0.52136888  0.87011338  0.61510888  1
  O  O34  1  0.97863112  0.62988662  0.11510888  1
  O  O35  1  0.47863112  0.37011338  0.88489112  1
  O  O36  1  0.97863112  0.87011338  0.61510888  1
  O  O37  1  0.47863112  0.12988662  0.38489112  1
  O  O38  1  0.02136888  0.37011338  0.88489112  1
  O  O39  1  0.52136888  0.62988662  0.11510888  1
  O  O40  1  0.75000000  0.88720417  0.06224589  1
  O  O41  1  0.25000000  0.11279583  0.93775411  1
  O  O42  1  0.25000000  0.38720417  0.43775411  1
  O  O43  1  0.75000000  0.61279583  0.56224589  1
  O  O44  1  0.75000000  0.88472932  0.43367989  1
  O  O45  1  0.25000000  0.11527068  0.56632011  1
  O  O46  1  0.25000000  0.38472932  0.06632011  1
  O  O47  1  0.75000000  0.61527068  0.93367989  1
  O  O48  1  0.75000000  0.39018350  0.05176253  1
  O  O49  1  0.25000000  0.60981650  0.94823747  1
  O  O50  1  0.25000000  0.89018350  0.44823747  1
  O  O51  1  0.75000000  0.10981650  0.55176253  1
  O  O52  1  0.75000000  0.37953770  0.46242507  1
  O  O53  1  0.25000000  0.62046230  0.53757493  1
  O  O54  1  0.25000000  0.87953770  0.03757493  1
  O  O55  1  0.75000000  0.12046230  0.96242507  1
  O  O56  1  0.75000000  0.35506436  0.24688315  1
  O  O57  1  0.25000000  0.64493564  0.75311685  1
  O  O58  1  0.25000000  0.85506436  0.25311685  1
  O  O59  1  0.75000000  0.14493564  0.74688315  1
  H  H60  1  0.75000000  0.38409779  0.17283525  1
  H  H61  1  0.25000000  0.61590221  0.82716475  1
  H  H62  1  0.25000000  0.88409779  0.32716475  1
  H  H63  1  0.75000000  0.11590221  0.67283525  1
  H  H64  1  0.75000000  0.44681446  0.28776724  1
  H  H65  1  0.25000000  0.55318554  0.71223276  1
  H  H66  1  0.25000000  0.94681446  0.21223276  1
  H  H67  1  0.75000000  0.05318554  0.78776724  1
  H  H68  1  0.75000000  0.28170118  0.03132890  1
  H  H69  1  0.25000000  0.71829882  0.96867110  1
  H  H70  1  0.25000000  0.78170118  0.46867110  1
  H  H71  1  0.75000000  0.21829882  0.53132890  1
  H  H72  1  0.75000000  0.31290253  0.40388679  1
  H  H73  1  0.25000000  0.68709747  0.59611321  1
  H  H74  1  0.25000000  0.81290253  0.09611321  1
  H  H75  1  0.75000000  0.18709747  0.90388679  1
