# generated using pymatgen
data_Li4Ni5(P3O11)2
_symmetry_space_group_name_H-M   'P 1'
_cell_length_a   12.53550090
_cell_length_b   6.53050760
_cell_length_c   10.54965926
_cell_angle_alpha   90.00000000
_cell_angle_beta   103.96065705
_cell_angle_gamma   90.00000000
_symmetry_Int_Tables_number   1
_chemical_formula_structural   Li4Ni5(P3O11)2
_chemical_formula_sum   'Li8 Ni10 P12 O44'
_cell_volume   838.11850088
_cell_formula_units_Z   2
loop_
 _symmetry_equiv_pos_site_id
 _symmetry_equiv_pos_as_xyz
  1  'x, y, z'
loop_
 _atom_site_type_symbol
 _atom_site_label
 _atom_site_symmetry_multiplicity
 _atom_site_fract_x
 _atom_site_fract_y
 _atom_site_fract_z
 _atom_site_occupancy
  Li  Li0  1  0.17754807  0.37940976  0.05515331  1
  Li  Li1  1  0.82245193  0.87940976  0.44484669  1
  Li  Li2  1  0.34383497  0.97614145  0.37280932  1
  Li  Li3  1  0.65616503  0.47614145  0.12719068  1
  Li  Li4  1  0.65616503  0.02385855  0.62719068  1
  Li  Li5  1  0.82245193  0.62059024  0.94484669  1
  Li  Li6  1  0.34383497  0.52385855  0.87280932  1
  Li  Li7  1  0.17754807  0.12059024  0.55515331  1
  Ni  Ni8  1  0.13310748  0.75977939  0.78069655  1
  Ni  Ni9  1  0.66582951  0.48764168  0.69597168  1
  Ni  Ni10  1  0.33417049  0.98764168  0.80402832  1
  Ni  Ni11  1  0.33417049  0.51235832  0.30402832  1
  Ni  Ni12  1  0.86689252  0.24022061  0.21930345  1
  Ni  Ni13  1  -0.00000000  0.50000000  0.50000000  1
  Ni  Ni14  1  0.13310748  0.74022061  0.28069655  1
  Ni  Ni15  1  0.66582951  0.01235832  0.19597168  1
  Ni  Ni16  1  0.86689252  0.25977939  0.71930345  1
  Ni  Ni17  1  -0.00000000  -0.00000000  -0.00000000  1
  P  P18  1  0.41807540  0.21762551  0.08603662  1
  P  P19  1  0.58192460  0.78237449  0.91396338  1
  P  P20  1  0.91347870  0.73400013  0.22383129  1
  P  P21  1  0.58192460  0.71762551  0.41396338  1
  P  P22  1  0.91347870  0.76599987  0.72383129  1
  P  P23  1  0.08652130  0.26599987  0.77616871  1
  P  P24  1  0.74089065  0.10540992  0.93375434  1
  P  P25  1  0.74089065  0.39459008  0.43375434  1
  P  P26  1  0.08652130  0.23400013  0.27616871  1
  P  P27  1  0.25910935  0.60540992  0.56624566  1
  P  P28  1  0.41807540  0.28237449  0.58603662  1
  P  P29  1  0.25910935  0.89459008  0.06624566  1
  O  O30  1  0.35162948  0.11651428  0.63589179  1
  O  O31  1  0.99351785  0.72657902  0.63261353  1
  O  O32  1  0.37620608  0.50178586  0.63228225  1
  O  O33  1  0.16092115  0.04887797  0.33080603  1
  O  O34  1  0.00042818  0.20179484  0.14241161  1
  O  O35  1  0.83976381  0.58202450  0.74347990  1
  O  O36  1  0.72860526  0.20368345  0.06333128  1
  O  O37  1  0.83907885  0.54887797  0.16919397  1
  O  O38  1  0.54071261  0.22267452  0.14815172  1
  O  O39  1  0.82900500  0.94079407  0.95471262  1
  O  O40  1  0.64837052  0.88348572  0.36410821  1
  O  O41  1  0.72860526  0.29631655  0.56333128  1
  O  O42  1  0.99957182  0.79820516  0.85758839  1
  O  O43  1  0.27139474  0.70368345  0.43666872  1
  O  O44  1  0.38695245  0.27739654  0.43502748  1
  O  O45  1  0.37620608  0.99821414  0.13228225  1
  O  O46  1  0.35162948  0.38348572  0.13589179  1
  O  O47  1  0.27139474  0.79631655  0.93666872  1
  O  O48  1  0.99351785  0.77342098  0.13261353  1
  O  O49  1  0.00648215  0.27342098  0.36738647  1
  O  O50  1  0.17099500  0.44079407  0.54528738  1
  O  O51  1  0.16023619  0.08202450  0.75652010  1
  O  O52  1  0.64837052  0.61651428  0.86410821  1
  O  O53  1  0.00648215  0.22657902  0.86738647  1
  O  O54  1  0.61304755  0.72260346  0.56497252  1
  O  O55  1  0.83976381  0.91797550  0.24347990  1
  O  O56  1  0.62379392  0.00178586  0.86771775  1
  O  O57  1  0.75590383  0.26705718  0.83391849  1
  O  O58  1  0.54071261  0.27732548  0.64815172  1
  O  O59  1  0.45928739  0.77732548  0.85184828  1
  O  O60  1  0.00042818  0.29820516  0.64241161  1
  O  O61  1  0.75590383  0.23294282  0.33391849  1
  O  O62  1  0.24409617  0.73294282  0.16608151  1
  O  O63  1  0.24409617  0.76705718  0.66608151  1
  O  O64  1  0.45928739  0.72267452  0.35184828  1
  O  O65  1  0.16023619  0.41797550  0.25652010  1
  O  O66  1  0.99957182  0.70179484  0.35758839  1
  O  O67  1  0.61304755  0.77739654  0.06497252  1
  O  O68  1  0.16092115  0.45112203  0.83080603  1
  O  O69  1  0.82900500  0.55920593  0.45471262  1
  O  O70  1  0.62379392  0.49821414  0.36771775  1
  O  O71  1  0.17099500  0.05920593  0.04528738  1
  O  O72  1  0.83907885  0.95112203  0.66919397  1
  O  O73  1  0.38695245  0.22260346  0.93502748  1
