# generated using pymatgen
data_LiCr(PO3)4
_symmetry_space_group_name_H-M   'P 1'
_cell_length_a   7.29552847
_cell_length_b   7.29552836
_cell_length_c   9.80060816
_cell_angle_alpha   82.75150774
_cell_angle_beta   68.64802547
_cell_angle_gamma   109.96135559
_symmetry_Int_Tables_number   1
_chemical_formula_structural   LiCr(PO3)4
_chemical_formula_sum   'Li2 Cr2 P8 O24'
_cell_volume   437.55295942
_cell_formula_units_Z   2
loop_
 _symmetry_equiv_pos_site_id
 _symmetry_equiv_pos_as_xyz
  1  'x, y, z'
loop_
 _atom_site_type_symbol
 _atom_site_label
 _atom_site_symmetry_multiplicity
 _atom_site_fract_x
 _atom_site_fract_y
 _atom_site_fract_z
 _atom_site_occupancy
  Li  Li0  1  0.21127250  0.96127250  0.75000000  1
  Li  Li1  1  0.78872750  0.03872850  0.25000000  1
  O  O2  1  0.57543698  0.78049872  0.93170783  1
  O  O3  1  0.95930585  0.34065210  0.85199067  1
  O  O4  1  0.04069515  0.65934890  0.14800833  1
  O  O5  1  0.10987034  0.80656037  0.57113960  1
  O  O6  1  0.19762810  0.67706319  0.33648645  1
  O  O7  1  0.50383101  0.85073316  0.40663823  1
  O  O8  1  0.29512290  0.69871470  0.83195100  1
  O  O9  1  0.12230003  0.31899006  0.07113860  1
  O  O10  1  0.21220755  0.50714480  0.56829217  1
  O  O11  1  0.75737139  0.91047024  0.09336177  1
  O  O12  1  0.48645136  0.46588545  0.83648545  1
  O  O13  1  0.51354864  0.53411555  0.16351355  1
  O  O14  1  0.69264277  0.81129752  0.64800833  1
  O  O15  1  0.03066571  0.12707491  0.66804900  1
  O  O16  1  0.80237090  0.32293781  0.66351355  1
  O  O17  1  0.30735623  0.18870348  0.35199167  1
  O  O18  1  0.89012966  0.19343863  0.42886040  1
  O  O19  1  0.42456302  0.21950128  0.06829217  1
  O  O20  1  0.24262861  0.08952976  0.90663823  1
  O  O21  1  0.78779345  0.49285620  0.43170683  1
  O  O22  1  0.87769897  0.68100894  0.92886240  1
  O  O23  1  0.70487510  0.30128530  0.16805000  1
  O  O24  1  0.49616899  0.14926684  0.59336177  1
  O  O25  1  0.96933429  0.87292609  0.33195000  1
  P  P26  1  0.48665358  0.30387539  0.19579292  1
  P  P27  1  0.29717444  0.25960905  0.97137094  1
  P  P28  1  0.99966931  0.68244750  0.30420708  1
  P  P29  1  0.26902002  0.73145563  0.47137094  1
  P  P30  1  0.00033169  0.31755350  0.69579292  1
  P  P31  1  0.70282656  0.74039195  0.02862806  1
  P  P32  1  0.51334642  0.69612361  0.80420708  1
  P  P33  1  0.73098098  0.26854537  0.52862906  1
  Cr  Cr34  1  0.99999900  0.00000000  0.50000000  1
  Cr  Cr35  1  0.00000000  0.50000000  0.00000000  1
