# generated using pymatgen
data_Li18Fe5N12
_symmetry_space_group_name_H-M   'P 1'
_cell_length_a   14.17954298
_cell_length_b   6.74113360
_cell_length_c   11.64151652
_cell_angle_alpha   125.09233592
_cell_angle_beta   113.87745963
_cell_angle_gamma   45.28864369
_symmetry_Int_Tables_number   1
_chemical_formula_structural   Li18Fe5N12
_chemical_formula_sum   'Li36 Fe10 N24'
_cell_volume   647.05346196
_cell_formula_units_Z   2
loop_
 _symmetry_equiv_pos_site_id
 _symmetry_equiv_pos_as_xyz
  1  'x, y, z'
loop_
 _atom_site_type_symbol
 _atom_site_label
 _atom_site_symmetry_multiplicity
 _atom_site_fract_x
 _atom_site_fract_y
 _atom_site_fract_z
 _atom_site_occupancy
  Fe  Fe0  1  0.08998118  0.99707474  0.99840539  1
  Fe  Fe1  1  0.07801466  0.01687236  0.49868419  1
  Fe  Fe2  1  0.41059813  0.99834915  0.99869411  1
  Fe  Fe3  1  0.24987439  0.99836254  0.49715120  1
  Fe  Fe4  1  0.57770363  0.01978456  0.00186761  1
  Fe  Fe5  1  0.42229637  0.98021544  0.49813239  1
  Fe  Fe6  1  0.75012561  0.00163746  0.00284880  1
  Fe  Fe7  1  0.58940187  0.00165085  0.50130589  1
  Fe  Fe8  1  0.92198534  0.98312764  0.00131581  1
  Fe  Fe9  1  0.91001882  0.00292526  0.50159461  1
  Li  Li10  1  0.08638694  0.25660062  0.75634978  1
  Li  Li11  1  0.08643327  0.25893087  0.25909353  1
  Li  Li12  1  0.08717508  0.49375580  0.49731509  1
  Li  Li13  1  0.08185271  0.73675011  0.73727390  1
  Li  Li14  1  0.24947838  0.25317967  0.75285603  1
  Li  Li15  1  0.10851154  0.41969367  0.99771700  1
  Li  Li16  1  0.07852746  0.74024756  0.24057843  1
  Li  Li17  1  0.24960554  0.20561918  0.21098024  1
  Li  Li18  1  0.25028881  0.49846981  0.49839335  1
  Li  Li19  1  0.25001937  0.78265375  0.78288484  1
  Li  Li20  1  0.41234034  0.25575228  0.75607623  1
  Li  Li21  1  0.24965531  0.49283403  0.99352138  1
  Li  Li22  1  0.25091771  0.73900402  0.23843386  1
  Li  Li23  1  0.41043779  0.25998439  0.25969031  1
  Li  Li24  1  0.41343977  0.50368894  0.49775372  1
  Li  Li25  1  0.41853978  0.73949403  0.73787768  1
  Li  Li26  1  0.58146022  0.26050597  0.76212232  1
  Li  Li27  1  0.39007546  0.57650989  0.99732765  1
  Li  Li28  1  0.42461785  0.73907326  0.24032859  1
  Li  Li29  1  0.57538215  0.26092674  0.25967141  1
  Li  Li30  1  0.60992454  0.42349011  0.50267235  1
  Li  Li31  1  0.58765966  0.74424772  0.74392377  1
  Li  Li32  1  0.74998063  0.21734625  0.71711516  1
  Li  Li33  1  0.58656023  0.49631106  0.00224628  1
  Li  Li34  1  0.58956221  0.74001561  0.24030969  1
  Li  Li35  1  0.74908229  0.26099598  0.26156614  1
  Li  Li36  1  0.75034469  0.50716597  0.50647862  1
  Li  Li37  1  0.75052162  0.74682033  0.74714397  1
  Li  Li38  1  0.91814729  0.26324989  0.76272610  1
  Li  Li39  1  0.74971119  0.50153019  0.00160665  1
  Li  Li40  1  0.75039446  0.79438082  0.28901976  1
  Li  Li41  1  0.92147254  0.25975244  0.25942157  1
  Li  Li42  1  0.89148846  0.58030633  0.50228300  1
  Li  Li43  1  0.91361306  0.74339938  0.74365022  1
  Li  Li44  1  0.91282492  0.50624420  0.00268491  1
  Li  Li45  1  0.91356673  0.74106913  0.24090647  1
  N  N46  1  0.09044135  0.33680904  0.60992851  1
  N  N47  1  0.27048255  0.10362635  0.87851862  1
  N  N48  1  0.07635131  0.34729832  0.11641986  1
  N  N49  1  0.26708154  0.09363171  0.38515188  1
  N  N50  1  0.06914413  0.90205477  0.60954596  1
  N  N51  1  0.23002108  0.64906773  0.87713165  1
  N  N52  1  0.07689462  0.88950301  0.11105325  1
  N  N53  1  0.23324895  0.68086654  0.38685423  1
  N  N54  1  0.43141789  0.31563560  0.60873428  1
  N  N55  1  0.59072344  0.11600456  0.88982917  1
  N  N56  1  0.42238233  0.33130687  0.11090102  1
  N  N57  1  0.57670352  0.11562924  0.38346724  1
  N  N58  1  0.40927656  0.88399544  0.61017083  1
  N  N59  1  0.56858211  0.68436440  0.89126572  1
  N  N60  1  0.42329648  0.88437076  0.11653276  1
  N  N61  1  0.57761767  0.66869313  0.38909898  1
  N  N62  1  0.76997892  0.35093227  0.62286835  1
  N  N63  1  0.93085587  0.09794523  0.89045404  1
  N  N64  1  0.76675105  0.31913346  0.11314577  1
  N  N65  1  0.92310538  0.11049699  0.38894675  1
  N  N66  1  0.72951745  0.89637365  0.62148138  1
  N  N67  1  0.90955865  0.66319096  0.89007149  1
  N  N68  1  0.73291846  0.90636829  0.11484812  1
  N  N69  1  0.92364869  0.65270168  0.38358014  1
