# generated using pymatgen
data_B8O
_symmetry_space_group_name_H-M   'P 1'
_cell_length_a   10.27196532
_cell_length_b   13.47711355
_cell_length_c   12.38318222
_cell_angle_alpha   23.24430482
_cell_angle_beta   36.42134543
_cell_angle_gamma   42.32326636
_symmetry_Int_Tables_number   1
_chemical_formula_structural   B8O
_chemical_formula_sum   'B48 O6'
_cell_volume   401.67825044
_cell_formula_units_Z   6
loop_
 _symmetry_equiv_pos_site_id
 _symmetry_equiv_pos_as_xyz
  1  'x, y, z'
loop_
 _atom_site_type_symbol
 _atom_site_label
 _atom_site_symmetry_multiplicity
 _atom_site_fract_x
 _atom_site_fract_y
 _atom_site_fract_z
 _atom_site_occupancy
  B  B0  1  0.41783281  0.16610559  1.00073125  1
  B  B1  1  0.10214442  0.21924243  0.35443815  1
  B  B2  1  0.37532456  0.23473488  0.20622939  1
  B  B3  1  0.16225564  0.66933649  -0.00001456  1
  B  B4  1  0.16225564  0.33066351  0.33865841  1
  B  B5  1  0.08774436  0.16933649  0.66134159  1
  B  B6  1  0.41249340  0.50000000  0.00120992  1
  B  B7  1  0.14785558  0.71924243  0.20707699  1
  B  B8  1  0.14785558  0.28075757  0.64556185  1
  B  B9  1  0.92717066  0.16961237  0.99211254  1
  B  B10  1  0.17863840  0.00000000  0.99284526  1
  B  B11  1  0.61192023  0.23993176  0.32469189  1
  B  B12  1  0.45686279  0.50000000  0.21907754  1
  B  B13  1  0.01195264  0.50000000  0.79955580  1
  B  B14  1  0.87657415  0.23825400  0.20335188  1
  B  B15  1  0.65524391  0.66493499  0.00927429  1
  B  B16  1  0.65524391  0.33506501  0.33914427  1
  B  B17  1  0.59475609  0.16493499  0.66085573  1
  B  B18  1  0.37342585  0.26174600  0.79664812  1
  B  B19  1  0.37342585  0.73825400  0.32014012  1
  B  B20  1  0.23804736  0.00000000  0.20044420  1
  B  B21  1  0.90767388  0.50000000  0.00638347  1
  B  B22  1  0.07136160  0.50000000  0.00715474  1
  B  B23  1  0.63807977  0.73993176  0.19544459  1
  B  B24  1  0.63807977  0.26006824  0.67530811  1
  B  B25  1  0.41783281  0.83389441  0.33294244  1
  B  B26  1  0.32282934  0.33038763  0.00788746  1
  B  B27  1  0.32282934  0.66961237  0.66866271  1
  B  B28  1  0.10214442  0.78075757  0.79292301  1
  B  B29  1  0.67307250  0.00000000  0.99830775  1
  B  B30  1  0.98366320  0.50000000  0.20412201  1
  B  B31  1  0.50756907  0.50000000  0.80044532  1
  B  B32  1  0.37532456  0.76526512  0.67569915  1
  B  B33  1  0.08774436  0.83066351  1.00001456  1
  B  B34  1  0.87467544  0.26526512  0.79377061  1
  B  B35  1  0.87467544  0.73473488  0.32430085  1
  B  B36  1  0.74243093  0.00000000  0.19955468  1
  B  B37  1  0.26633680  0.00000000  0.79587799  1
  B  B38  1  0.57692750  0.50000000  0.00169225  1
  B  B39  1  0.92717066  0.83038763  0.33133729  1
  B  B40  1  0.83216719  0.33389441  -0.00073125  1
  B  B41  1  0.83216719  0.66610559  0.66705756  1
  B  B42  1  0.61192023  0.76006824  0.80455541  1
  B  B43  1  0.34232612  0.00000000  0.99361653  1
  B  B44  1  0.87657415  0.76174600  0.67985988  1
  B  B45  1  0.59475609  0.83506501  0.99072571  1
  B  B46  1  0.79313721  0.00000000  0.78092246  1
  B  B47  1  0.83750660  0.00000000  0.99879008  1
  O  O48  1  0.49991627  0.00000000  0.37795831  1
  O  O49  1  0.50110840  0.00000000  0.61738145  1
  O  O50  1  0.25294163  0.50000000  0.61879629  1
  O  O51  1  0.99705837  0.00000000  0.38120371  1
  O  O52  1  0.74889160  0.50000000  0.38261855  1
  O  O53  1  0.75008373  0.50000000  0.62204169  1
