# generated using pymatgen
data_Li2MnP2O7
_symmetry_space_group_name_H-M   'P 1'
_cell_length_a   13.11770953
_cell_length_b   5.11176719
_cell_length_c   8.65797412
_cell_angle_alpha   90.00000000
_cell_angle_beta   100.96293450
_cell_angle_gamma   90.00000000
_symmetry_Int_Tables_number   1
_chemical_formula_structural   Li2MnP2O7
_chemical_formula_sum   'Li8 Mn4 P8 O28'
_cell_volume   569.96272352
_cell_formula_units_Z   4
loop_
 _symmetry_equiv_pos_site_id
 _symmetry_equiv_pos_as_xyz
  1  'x, y, z'
loop_
 _atom_site_type_symbol
 _atom_site_label
 _atom_site_symmetry_multiplicity
 _atom_site_fract_x
 _atom_site_fract_y
 _atom_site_fract_z
 _atom_site_occupancy
  Li  Li0  1  0.07689198  0.28808068  0.57819799  1
  Li  Li1  1  0.17392536  0.76617844  0.12256992  1
  Li  Li2  1  0.32607464  0.26617844  0.37743008  1
  Li  Li3  1  0.42310802  0.78808068  0.92180201  1
  Li  Li4  1  0.57689198  0.21191932  0.07819799  1
  Li  Li5  1  0.67392536  0.73382156  0.62256992  1
  Li  Li6  1  0.82607464  0.23382156  0.87743008  1
  Li  Li7  1  0.92310802  0.71191932  0.42180201  1
  Mn  Mn8  1  0.01665704  0.23916282  0.23897795  1
  Mn  Mn9  1  0.51665704  0.26083718  0.73897795  1
  Mn  Mn10  1  0.48334296  0.73916282  0.26102205  1
  Mn  Mn11  1  0.98334296  0.76083718  0.76102205  1
  O  O12  1  0.06440750  0.13799537  0.77814016  1
  O  O13  1  0.10237795  0.56049728  0.93419354  1
  O  O14  1  0.06698206  0.68054846  0.56373658  1
  O  O15  1  0.13880812  0.07103382  0.43259501  1
  O  O16  1  0.14583961  0.60721576  0.32050535  1
  O  O17  1  0.24448083  0.22836630  0.91007601  1
  O  O18  1  0.11324878  0.12213828  0.07912671  1
  O  O19  1  0.25551917  0.72836630  0.58992399  1
  O  O20  1  0.43301794  0.18054846  0.93626342  1
  O  O21  1  0.39762205  0.06049728  0.56580646  1
  O  O22  1  0.38675122  0.62213828  0.42087329  1
  O  O23  1  0.43559250  0.63799537  0.72185984  1
  O  O24  1  0.35416039  0.10721576  0.17949465  1
  O  O25  1  0.36119188  0.57103382  0.06740499  1
  O  O26  1  0.63880812  0.42896618  0.93259501  1
  O  O27  1  0.64583961  0.89278424  0.82050535  1
  O  O28  1  0.56440750  0.36200463  0.27814016  1
  O  O29  1  0.61324878  0.37786172  0.57912671  1
  O  O30  1  0.60237795  0.93950272  0.43419354  1
  O  O31  1  0.56698206  0.81945154  0.06373658  1
  O  O32  1  0.74448083  0.27163370  0.41007601  1
  O  O33  1  0.88675122  0.87786172  0.92087329  1
  O  O34  1  0.75551917  0.77163370  0.08992399  1
  O  O35  1  0.85416039  0.39278424  0.67949465  1
  O  O36  1  0.86119188  0.92896618  0.56740499  1
  O  O37  1  0.93301794  0.31945154  0.43626342  1
  O  O38  1  0.89762205  0.43950272  0.06580646  1
  O  O39  1  0.93559250  0.86200463  0.22185984  1
  P  P40  1  0.12432751  0.26589745  0.92778237  1
  P  P41  1  0.14719755  0.77584657  0.46725575  1
  P  P42  1  0.37567249  0.76589745  0.57221763  1
  P  P43  1  0.35280245  0.27584657  0.03274425  1
  P  P44  1  0.64719755  0.72415343  0.96725575  1
  P  P45  1  0.62432751  0.23410255  0.42778237  1
  P  P46  1  0.85280245  0.22415343  0.53274425  1
  P  P47  1  0.87567249  0.73410255  0.07221763  1
