# generated using pymatgen
data_Li3Ti8O16
_symmetry_space_group_name_H-M   'P 1'
_cell_length_a   5.98881109
_cell_length_b   23.94642452
_cell_length_c   10.36992785
_cell_angle_alpha   29.99213951
_cell_angle_beta   54.72389429
_cell_angle_gamma   59.98781323
_symmetry_Int_Tables_number   1
_chemical_formula_structural   Li3Ti8O16
_chemical_formula_sum   'Li6 Ti16 O32'
_cell_volume   606.89754022
_cell_formula_units_Z   2
loop_
 _symmetry_equiv_pos_site_id
 _symmetry_equiv_pos_as_xyz
  1  'x, y, z'
loop_
 _atom_site_type_symbol
 _atom_site_label
 _atom_site_symmetry_multiplicity
 _atom_site_fract_x
 _atom_site_fract_y
 _atom_site_fract_z
 _atom_site_occupancy
  Li  Li0  1  0.12620148  0.00000000  0.12379852  1
  Li  Li1  1  0.12412032  0.24889586  0.12808796  1
  Li  Li2  1  0.12412032  0.75110414  0.12367141  1
  Li  Li3  1  0.87587968  0.25110414  0.87191204  1
  Li  Li4  1  0.87379852  0.50000000  0.87620148  1
  Li  Li5  1  0.87587968  0.74889586  0.87632859  1
  Ti  Ti6  1  0.50518684  0.12433650  0.99614016  1
  Ti  Ti7  1  0.49439276  1.00000000  0.50387809  1
  Ti  Ti8  1  0.49902140  0.12306227  0.50485407  1
  Ti  Ti9  1  0.49481316  0.37566350  0.00385984  1
  Ti  Ti10  1  0.50000000  0.25000000  0.50000000  1
  Ti  Ti11  1  0.50097860  0.37693773  0.49514593  1
  Ti  Ti12  1  0.50097860  0.62306227  0.00289687  1
  Ti  Ti13  1  -0.00000000  0.25000000  0.50000000  1
  Ti  Ti14  1  0.50560724  0.50000000  0.49612191  1
  Ti  Ti15  1  0.49481316  0.62433650  0.50651384  1
  Ti  Ti16  1  0.49902140  0.87693773  0.99710313  1
  Ti  Ti17  1  0.00214895  0.50000000  0.49612191  1
  Ti  Ti18  1  0.50000000  0.75000000  0.50000000  1
  Ti  Ti19  1  0.50518684  0.87566350  0.49348616  1
  Ti  Ti20  1  -0.00000000  0.75000000  0.50000000  1
  Ti  Ti21  1  0.99785105  1.00000000  0.50387809  1
  O  O22  1  0.26380297  0.11201959  0.26215786  1
  O  O23  1  0.29765047  0.00000000  0.73327551  1
  O  O24  1  0.26328198  0.25026942  0.26202471  1
  O  O25  1  0.73771537  0.11261521  0.28705420  1
  O  O26  1  0.26228219  0.13766631  0.71238519  1
  O  O27  1  0.26615348  0.35842592  0.26699468  1
  O  O28  1  0.73579850  1.00000000  0.73327551  1
  O  O29  1  0.71159091  0.25026942  0.26202471  1
  O  O30  1  0.28840909  0.24973058  0.73797529  1
  O  O31  1  0.26420150  0.50000000  0.26672449  1
  O  O32  1  0.73384652  0.14157408  0.73300532  1
  O  O33  1  0.26228463  0.61261521  0.26248495  1
  O  O34  1  0.73771781  0.36233369  0.28761481  1
  O  O35  1  0.26228463  0.38738479  0.71294580  1
  O  O36  1  0.73671802  0.24973058  0.73797529  1
  O  O37  1  0.70234953  0.50000000  0.26672449  1
  O  O38  1  0.28911251  0.50000000  0.73663645  1
  O  O39  1  0.26328198  0.74973058  0.26310239  1
  O  O40  1  0.73619703  0.38798041  0.73784214  1
  O  O41  1  0.73619703  0.61201959  0.28976380  1
  O  O42  1  0.26228219  0.86233369  0.26305044  1
  O  O43  1  0.26615348  0.64157408  0.70069836  1
  O  O44  1  0.73761460  0.50000000  0.73663645  1
  O  O45  1  0.71159091  0.74973058  0.26310239  1
  O  O46  1  0.28840909  0.75026942  0.73689761  1
  O  O47  1  0.26238540  0.00000000  0.26336355  1
  O  O48  1  0.73771781  0.63766631  0.73694956  1
  O  O49  1  0.73384652  0.85842592  0.29930164  1
  O  O50  1  0.26380297  0.88798041  0.71023620  1
  O  O51  1  0.73671802  0.75026942  0.73689761  1
  O  O52  1  0.71088749  1.00000000  0.26336355  1
  O  O53  1  0.73771537  0.88738479  0.73751505  1
