# generated using pymatgen
data_Li2FeP2O7
_symmetry_space_group_name_H-M   'P 1'
_cell_length_a   13.01562181
_cell_length_b   5.13305286
_cell_length_c   8.52355615
_cell_angle_alpha   90.00000000
_cell_angle_beta   100.02377788
_cell_angle_gamma   90.00000000
_symmetry_Int_Tables_number   1
_chemical_formula_structural   Li2FeP2O7
_chemical_formula_sum   'Li8 Fe4 P8 O28'
_cell_volume   560.76529040
_cell_formula_units_Z   4
loop_
 _symmetry_equiv_pos_site_id
 _symmetry_equiv_pos_as_xyz
  1  'x, y, z'
loop_
 _atom_site_type_symbol
 _atom_site_label
 _atom_site_symmetry_multiplicity
 _atom_site_fract_x
 _atom_site_fract_y
 _atom_site_fract_z
 _atom_site_occupancy
  Fe  Fe0  1  0.01415913  0.22836790  0.24128593  1
  Fe  Fe1  1  0.51415913  0.27163210  0.74128593  1
  Fe  Fe2  1  0.48584087  0.72836790  0.25871407  1
  Fe  Fe3  1  0.98584087  0.77163210  0.75871407  1
  Li  Li4  1  0.07613478  0.29171334  0.57656212  1
  Li  Li5  1  0.17055897  0.77385118  0.12217457  1
  Li  Li6  1  0.32944103  0.27385118  0.37782543  1
  Li  Li7  1  0.42386522  0.79171434  0.92343788  1
  Li  Li8  1  0.57613478  0.20828566  0.07656312  1
  Li  Li9  1  0.67055897  0.72614882  0.62217457  1
  Li  Li10  1  0.82944103  0.22614882  0.87782543  1
  Li  Li11  1  0.92386522  0.70828566  0.42343788  1
  O  O12  1  0.06259057  0.14347921  0.77921896  1
  O  O13  1  0.10169186  0.56926633  0.93180052  1
  O  O14  1  0.06712978  0.68003864  0.56961210  1
  O  O15  1  0.13699860  0.06970100  0.43238005  1
  O  O16  1  0.14764525  0.60672520  0.32236443  1
  O  O17  1  0.24348956  0.23487801  0.90783971  1
  O  O18  1  0.11166036  0.13524535  0.08355760  1
  O  O19  1  0.25651044  0.73487801  0.59216029  1
  O  O20  1  0.43287022  0.18003864  0.93038790  1
  O  O21  1  0.39830814  0.06926633  0.56819948  1
  O  O22  1  0.38833964  0.63524535  0.41644240  1
  O  O23  1  0.43740943  0.64347921  0.72078104  1
  O  O24  1  0.35235475  0.10672520  0.17763557  1
  O  O25  1  0.36300140  0.56970100  0.06761995  1
  O  O26  1  0.63699860  0.43029900  0.93238005  1
  O  O27  1  0.64764525  0.89327480  0.82236443  1
  O  O28  1  0.56259057  0.35652079  0.27921896  1
  O  O29  1  0.61166036  0.36475465  0.58355760  1
  O  O30  1  0.60169186  0.93073367  0.43180052  1
  O  O31  1  0.56712978  0.81996136  0.06961210  1
  O  O32  1  0.74348956  0.26512199  0.40783971  1
  O  O33  1  0.88833964  0.86475465  0.91644240  1
  O  O34  1  0.75651044  0.76512199  0.09216029  1
  O  O35  1  0.85235475  0.39327480  0.67763557  1
  O  O36  1  0.86300140  0.93029900  0.56761995  1
  O  O37  1  0.93287022  0.31996136  0.43038790  1
  O  O38  1  0.89830814  0.43073367  0.06819948  1
  O  O39  1  0.93740943  0.85652079  0.22078104  1
  P  P40  1  0.12269093  0.27530364  0.92812308  1
  P  P41  1  0.14783357  0.77703672  0.46918730  1
  P  P42  1  0.37730907  0.77530364  0.57187692  1
  P  P43  1  0.35216643  0.27703672  0.03081270  1
  P  P44  1  0.64783357  0.72296328  0.96918730  1
  P  P45  1  0.62269093  0.22469636  0.42812308  1
  P  P46  1  0.85216643  0.22296328  0.53081270  1
  P  P47  1  0.87730907  0.72469636  0.07187692  1
