# generated using pymatgen
data_LiMoP2O7
_symmetry_space_group_name_H-M   'P 1'
_cell_length_a   6.58330453
_cell_length_b   6.56170582
_cell_length_c   6.96661213
_cell_angle_alpha   112.97054308
_cell_angle_beta   95.96174515
_cell_angle_gamma   82.22471253
_symmetry_Int_Tables_number   1
_chemical_formula_structural   LiMoP2O7
_chemical_formula_sum   'Li2 Mo2 P4 O14'
_cell_volume   274.10081317
_cell_formula_units_Z   2
loop_
 _symmetry_equiv_pos_site_id
 _symmetry_equiv_pos_as_xyz
  1  'x, y, z'
loop_
 _atom_site_type_symbol
 _atom_site_label
 _atom_site_symmetry_multiplicity
 _atom_site_fract_x
 _atom_site_fract_y
 _atom_site_fract_z
 _atom_site_occupancy
  Li  Li0  1  0.01082452  0.69900941  0.17032703  1
  Li  Li1  1  0.98917548  0.30099159  0.82967297  1
  O  O2  1  0.29078177  0.22371166  0.75364410  1
  O  O3  1  0.95272289  0.62258475  0.86655234  1
  O  O4  1  0.01664723  0.92744002  0.73992376  1
  O  O5  1  0.04727811  0.37741525  0.13344766  1
  O  O6  1  0.22198741  0.36861712  0.46444067  1
  O  O7  1  0.98335377  0.07255898  0.26007624  1
  O  O8  1  0.32578755  0.05888727  0.12318984  1
  O  O9  1  0.40635514  0.58898126  0.79633922  1
  O  O10  1  0.41092267  0.77088669  0.45315366  1
  O  O11  1  0.77801159  0.63138188  0.53555933  1
  O  O12  1  0.59364486  0.41102074  0.20366178  1
  O  O13  1  0.67421345  0.94111273  0.87680916  1
  O  O14  1  0.70921823  0.77628834  0.24635690  1
  O  O15  1  0.58907633  0.22911331  0.54684534  1
  P  P16  1  0.86419541  0.78074211  0.76395546  1
  P  P17  1  0.61150455  0.65010762  0.35126641  1
  P  P18  1  0.13580559  0.21925689  0.23604454  1
  P  P19  1  0.38849745  0.34989238  0.64873359  1
  Mo  Mo20  1  0.34881680  0.90539972  0.77630610  1
  Mo  Mo21  1  0.65118220  0.09460028  0.22369390  1
