# generated using pymatgen
data_Ca4Nb2O9
_symmetry_space_group_name_H-M   'P 1'
_cell_length_a   16.83694876
_cell_length_b   8.13717305
_cell_length_c   9.84552595
_cell_angle_alpha   66.96028543
_cell_angle_beta   55.31443449
_cell_angle_gamma   45.97229684
_symmetry_Int_Tables_number   1
_chemical_formula_structural   Ca4Nb2O9
_chemical_formula_sum   'Ca16 Nb8 O36'
_cell_volume   797.48051593
_cell_formula_units_Z   4
loop_
 _symmetry_equiv_pos_site_id
 _symmetry_equiv_pos_as_xyz
  1  'x, y, z'
loop_
 _atom_site_type_symbol
 _atom_site_label
 _atom_site_symmetry_multiplicity
 _atom_site_fract_x
 _atom_site_fract_y
 _atom_site_fract_z
 _atom_site_occupancy
  Ca  Ca0  1  0.16794184  1.00069556  0.99725763  1
  Ca  Ca1  1  0.23128453  0.05839872  0.23038179  1
  Ca  Ca2  1  0.08953355  0.43755167  0.75665860  1
  Ca  Ca3  1  0.49874073  -0.00073293  0.00272385  1
  Ca  Ca4  1  0.24550105  0.55155046  0.22310379  1
  Ca  Ca5  1  0.56399893  0.03838637  0.25813850  1
  Ca  Ca6  1  0.33331789  0.50004897  0.50000052  1
  Ca  Ca7  1  0.10264611  0.96162278  0.74182336  1
  Ca  Ca8  1  0.42114663  0.44843570  0.77691775  1
  Ca  Ca9  1  0.83332172  1.00001841  1.00001322  1
  Ca  Ca10  1  0.57714100  0.56248269  0.24332481  1
  Ca  Ca11  1  0.89685892  0.05353098  0.24767748  1
  Ca  Ca12  1  0.43541087  0.94157639  0.76961299  1
  Ca  Ca13  1  0.76427510  0.44000609  0.75870477  1
  Ca  Ca14  1  0.90239147  0.55998936  0.24127355  1
  Ca  Ca15  1  0.76978995  0.94648642  0.75230950  1
  Nb  Nb16  1  0.99779914  0.49541290  0.49368154  1
  Nb  Nb17  1  0.15993682  0.51072778  0.98757503  1
  Nb  Nb18  1  0.00694150  0.97337346  0.50183604  1
  Nb  Nb19  1  0.50671312  0.48925792  0.01244679  1
  Nb  Nb20  1  0.33327969  1.00008288  0.50003780  1
  Nb  Nb21  1  0.66878983  0.50468675  0.50632257  1
  Nb  Nb22  1  0.83335578  0.49998461  1.00003584  1
  Nb  Nb23  1  0.65967317  0.02668990  0.49814407  1
  O  O24  1  0.11035787  0.31549399  0.07352695  1
  O  O25  1  0.12459776  0.46346103  0.27465549  1
  O  O26  1  0.00628726  0.20969091  0.94006422  1
  O  O27  1  0.14290863  0.21946627  0.56007175  1
  O  O28  1  0.00628424  0.71527203  0.56621531  1
  O  O29  1  0.04745352  0.97338128  0.27256925  1
  O  O30  1  0.27961924  0.06434871  0.72525078  1
  O  O31  1  0.33519966  0.26601864  0.41148986  1
  O  O32  1  0.45005194  0.32989025  0.03127023  1
  O  O33  1  0.17355314  0.82537484  0.43951744  1
  O  O34  1  0.33326676  0.78126612  0.05153702  1
  O  O35  1  0.17671527  0.56509427  0.76863963  1
  O  O36  1  0.48995333  0.43493216  0.23136581  1
  O  O37  1  0.33340209  0.21867151  0.94846984  1
  O  O38  1  0.49305763  0.17474245  0.56052244  1
  O  O39  1  0.21662761  0.67003652  0.96875788  1
  O  O40  1  0.33149531  0.73399343  0.58856440  1
  O  O41  1  0.38710225  0.93568108  0.27475392  1
  O  O42  1  0.61921502  0.02659488  0.72740411  1
  O  O43  1  0.66038492  0.28471717  0.43375682  1
  O  O44  1  0.77596919  0.33040489  0.04522953  1
  O  O45  1  0.52383667  0.78046384  0.43992004  1
  O  O46  1  0.66043226  0.79026291  0.05984705  1
  O  O47  1  0.54207765  0.53647075  0.72537016  1
  O  O48  1  0.79186887  0.46254649  0.25197363  1
  O  O49  1  0.68167043  0.21696983  0.91707263  1
  O  O50  1  0.81101386  0.21125797  0.54551987  1
  O  O51  1  0.55630282  0.68448600  0.92646694  1
  O  O52  1  0.68544819  0.68689483  0.54907133  1
  O  O53  1  0.72490640  0.94358207  0.27520641  1
  O  O54  1  0.94171786  0.05643040  0.72480954  1
  O  O55  1  0.98118907  0.31312654  0.45093053  1
  O  O56  1  0.85566522  0.78874806  0.45443583  1
  O  O57  1  0.98498340  0.78298582  0.08295213  1
  O  O58  1  0.87485603  0.53742460  0.74796954  1
  O  O59  1  0.89073930  0.66955360  0.95481994  1
