# generated using pymatgen
data_Na2P2O7
_symmetry_space_group_name_H-M   'P 1'
_cell_length_a   7.15763758
_cell_length_b   7.04239676
_cell_length_c   13.66422904
_cell_angle_alpha   90.00000000
_cell_angle_beta   90.00000000
_cell_angle_gamma   97.86833183
_symmetry_Int_Tables_number   1
_chemical_formula_structural   Na2P2O7
_chemical_formula_sum   'Na8 P8 O28'
_cell_volume   682.28715674
_cell_formula_units_Z   4
loop_
 _symmetry_equiv_pos_site_id
 _symmetry_equiv_pos_as_xyz
  1  'x, y, z'
loop_
 _atom_site_type_symbol
 _atom_site_label
 _atom_site_symmetry_multiplicity
 _atom_site_fract_x
 _atom_site_fract_y
 _atom_site_fract_z
 _atom_site_occupancy
  Na  Na0  1  0.15106337  0.54292610  0.89818693  1
  Na  Na1  1  0.84893663  0.95707390  0.39818693  1
  Na  Na2  1  0.84893663  0.45707390  0.10181307  1
  Na  Na3  1  0.15106337  0.04292610  0.60181307  1
  Na  Na4  1  0.77415304  0.15963361  0.87072192  1
  Na  Na5  1  0.22584696  0.34036639  0.37072192  1
  Na  Na6  1  0.22584696  0.84036639  0.12927808  1
  Na  Na7  1  0.77415304  0.65963361  0.62927808  1
  P  P8  1  0.68749275  0.65894085  0.89488288  1
  P  P9  1  0.31250725  0.84105915  0.39488288  1
  P  P10  1  0.31250725  0.34105915  0.10511712  1
  P  P11  1  0.68749275  0.15894085  0.60511712  1
  P  P12  1  0.24946312  0.07870707  0.92334288  1
  P  P13  1  0.75053688  0.42129293  0.42334288  1
  P  P14  1  0.75053688  0.92129293  0.07665712  1
  P  P15  1  0.24946312  0.57870707  0.57665712  1
  O  O16  1  0.72685489  0.73957054  0.79169290  1
  O  O17  1  0.27314511  0.76042946  0.29169290  1
  O  O18  1  0.27314511  0.26042946  0.20830710  1
  O  O19  1  0.72685489  0.23957054  0.70830710  1
  O  O20  1  0.47829323  0.58212299  0.89832843  1
  O  O21  1  0.52170677  0.91787701  0.39832843  1
  O  O22  1  0.52170677  0.41787701  0.10167157  1
  O  O23  1  0.47829323  0.08212299  0.60167157  1
  O  O24  1  0.81690625  0.51660068  0.92684580  1
  O  O25  1  0.18309375  0.98339932  0.42684580  1
  O  O26  1  0.18309375  0.48339932  0.07315420  1
  O  O27  1  0.81690625  0.01660068  0.57315420  1
  O  O28  1  0.72617564  0.84858045  0.96323324  1
  O  O29  1  0.27382436  0.65141955  0.46323324  1
  O  O30  1  0.27382436  0.15141955  0.03676676  1
  O  O31  1  0.72617564  0.34858045  0.53676676  1
  O  O32  1  0.17608776  0.86653455  0.93658095  1
  O  O33  1  0.82391224  0.63346545  0.43658095  1
  O  O34  1  0.82391224  0.13346545  0.06341905  1
  O  O35  1  0.17608776  0.36653455  0.56341905  1
  O  O36  1  0.11785241  0.19639426  0.87094159  1
  O  O37  1  0.88214759  0.30360574  0.37094159  1
  O  O38  1  0.88214759  0.80360574  0.12905841  1
  O  O39  1  0.11785241  0.69639426  0.62905841  1
  O  O40  1  0.44373218  0.09292048  0.87602285  1
  O  O41  1  0.55626782  0.40707952  0.37602285  1
  O  O42  1  0.55626782  0.90707952  0.12397715  1
  O  O43  1  0.44373218  0.59292048  0.62397715  1
