# generated using pymatgen
data_LiMnP2O7
_symmetry_space_group_name_H-M   'P 1'
_cell_length_a   5.00619881
_cell_length_b   6.06180546
_cell_length_c   8.98268125
_cell_angle_alpha   105.28207033
_cell_angle_beta   91.66872876
_cell_angle_gamma   87.58860709
_symmetry_Int_Tables_number   1
_chemical_formula_structural   LiMnP2O7
_chemical_formula_sum   'Li2 Mn2 P4 O14'
_cell_volume   262.67609726
_cell_formula_units_Z   2
loop_
 _symmetry_equiv_pos_site_id
 _symmetry_equiv_pos_as_xyz
  1  'x, y, z'
loop_
 _atom_site_type_symbol
 _atom_site_label
 _atom_site_symmetry_multiplicity
 _atom_site_fract_x
 _atom_site_fract_y
 _atom_site_fract_z
 _atom_site_occupancy
  Li  Li0  1  0.20517553  0.80058177  0.47132571  1
  Li  Li1  1  0.79482547  0.19942023  0.52867529  1
  O  O2  1  0.27958786  0.69458789  0.96657785  1
  O  O3  1  0.91564560  0.55218515  0.66682704  1
  O  O4  1  0.06592947  0.23535999  0.81679313  1
  O  O5  1  0.08435640  0.44781385  0.33317296  1
  O  O6  1  0.20918737  0.13785313  0.46560841  1
  O  O7  1  0.93406953  0.76464001  0.18320687  1
  O  O8  1  0.24853652  0.06465369  0.17027398  1
  O  O9  1  0.42979951  0.67593666  0.64727947  1
  O  O10  1  0.42090291  0.71365566  0.24815143  1
  O  O11  1  0.79081463  0.86214687  0.53439159  1
  O  O12  1  0.57020049  0.32406234  0.35271953  1
  O  O13  1  0.75146448  0.93534631  0.82972702  1
  O  O14  1  0.72041214  0.30541211  0.03342115  1
  O  O15  1  0.57909709  0.28634534  0.75184757  1
  P  P16  1  0.77783293  0.21068395  0.86575646  1
  P  P17  1  0.72314002  0.75509721  0.66319701  1
  P  P18  1  0.22216807  0.78931705  0.13424354  1
  P  P19  1  0.27686098  0.24490379  0.33680299  1
  Mn  Mn20  1  0.25135793  0.46716716  0.75244190  1
  Mn  Mn21  1  0.74864207  0.53283184  0.24755710  1
