# generated using pymatgen
data_Nb4As3
_symmetry_space_group_name_H-M   'P 1'
_cell_length_a   3.54236210
_cell_length_b   7.60641013
_cell_length_c   18.99304998
_cell_angle_alpha   90.00000000
_cell_angle_beta   90.00000000
_cell_angle_gamma   103.46514181
_symmetry_Int_Tables_number   1
_chemical_formula_structural   Nb4As3
_chemical_formula_sum   'Nb16 As12'
_cell_volume   497.69384134
_cell_formula_units_Z   4
loop_
 _symmetry_equiv_pos_site_id
 _symmetry_equiv_pos_as_xyz
  1  'x, y, z'
loop_
 _atom_site_type_symbol
 _atom_site_label
 _atom_site_symmetry_multiplicity
 _atom_site_fract_x
 _atom_site_fract_y
 _atom_site_fract_z
 _atom_site_occupancy
  Nb  Nb0  1  0.26226415  0.52452830  0.16187316  1
  Nb  Nb1  1  0.73773585  0.47547170  0.83812684  1
  Nb  Nb2  1  0.73773585  0.47547170  0.66187316  1
  Nb  Nb3  1  0.26226415  0.52452830  0.33812684  1
  Nb  Nb4  1  0.46613271  0.93226542  0.11965129  1
  Nb  Nb5  1  0.53386729  0.06773458  0.88034871  1
  Nb  Nb6  1  0.53386729  0.06773458  0.61965129  1
  Nb  Nb7  1  0.46613271  0.93226542  0.38034871  1
  Nb  Nb8  1  0.33164722  0.66329444  0.97125869  1
  Nb  Nb9  1  0.66835278  0.33670556  0.02874131  1
  Nb  Nb10  1  0.66835278  0.33670556  0.47125869  1
  Nb  Nb11  1  0.33164722  0.66329444  0.52874131  1
  Nb  Nb12  1  0.00000000  0.00000000  0.00000000  1
  Nb  Nb13  1  0.00000000  0.00000000  0.50000000  1
  Nb  Nb14  1  0.94667174  0.89334349  0.75000000  1
  Nb  Nb15  1  0.05332826  0.10665651  0.25000000  1
  As  As16  1  0.09814649  0.19629298  0.11811181  1
  As  As17  1  0.90185351  0.80370702  0.88188819  1
  As  As18  1  0.90185351  0.80370702  0.61811181  1
  As  As19  1  0.09814649  0.19629298  0.38188819  1
  As  As20  1  0.15793770  0.31587539  0.92259732  1
  As  As21  1  0.84206230  0.68412461  0.07740268  1
  As  As22  1  0.84206230  0.68412461  0.42259732  1
  As  As23  1  0.15793770  0.31587539  0.57740268  1
  As  As24  1  0.30815914  0.61631829  0.75000000  1
  As  As25  1  0.69184086  0.38368171  0.25000000  1
  As  As26  1  0.58712809  0.17425618  0.75000000  1
  As  As27  1  0.41287191  0.82574382  0.25000000  1
