# generated using pymatgen
data_V2P3O10
_symmetry_space_group_name_H-M   'P 1'
_cell_length_a   4.80240786
_cell_length_b   8.46540919
_cell_length_c   9.04513257
_cell_angle_alpha   90.00000000
_cell_angle_beta   98.37262660
_cell_angle_gamma   90.00000000
_symmetry_Int_Tables_number   1
_chemical_formula_structural   V2P3O10
_chemical_formula_sum   'V4 P6 O20'
_cell_volume   363.80476680
_cell_formula_units_Z   2
loop_
 _symmetry_equiv_pos_site_id
 _symmetry_equiv_pos_as_xyz
  1  'x, y, z'
loop_
 _atom_site_type_symbol
 _atom_site_label
 _atom_site_symmetry_multiplicity
 _atom_site_fract_x
 _atom_site_fract_y
 _atom_site_fract_z
 _atom_site_occupancy
  O  O0  1  0.16715025  0.09924738  0.78582806  1
  O  O1  1  0.16715025  0.40075362  0.78582806  1
  O  O2  1  0.22683794  0.75000000  0.77302932  1
  O  O3  1  0.23009564  0.59860067  0.48645022  1
  O  O4  1  0.23009564  0.90139833  0.48645022  1
  O  O5  1  0.30447145  0.25000000  0.45754927  1
  O  O6  1  0.31145303  0.09814362  0.17641726  1
  O  O7  1  0.31145303  0.40185538  0.17641726  1
  O  O8  1  0.51250810  0.25000000  0.97312490  1
  O  O9  1  0.41187949  0.75000000  0.28306559  1
  O  O10  1  0.58812151  0.25000000  0.71693441  1
  O  O11  1  0.48749090  0.75000000  0.02687510  1
  O  O12  1  0.68854797  0.59814362  0.82358274  1
  O  O13  1  0.68854797  0.90185638  0.82358274  1
  O  O14  1  0.69552655  0.75000000  0.54245073  1
  O  O15  1  0.83285075  0.90075362  0.21417194  1
  O  O16  1  0.76990236  0.40139933  0.51354978  1
  O  O17  1  0.77316206  0.25000000  0.22697068  1
  O  O18  1  0.83285075  0.59924738  0.21417194  1
  O  O19  1  0.76990236  0.09860067  0.51354978  1
  P  P20  1  0.32857110  0.25000000  0.81341720  1
  P  P21  1  0.39219580  0.75000000  0.45631641  1
  P  P22  1  0.53975100  0.75000000  0.85428352  1
  P  P23  1  0.46025000  0.25000000  0.14571648  1
  P  P24  1  0.60780420  0.25000000  0.54368459  1
  P  P25  1  0.67142790  0.75000000  0.18658280  1
  V  V26  1  0.03889667  0.07741455  0.33274694  1
  V  V27  1  0.03889667  0.42258545  0.33274694  1
  V  V28  1  0.96110433  0.57741555  0.66725406  1
  V  V29  1  0.96110433  0.92258545  0.66725406  1
