# generated using pymatgen
data_CrP2O7
_symmetry_space_group_name_H-M   'P 1'
_cell_length_a   7.24156668
_cell_length_b   8.05792742
_cell_length_c   9.37868076
_cell_angle_alpha   90.00000000
_cell_angle_beta   110.68758307
_cell_angle_gamma   90.00000000
_symmetry_Int_Tables_number   1
_chemical_formula_structural   CrP2O7
_chemical_formula_sum   'Cr4 P8 O28'
_cell_volume   511.97764650
_cell_formula_units_Z   4
loop_
 _symmetry_equiv_pos_site_id
 _symmetry_equiv_pos_as_xyz
  1  'x, y, z'
loop_
 _atom_site_type_symbol
 _atom_site_label
 _atom_site_symmetry_multiplicity
 _atom_site_fract_x
 _atom_site_fract_y
 _atom_site_fract_z
 _atom_site_occupancy
  Cr  Cr0  1  0.27241706  0.49175656  0.74676373  1
  Cr  Cr1  1  0.27241706  0.00824344  0.24676373  1
  Cr  Cr2  1  0.72758294  0.99175656  0.75323627  1
  Cr  Cr3  1  0.72758294  0.50824344  0.25323627  1
  O  O4  1  0.00877433  0.58656149  0.65663083  1
  O  O5  1  0.19949245  0.35409700  0.89155844  1
  O  O6  1  0.10978041  0.84963411  0.55084967  1
  O  O7  1  0.32571742  0.67875783  0.88919292  1
  O  O8  1  0.19116455  0.31037005  0.61054152  1
  O  O9  1  0.00877433  0.91343851  0.15663083  1
  O  O10  1  0.19949245  0.14590300  0.39155844  1
  O  O11  1  0.36023090  0.61719763  0.60167577  1
  O  O12  1  0.10978041  0.65036589  0.05084967  1
  O  O13  1  0.32571742  0.82124217  0.38919292  1
  O  O14  1  0.19116455  0.18962995  0.11054152  1
  O  O15  1  0.53658956  0.41876939  0.83354905  1
  O  O16  1  0.46341044  0.91876939  0.66645095  1
  O  O17  1  0.63976910  0.11719763  0.89832423  1
  O  O18  1  0.36023090  0.88280237  0.10167577  1
  O  O19  1  0.53658956  0.08123061  0.33354905  1
  O  O20  1  0.46341044  0.58123061  0.16645095  1
  O  O21  1  0.80883545  0.81037005  0.88945848  1
  O  O22  1  0.67428258  0.17875783  0.61080708  1
  O  O23  1  0.89021959  0.34963411  0.94915033  1
  O  O24  1  0.63976910  0.38280237  0.39832423  1
  O  O25  1  0.80050755  0.85409700  0.60844156  1
  O  O26  1  0.99122567  0.08656149  0.84336917  1
  O  O27  1  0.80883545  0.68962995  0.38945848  1
  O  O28  1  0.67428258  0.32124217  0.11080708  1
  O  O29  1  0.89021959  0.15036589  0.44915033  1
  O  O30  1  0.80050755  0.64590300  0.10844156  1
  O  O31  1  0.99122567  0.41343851  0.34336917  1
  P  P32  1  0.07345789  0.23877471  0.94456214  1
  P  P33  1  0.07345789  0.26122529  0.44456214  1
  P  P34  1  0.32435970  0.79769561  0.55092530  1
  P  P35  1  0.67564030  0.29769561  0.94907470  1
  P  P36  1  0.32435970  0.70230439  0.05092530  1
  P  P37  1  0.67564030  0.20230439  0.44907470  1
  P  P38  1  0.92654211  0.73877471  0.55543786  1
  P  P39  1  0.92654211  0.76122529  0.05543786  1
