# generated using pymatgen
data_FeCuPO5
_symmetry_space_group_name_H-M   'P 1'
_cell_length_a   6.44714975
_cell_length_b   7.18349382
_cell_length_c   7.77339897
_cell_angle_alpha   90.00000000
_cell_angle_beta   90.00000000
_cell_angle_gamma   90.00000000
_symmetry_Int_Tables_number   1
_chemical_formula_structural   FeCuPO5
_chemical_formula_sum   'Fe4 Cu4 P4 O20'
_cell_volume   360.00989590
_cell_formula_units_Z   4
loop_
 _symmetry_equiv_pos_site_id
 _symmetry_equiv_pos_as_xyz
  1  'x, y, z'
loop_
 _atom_site_type_symbol
 _atom_site_label
 _atom_site_symmetry_multiplicity
 _atom_site_fract_x
 _atom_site_fract_y
 _atom_site_fract_z
 _atom_site_occupancy
  Cu  Cu0  1  0.00000000  0.00000000  0.00000000  1
  Cu  Cu1  1  0.50000000  0.00000000  0.00000000  1
  Cu  Cu2  1  0.00000000  0.50000000  0.50000000  1
  Cu  Cu3  1  0.50000000  0.50000000  0.50000000  1
  Fe  Fe4  1  0.25000000  0.71113726  0.18048602  1
  Fe  Fe5  1  0.75000000  0.28886274  0.81951398  1
  Fe  Fe6  1  0.75000000  0.21113726  0.31951398  1
  Fe  Fe7  1  0.25000000  0.78886274  0.68048602  1
  P  P8  1  0.25000000  0.12800343  0.39300040  1
  P  P9  1  0.75000000  0.87199657  0.60699960  1
  P  P10  1  0.75000000  0.62800343  0.10699960  1
  P  P11  1  0.25000000  0.37199657  0.89300040  1
  O  O12  1  0.25000000  0.62622367  0.41509667  1
  O  O13  1  0.75000000  0.37377633  0.58490333  1
  O  O14  1  0.75000000  0.12622367  0.08490333  1
  O  O15  1  0.25000000  0.87377633  0.91509667  1
  O  O16  1  0.25000000  0.99122131  0.24051927  1
  O  O17  1  0.75000000  0.00877869  0.75948073  1
  O  O18  1  0.75000000  0.49122131  0.25948073  1
  O  O19  1  0.25000000  0.50877869  0.74051927  1
  O  O20  1  0.25000000  0.46936979  0.06741207  1
  O  O21  1  0.75000000  0.53063021  0.93258793  1
  O  O22  1  0.75000000  0.96936979  0.43258793  1
  O  O23  1  0.25000000  0.03063021  0.56741207  1
  O  O24  1  0.05570481  0.25769736  0.37582283  1
  O  O25  1  0.55570481  0.74230264  0.62417717  1
  O  O26  1  0.94429519  0.75769736  0.12417717  1
  O  O27  1  0.44429519  0.24230264  0.87582283  1
  O  O28  1  0.94429519  0.74230264  0.62417717  1
  O  O29  1  0.44429519  0.25769736  0.37582283  1
  O  O30  1  0.05570481  0.24230264  0.87582283  1
  O  O31  1  0.55570481  0.75769736  0.12417717  1
