# generated using pymatgen
data_Ce2SiSeO4
_symmetry_space_group_name_H-M   'P 1'
_cell_length_a   6.28538825
_cell_length_b   7.26030095
_cell_length_c   11.17910337
_cell_angle_alpha   90.00000000
_cell_angle_beta   90.00000000
_cell_angle_gamma   90.00000000
_symmetry_Int_Tables_number   1
_chemical_formula_structural   Ce2SiSeO4
_chemical_formula_sum   'Ce8 Si4 Se4 O16'
_cell_volume   510.14508232
_cell_formula_units_Z   4
loop_
 _symmetry_equiv_pos_site_id
 _symmetry_equiv_pos_as_xyz
  1  'x, y, z'
loop_
 _atom_site_type_symbol
 _atom_site_label
 _atom_site_symmetry_multiplicity
 _atom_site_fract_x
 _atom_site_fract_y
 _atom_site_fract_z
 _atom_site_occupancy
  Ce  Ce0  1  0.13221831  0.03447230  0.25000000  1
  Ce  Ce1  1  0.13221831  0.46552770  0.75000000  1
  Ce  Ce2  1  0.86778169  0.53447230  0.25000000  1
  Ce  Ce3  1  0.86778169  0.96552770  0.75000000  1
  Ce  Ce4  1  0.60746184  0.25000000  0.00000000  1
  Ce  Ce5  1  0.39253816  0.75000000  0.50000000  1
  Ce  Ce6  1  0.39253816  0.75000000  0.00000000  1
  Ce  Ce7  1  0.60746184  0.25000000  0.50000000  1
  Se  Se8  1  0.42417821  0.38915665  0.25000000  1
  Se  Se9  1  0.42417821  0.11084335  0.75000000  1
  Se  Se10  1  0.57582179  0.88915665  0.25000000  1
  Se  Se11  1  0.57582179  0.61084335  0.75000000  1
  Si  Si12  1  0.11296382  0.25000000  0.00000000  1
  Si  Si13  1  0.88703618  0.75000000  0.50000000  1
  Si  Si14  1  0.88703618  0.75000000  0.00000000  1
  Si  Si15  1  0.11296382  0.25000000  0.50000000  1
  O  O16  1  0.04677868  0.76553708  0.11732479  1
  O  O17  1  0.04677868  0.73446292  0.88267521  1
  O  O18  1  0.95322132  0.26553708  0.38267521  1
  O  O19  1  0.95322132  0.23446292  0.61732479  1
  O  O20  1  0.95322132  0.23446292  0.88267521  1
  O  O21  1  0.95322132  0.26553708  0.11732479  1
  O  O22  1  0.04677868  0.73446292  0.61732479  1
  O  O23  1  0.04677868  0.76553708  0.38267521  1
  O  O24  1  0.27005630  0.07513873  0.03160180  1
  O  O25  1  0.27005630  0.42486127  0.96839820  1
  O  O26  1  0.72994370  0.57513873  0.46839820  1
  O  O27  1  0.72994370  0.92486127  0.53160180  1
  O  O28  1  0.72994370  0.92486127  0.96839820  1
  O  O29  1  0.72994370  0.57513873  0.03160180  1
  O  O30  1  0.27005630  0.42486127  0.53160180  1
  O  O31  1  0.27005630  0.07513873  0.46839820  1
