# generated using pymatgen
data_CuHgSI
_symmetry_space_group_name_H-M   'P 1'
_cell_length_a   7.08468074
_cell_length_b   7.21020341
_cell_length_c   8.51179495
_cell_angle_alpha   90.00000000
_cell_angle_beta   90.00000000
_cell_angle_gamma   90.00000000
_symmetry_Int_Tables_number   1
_chemical_formula_structural   CuHgSI
_chemical_formula_sum   'Cu4 Hg4 S4 I4'
_cell_volume   434.79941797
_cell_formula_units_Z   4
loop_
 _symmetry_equiv_pos_site_id
 _symmetry_equiv_pos_as_xyz
  1  'x, y, z'
loop_
 _atom_site_type_symbol
 _atom_site_label
 _atom_site_symmetry_multiplicity
 _atom_site_fract_x
 _atom_site_fract_y
 _atom_site_fract_z
 _atom_site_occupancy
  Hg  Hg0  1  0.18461339  0.03201552  0.95179312  1
  Hg  Hg1  1  0.68461339  0.96798448  0.04820688  1
  Hg  Hg2  1  0.68461339  0.46798448  0.45179312  1
  Hg  Hg3  1  0.18461339  0.53201552  0.54820688  1
  I  I4  1  0.41009789  0.91388271  0.62225434  1
  I  I5  1  0.91009789  0.08611729  0.37774566  1
  I  I6  1  0.91009789  0.58611729  0.12225434  1
  I  I7  1  0.41009789  0.41388271  0.87774566  1
  Cu  Cu8  1  0.29611612  0.08136175  0.36027864  1
  Cu  Cu9  1  0.79611612  0.91863825  0.63972136  1
  Cu  Cu10  1  0.79611612  0.41863825  0.86027864  1
  Cu  Cu11  1  0.29611612  0.58136175  0.13972136  1
  S  S12  1  0.87564259  0.11301527  0.84079645  1
  S  S13  1  0.37564259  0.88698473  0.15920355  1
  S  S14  1  0.37564259  0.38698473  0.34079645  1
  S  S15  1  0.87564259  0.61301527  0.65920355  1
