# generated using pymatgen
data_K2(MoSe6)3
_symmetry_space_group_name_H-M   'P 1'
_cell_length_a   10.62706323
_cell_length_b   10.86356679
_cell_length_c   12.89827951
_cell_angle_alpha   90.00000000
_cell_angle_beta   90.00000000
_cell_angle_gamma   116.70302233
_symmetry_Int_Tables_number   1
_chemical_formula_structural   K2(MoSe6)3
_chemical_formula_sum   'K4 Mo6 Se36'
_cell_volume   1330.26450710
_cell_formula_units_Z   2
loop_
 _symmetry_equiv_pos_site_id
 _symmetry_equiv_pos_as_xyz
  1  'x, y, z'
loop_
 _atom_site_type_symbol
 _atom_site_label
 _atom_site_symmetry_multiplicity
 _atom_site_fract_x
 _atom_site_fract_y
 _atom_site_fract_z
 _atom_site_occupancy
  Mo  Mo0  1  0.08827811  0.48788067  0.76880692  1
  Mo  Mo1  1  0.91172189  0.51211933  0.26880692  1
  Mo  Mo2  1  0.24218570  0.33797853  0.76131103  1
  Mo  Mo3  1  0.75781430  0.66202147  0.26131103  1
  Mo  Mo4  1  0.94748679  0.20033169  0.74950546  1
  Mo  Mo5  1  0.05251321  0.79966831  0.24950546  1
  Se  Se6  1  0.10227334  0.36217261  0.61012494  1
  Se  Se7  1  0.89772666  0.63782739  0.11012494  1
  Se  Se8  1  0.08907584  0.71933082  0.84351424  1
  Se  Se9  1  0.91092416  0.28066918  0.34351424  1
  Se  Se10  1  0.10528089  0.70126623  0.66182588  1
  Se  Se11  1  0.89471911  0.29873377  0.16182588  1
  Se  Se12  1  0.11093016  0.31595013  0.08768512  1
  Se  Se13  1  0.88906984  0.68404987  0.58768512  1
  Se  Se14  1  0.90581823  0.33390492  0.89942735  1
  Se  Se15  1  0.09418177  0.66609508  0.39942735  1
  Se  Se16  1  0.81465651  0.35783825  0.73842407  1
  Se  Se17  1  0.18534349  0.64216175  0.23842407  1
  Se  Se18  1  0.10607731  0.07386433  0.71856161  1
  Se  Se19  1  0.89392269  0.92613567  0.21856161  1
  Se  Se20  1  0.09165375  0.14903651  0.88988129  1
  Se  Se21  1  0.90834625  0.85096349  0.38988129  1
  Se  Se22  1  0.25955260  0.50161962  0.91287861  1
  Se  Se23  1  0.74044740  0.49838038  0.41287861  1
  Se  Se24  1  0.36691628  0.60881056  0.75079168  1
  Se  Se25  1  0.63308372  0.39118944  0.25079168  1
  Se  Se26  1  0.83057393  0.10509455  0.56750752  1
  Se  Se27  1  0.16942607  0.89490545  0.06750752  1
  Se  Se28  1  0.58968219  0.93094977  0.57150251  1
  Se  Se29  1  0.41031781  0.06905023  0.07150251  1
  Se  Se30  1  0.43601430  0.29722000  0.03492558  1
  Se  Se31  1  0.56398570  0.70278000  0.53492558  1
  Se  Se32  1  0.46722166  0.32964801  0.84854019  1
  Se  Se33  1  0.53277834  0.67035199  0.34854019  1
  Se  Se34  1  0.72163068  0.97125272  0.80905912  1
  Se  Se35  1  0.27836932  0.02874728  0.30905912  1
  Se  Se36  1  0.76105628  0.98569266  0.99516082  1
  Se  Se37  1  0.23894372  0.01430734  0.49516082  1
  Se  Se38  1  0.45231962  0.16638622  0.57613992  1
  Se  Se39  1  0.54768038  0.83361378  0.07613992  1
  Se  Se40  1  0.44047095  0.37586342  0.62005293  1
  Se  Se41  1  0.55952905  0.62413658  0.12005293  1
  K  K42  1  0.26366644  0.33619976  0.34601042  1
  K  K43  1  0.73633356  0.66380024  0.84601042  1
  K  K44  1  0.41714518  0.99713904  0.81296281  1
  K  K45  1  0.58285482  0.00286096  0.31296281  1
