# generated using pymatgen
data_MnAl2P2(HO)18
_symmetry_space_group_name_H-M   'P 1'
_cell_length_a   5.25402896
_cell_length_b   7.17834183
_cell_length_c   10.73477439
_cell_angle_alpha   92.10123919
_cell_angle_beta   107.17381869
_cell_angle_gamma   113.44145741
_symmetry_Int_Tables_number   1
_chemical_formula_structural   MnAl2P2(HO)18
_chemical_formula_sum   'Mn1 Al2 P2 H18 O18'
_cell_volume   349.35886859
_cell_formula_units_Z   1
loop_
 _symmetry_equiv_pos_site_id
 _symmetry_equiv_pos_as_xyz
  1  'x, y, z'
loop_
 _atom_site_type_symbol
 _atom_site_label
 _atom_site_symmetry_multiplicity
 _atom_site_fract_x
 _atom_site_fract_y
 _atom_site_fract_z
 _atom_site_occupancy
  Mn  Mn0  1  0.00000000  0.00000000  0.00000000  1
  Al  Al1  1  0.00000000  0.00000000  0.50000000  1
  Al  Al2  1  0.50000000  0.50000000  0.50000000  1
  P  P3  1  0.56770266  0.91320504  0.66363875  1
  P  P4  1  0.43229734  0.08679496  0.33636125  1
  O  O5  1  0.87490900  0.03169850  0.64907669  1
  O  O6  1  0.12509100  0.96830150  0.35092331  1
  O  O7  1  0.39973661  0.69588915  0.57574579  1
  O  O8  1  0.60026339  0.30411085  0.42425421  1
  O  O9  1  0.61067121  0.89436165  0.81164048  1
  O  O10  1  0.38932879  0.10563835  0.18835952  1
  O  O11  1  0.61926302  0.96207008  0.37833811  1
  O  O12  1  0.38073698  0.03792992  0.62166189  1
  O  O13  1  0.14935224  0.28937468  0.50281344  1
  O  O14  1  0.85064776  0.71062532  0.49718656  1
  O  O15  1  0.31855363  0.55525999  0.32066794  1
  O  O16  1  0.68144637  0.44474001  0.67933206  1
  O  O17  1  0.07101509  0.32353630  0.01087138  1
  O  O18  1  0.92898491  0.67646370  0.98912862  1
  O  O19  1  0.71867616  0.93088650  0.11995730  1
  O  O20  1  0.28132384  0.06911350  0.88004270  1
  O  O21  1  0.23268701  0.50675157  0.81126335  1
  O  O22  1  0.76731299  0.49324843  0.18873665  1
  H  H23  1  0.98259538  0.32653037  0.48820476  1
  H  H24  1  0.01740462  0.67346963  0.51179524  1
  H  H25  1  0.42136882  0.71107643  0.33246447  1
  H  H26  1  0.57863118  0.28892357  0.66753553  1
  H  H27  1  0.10209301  0.52060357  0.28176401  1
  H  H28  1  0.89790699  0.47939643  0.71823599  1
  H  H29  1  0.17309499  0.41188850  0.09780878  1
  H  H30  1  0.82690501  0.58811150  0.90219122  1
  H  H31  1  0.15787633  0.40348646  0.94817193  1
  H  H32  1  0.84212367  0.59651354  0.05182807  1
  H  H33  1  0.85226792  0.94502306  0.21156514  1
  H  H34  1  0.14773208  0.05497694  0.78843486  1
  H  H35  1  0.58846038  0.99399937  0.13223961  1
  H  H36  1  0.41153962  0.00600063  0.86776039  1
  H  H37  1  0.38096994  0.65210244  0.81840719  1
  H  H38  1  0.61903006  0.34789756  0.18159281  1
  H  H39  1  0.28066104  0.42084833  0.75779117  1
  H  H40  1  0.71933896  0.57915167  0.24220883  1
