# generated using pymatgen
data_Fe3O4
_symmetry_space_group_name_H-M   'P 1'
_cell_length_a   2.93317642
_cell_length_b   9.86818572
_cell_length_c   9.99333549
_cell_angle_alpha   90.03367700
_cell_angle_beta   90.00000000
_cell_angle_gamma   90.00000000
_symmetry_Int_Tables_number   1
_chemical_formula_structural   Fe3O4
_chemical_formula_sum   'Fe12 O16'
_cell_volume   289.25834158
_cell_formula_units_Z   4
loop_
 _symmetry_equiv_pos_site_id
 _symmetry_equiv_pos_as_xyz
  1  'x, y, z'
loop_
 _atom_site_type_symbol
 _atom_site_label
 _atom_site_symmetry_multiplicity
 _atom_site_fract_x
 _atom_site_fract_y
 _atom_site_fract_z
 _atom_site_occupancy
  Fe  Fe0  1  0.72807238  0.13236566  0.73717656  1
  Fe  Fe1  1  0.73981633  0.36985641  0.26087651  1
  Fe  Fe2  1  0.26018367  0.86985641  0.26087651  1
  Fe  Fe3  1  0.27192762  0.63236566  0.73717656  1
  Fe  Fe4  1  0.76064014  0.87695857  0.57463330  1
  Fe  Fe5  1  0.23935986  0.37695857  0.57463330  1
  Fe  Fe6  1  0.23909670  0.38355432  0.92377146  1
  Fe  Fe7  1  0.24836380  0.11730007  0.42488288  1
  Fe  Fe8  1  0.24945095  0.12148284  0.07116198  1
  Fe  Fe9  1  0.75163620  0.61730007  0.42488288  1
  Fe  Fe10  1  0.76090330  0.88355432  0.92377146  1
  Fe  Fe11  1  0.75054905  0.62148284  0.07116198  1
  O  O12  1  0.24276364  0.46084800  0.37739742  1
  O  O13  1  0.26049695  0.02113519  0.89056615  1
  O  O14  1  0.24646024  0.48053723  0.11865521  1
  O  O15  1  0.75723536  0.96084800  0.37739742  1
  O  O16  1  0.73950305  0.52113519  0.89056615  1
  O  O17  1  0.75353976  0.98053723  0.11865521  1
  O  O18  1  0.74305913  0.51769738  0.61260734  1
  O  O19  1  0.25694087  0.01769738  0.61260734  1
  O  O20  1  0.24116940  0.22540632  0.24580159  1
  O  O21  1  0.77524685  0.78699976  0.75374163  1
  O  O22  1  0.22475315  0.28699976  0.75374163  1
  O  O23  1  0.75883060  0.72540632  0.24580159  1
  O  O24  1  0.25618499  0.75162877  0.00382363  1
  O  O25  1  0.74099083  0.25422847  0.50490333  1
  O  O26  1  0.25900917  0.75422847  0.50490333  1
  O  O27  1  0.74381501  0.25162877  0.00382363  1
