# generated using pymatgen
data_BaCu(SeO3)2
_symmetry_space_group_name_H-M   'P 1'
_cell_length_a   5.41531735
_cell_length_b   9.02833657
_cell_length_c   13.43441973
_cell_angle_alpha   90.00000000
_cell_angle_beta   90.00000000
_cell_angle_gamma   90.34235941
_symmetry_Int_Tables_number   1
_chemical_formula_structural   BaCu(SeO3)2
_chemical_formula_sum   'Ba4 Cu4 Se8 O24'
_cell_volume   656.81462352
_cell_formula_units_Z   4
loop_
 _symmetry_equiv_pos_site_id
 _symmetry_equiv_pos_as_xyz
  1  'x, y, z'
loop_
 _atom_site_type_symbol
 _atom_site_label
 _atom_site_symmetry_multiplicity
 _atom_site_fract_x
 _atom_site_fract_y
 _atom_site_fract_z
 _atom_site_occupancy
  Ba  Ba0  1  0.73012162  0.69093400  0.20129276  1
  Ba  Ba1  1  0.73012162  0.19093400  0.29870724  1
  Ba  Ba2  1  0.26987838  0.80906600  0.70129276  1
  Ba  Ba3  1  0.26987838  0.30906600  0.79870724  1
  Cu  Cu4  1  0.27416771  0.90037318  0.36713052  1
  Cu  Cu5  1  0.72583229  0.09962682  0.63286948  1
  Cu  Cu6  1  0.72583229  0.59962682  0.86713052  1
  Cu  Cu7  1  0.27416771  0.40037318  0.13286948  1
  Se  Se8  1  0.18788197  0.70905715  0.99123923  1
  Se  Se9  1  0.23563312  0.53510347  0.36200360  1
  Se  Se10  1  0.81211803  0.79094285  0.49123923  1
  Se  Se11  1  0.23563312  0.03510347  0.13799640  1
  Se  Se12  1  0.76436688  0.96489653  0.86200360  1
  Se  Se13  1  0.81211803  0.29094285  0.00876077  1
  Se  Se14  1  0.18788197  0.20905715  0.50876077  1
  Se  Se15  1  0.76436688  0.46489653  0.63799640  1
  O  O16  1  0.28012986  0.62391674  0.88459699  1
  O  O17  1  0.22056591  0.70863602  0.30426910  1
  O  O18  1  0.71987014  0.37608326  0.11540301  1
  O  O19  1  0.22056591  0.20863602  0.19573090  1
  O  O20  1  0.86982390  0.17241014  0.50455588  1
  O  O21  1  0.05552081  0.52828103  0.65975824  1
  O  O22  1  0.13017610  0.82758986  0.49544412  1
  O  O23  1  0.29335967  0.60869190  0.09378261  1
  O  O24  1  0.05552081  0.02828103  0.84024176  1
  O  O25  1  0.13017610  0.32758986  0.00455588  1
  O  O26  1  0.70664033  0.89130810  0.59378261  1
  O  O27  1  0.58294063  0.54922186  0.72915092  1
  O  O28  1  0.58294063  0.04922186  0.77084908  1
  O  O29  1  0.77943409  0.29136398  0.69573090  1
  O  O30  1  0.70664033  0.39130810  0.90621739  1
  O  O31  1  0.94447919  0.47171897  0.34024176  1
  O  O32  1  0.71987014  0.87608326  0.38459699  1
  O  O33  1  0.41705937  0.45077814  0.27084908  1
  O  O34  1  0.86982390  0.67241014  0.99544412  1
  O  O35  1  0.28012986  0.12391674  0.61540301  1
  O  O36  1  0.29335967  0.10869190  0.40621739  1
  O  O37  1  0.77943409  0.79136398  0.80426910  1
  O  O38  1  0.41705937  0.95077814  0.22915092  1
  O  O39  1  0.94447919  0.97171897  0.15975824  1
