# generated using pymatgen
data_LiAlSiO4
_symmetry_space_group_name_H-M   'P 1'
_cell_length_a   5.15930278
_cell_length_b   8.31687984
_cell_length_c   8.21090335
_cell_angle_alpha   106.15859375
_cell_angle_beta   90.00000000
_cell_angle_gamma   90.00000000
_symmetry_Int_Tables_number   1
_chemical_formula_structural   LiAlSiO4
_chemical_formula_sum   'Li4 Al4 Si4 O16'
_cell_volume   338.40558079
_cell_formula_units_Z   4
loop_
 _symmetry_equiv_pos_site_id
 _symmetry_equiv_pos_as_xyz
  1  'x, y, z'
loop_
 _atom_site_type_symbol
 _atom_site_label
 _atom_site_symmetry_multiplicity
 _atom_site_fract_x
 _atom_site_fract_y
 _atom_site_fract_z
 _atom_site_occupancy
  Li  Li0  1  0.67020577  0.27713365  0.50239489  1
  Li  Li1  1  0.84326672  0.57972621  0.97118969  1
  Li  Li2  1  0.15673328  0.07972621  0.97118969  1
  Li  Li3  1  0.32979423  0.77713365  0.50239489  1
  Al  Al4  1  0.82094362  0.87382024  0.36653673  1
  Al  Al5  1  0.32990253  0.71702398  0.86753543  1
  Al  Al6  1  0.67009747  0.21702398  0.86753543  1
  Al  Al7  1  0.17905638  0.37382024  0.36653673  1
  Si  Si8  1  0.17303166  0.33775181  0.74064105  1
  Si  Si9  1  0.32494077  0.00028740  0.24626942  1
  Si  Si10  1  0.82696834  0.83775181  0.74064105  1
  Si  Si11  1  0.67505923  0.50028740  0.24626942  1
  O  O12  1  0.62109779  0.02793161  0.32197308  1
  O  O13  1  0.13680989  0.78545834  0.71776464  1
  O  O14  1  0.28887412  0.87559440  0.05531383  1
  O  O15  1  0.15068620  0.92963136  0.38029352  1
  O  O16  1  0.29610095  0.34255614  0.55864162  1
  O  O17  1  0.77797075  0.67765041  0.21831692  1
  O  O18  1  0.66388152  0.70326653  0.81569646  1
  O  O19  1  0.37890221  0.52793161  0.32197308  1
  O  O20  1  0.33611848  0.20326653  0.81569646  1
  O  O21  1  0.19538526  0.52516793  0.87643274  1
  O  O22  1  0.71112588  0.37559440  0.05531383  1
  O  O23  1  0.80461474  0.02516793  0.87643274  1
  O  O24  1  0.70389905  0.84255614  0.55864162  1
  O  O25  1  0.84931380  0.42963136  0.38029352  1
  O  O26  1  0.86319011  0.28545834  0.71776464  1
  O  O27  1  0.22202925  0.17765041  0.21831692  1
