# generated using pymatgen
data_Mg3BeAl8O16
_symmetry_space_group_name_H-M   'P 1'
_cell_length_a   5.72392950
_cell_length_b   5.72392915
_cell_length_c   18.56697450
_cell_angle_alpha   90.00000000
_cell_angle_beta   90.00000000
_cell_angle_gamma   120.00000203
_symmetry_Int_Tables_number   1
_chemical_formula_structural   Mg3BeAl8O16
_chemical_formula_sum   'Mg6 Be2 Al16 O32'
_cell_volume   526.81761651
_cell_formula_units_Z   2
loop_
 _symmetry_equiv_pos_site_id
 _symmetry_equiv_pos_as_xyz
  1  'x, y, z'
loop_
 _atom_site_type_symbol
 _atom_site_label
 _atom_site_symmetry_multiplicity
 _atom_site_fract_x
 _atom_site_fract_y
 _atom_site_fract_z
 _atom_site_occupancy
  Mg  Mg0  1  0.66666700  0.33333300  0.64270688  1
  Mg  Mg1  1  0.33333300  0.66666700  0.95509401  1
  Mg  Mg2  1  0.33333300  0.66666700  0.14270688  1
  Mg  Mg3  1  0.00000000  0.00000000  0.89196272  1
  Mg  Mg4  1  0.00000000  0.00000000  0.39196272  1
  Mg  Mg5  1  0.66666700  0.33333300  0.45509401  1
  Be  Be6  1  0.66666700  0.33333300  0.19184258  1
  Be  Be7  1  0.33333300  0.66666700  0.69184258  1
  Al  Al8  1  0.83505404  0.16494596  0.05194073  1
  Al  Al9  1  0.83505404  0.67010807  0.05194073  1
  Al  Al10  1  0.67010807  0.83505404  0.55194073  1
  Al  Al11  1  0.32989193  0.16494596  0.05194073  1
  Al  Al12  1  0.16494596  0.83505404  0.55194073  1
  Al  Al13  1  0.00000000  0.00000000  0.18190016  1
  Al  Al14  1  0.49812189  0.50187811  0.29730948  1
  Al  Al15  1  0.49812189  0.99624378  0.29730948  1
  Al  Al16  1  0.00000000  0.00000000  0.68190016  1
  Al  Al17  1  0.16494596  0.32989193  0.55194073  1
  Al  Al18  1  0.50187811  0.00375622  0.79730948  1
  Al  Al19  1  0.33333300  0.66666700  0.42535934  1
  Al  Al20  1  0.99624378  0.49812189  0.79730948  1
  Al  Al21  1  0.50187811  0.49812189  0.79730948  1
  Al  Al22  1  0.00375622  0.50187811  0.29730948  1
  Al  Al23  1  0.66666700  0.33333300  0.92535934  1
  O  O24  1  0.51782173  0.03564347  0.99237077  1
  O  O25  1  0.96435653  0.48217827  0.99237077  1
  O  O26  1  0.85239588  0.70479176  0.61111298  1
  O  O27  1  0.66666700  0.33333300  0.34815737  1
  O  O28  1  0.48217827  0.51782173  0.49237077  1
  O  O29  1  0.48217827  0.96435653  0.49237077  1
  O  O30  1  0.03564347  0.51782173  0.49237077  1
  O  O31  1  0.33333300  0.66666700  0.84815737  1
  O  O32  1  0.18491637  0.81508363  0.35834584  1
  O  O33  1  0.18491637  0.36983274  0.35834584  1
  O  O34  1  0.82110574  0.17889426  0.23536356  1
  O  O35  1  0.17889426  0.82110574  0.73536356  1
  O  O36  1  0.70479176  0.85239588  0.11111298  1
  O  O37  1  0.14760412  0.85239588  0.11111298  1
  O  O38  1  0.17889426  0.35778852  0.73536356  1
  O  O39  1  0.81508363  0.18491637  0.85834584  1
  O  O40  1  0.33333300  0.66666700  0.60692711  1
  O  O41  1  0.00000000  0.00000000  0.99728673  1
  O  O42  1  0.29520824  0.14760412  0.61111298  1
  O  O43  1  0.51782173  0.48217827  0.99237077  1
  O  O44  1  0.33333300  0.66666700  0.24633305  1
  O  O45  1  0.63016726  0.81508363  0.35834584  1
  O  O46  1  0.64221148  0.82110574  0.73536356  1
  O  O47  1  0.36983274  0.18491637  0.85834584  1
  O  O48  1  0.66666700  0.33333300  0.10692711  1
  O  O49  1  0.85239588  0.14760412  0.61111298  1
  O  O50  1  0.66666700  0.33333300  0.74633305  1
  O  O51  1  0.14760412  0.29520824  0.11111298  1
  O  O52  1  0.00000000  0.00000000  0.49728673  1
  O  O53  1  0.82110574  0.64221148  0.23536356  1
  O  O54  1  0.35778852  0.17889426  0.23536356  1
  O  O55  1  0.81508363  0.63016726  0.85834584  1
