# generated using pymatgen
data_Na3Pr14(RuO6)6
_symmetry_space_group_name_H-M   'P 1'
_cell_length_a   19.64442192
_cell_length_b   19.64442219
_cell_length_c   19.64442216
_cell_angle_alpha   29.03141180
_cell_angle_beta   29.03141040
_cell_angle_gamma   29.03141036
_symmetry_Int_Tables_number   1
_chemical_formula_structural   Na3Pr14(RuO6)6
_chemical_formula_sum   'Na6 Pr28 Ru12 O72'
_cell_volume   1579.17924499
_cell_formula_units_Z   2
loop_
 _symmetry_equiv_pos_site_id
 _symmetry_equiv_pos_as_xyz
  1  'x, y, z'
loop_
 _atom_site_type_symbol
 _atom_site_label
 _atom_site_symmetry_multiplicity
 _atom_site_fract_x
 _atom_site_fract_y
 _atom_site_fract_z
 _atom_site_occupancy
  Na  Na0  1  0.44699261  0.44699261  0.44699261  1
  Na  Na1  1  0.25000000  0.25000000  0.25000000  1
  Na  Na2  1  0.55300739  0.55300739  0.55300739  1
  Na  Na3  1  0.05300739  0.05300739  0.05300739  1
  Na  Na4  1  0.75000000  0.75000000  0.75000000  1
  Na  Na5  1  0.94699261  0.94699261  0.94699261  1
  Pr  Pr6  1  0.54100597  0.19717611  0.81946653  1
  Pr  Pr7  1  0.50071754  0.92953380  0.22018373  1
  Pr  Pr8  1  0.95899403  0.68053347  0.30282389  1
  Pr  Pr9  1  0.45899403  0.80282389  0.18053347  1
  Pr  Pr10  1  0.92953380  0.22018373  0.50071754  1
  Pr  Pr11  1  0.31946653  0.69717611  0.04100597  1
  Pr  Pr12  1  0.19717611  0.81946653  0.54100597  1
  Pr  Pr13  1  0.49928246  0.07046620  0.77981627  1
  Pr  Pr14  1  0.07046620  0.77981627  0.49928246  1
  Pr  Pr15  1  0.18053347  0.45899403  0.80282389  1
  Pr  Pr16  1  0.89230573  0.89230573  0.89230573  1
  Pr  Pr17  1  0.72018373  0.42953380  0.00071754  1
  Pr  Pr18  1  0.60769427  0.60769427  0.60769427  1
  Pr  Pr19  1  0.30282389  0.95899403  0.68053347  1
  Pr  Pr20  1  0.69717611  0.04100597  0.31946653  1
  Pr  Pr21  1  0.27981627  0.57046620  0.99928246  1
  Pr  Pr22  1  0.42953380  0.00071754  0.72018373  1
  Pr  Pr23  1  0.04100597  0.31946653  0.69717611  1
  Pr  Pr24  1  0.81946653  0.54100597  0.19717611  1
  Pr  Pr25  1  0.57046620  0.99928246  0.27981627  1
  Pr  Pr26  1  0.00071754  0.72018373  0.42953380  1
  Pr  Pr27  1  0.10769427  0.10769427  0.10769427  1
  Pr  Pr28  1  0.39230573  0.39230573  0.39230573  1
  Pr  Pr29  1  0.68053347  0.30282389  0.95899403  1
  Pr  Pr30  1  0.80282389  0.18053347  0.45899403  1
  Pr  Pr31  1  0.99928246  0.27981627  0.57046620  1
  Pr  Pr32  1  0.22018373  0.50071754  0.92953380  1
  Pr  Pr33  1  0.77981627  0.49928246  0.07046620  1
  Ru  Ru34  1  0.91721524  0.58278476  0.25000000  1
  Ru  Ru35  1  0.33766153  0.33766153  0.33766153  1
  Ru  Ru36  1  0.50000000  0.50000000  0.50000000  1
  Ru  Ru37  1  0.16233847  0.16233847  0.16233847  1
  Ru  Ru38  1  0.41721524  0.75000000  0.08278476  1
  Ru  Ru39  1  0.83766153  0.83766153  0.83766153  1
  Ru  Ru40  1  0.58278476  0.25000000  0.91721524  1
  Ru  Ru41  1  0.75000000  0.08278476  0.41721524  1
  Ru  Ru42  1  0.08278476  0.41721524  0.75000000  1
  Ru  Ru43  1  0.25000000  0.91721524  0.58278476  1
  Ru  Ru44  1  0.66233847  0.66233847  0.66233847  1
  Ru  Ru45  1  0.00000000  0.00000000  0.00000000  1
  O  O46  1  0.01449587  0.33520454  0.07344077  1
  O  O47  1  0.69000589  0.01872556  0.75306662  1
  O  O48  1  0.48550413  0.42655923  0.16479546  1
  O  O49  1  0.71854647  0.92018196  0.53254449  1
  O  O50  1  0.29776466  0.79696785  0.73224654  1
  O  O51  1  0.51872556  0.19000589  0.25306662  1
  O  O52  1  0.07344077  0.01449587  0.33520454  1
  O  O53  1  0.48127444  0.80999411  0.74693338  1
  O  O54  1  0.81555806  0.44593822  0.48425784  1
  O  O55  1  0.42655923  0.16479546  0.48550413  1
  O  O56  1  0.57981804  0.78145353  0.96745551  1
  O  O57  1  0.79696785  0.73224654  0.29776466  1
  O  O58  1  0.20303215  0.26775346  0.70223534  1
  O  O59  1  0.03254449  0.42018196  0.21854647  1
  O  O60  1  0.97639319  0.14947905  0.81212413  1
  O  O61  1  0.94593822  0.31555806  0.98425784  1
  O  O62  1  0.02360681  0.85052095  0.18787587  1
  O  O63  1  0.75306662  0.69000589  0.01872556  1
  O  O64  1  0.05406178  0.68444194  0.01574216  1
  O  O65  1  0.16479546  0.48550413  0.42655923  1
  O  O66  1  0.26775346  0.70223534  0.20303215  1
  O  O67  1  0.30999411  0.98127444  0.24693338  1
  O  O68  1  0.70303215  0.20223534  0.76775346  1
  O  O69  1  0.33520454  0.07344077  0.01449587  1
  O  O70  1  0.98425784  0.94593822  0.31555806  1
  O  O71  1  0.98127444  0.24693338  0.30999411  1
  O  O72  1  0.28145353  0.07981804  0.46745551  1
  O  O73  1  0.07981804  0.46745551  0.28145353  1
  O  O74  1  0.55406178  0.51574216  0.18444194  1
  O  O75  1  0.83520454  0.51449587  0.57344077  1
  O  O76  1  0.64947905  0.47639319  0.31212413  1
  O  O77  1  0.78145353  0.96745551  0.57981804  1
  O  O78  1  0.24693338  0.30999411  0.98127444  1
  O  O79  1  0.48425784  0.81555806  0.44593822  1
  O  O80  1  0.14947905  0.81212413  0.97639319  1
  O  O81  1  0.51574216  0.18444194  0.55406178  1
  O  O82  1  0.92018196  0.53254449  0.71854647  1
  O  O83  1  0.80999411  0.74693338  0.48127444  1
  O  O84  1  0.68787587  0.35052095  0.52360681  1
  O  O85  1  0.01574216  0.05406178  0.68444194  1
  O  O86  1  0.31212413  0.64947905  0.47639319  1
  O  O87  1  0.19000589  0.25306662  0.51872556  1
  O  O88  1  0.79776466  0.23224654  0.29696785  1
  O  O89  1  0.44593822  0.48425784  0.81555806  1
  O  O90  1  0.53254449  0.71854647  0.92018196  1
  O  O91  1  0.47639319  0.31212413  0.64947905  1
  O  O92  1  0.98550413  0.66479546  0.92655923  1
  O  O93  1  0.51449587  0.57344077  0.83520454  1
  O  O94  1  0.01872556  0.75306662  0.69000589  1
  O  O95  1  0.42018196  0.21854647  0.03254449  1
  O  O96  1  0.35052095  0.52360681  0.68787587  1
  O  O97  1  0.52360681  0.68787587  0.35052095  1
  O  O98  1  0.20223534  0.76775346  0.70303215  1
  O  O99  1  0.29696785  0.79776466  0.23224654  1
  O  O100  1  0.18787587  0.02360681  0.85052095  1
  O  O101  1  0.66479546  0.92655923  0.98550413  1
  O  O102  1  0.21854647  0.03254449  0.42018196  1
  O  O103  1  0.25306662  0.51872556  0.19000589  1
  O  O104  1  0.74693338  0.48127444  0.80999411  1
  O  O105  1  0.57344077  0.83520454  0.51449587  1
  O  O106  1  0.81212413  0.97639319  0.14947905  1
  O  O107  1  0.23224654  0.29696785  0.79776466  1
  O  O108  1  0.76775346  0.70303215  0.20223534  1
  O  O109  1  0.46745551  0.28145353  0.07981804  1
  O  O110  1  0.73224654  0.29776466  0.79696785  1
  O  O111  1  0.92655923  0.98550413  0.66479546  1
  O  O112  1  0.31555806  0.98425784  0.94593822  1
  O  O113  1  0.68444194  0.01574216  0.05406178  1
  O  O114  1  0.96745551  0.57981804  0.78145353  1
  O  O115  1  0.18444194  0.55406178  0.51574216  1
  O  O116  1  0.85052095  0.18787587  0.02360681  1
  O  O117  1  0.70223534  0.20303215  0.26775346  1
