# generated using pymatgen
data_KCdCu7Se2Cl9O8
_symmetry_space_group_name_H-M   'P 1'
_cell_length_a   8.87448419
_cell_length_b   8.87448413
_cell_length_c   15.76323670
_cell_angle_alpha   90.00000000
_cell_angle_beta   90.00000000
_cell_angle_gamma   120.00000018
_symmetry_Int_Tables_number   1
_chemical_formula_structural   KCdCu7Se2Cl9O8
_chemical_formula_sum   'K2 Cd2 Cu14 Se4 Cl18 O16'
_cell_volume   1075.13318039
_cell_formula_units_Z   2
loop_
 _symmetry_equiv_pos_site_id
 _symmetry_equiv_pos_as_xyz
  1  'x, y, z'
loop_
 _atom_site_type_symbol
 _atom_site_label
 _atom_site_symmetry_multiplicity
 _atom_site_fract_x
 _atom_site_fract_y
 _atom_site_fract_z
 _atom_site_occupancy
  K  K0  1  0.00000000  0.00000000  0.25000000  1
  K  K1  1  0.00000000  0.00000000  0.75000000  1
  Cd  Cd2  1  0.00000000  0.00000000  0.50000000  1
  Cd  Cd3  1  0.00000000  0.00000000  0.00000000  1
  Cu  Cu4  1  0.90476539  0.45238269  0.09216272  1
  Cu  Cu5  1  0.54761731  0.09523461  0.40783728  1
  Cu  Cu6  1  0.09523461  0.54761731  0.59216272  1
  Cu  Cu7  1  0.45238269  0.54761731  0.59216272  1
  Cu  Cu8  1  0.54761731  0.45238269  0.40783728  1
  Cu  Cu9  1  0.45238269  0.90476539  0.59216272  1
  Cu  Cu10  1  0.45238269  0.90476539  0.90783728  1
  Cu  Cu11  1  0.45238269  0.54761731  0.90783728  1
  Cu  Cu12  1  0.90476539  0.45238269  0.40783728  1
  Cu  Cu13  1  0.09523461  0.54761731  0.90783728  1
  Cu  Cu14  1  0.54761731  0.09523461  0.09216272  1
  Cu  Cu15  1  0.54761731  0.45238269  0.09216272  1
  Cu  Cu16  1  0.66666700  0.33333300  0.25000000  1
  Cu  Cu17  1  0.33333300  0.66666700  0.75000000  1
  Se  Se18  1  0.66666700  0.33333300  0.59858201  1
  Se  Se19  1  0.33333300  0.66666700  0.09858201  1
  Se  Se20  1  0.66666700  0.33333300  0.90141799  1
  Se  Se21  1  0.33333300  0.66666700  0.40141799  1
  Cl  Cl22  1  0.50906409  0.01812818  0.25000000  1
  Cl  Cl23  1  0.27761322  0.13880661  0.39917131  1
  Cl  Cl24  1  0.72238678  0.86119339  0.89917131  1
  Cl  Cl25  1  0.50906409  0.49093591  0.25000000  1
  Cl  Cl26  1  0.13880661  0.86119339  0.89917131  1
  Cl  Cl27  1  0.13880661  0.27761322  0.89917131  1
  Cl  Cl28  1  0.86119339  0.72238678  0.10082869  1
  Cl  Cl29  1  0.01812818  0.50906409  0.75000000  1
  Cl  Cl30  1  0.86119339  0.72238678  0.39917131  1
  Cl  Cl31  1  0.49093591  0.50906409  0.75000000  1
  Cl  Cl32  1  0.98187182  0.49093591  0.25000000  1
  Cl  Cl33  1  0.13880661  0.27761322  0.60082869  1
  Cl  Cl34  1  0.72238678  0.86119339  0.60082869  1
  Cl  Cl35  1  0.49093591  0.98187182  0.75000000  1
  Cl  Cl36  1  0.27761322  0.13880661  0.10082869  1
  Cl  Cl37  1  0.13880661  0.86119339  0.60082869  1
  Cl  Cl38  1  0.86119339  0.13880661  0.39917131  1
  Cl  Cl39  1  0.86119339  0.13880661  0.10082869  1
  O  O40  1  0.56780207  0.13560414  0.54506670  1
  O  O41  1  0.66666700  0.33333300  0.12808352  1
  O  O42  1  0.86439586  0.43219793  0.54506670  1
  O  O43  1  0.56780207  0.43219793  0.95493330  1
  O  O44  1  0.33333300  0.66666700  0.62808352  1
  O  O45  1  0.56780207  0.13560414  0.95493330  1
  O  O46  1  0.13560414  0.56780207  0.45493330  1
  O  O47  1  0.13560414  0.56780207  0.04506670  1
  O  O48  1  0.43219793  0.56780207  0.04506670  1
  O  O49  1  0.33333300  0.66666700  0.87191648  1
  O  O50  1  0.43219793  0.86439586  0.04506670  1
  O  O51  1  0.56780207  0.43219793  0.54506670  1
  O  O52  1  0.86439586  0.43219793  0.95493330  1
  O  O53  1  0.66666700  0.33333300  0.37191648  1
  O  O54  1  0.43219793  0.56780207  0.45493330  1
  O  O55  1  0.43219793  0.86439586  0.45493330  1
