# generated using pymatgen
data_Ba8V7O22
_symmetry_space_group_name_H-M   'P 1'
_cell_length_a   19.77742074
_cell_length_b   19.77742074
_cell_length_c   19.77742075
_cell_angle_alpha   17.12157589
_cell_angle_beta   17.12157587
_cell_angle_gamma   17.12157591
_symmetry_Int_Tables_number   1
_chemical_formula_structural   Ba8V7O22
_chemical_formula_sum   'Ba8 V7 O22'
_cell_volume   584.97221771
_cell_formula_units_Z   1
loop_
 _symmetry_equiv_pos_site_id
 _symmetry_equiv_pos_as_xyz
  1  'x, y, z'
loop_
 _atom_site_type_symbol
 _atom_site_label
 _atom_site_symmetry_multiplicity
 _atom_site_fract_x
 _atom_site_fract_y
 _atom_site_fract_z
 _atom_site_occupancy
  O  O0  1  0.56400676  0.56400676  0.56400676  1
  O  O1  1  0.43599324  0.43599324  0.43599324  1
  O  O2  1  0.77364530  0.77364530  0.77364530  1
  O  O3  1  0.22635470  0.22635470  0.22635470  1
  O  O4  1  0.10404520  0.10404520  0.59257818  1
  O  O5  1  0.10404520  0.59257818  0.10404520  1
  O  O6  1  0.59257818  0.10404520  0.10404520  1
  O  O7  1  0.40742182  0.89595480  0.89595480  1
  O  O8  1  0.89595480  0.89595480  0.40742182  1
  O  O9  1  0.89595480  0.40742182  0.89595480  1
  O  O10  1  0.68646630  0.68646630  0.20045298  1
  O  O11  1  0.68646630  0.20045298  0.68646630  1
  O  O12  1  0.20045298  0.68646630  0.68646630  1
  O  O13  1  0.79954702  0.31353370  0.31353370  1
  O  O14  1  0.31353370  0.31353370  0.79954702  1
  O  O15  1  0.17404935  0.71680785  0.17404935  1
  O  O16  1  0.17404935  0.17404935  0.71680785  1
  O  O17  1  0.71680785  0.17404935  0.17404935  1
  O  O18  1  0.28319215  0.82595065  0.82595065  1
  O  O19  1  0.82595065  0.28319215  0.82595065  1
  O  O20  1  0.82595065  0.82595065  0.28319215  1
  O  O21  1  0.31353370  0.79954702  0.31353370  1
  V  V22  1  0.00000000  0.00000000  0.00000000  1
  V  V23  1  0.74402141  0.74402141  0.74402141  1
  V  V24  1  0.25597859  0.25597859  0.25597859  1
  V  V25  1  0.53458855  0.53458855  0.53458855  1
  V  V26  1  0.46541145  0.46541145  0.46541145  1
  V  V27  1  0.95505627  0.95505627  0.95505627  1
  V  V28  1  0.04494373  0.04494373  0.04494373  1
  Ba  Ba29  1  0.61223467  0.61223467  0.61223467  1
  Ba  Ba30  1  0.38776533  0.38776533  0.38776533  1
  Ba  Ba31  1  0.81896304  0.81896304  0.81896304  1
  Ba  Ba32  1  0.18103696  0.18103696  0.18103696  1
  Ba  Ba33  1  0.89428956  0.89428956  0.89428956  1
  Ba  Ba34  1  0.10571044  0.10571044  0.10571044  1
  Ba  Ba35  1  0.68084608  0.68084608  0.68084608  1
  Ba  Ba36  1  0.31915392  0.31915392  0.31915392  1
