# generated using pymatgen
data_NdAsO4
_symmetry_space_group_name_H-M   'P 1'
_cell_length_a   6.77150315
_cell_length_b   7.00611742
_cell_length_c   7.19911695
_cell_angle_alpha   90.00000000
_cell_angle_beta   90.00000000
_cell_angle_gamma   105.07182645
_symmetry_Int_Tables_number   1
_chemical_formula_structural   NdAsO4
_chemical_formula_sum   'Nd4 As4 O16'
_cell_volume   329.79134692
_cell_formula_units_Z   4
loop_
 _symmetry_equiv_pos_site_id
 _symmetry_equiv_pos_as_xyz
  1  'x, y, z'
loop_
 _atom_site_type_symbol
 _atom_site_label
 _atom_site_symmetry_multiplicity
 _atom_site_fract_x
 _atom_site_fract_y
 _atom_site_fract_z
 _atom_site_occupancy
  Nd  Nd0  1  0.40493064  0.21763572  0.15141653  1
  Nd  Nd1  1  0.59506936  0.78236428  0.84858347  1
  Nd  Nd2  1  0.09506936  0.28236428  0.65141653  1
  Nd  Nd3  1  0.90493064  0.71763572  0.34858347  1
  As  As4  1  0.11268344  0.80253787  0.83794156  1
  As  As5  1  0.38731656  0.69746213  0.33794156  1
  As  As6  1  0.61268344  0.30253787  0.66205844  1
  As  As7  1  0.88731656  0.19746213  0.16205844  1
  O  O8  1  0.77481161  0.38419288  0.21304823  1
  O  O9  1  0.22518839  0.61580712  0.78695177  1
  O  O10  1  0.42369833  0.25233296  0.49593469  1
  O  O11  1  0.16827233  0.51808246  0.39412537  1
  O  O12  1  0.72518839  0.11580712  0.71304823  1
  O  O13  1  0.92369833  0.75233296  0.00406531  1
  O  O14  1  0.07630167  0.24766704  0.99593469  1
  O  O15  1  0.49855817  0.39323438  0.84402951  1
  O  O16  1  0.00144183  0.10676562  0.34402951  1
  O  O17  1  0.83172767  0.48191754  0.60587463  1
  O  O18  1  0.66827233  0.01808246  0.10587463  1
  O  O19  1  0.99855817  0.89323438  0.65597049  1
  O  O20  1  0.27481161  0.88419288  0.28695177  1
  O  O21  1  0.57630167  0.74766704  0.50406531  1
  O  O22  1  0.50144183  0.60676562  0.15597049  1
  O  O23  1  0.33172767  0.98191754  0.89412537  1
