# generated using pymatgen
data_Al3Pb5F19
_symmetry_space_group_name_H-M   'P 1'
_cell_length_a   7.34953656
_cell_length_b   10.94822755
_cell_length_c   10.94822689
_cell_angle_alpha   83.53128730
_cell_angle_beta   70.38795825
_cell_angle_gamma   70.38795492
_symmetry_Int_Tables_number   1
_chemical_formula_structural   Al3Pb5F19
_chemical_formula_sum   'Al6 Pb10 F38'
_cell_volume   781.69494701
_cell_formula_units_Z   2
loop_
 _symmetry_equiv_pos_site_id
 _symmetry_equiv_pos_as_xyz
  1  'x, y, z'
loop_
 _atom_site_type_symbol
 _atom_site_label
 _atom_site_symmetry_multiplicity
 _atom_site_fract_x
 _atom_site_fract_y
 _atom_site_fract_z
 _atom_site_occupancy
  Al  Al0  1  0.66621821  0.50000000  0.16756357  1
  Al  Al1  1  0.83378179  0.83243643  0.50000000  1
  Al  Al2  1  0.33378179  0.50000000  0.83243643  1
  Al  Al3  1  0.75000000  0.00000000  0.00000000  1
  Al  Al4  1  0.25000000  0.00000000  0.00000000  1
  Al  Al5  1  0.16621821  0.16756357  0.50000000  1
  Pb  Pb6  1  0.42727081  0.84407830  0.30138008  1
  Pb  Pb7  1  0.57272919  0.15592170  0.69861992  1
  Pb  Pb8  1  0.27134911  0.30138008  0.15592170  1
  Pb  Pb9  1  0.07272919  0.69861992  0.15592170  1
  Pb  Pb10  1  0.77134911  0.15592170  0.30138008  1
  Pb  Pb11  1  0.22865089  0.84407830  0.69861992  1
  Pb  Pb12  1  0.72865089  0.69861992  0.84407830  1
  Pb  Pb13  1  0.75000000  0.50000000  0.50000000  1
  Pb  Pb14  1  0.92727081  0.30138008  0.84407830  1
  Pb  Pb15  1  0.25000000  0.50000000  0.50000000  1
  F  F16  1  0.83801977  0.82396047  0.00000000  1
  F  F17  1  0.16198023  0.00000000  0.17603953  1
  F  F18  1  0.94600805  0.82318722  0.62813057  1
  F  F19  1  0.75483221  0.50000000  0.99033559  1
  F  F20  1  0.39732584  0.17681278  0.37186943  1
  F  F21  1  0.92299364  0.65401273  0.50000000  1
  F  F22  1  0.33801977  0.82396047  0.00000000  1
  F  F23  1  0.00000000  0.00000000  0.00000000  1
  F  F24  1  0.05399195  0.17681278  0.37186943  1
  F  F25  1  0.76919527  0.62813057  0.17681278  1
  F  F26  1  0.57413862  0.37186943  0.82318722  1
  F  F27  1  0.16198023  0.17603953  0.00000000  1
  F  F28  1  0.44600805  0.62813057  0.82318722  1
  F  F29  1  0.66198023  0.17603953  0.00000000  1
  F  F30  1  0.25483221  0.99033559  0.50000000  1
  F  F31  1  0.57700636  0.50000000  0.34598727  1
  F  F32  1  0.60267416  0.82318722  0.62813057  1
  F  F33  1  0.24516779  0.50000000  0.00966441  1
  F  F34  1  0.55399195  0.37186943  0.17681278  1
  F  F35  1  0.83801977  0.00000000  0.82396047  1
  F  F36  1  0.07413862  0.82318722  0.37186943  1
  F  F37  1  0.89349879  0.50000000  0.71300241  1
  F  F38  1  0.73080473  0.82318722  0.37186943  1
  F  F39  1  0.26919527  0.17681278  0.62813057  1
  F  F40  1  0.33801977  0.00000000  0.82396047  1
  F  F41  1  0.23080473  0.37186943  0.82318722  1
  F  F42  1  0.66198023  0.00000000  0.17603953  1
  F  F43  1  0.50000000  0.00000000  0.00000000  1
  F  F44  1  0.92586138  0.17681278  0.62813057  1
  F  F45  1  0.07700636  0.34598727  0.50000000  1
  F  F46  1  0.10267416  0.62813057  0.82318722  1
  F  F47  1  0.42299364  0.50000000  0.65401273  1
  F  F48  1  0.42586138  0.62813057  0.17681278  1
  F  F49  1  0.89732584  0.37186943  0.17681278  1
  F  F50  1  0.39349879  0.71300241  0.50000000  1
  F  F51  1  0.60650121  0.28699759  0.50000000  1
  F  F52  1  0.10650121  0.50000000  0.28699759  1
  F  F53  1  0.74516779  0.00966441  0.50000000  1
