# generated using pymatgen
data_Li3Zn2SbO6
_symmetry_space_group_name_H-M   'P 1'
_cell_length_a   5.27085183
_cell_length_b   5.30098997
_cell_length_c   5.30099021
_cell_angle_alpha   119.76529644
_cell_angle_beta   100.02264400
_cell_angle_gamma   100.02264277
_symmetry_Int_Tables_number   1
_chemical_formula_structural   Li3Zn2SbO6
_chemical_formula_sum   'Li3 Zn2 Sb1 O6'
_cell_volume   120.59092565
_cell_formula_units_Z   1
loop_
 _symmetry_equiv_pos_site_id
 _symmetry_equiv_pos_as_xyz
  1  'x, y, z'
loop_
 _atom_site_type_symbol
 _atom_site_label
 _atom_site_symmetry_multiplicity
 _atom_site_fract_x
 _atom_site_fract_y
 _atom_site_fract_z
 _atom_site_occupancy
  Li  Li0  1  0.50000000  0.17010103  0.82989897  1
  Li  Li1  1  0.50000000  0.82989897  0.17010103  1
  Li  Li2  1  0.50000000  0.50000000  0.50000000  1
  Zn  Zn3  1  0.00000000  0.33340373  0.66659627  1
  Zn  Zn4  1  0.00000000  0.66659627  0.33340373  1
  Sb  Sb5  1  0.00000000  0.00000000  0.00000000  1
  O  O6  1  0.76441649  0.92129217  0.60747095  1
  O  O7  1  0.22851595  0.76472968  0.76472968  1
  O  O8  1  0.23558351  0.07870783  0.39252905  1
  O  O9  1  0.76441649  0.60747095  0.92129217  1
  O  O10  1  0.77148405  0.23527032  0.23527032  1
  O  O11  1  0.23558351  0.39252905  0.07870783  1
