# generated using pymatgen
data_SiO2
_symmetry_space_group_name_H-M   'P 1'
_cell_length_a   8.02559759
_cell_length_b   8.89932565
_cell_length_c   8.90286867
_cell_angle_alpha   90.31726058
_cell_angle_beta   90.00000000
_cell_angle_gamma   90.00000000
_symmetry_Int_Tables_number   1
_chemical_formula_structural   SiO2
_chemical_formula_sum   'Si16 O32'
_cell_volume   635.85455712
_cell_formula_units_Z   16
loop_
 _symmetry_equiv_pos_site_id
 _symmetry_equiv_pos_as_xyz
  1  'x, y, z'
loop_
 _atom_site_type_symbol
 _atom_site_label
 _atom_site_symmetry_multiplicity
 _atom_site_fract_x
 _atom_site_fract_y
 _atom_site_fract_z
 _atom_site_occupancy
  Si  Si0  1  0.12859951  0.16077504  0.35422006  1
  Si  Si1  1  0.62780343  0.10401928  0.59538113  1
  Si  Si2  1  0.14048893  0.59499510  0.09053262  1
  Si  Si3  1  0.87219657  0.10401928  0.09538113  1
  Si  Si4  1  0.87140049  0.83922496  0.64577994  1
  Si  Si5  1  0.64048893  0.40500490  0.40946738  1
  Si  Si6  1  0.85951107  0.40500490  0.90946738  1
  Si  Si7  1  0.60701249  0.65736521  0.84195454  1
  Si  Si8  1  0.37219657  0.89598072  0.40461887  1
  Si  Si9  1  0.12780343  0.89598072  0.90461887  1
  Si  Si10  1  0.39298751  0.34263479  0.15804546  1
  Si  Si11  1  0.35951107  0.59499510  0.59053262  1
  Si  Si12  1  0.89298751  0.65736521  0.34195454  1
  Si  Si13  1  0.37140049  0.16077504  0.85422006  1
  Si  Si14  1  0.62859951  0.83922496  0.14577994  1
  Si  Si15  1  0.10701249  0.34263479  0.65804546  1
  O  O16  1  0.81454522  0.49878930  0.40021628  1
  O  O17  1  0.17757419  0.75078823  0.00358484  1
  O  O18  1  0.68545478  0.49878930  0.90021628  1
  O  O19  1  0.26733916  0.27127456  0.28170057  1
  O  O20  1  0.42780786  0.62765125  0.76077531  1
  O  O21  1  0.76733916  0.72872544  0.21829943  1
  O  O22  1  0.70425948  0.00886130  0.13342758  1
  O  O23  1  0.58206284  0.77454996  0.98031820  1
  O  O24  1  0.20425948  0.99113870  0.36657242  1
  O  O25  1  0.79574052  0.00886130  0.63342758  1
  O  O26  1  0.23266084  0.27127456  0.78170057  1
  O  O27  1  0.96117580  0.15680724  0.25155337  1
  O  O28  1  0.03882420  0.84319276  0.74844663  1
  O  O29  1  0.53882420  0.15680724  0.75155337  1
  O  O30  1  0.31454522  0.50121070  0.09978372  1
  O  O31  1  0.32242581  0.75078823  0.50358484  1
  O  O32  1  0.82242581  0.24921177  0.99641516  1
  O  O33  1  0.18545478  0.50121070  0.59978372  1
  O  O34  1  0.73266084  0.72872544  0.71829943  1
  O  O35  1  0.29574052  0.99113870  0.86657242  1
  O  O36  1  0.08206284  0.22545004  0.51968180  1
  O  O37  1  0.50000000  0.50000000  0.50000000  1
  O  O38  1  0.57219214  0.37234875  0.23922469  1
  O  O39  1  0.07219214  0.62765125  0.26077531  1
  O  O40  1  0.46117580  0.84319276  0.24844663  1
  O  O41  1  0.67757419  0.24921177  0.49641516  1
  O  O42  1  0.41793716  0.22545004  0.01968180  1
  O  O43  1  0.92780786  0.37234875  0.73922469  1
  O  O44  1  0.00000000  0.50000000  0.00000000  1
  O  O45  1  0.00000000  0.00000000  0.00000000  1
  O  O46  1  0.91793716  0.77454996  0.48031820  1
  O  O47  1  0.50000000  0.00000000  0.50000000  1
