# generated using pymatgen
data_OsO2F3
_symmetry_space_group_name_H-M   'P 1'
_cell_length_a   5.23781446
_cell_length_b   5.69334603
_cell_length_c   12.65461588
_cell_angle_alpha   100.96603447
_cell_angle_beta   90.00000000
_cell_angle_gamma   90.00000000
_symmetry_Int_Tables_number   1
_chemical_formula_structural   OsO2F3
_chemical_formula_sum   'Os4 O8 F12'
_cell_volume   370.47866143
_cell_formula_units_Z   4
loop_
 _symmetry_equiv_pos_site_id
 _symmetry_equiv_pos_as_xyz
  1  'x, y, z'
loop_
 _atom_site_type_symbol
 _atom_site_label
 _atom_site_symmetry_multiplicity
 _atom_site_fract_x
 _atom_site_fract_y
 _atom_site_fract_z
 _atom_site_occupancy
  Os  Os0  1  0.48400564  0.18001913  0.04891868  1
  Os  Os1  1  0.03374093  0.81681635  0.33669598  1
  Os  Os2  1  0.96625907  0.81681635  0.83669598  1
  Os  Os3  1  0.51599436  0.18001913  0.54891868  1
  O  O4  1  0.39915030  0.40248738  0.49295628  1
  O  O5  1  0.86182840  0.75693535  0.21985847  1
  O  O6  1  0.09742888  0.63094981  0.91365444  1
  O  O7  1  0.67770050  0.68610132  0.80057730  1
  O  O8  1  0.90257112  0.63094981  0.41365444  1
  O  O9  1  0.32229950  0.68610132  0.30057730  1
  O  O10  1  0.60084970  0.40248738  0.99295628  1
  O  O11  1  0.13817160  0.75693535  0.71985847  1
  F  F12  1  0.18133565  0.32847387  0.11057868  1
  F  F13  1  0.20348523  0.97489296  0.49736739  1
  F  F14  1  0.63806270  0.25318555  0.18635515  1
  F  F15  1  0.29209783  0.04845889  0.90961732  1
  F  F16  1  0.79651477  0.97489296  0.99736739  1
  F  F17  1  0.12789249  0.13396607  0.32566039  1
  F  F18  1  0.81866435  0.32847387  0.61057868  1
  F  F19  1  0.37305499  0.88834333  0.08389991  1
  F  F20  1  0.70790217  0.04845889  0.40961732  1
  F  F21  1  0.87210751  0.13396607  0.82566039  1
  F  F22  1  0.36193730  0.25318555  0.68635515  1
  F  F23  1  0.62694501  0.88834333  0.58389991  1
