# generated using pymatgen
data_Na2Pd(NO2)4
_symmetry_space_group_name_H-M   'P 1'
_cell_length_a   4.69923213
_cell_length_b   11.39365065
_cell_length_c   15.66385349
_cell_angle_alpha   90.00000000
_cell_angle_beta   90.00000000
_cell_angle_gamma   90.00000000
_symmetry_Int_Tables_number   1
_chemical_formula_structural   Na2Pd(NO2)4
_chemical_formula_sum   'Na8 Pd4 N16 O32'
_cell_volume   838.66478955
_cell_formula_units_Z   4
loop_
 _symmetry_equiv_pos_site_id
 _symmetry_equiv_pos_as_xyz
  1  'x, y, z'
loop_
 _atom_site_type_symbol
 _atom_site_label
 _atom_site_symmetry_multiplicity
 _atom_site_fract_x
 _atom_site_fract_y
 _atom_site_fract_z
 _atom_site_occupancy
  Na  Na0  1  0.76430499  0.74826246  0.83408641  1
  Na  Na1  1  0.73569501  0.74826246  0.33408641  1
  Na  Na2  1  0.23569501  0.24826246  0.16591359  1
  Na  Na3  1  0.28270517  0.39942394  0.91440568  1
  Na  Na4  1  0.78270517  0.89942394  0.58559432  1
  Na  Na5  1  0.71729483  0.89942394  0.08559432  1
  Na  Na6  1  0.26430499  0.24826246  0.66591359  1
  Na  Na7  1  0.21729483  0.39942394  0.41440568  1
  Pd  Pd8  1  0.00074567  0.57315206  0.12417695  1
  Pd  Pd9  1  0.49925433  0.57315206  0.62417695  1
  Pd  Pd10  1  0.99925433  0.07315206  0.87582305  1
  Pd  Pd11  1  0.50074567  0.07315206  0.37582305  1
  N  N12  1  0.08966358  0.51524006  0.24544428  1
  N  N13  1  0.41879093  0.13232394  0.49730683  1
  N  N14  1  0.08120907  0.13232394  0.99730683  1
  N  N15  1  0.77750736  0.43403629  0.60307912  1
  N  N16  1  0.58120907  0.63232394  0.50269317  1
  N  N17  1  0.58966358  0.01524006  0.25455572  1
  N  N18  1  0.22732911  0.71368056  0.64628829  1
  N  N19  1  0.91879093  0.63232394  0.00269317  1
  N  N20  1  0.27750736  0.93403629  0.89692088  1
  N  N21  1  0.72732911  0.21368056  0.85371171  1
  N  N22  1  0.27267089  0.71368056  0.14628829  1
  N  N23  1  0.22249264  0.93403629  0.39692088  1
  N  N24  1  0.77267089  0.21368056  0.35371171  1
  N  N25  1  0.72249264  0.43403629  0.10307912  1
  N  N26  1  0.41033642  0.51524006  0.74544428  1
  N  N27  1  0.91033642  0.01524006  0.75455572  1
  O  O28  1  0.99541684  0.19604720  0.31196992  1
  O  O29  1  0.99586716  0.07039251  0.69051985  1
  O  O30  1  0.22120455  0.22487763  0.00788639  1
  O  O31  1  0.00935370  0.95179177  0.44284648  1
  O  O32  1  0.25416330  0.83661117  0.36059490  1
  O  O33  1  0.50084387  0.07612202  0.56117231  1
  O  O34  1  0.75416330  0.33661117  0.13940510  1
  O  O35  1  0.00413284  0.57039251  0.30948015  1
  O  O36  1  0.72390165  0.31326784  0.38477242  1
  O  O37  1  0.74034754  0.92567055  0.24424293  1
  O  O38  1  0.49064630  0.95179177  0.94284648  1
  O  O39  1  0.74583670  0.33661117  0.63940510  1
  O  O40  1  0.50935370  0.45179177  0.05715352  1
  O  O41  1  0.99064630  0.45179177  0.55715352  1
  O  O42  1  0.27609835  0.81326784  0.61522758  1
  O  O43  1  0.77609835  0.31326784  0.88477242  1
  O  O44  1  0.50413284  0.07039251  0.19051985  1
  O  O45  1  0.25965246  0.42567055  0.75575707  1
  O  O46  1  0.77879545  0.72487763  0.99211361  1
  O  O47  1  0.72120455  0.72487763  0.49211361  1
  O  O48  1  0.24034754  0.42567055  0.25575707  1
  O  O49  1  0.24583670  0.83661117  0.86059490  1
  O  O50  1  0.27879545  0.22487763  0.50788639  1
  O  O51  1  0.49586716  0.57039251  0.80948015  1
  O  O52  1  0.22390165  0.81326784  0.11522758  1
  O  O53  1  0.00458316  0.69604720  0.68803008  1
  O  O54  1  0.75965246  0.92567055  0.74424293  1
  O  O55  1  0.49541684  0.69604720  0.18803008  1
  O  O56  1  0.49915613  0.57612202  0.43882769  1
  O  O57  1  0.99915613  0.07612202  0.06117231  1
  O  O58  1  0.50458316  0.19604720  0.81196992  1
  O  O59  1  0.00084387  0.57612202  0.93882769  1
