# generated using pymatgen
data_Cu3As4
_symmetry_space_group_name_H-M   'P 1'
_cell_length_a   10.89194059
_cell_length_b   10.89194059
_cell_length_c   10.89194059
_cell_angle_alpha   164.65944021
_cell_angle_beta   131.34320488
_cell_angle_gamma   51.32233627
_symmetry_Int_Tables_number   1
_chemical_formula_structural   Cu3As4
_chemical_formula_sum   'Cu6 As8'
_cell_volume   256.17174663
_cell_formula_units_Z   2
loop_
 _symmetry_equiv_pos_site_id
 _symmetry_equiv_pos_as_xyz
  1  'x, y, z'
loop_
 _atom_site_type_symbol
 _atom_site_label
 _atom_site_symmetry_multiplicity
 _atom_site_fract_x
 _atom_site_fract_y
 _atom_site_fract_z
 _atom_site_occupancy
  Cu  Cu0  1  0.29242014  0.43489196  0.85752817  1
  Cu  Cu1  1  0.70757986  0.56510804  0.14247183  1
  Cu  Cu2  1  0.42263521  0.56510804  0.85752817  1
  Cu  Cu3  1  0.57736479  0.43489196  0.14247183  1
  Cu  Cu4  1  0.30774319  0.30774319  0.00000000  1
  Cu  Cu5  1  0.69225681  0.69225681  0.00000000  1
  As  As6  1  0.11025911  0.83863797  0.27162114  1
  As  As7  1  0.88974089  0.16136203  0.72837886  1
  As  As8  1  0.43298417  0.16136203  0.27162114  1
  As  As9  1  0.56701583  0.83863797  0.72837886  1
  As  As10  1  0.17759718  0.00000000  0.17759718  1
  As  As11  1  0.82240282  -0.00000000  0.82240282  1
  As  As12  1  0.19956732  0.69956732  0.50000000  1
  As  As13  1  0.80043268  0.30043268  0.50000000  1
