# generated using pymatgen
data_LaCoO3
_symmetry_space_group_name_H-M   'P 1'
_cell_length_a   5.52917740
_cell_length_b   5.45441183
_cell_length_c   5.49402771
_cell_angle_alpha   60.61648859
_cell_angle_beta   61.68609979
_cell_angle_gamma   61.17885333
_symmetry_Int_Tables_number   1
_chemical_formula_structural   LaCoO3
_chemical_formula_sum   'La2 Co2 O6'
_cell_volume   120.20030459
_cell_formula_units_Z   2
loop_
 _symmetry_equiv_pos_site_id
 _symmetry_equiv_pos_as_xyz
  1  'x, y, z'
loop_
 _atom_site_type_symbol
 _atom_site_label
 _atom_site_symmetry_multiplicity
 _atom_site_fract_x
 _atom_site_fract_y
 _atom_site_fract_z
 _atom_site_occupancy
  La  La0  1  0.75334001  0.74864958  0.24772363  1
  La  La1  1  0.24665699  0.25134942  0.75227337  1
  Co  Co2  1  0.50000000  0.50000100  0.00000000  1
  Co  Co3  1  0.00000000  0.00000100  0.50000000  1
  O  O4  1  0.24384131  0.69012169  0.31915446  1
  O  O5  1  0.75616369  0.30988131  0.68084454  1
  O  O6  1  0.82819432  0.24863079  0.18295513  1
  O  O7  1  0.17180468  0.75136521  0.81704587  1
  O  O8  1  0.66718131  0.80443238  0.76050327  1
  O  O9  1  0.33281869  0.19556862  0.23949773  1
