# generated using pymatgen
data_Ti2CuS4
_symmetry_space_group_name_H-M   'P 1'
_cell_length_a   12.28613986
_cell_length_b   12.28613988
_cell_length_c   12.28613993
_cell_angle_alpha   33.26808659
_cell_angle_beta   33.26808644
_cell_angle_gamma   33.26808500
_symmetry_Int_Tables_number   1
_chemical_formula_structural   Ti2CuS4
_chemical_formula_sum   'Ti8 Cu4 S16'
_cell_volume   496.85237144
_cell_formula_units_Z   4
loop_
 _symmetry_equiv_pos_site_id
 _symmetry_equiv_pos_as_xyz
  1  'x, y, z'
loop_
 _atom_site_type_symbol
 _atom_site_label
 _atom_site_symmetry_multiplicity
 _atom_site_fract_x
 _atom_site_fract_y
 _atom_site_fract_z
 _atom_site_occupancy
  Ti  Ti0  1  0.91741644  0.41839068  0.91741644  1
  Ti  Ti1  1  0.08258356  0.08258356  0.58160932  1
  Ti  Ti2  1  0.50000000  0.50000000  0.50000000  1
  Ti  Ti3  1  0.91741644  0.91741644  0.41839068  1
  Ti  Ti4  1  0.58160932  0.08258356  0.08258356  1
  Ti  Ti5  1  0.08258356  0.58160932  0.08258356  1
  Ti  Ti6  1  0.41839068  0.91741644  0.91741644  1
  Ti  Ti7  1  0.00000000  0.00000000  0.00000000  1
  Cu  Cu8  1  0.18787081  0.18787081  0.18787081  1
  Cu  Cu9  1  0.35360536  0.35360536  0.35360536  1
  Cu  Cu10  1  0.64639464  0.64639464  0.64639464  1
  Cu  Cu11  1  0.81212919  0.81212919  0.81212919  1
  S  S12  1  0.38482764  0.38482764  0.86200715  1
  S  S13  1  0.20151640  0.20151640  0.72396513  1
  S  S14  1  0.79848360  0.79848360  0.27603487  1
  S  S15  1  0.87649218  0.87649218  0.87649218  1
  S  S16  1  0.13799285  0.61517236  0.61517236  1
  S  S17  1  0.61517236  0.13799285  0.61517236  1
  S  S18  1  0.79848360  0.27603487  0.79848360  1
  S  S19  1  0.27603487  0.79848360  0.79848360  1
  S  S20  1  0.38482764  0.86200715  0.38482764  1
  S  S21  1  0.72396513  0.20151640  0.20151640  1
  S  S22  1  0.20151640  0.72396513  0.20151640  1
  S  S23  1  0.61517236  0.61517236  0.13799285  1
  S  S24  1  0.28854838  0.28854838  0.28854838  1
  S  S25  1  0.71145162  0.71145162  0.71145162  1
  S  S26  1  0.86200715  0.38482764  0.38482764  1
  S  S27  1  0.12350782  0.12350782  0.12350782  1
