# generated using pymatgen
data_LuCoO3
_symmetry_space_group_name_H-M   'P 1'
_cell_length_a   5.06722872
_cell_length_b   5.45033595
_cell_length_c   7.30563918
_cell_angle_alpha   89.99838220
_cell_angle_beta   89.99549732
_cell_angle_gamma   89.99908146
_symmetry_Int_Tables_number   1
_chemical_formula_structural   LuCoO3
_chemical_formula_sum   'Lu4 Co4 O12'
_cell_volume   201.76786462
_cell_formula_units_Z   4
loop_
 _symmetry_equiv_pos_site_id
 _symmetry_equiv_pos_as_xyz
  1  'x, y, z'
loop_
 _atom_site_type_symbol
 _atom_site_label
 _atom_site_symmetry_multiplicity
 _atom_site_fract_x
 _atom_site_fract_y
 _atom_site_fract_z
 _atom_site_occupancy
  Lu  Lu0  1  0.52411801  0.57995881  0.25000036  1
  Lu  Lu1  1  0.97587790  0.07996358  0.24999752  1
  Lu  Lu2  1  0.47588530  0.42003520  0.74999852  1
  Lu  Lu3  1  0.02412121  0.92004141  0.75000268  1
  Co  Co4  1  -0.00000079  0.49999800  0.49999801  1
  Co  Co5  1  -0.00000052  0.49999729  1.00000143  1
  Co  Co6  1  0.50000072  1.00000310  -0.00000270  1
  Co  Co7  1  0.50000060  1.00000320  0.50000124  1
  O  O8  1  0.31322150  0.69463473  0.55611615  1
  O  O9  1  0.88522654  0.53729108  0.74999457  1
  O  O10  1  0.81321147  0.80536375  0.05611861  1
  O  O11  1  0.31324357  0.69466470  0.94387497  1
  O  O12  1  0.81324492  0.80534015  0.44387781  1
  O  O13  1  0.11477236  0.46270687  0.25000481  1
  O  O14  1  0.68675760  0.30533510  0.05612250  1
  O  O15  1  0.18675648  0.19466092  0.55612274  1
  O  O16  1  0.68678064  0.30536685  0.44388462  1
  O  O17  1  0.61477211  0.03728883  0.75000551  1
  O  O18  1  0.38522329  0.96271084  0.24999511  1
  O  O19  1  0.18678809  0.19463558  0.94388155  1
