# generated using pymatgen
data_SrMgF4
_symmetry_space_group_name_H-M   'P 1'
_cell_length_a   7.64152204
_cell_length_b   7.90727860
_cell_length_c   17.11305495
_cell_angle_alpha   90.00000000
_cell_angle_beta   90.00000000
_cell_angle_gamma   104.89135915
_symmetry_Int_Tables_number   1
_chemical_formula_structural   SrMgF4
_chemical_formula_sum   'Sr12 Mg12 F48'
_cell_volume   999.30497393
_cell_formula_units_Z   12
loop_
 _symmetry_equiv_pos_site_id
 _symmetry_equiv_pos_as_xyz
  1  'x, y, z'
loop_
 _atom_site_type_symbol
 _atom_site_label
 _atom_site_symmetry_multiplicity
 _atom_site_fract_x
 _atom_site_fract_y
 _atom_site_fract_z
 _atom_site_occupancy
  Sr  Sr0  1  0.15924493  0.66394062  0.00121315  1
  Sr  Sr1  1  0.84891025  0.83811474  0.83118332  1
  Sr  Sr2  1  0.20436894  0.17990230  0.98567108  1
  Sr  Sr3  1  0.83347626  0.83460362  0.16686274  1
  Sr  Sr4  1  0.22239055  0.68074747  0.64869375  1
  Sr  Sr5  1  0.77760945  0.31925253  0.14869375  1
  Sr  Sr6  1  0.79563106  0.82009770  0.48567108  1
  Sr  Sr7  1  0.16652374  0.16539638  0.66686274  1
  Sr  Sr8  1  0.15108975  0.16188526  0.33118332  1
  Sr  Sr9  1  0.18222128  0.66771206  0.32291015  1
  Sr  Sr10  1  0.84075507  0.33605938  0.50121315  1
  Sr  Sr11  1  0.81777872  0.33228794  0.82291015  1
  Mg  Mg12  1  0.33061683  0.45722495  0.14451820  1
  Mg  Mg13  1  0.65890533  0.54177186  0.97669388  1
  Mg  Mg14  1  0.32949401  0.95713372  0.14245042  1
  Mg  Mg15  1  0.67050599  0.04286628  0.64245042  1
  Mg  Mg16  1  0.66741495  0.54024344  0.30895094  1
  Mg  Mg17  1  0.33884356  0.95693972  0.80943038  1
  Mg  Mg18  1  0.34109467  0.45822814  0.47669388  1
  Mg  Mg19  1  0.66190029  0.03814823  0.97718363  1
  Mg  Mg20  1  0.66115644  0.04306028  0.30943038  1
  Mg  Mg21  1  0.66938317  0.54277505  0.64451820  1
  Mg  Mg22  1  0.33809971  0.96185177  0.47718363  1
  Mg  Mg23  1  0.33258505  0.45975656  0.80895094  1
  F  F24  1  0.89121130  0.58773624  0.91303006  1
  F  F25  1  0.57140301  0.54709960  0.19614283  1
  F  F26  1  0.09994582  0.92535404  0.07820061  1
  F  F27  1  0.82812752  0.09647335  0.40215966  1
  F  F28  1  0.20891052  0.94448220  0.57591121  1
  F  F29  1  0.37638459  0.21798958  0.13143906  1
  F  F30  1  0.71845474  0.80572866  0.30986060  1
  F  F31  1  0.66757211  0.79132046  0.95544683  1
  F  F32  1  0.20823418  0.41193589  0.24486507  1
  F  F33  1  0.10878870  0.41226376  0.41303006  1
  F  F34  1  0.42859699  0.45290040  0.69614283  1
  F  F35  1  0.09900438  0.42365605  0.74421161  1
  F  F36  1  0.56650252  0.05092905  0.86710501  1
  F  F37  1  0.42211290  0.95945276  0.02894493  1
  F  F38  1  0.55273367  0.46964280  0.87025723  1
  F  F39  1  0.28154526  0.19427134  0.80986060  1
  F  F40  1  0.88881109  0.12211766  0.24256566  1
  F  F41  1  0.62705911  0.28289672  0.29494288  1
  F  F42  1  0.55197343  0.98037473  0.20267119  1
  F  F43  1  0.79176582  0.58806411  0.74486507  1
  F  F44  1  0.16459326  0.92725069  0.23694923  1
  F  F45  1  0.09640190  0.88773799  0.41687112  1
  F  F46  1  0.65984539  0.29046912  0.99268394  1
  F  F47  1  0.90005418  0.07464596  0.57820061  1
  F  F48  1  0.34015461  0.70953088  0.49268394  1
  F  F49  1  0.62361541  0.78201042  0.63143906  1
  F  F50  1  0.44802657  0.01962527  0.70267119  1
  F  F51  1  0.83540674  0.07274931  0.73694923  1
  F  F52  1  0.90099562  0.57634395  0.24421161  1
  F  F53  1  0.57384412  0.49751859  0.53311361  1
  F  F54  1  0.79108948  0.05551780  0.07591121  1
  F  F55  1  0.81853219  0.56276877  0.40467468  1
  F  F56  1  0.37294089  0.71710328  0.79494288  1
  F  F57  1  0.82812518  0.59663286  0.06893168  1
  F  F58  1  0.28445391  0.69620754  0.14066675  1
  F  F59  1  0.71554609  0.30379246  0.64066675  1
  F  F60  1  0.17187248  0.90352665  0.90215966  1
  F  F61  1  0.90820175  0.62497642  0.58226291  1
  F  F62  1  0.43349748  0.94907095  0.36710501  1
  F  F63  1  0.90359810  0.11226201  0.91687112  1
  F  F64  1  0.18146781  0.43723123  0.90467468  1
  F  F65  1  0.17187482  0.40336714  0.56893168  1
  F  F66  1  0.11118891  0.87788234  0.74256566  1
  F  F67  1  0.44726633  0.53035720  0.37025723  1
  F  F68  1  0.42615588  0.50248141  0.03311361  1
  F  F69  1  0.33242789  0.20867954  0.45544683  1
  F  F70  1  0.09179825  0.37502358  0.08226291  1
  F  F71  1  0.57788710  0.04054724  0.52894493  1
