# generated using pymatgen
data_TlMo2Cl7O2
_symmetry_space_group_name_H-M   'P 1'
_cell_length_a   7.26701929
_cell_length_b   9.62580323
_cell_length_c   10.28145445
_cell_angle_alpha   103.51288627
_cell_angle_beta   90.43926309
_cell_angle_gamma   109.13855518
_symmetry_Int_Tables_number   1
_chemical_formula_structural   TlMo2Cl7O2
_chemical_formula_sum   'Tl2 Mo4 Cl14 O4'
_cell_volume   657.85087196
_cell_formula_units_Z   2
loop_
 _symmetry_equiv_pos_site_id
 _symmetry_equiv_pos_as_xyz
  1  'x, y, z'
loop_
 _atom_site_type_symbol
 _atom_site_label
 _atom_site_symmetry_multiplicity
 _atom_site_fract_x
 _atom_site_fract_y
 _atom_site_fract_z
 _atom_site_occupancy
  Tl  Tl0  1  0.22832515  0.75611529  0.93509569  1
  Tl  Tl1  1  0.77167485  0.24388471  0.06490431  1
  Mo  Mo2  1  0.77605768  0.85442459  0.20990419  1
  Mo  Mo3  1  0.63449041  0.37353691  0.59579616  1
  Mo  Mo4  1  0.36550959  0.62646309  0.40420384  1
  Mo  Mo5  1  0.22394232  0.14557541  0.79009581  1
  Cl  Cl6  1  0.89544966  0.60377342  0.65554070  1
  Cl  Cl7  1  0.42386805  0.59725232  0.16920165  1
  Cl  Cl8  1  0.74904570  0.84218682  0.97751144  1
  Cl  Cl9  1  0.25095430  0.15781318  0.02248856  1
  Cl  Cl10  1  0.57613195  0.40274768  0.83079835  1
  Cl  Cl11  1  0.10455034  0.39622658  0.34445930  1
  Cl  Cl12  1  0.70944809  0.80185333  0.43782627  1
  Cl  Cl13  1  0.41216945  0.59740162  0.62661584  1
  Cl  Cl14  1  0.08693063  0.34534813  0.84369734  1
  Cl  Cl15  1  0.29055191  0.19814667  0.56217373  1
  Cl  Cl16  1  0.53963252  0.98142708  0.23212530  1
  Cl  Cl17  1  0.91306937  0.65465187  0.15630266  1
  Cl  Cl18  1  0.58783055  0.40259838  0.37338416  1
  Cl  Cl19  1  0.46036748  0.01857292  0.76787470  1
  O  O20  1  0.25038582  0.75533888  0.43407933  1
  O  O21  1  0.01783749  0.99565452  0.72996561  1
  O  O22  1  0.74961418  0.24466112  0.56592067  1
  O  O23  1  0.98216251  0.00434548  0.27003439  1
