# generated using pymatgen
data_Na4Cu(MoO4)3
_symmetry_space_group_name_H-M   'P 1'
_cell_length_a   9.57932164
_cell_length_b   10.44097231
_cell_length_c   13.28951292
_cell_angle_alpha   106.22996612
_cell_angle_beta   92.55040769
_cell_angle_gamma   107.09477149
_symmetry_Int_Tables_number   1
_chemical_formula_structural   Na4Cu(MoO4)3
_chemical_formula_sum   'Na16 Cu4 Mo12 O48'
_cell_volume   1208.15578894
_cell_formula_units_Z   4
loop_
 _symmetry_equiv_pos_site_id
 _symmetry_equiv_pos_as_xyz
  1  'x, y, z'
loop_
 _atom_site_type_symbol
 _atom_site_label
 _atom_site_symmetry_multiplicity
 _atom_site_fract_x
 _atom_site_fract_y
 _atom_site_fract_z
 _atom_site_occupancy
  Na  Na0  1  0.43835479  0.49649945  0.37490372  1
  Na  Na1  1  0.48629391  0.13579229  0.61003252  1
  Na  Na2  1  0.22664809  0.01443996  0.23828548  1
  Na  Na3  1  0.22662425  0.50921715  0.73822434  1
  Na  Na4  1  0.77335191  0.98556004  0.76171452  1
  Na  Na5  1  0.99302594  0.25128586  0.24881267  1
  Na  Na6  1  0.49605150  0.62092528  0.13140699  1
  Na  Na7  1  0.87920591  0.59263798  0.03419588  1
  Na  Na8  1  0.00697406  0.74871414  0.75118733  1
  Na  Na9  1  0.00000000  0.00000000  0.00000000  1
  Na  Na10  1  0.50394850  0.37907472  0.86859301  1
  Na  Na11  1  0.51370609  0.86420771  0.38996748  1
  Na  Na12  1  0.56164521  0.50350055  0.62509628  1
  Na  Na13  1  0.12079409  0.40736202  0.96580412  1
  Na  Na14  1  0.77337575  0.49078285  0.26177566  1
  Na  Na15  1  0.00000000  0.50000000  0.50000000  1
  Cu  Cu16  1  0.53517738  0.98706349  0.12621659  1
  Cu  Cu17  1  0.86048376  0.07626299  0.53750179  1
  Cu  Cu18  1  0.46482262  0.01293651  0.87378341  1
  Cu  Cu19  1  0.13951624  0.92373701  0.46249821  1
  Mo  Mo20  1  0.81079439  0.74978199  0.51467789  1
  Mo  Mo21  1  0.18920561  0.25021801  0.48532211  1
  Mo  Mo22  1  0.38570804  0.26917481  0.09468060  1
  Mo  Mo23  1  0.23420921  0.78726901  0.97579146  1
  Mo  Mo24  1  0.76579079  0.21273099  0.02420854  1
  Mo  Mo25  1  0.17045823  0.12416208  0.74120331  1
  Mo  Mo26  1  0.38151411  0.77866157  0.61681442  1
  Mo  Mo27  1  0.61848589  0.22133843  0.38318558  1
  Mo  Mo28  1  0.16529983  0.63910178  0.25701039  1
  Mo  Mo29  1  0.83470017  0.36089822  0.74298961  1
  Mo  Mo30  1  0.82954177  0.87583792  0.25879669  1
  Mo  Mo31  1  0.61429196  0.73082519  0.90531940  1
  O  O32  1  0.79722090  0.31784715  0.36208753  1
  O  O33  1  0.20277910  0.68215285  0.63791247  1
  O  O34  1  0.49765832  0.89046004  0.74182468  1
  O  O35  1  0.15911905  0.29620118  0.79352384  1
  O  O36  1  0.36608638  0.88833695  0.53553558  1
  O  O37  1  0.24249396  0.61432157  0.92028733  1
  O  O38  1  0.35410446  0.37902141  0.01895635  1
  O  O39  1  0.67099293  0.12557644  0.88711463  1
  O  O40  1  0.30903119  0.36015229  0.60351757  1
  O  O41  1  0.63391362  0.11166305  0.46446442  1
  O  O42  1  0.64589554  0.62097859  0.98104365  1
  O  O43  1  0.88898663  0.41143030  0.88157446  1
  O  O44  1  0.35258273  0.63788211  0.27995091  1
  O  O45  1  0.83801836  0.18216928  0.67914415  1
  O  O46  1  0.72528753  0.11471591  0.11958389  1
  O  O47  1  0.84088095  0.70379882  0.20647616  1
  O  O48  1  1.00191374  0.76753127  0.49392682  1
  O  O49  1  0.32900707  0.87442356  0.11288537  1
  O  O50  1  0.04566544  0.77501609  0.98244325  1
  O  O51  1  0.75750604  0.38567843  0.07971267  1
  O  O52  1  0.95662310  0.48636846  0.69220989  1
  O  O53  1  0.64037560  0.86397038  0.22662915  1
  O  O54  1  0.11101337  0.58856970  0.11842554  1
  O  O55  1  0.79097702  0.65763837  0.60993841  1
  O  O56  1  0.24139083  0.09159641  0.42485625  1
  O  O57  1  0.46555892  0.65564600  0.54790466  1
  O  O58  1  0.12513865  0.06268825  0.59608468  1
  O  O59  1  0.20902298  0.34236163  0.39006159  1
  O  O60  1  0.95433456  0.22498391  0.01755675  1
  O  O61  1  0.75860917  0.90840359  0.57514375  1
  O  O62  1  0.50234168  0.10953996  0.25817532  1
  O  O63  1  0.21544390  0.17098557  0.12596979  1
  O  O64  1  0.95342606  0.99536055  0.20379765  1
  O  O65  1  -0.00191374  0.23246873  0.50607318  1
  O  O66  1  0.35962440  0.13602962  0.77337085  1
  O  O67  1  0.69096881  0.63984771  0.39648243  1
  O  O68  1  0.78455610  0.82901443  0.87403021  1
  O  O69  1  0.47317609  0.14684460  0.01591948  1
  O  O70  1  0.49674812  0.61354688  0.78804783  1
  O  O71  1  0.50325188  0.38645312  0.21195217  1
  O  O72  1  0.52682391  0.85315540  0.98408052  1
  O  O73  1  0.64741727  0.36211789  0.72004909  1
  O  O74  1  0.87486135  0.93731175  0.40391532  1
  O  O75  1  0.04657394  0.00463945  0.79620235  1
  O  O76  1  0.04337690  0.51363154  0.30779011  1
  O  O77  1  0.27471247  0.88528409  0.88041611  1
  O  O78  1  0.53444108  0.34435400  0.45209534  1
  O  O79  1  0.16198164  0.81783072  0.32085585  1
