# generated using pymatgen
data_TiSCl6O
_symmetry_space_group_name_H-M   'P 1'
_cell_length_a   6.89123763
_cell_length_b   7.58932013
_cell_length_c   22.02297927
_cell_angle_alpha   90.00000000
_cell_angle_beta   90.00000000
_cell_angle_gamma   114.45362242
_symmetry_Int_Tables_number   1
_chemical_formula_structural   TiSCl6O
_chemical_formula_sum   'Ti4 S4 Cl24 O4'
_cell_volume   1048.47748577
_cell_formula_units_Z   4
loop_
 _symmetry_equiv_pos_site_id
 _symmetry_equiv_pos_as_xyz
  1  'x, y, z'
loop_
 _atom_site_type_symbol
 _atom_site_label
 _atom_site_symmetry_multiplicity
 _atom_site_fract_x
 _atom_site_fract_y
 _atom_site_fract_z
 _atom_site_occupancy
  Ti  Ti0  1  0.50601085  0.15309200  0.57064552  1
  Ti  Ti1  1  0.50601085  0.65309200  0.92935448  1
  Ti  Ti2  1  0.49398915  0.34690800  0.07064552  1
  Ti  Ti3  1  0.49398915  0.84690800  0.42935448  1
  S  S4  1  0.12814270  0.67858146  0.63970798  1
  S  S5  1  0.12814270  0.17858146  0.86029202  1
  S  S6  1  0.87185730  0.82141854  0.13970798  1
  S  S7  1  0.87185730  0.32141854  0.36029202  1
  Cl  Cl8  1  0.74785216  0.26152854  0.10347290  1
  Cl  Cl9  1  0.27269237  0.56683260  0.46743062  1
  Cl  Cl10  1  0.10221569  0.24024381  0.32482599  1
  Cl  Cl11  1  0.67661358  0.66111882  0.84240438  1
  Cl  Cl12  1  0.10221569  0.74024381  0.17517401  1
  Cl  Cl13  1  0.72730763  0.93316740  0.96743062  1
  Cl  Cl14  1  0.72730763  0.43316740  0.53256938  1
  Cl  Cl15  1  0.89778431  0.25975619  0.82482599  1
  Cl  Cl16  1  0.27269237  0.06683260  0.03256938  1
  Cl  Cl17  1  0.89778431  0.75975619  0.67517401  1
  Cl  Cl18  1  0.74785216  0.76152854  0.39652710  1
  Cl  Cl19  1  0.32338642  0.33888118  0.15759562  1
  Cl  Cl20  1  0.70816669  0.31692071  0.28035868  1
  Cl  Cl21  1  0.67661358  0.16111882  0.65759562  1
  Cl  Cl22  1  0.69176700  0.96462654  0.52499334  1
  Cl  Cl23  1  0.32338642  0.83888118  0.34240438  1
  Cl  Cl24  1  0.29183331  0.18307929  0.78035868  1
  Cl  Cl25  1  0.25214784  0.73847146  0.89652710  1
  Cl  Cl26  1  0.25214784  0.23847146  0.60347290  1
  Cl  Cl27  1  0.70816669  0.81692071  0.21964132  1
  Cl  Cl28  1  0.69176700  0.46462654  0.97500666  1
  Cl  Cl29  1  0.29183331  0.68307929  0.71964132  1
  Cl  Cl30  1  0.30823300  0.03537346  0.47500666  1
  Cl  Cl31  1  0.30823300  0.53537346  0.02499334  1
  O  O32  1  0.72998798  0.66378686  0.10106807  1
  O  O33  1  0.27001202  0.83621314  0.60106807  1
  O  O34  1  0.72998798  0.16378686  0.39893193  1
  O  O35  1  0.27001202  0.33621314  0.89893193  1
