# generated using pymatgen
data_Ni5Se4(BrO6)2
_symmetry_space_group_name_H-M   'P 1'
_cell_length_a   6.51749121
_cell_length_b   7.74109840
_cell_length_c   7.82567004
_cell_angle_alpha   67.91878308
_cell_angle_beta   73.93840503
_cell_angle_gamma   81.56163787
_symmetry_Int_Tables_number   1
_chemical_formula_structural   Ni5Se4(BrO6)2
_chemical_formula_sum   'Ni5 Se4 Br2 O12'
_cell_volume   351.17848260
_cell_formula_units_Z   1
loop_
 _symmetry_equiv_pos_site_id
 _symmetry_equiv_pos_as_xyz
  1  'x, y, z'
loop_
 _atom_site_type_symbol
 _atom_site_label
 _atom_site_symmetry_multiplicity
 _atom_site_fract_x
 _atom_site_fract_y
 _atom_site_fract_z
 _atom_site_occupancy
  Ni  Ni0  1  0.37020155  0.30921511  0.57756981  1
  Ni  Ni1  1  0.82351978  0.87499921  0.64905339  1
  Ni  Ni2  1  0.50000000  0.00000000  0.00000000  1
  Ni  Ni3  1  0.62979845  0.69078489  0.42243019  1
  Ni  Ni4  1  0.17648022  0.12500079  0.35094661  1
  Se  Se5  1  0.84141093  0.30642737  0.68897793  1
  Se  Se6  1  0.15858907  0.69357263  0.31102207  1
  Se  Se7  1  0.29383259  0.83780468  0.76987970  1
  Se  Se8  1  0.70616741  0.16219532  0.23012030  1
  Br  Br9  1  0.70342757  0.66549550  0.01680900  1
  Br  Br10  1  0.29657243  0.33450450  0.98319100  1
  O  O11  1  0.07832562  0.30092661  0.51995757  1
  O  O12  1  0.85881297  0.09336243  0.39436736  1
  O  O13  1  0.34083863  0.04483762  0.78928231  1
  O  O14  1  0.45769537  0.20079305  0.36810503  1
  O  O15  1  0.65975732  0.40555083  0.54786603  1
  O  O16  1  0.92167438  0.69907339  0.48004243  1
  O  O17  1  0.76820761  0.07664560  0.78593051  1
  O  O18  1  0.65916137  0.95516238  0.21071769  1
  O  O19  1  0.23179239  0.92335440  0.21406949  1
  O  O20  1  0.34024268  0.59444917  0.45213397  1
  O  O21  1  0.54230463  0.79920695  0.63189497  1
  O  O22  1  0.14118703  0.90663757  0.60563264  1
