# generated using pymatgen
data_LaWClO4
_symmetry_space_group_name_H-M   'P 1'
_cell_length_a   3.93963192
_cell_length_b   6.05769141
_cell_length_c   19.54150141
_cell_angle_alpha   90.00000000
_cell_angle_beta   90.00000000
_cell_angle_gamma   90.00000000
_symmetry_Int_Tables_number   1
_chemical_formula_structural   LaWClO4
_chemical_formula_sum   'La4 W4 Cl4 O16'
_cell_volume   466.35938583
_cell_formula_units_Z   4
loop_
 _symmetry_equiv_pos_site_id
 _symmetry_equiv_pos_as_xyz
  1  'x, y, z'
loop_
 _atom_site_type_symbol
 _atom_site_label
 _atom_site_symmetry_multiplicity
 _atom_site_fract_x
 _atom_site_fract_y
 _atom_site_fract_z
 _atom_site_occupancy
  La  La0  1  0.25557865  0.75000000  0.89712759  1
  La  La1  1  0.74442135  0.25000000  0.10287241  1
  La  La2  1  0.24442135  0.75000000  0.39712759  1
  La  La3  1  0.75557865  0.25000000  0.60287241  1
  W  W4  1  0.70885262  0.25000000  0.32054367  1
  W  W5  1  0.79114738  0.25000000  0.82054367  1
  W  W6  1  0.29114738  0.75000000  0.67945633  1
  W  W7  1  0.20885262  0.75000000  0.17945633  1
  Cl  Cl8  1  0.74745273  0.75000000  0.51216296  1
  Cl  Cl9  1  0.75254727  0.75000000  0.01216296  1
  Cl  Cl10  1  0.25254727  0.25000000  0.48783704  1
  Cl  Cl11  1  0.24745273  0.25000000  0.98783704  1
  O  O12  1  0.25484091  0.01961899  0.63375688  1
  O  O13  1  0.75484091  0.51961899  0.86624312  1
  O  O14  1  0.75384666  0.25000000  0.72862860  1
  O  O15  1  0.75484091  0.98038101  0.86624312  1
  O  O16  1  0.26535601  0.25000000  0.82522669  1
  O  O17  1  0.24515909  0.48038101  0.13375688  1
  O  O18  1  0.74615334  0.25000000  0.22862860  1
  O  O19  1  0.24615334  0.75000000  0.27137140  1
  O  O20  1  0.25384666  0.75000000  0.77137140  1
  O  O21  1  0.25484091  0.48038101  0.63375688  1
  O  O22  1  0.23464399  0.25000000  0.32522669  1
  O  O23  1  0.76535601  0.75000000  0.67477331  1
  O  O24  1  0.73464399  0.75000000  0.17477331  1
  O  O25  1  0.74515909  0.98038101  0.36624312  1
  O  O26  1  0.24515909  0.01961899  0.13375688  1
  O  O27  1  0.74515909  0.51961899  0.36624312  1
