# generated using pymatgen
data_BaVSi2O7
_symmetry_space_group_name_H-M   'P 1'
_cell_length_a   7.16474386
_cell_length_b   7.16474334
_cell_length_c   7.71389501
_cell_angle_alpha   117.67172794
_cell_angle_beta   117.67172569
_cell_angle_gamma   90.00000046
_symmetry_Int_Tables_number   1
_chemical_formula_structural   BaVSi2O7
_chemical_formula_sum   'Ba2 V2 Si4 O14'
_cell_volume   298.60685933
_cell_formula_units_Z   2
loop_
 _symmetry_equiv_pos_site_id
 _symmetry_equiv_pos_as_xyz
  1  'x, y, z'
loop_
 _atom_site_type_symbol
 _atom_site_label
 _atom_site_symmetry_multiplicity
 _atom_site_fract_x
 _atom_site_fract_y
 _atom_site_fract_z
 _atom_site_occupancy
  Ba  Ba0  1  0.75000000  0.25000000  0.50000000  1
  Ba  Ba1  1  0.25000000  0.75000000  0.50000000  1
  V  V2  1  0.34216355  0.34216355  0.68432610  1
  V  V3  1  0.65783645  0.65783645  0.31567390  1
  Si  Si4  1  0.76845297  0.78360231  1.00000000  1
  Si  Si5  1  0.21639769  0.76845297  1.00000000  1
  Si  Si6  1  0.78360231  0.23154703  0.00000000  1
  Si  Si7  1  0.23154703  0.21639769  0.00000000  1
  O  O8  1  0.82038334  0.44014535  0.23638322  1
  O  O9  1  0.20071803  0.20071803  0.40143607  1
  O  O10  1  0.79928197  0.79928197  0.59856393  1
  O  O11  1  0.58400012  0.20376113  0.76361678  1
  O  O12  1  0.00925980  0.27059435  1.00000000  1
  O  O13  1  0.55985465  0.58400012  0.76361678  1
  O  O14  1  0.99074020  0.72940565  0.00000000  1
  O  O15  1  0.44014535  0.41599988  0.23638322  1
  O  O16  1  0.72940565  0.00925980  1.00000000  1
  O  O17  1  0.41599988  0.79623887  0.23638322  1
  O  O18  1  0.79623887  0.82038334  0.23638322  1
  O  O19  1  0.17961666  0.55985465  0.76361678  1
  O  O20  1  0.27059435  0.99074020  0.00000000  1
  O  O21  1  0.20376113  0.17961666  0.76361678  1
