# generated using pymatgen
data_Pr2CrSe4
_symmetry_space_group_name_H-M   'P 1'
_cell_length_a   4.17694483
_cell_length_b   7.46080804
_cell_length_c   7.52170016
_cell_angle_alpha   119.20029501
_cell_angle_beta   106.12056975
_cell_angle_gamma   90.00000027
_symmetry_Int_Tables_number   1
_chemical_formula_structural   Pr2CrSe4
_chemical_formula_sum   'Pr2 Cr1 Se4'
_cell_volume   193.98681762
_cell_formula_units_Z   1
loop_
 _symmetry_equiv_pos_site_id
 _symmetry_equiv_pos_as_xyz
  1  'x, y, z'
loop_
 _atom_site_type_symbol
 _atom_site_label
 _atom_site_symmetry_multiplicity
 _atom_site_fract_x
 _atom_site_fract_y
 _atom_site_fract_z
 _atom_site_occupancy
  Pr  Pr0  1  0.71863500  0.71221795  0.43726999  1
  Pr  Pr1  1  0.28136500  0.28778205  0.56273001  1
  Cr  Cr2  1  0.00000000  -0.00000000  0.00000000  1
  Se  Se3  1  0.62581205  0.99462011  0.25162410  1
  Se  Se4  1  0.37418795  0.00537989  0.74837590  1
  Se  Se5  1  0.89242045  0.60004530  0.78484090  1
  Se  Se6  1  0.10757955  0.39995470  0.21515910  1
