# generated using pymatgen
data_YCrO4
_symmetry_space_group_name_H-M   'P 1'
_cell_length_a   5.06583694
_cell_length_b   5.06583761
_cell_length_c   6.73156793
_cell_angle_alpha   112.10311582
_cell_angle_beta   112.10311885
_cell_angle_gamma   89.99999781
_symmetry_Int_Tables_number   1
_chemical_formula_structural   YCrO4
_chemical_formula_sum   'Y2 Cr2 O8'
_cell_volume   146.26089591
_cell_formula_units_Z   2
loop_
 _symmetry_equiv_pos_site_id
 _symmetry_equiv_pos_as_xyz
  1  'x, y, z'
loop_
 _atom_site_type_symbol
 _atom_site_label
 _atom_site_symmetry_multiplicity
 _atom_site_fract_x
 _atom_site_fract_y
 _atom_site_fract_z
 _atom_site_occupancy
  Y  Y0  1  0.37500000  0.12500000  0.75000000  1
  Y  Y1  1  0.62500000  0.87500000  0.25000000  1
  Cr  Cr2  1  0.87500000  0.62500000  0.75000000  1
  Cr  Cr3  1  0.12500000  0.37500000  0.25000000  1
  O  O4  1  0.05810024  0.19474534  0.40532012  1
  O  O5  1  0.69474434  0.84722089  0.90532012  1
  O  O6  1  0.34722089  0.71057578  0.40532012  1
  O  O7  1  0.21057578  0.55810024  0.90532012  1
  O  O8  1  0.78942422  0.44189976  0.09467988  1
  O  O9  1  0.30525566  0.15277911  0.09467988  1
  O  O10  1  0.94189976  0.80525566  0.59467988  1
  O  O11  1  0.65277911  0.28942422  0.59467988  1
