# generated using pymatgen
data_Cu3NiH6(ClO3)2
_symmetry_space_group_name_H-M   'P 1'
_cell_length_a   6.07327214
_cell_length_b   6.07327247
_cell_length_c   6.07327209
_cell_angle_alpha   70.44146533
_cell_angle_beta   70.44146422
_cell_angle_gamma   70.44146887
_symmetry_Int_Tables_number   1
_chemical_formula_structural   Cu3NiH6(ClO3)2
_chemical_formula_sum   'Cu3 Ni1 H6 Cl2 O6'
_cell_volume   192.54782039
_cell_formula_units_Z   1
loop_
 _symmetry_equiv_pos_site_id
 _symmetry_equiv_pos_as_xyz
  1  'x, y, z'
loop_
 _atom_site_type_symbol
 _atom_site_label
 _atom_site_symmetry_multiplicity
 _atom_site_fract_x
 _atom_site_fract_y
 _atom_site_fract_z
 _atom_site_occupancy
  Cu  Cu0  1  0.50000000  0.50000000  0.00000000  1
  Cu  Cu1  1  0.50000000  0.00000000  0.50000000  1
  Cu  Cu2  1  0.00000000  0.50000000  0.50000000  1
  Ni  Ni3  1  0.50000000  0.50000000  0.50000000  1
  H  H4  1  0.17890023  0.77386306  0.77386306  1
  H  H5  1  0.77386306  0.77386306  0.17890023  1
  H  H6  1  0.22613694  0.22613694  0.82109977  1
  H  H7  1  0.82109977  0.22613694  0.22613694  1
  H  H8  1  0.77386306  0.17890023  0.77386306  1
  H  H9  1  0.22613694  0.82109977  0.22613694  1
  Cl  Cl10  1  0.82049879  0.82049879  0.82049879  1
  Cl  Cl11  1  0.17950121  0.17950121  0.17950121  1
  O  O12  1  0.26949574  0.26949574  0.64113104  1
  O  O13  1  0.26949574  0.64113104  0.26949574  1
  O  O14  1  0.35886896  0.73050426  0.73050426  1
  O  O15  1  0.73050426  0.35886896  0.73050426  1
  O  O16  1  0.73050426  0.73050426  0.35886896  1
  O  O17  1  0.64113104  0.26949574  0.26949574  1
