# generated using pymatgen
data_Li2Cu(WO4)2
_symmetry_space_group_name_H-M   'P 1'
_cell_length_a   5.11741223
_cell_length_b   5.47539652
_cell_length_c   5.94654372
_cell_angle_alpha   73.42842531
_cell_angle_beta   85.35669535
_cell_angle_gamma   67.37920327
_symmetry_Int_Tables_number   1
_chemical_formula_structural   Li2Cu(WO4)2
_chemical_formula_sum   'Li2 Cu1 W2 O8'
_cell_volume   147.33706861
_cell_formula_units_Z   1
loop_
 _symmetry_equiv_pos_site_id
 _symmetry_equiv_pos_as_xyz
  1  'x, y, z'
loop_
 _atom_site_type_symbol
 _atom_site_label
 _atom_site_symmetry_multiplicity
 _atom_site_fract_x
 _atom_site_fract_y
 _atom_site_fract_z
 _atom_site_occupancy
  Li  Li0  1  0.93587028  0.58601060  0.22473514  1
  Li  Li1  1  0.06412972  0.41398940  0.77526486  1
  Cu  Cu2  1  0.50000000  0.50000000  0.00000000  1
  W  W3  1  0.27185386  0.97471013  0.34266983  1
  W  W4  1  0.72814614  0.02528987  0.65733017  1
  O  O5  1  0.72085545  0.72945223  0.91231121  1
  O  O6  1  0.13875807  0.77987381  0.64195297  1
  O  O7  1  0.27914455  0.27054777  0.08768879  1
  O  O8  1  0.66094968  0.79825315  0.43075555  1
  O  O9  1  0.75440238  0.25363878  0.82001754  1
  O  O10  1  0.86124193  0.22012619  0.35804703  1
  O  O11  1  0.24559762  0.74636122  0.17998246  1
  O  O12  1  0.33905032  0.20174685  0.56924445  1
