# generated using pymatgen
data_CdPNO5
_symmetry_space_group_name_H-M   'P 1'
_cell_length_a   6.13073847
_cell_length_b   7.43487469
_cell_length_c   5.53684784
_cell_angle_alpha   90.00000000
_cell_angle_beta   90.00000000
_cell_angle_gamma   90.00000000
_symmetry_Int_Tables_number   1
_chemical_formula_structural   CdPNO5
_chemical_formula_sum   'Cd2 P2 N2 O10'
_cell_volume   252.37656898
_cell_formula_units_Z   2
loop_
 _symmetry_equiv_pos_site_id
 _symmetry_equiv_pos_as_xyz
  1  'x, y, z'
loop_
 _atom_site_type_symbol
 _atom_site_label
 _atom_site_symmetry_multiplicity
 _atom_site_fract_x
 _atom_site_fract_y
 _atom_site_fract_z
 _atom_site_occupancy
  Cd  Cd0  1  0.50000000  0.01750925  0.45844903  1
  Cd  Cd1  1  0.00000000  0.98249075  0.95844903  1
  P  P2  1  0.50000000  0.78847683  0.91111091  1
  P  P3  1  -0.00000000  0.21152317  0.41111091  1
  N  N4  1  -0.00000000  0.52209250  0.15784408  1
  N  N5  1  0.50000000  0.47790750  0.65784408  1
  O  O6  1  0.70166996  0.86248303  0.77536418  1
  O  O7  1  0.29833004  0.86248303  0.77536418  1
  O  O8  1  0.79833004  0.13751697  0.27536418  1
  O  O9  1  0.20166996  0.13751697  0.27536418  1
  O  O10  1  0.50000000  0.80466253  0.18205404  1
  O  O11  1  0.00000000  0.19533747  0.68205404  1
  O  O12  1  0.00000000  0.68105484  0.18931330  1
  O  O13  1  0.50000000  0.31894516  0.68931330  1
  O  O14  1  0.50000000  0.56380026  0.89249928  1
  O  O15  1  0.00000000  0.43619974  0.39249928  1
