# generated using pymatgen
data_VTeO4
_symmetry_space_group_name_H-M   'P 1'
_cell_length_a   4.58696569
_cell_length_b   5.48638085
_cell_length_c   13.68001878
_cell_angle_alpha   90.00000000
_cell_angle_beta   90.00000000
_cell_angle_gamma   91.04700642
_symmetry_Int_Tables_number   1
_chemical_formula_structural   VTeO4
_chemical_formula_sum   'V4 Te4 O16'
_cell_volume   344.21169462
_cell_formula_units_Z   4
loop_
 _symmetry_equiv_pos_site_id
 _symmetry_equiv_pos_as_xyz
  1  'x, y, z'
loop_
 _atom_site_type_symbol
 _atom_site_label
 _atom_site_symmetry_multiplicity
 _atom_site_fract_x
 _atom_site_fract_y
 _atom_site_fract_z
 _atom_site_occupancy
  V  V0  1  0.32131077  0.83393124  0.66075660  1
  V  V1  1  0.67868923  0.16606876  0.33924340  1
  V  V2  1  0.67868923  0.66606876  0.16075660  1
  V  V3  1  0.32131077  0.33393124  0.83924340  1
  Te  Te4  1  0.03874195  0.64390792  0.39015734  1
  Te  Te5  1  0.03874195  0.14390792  0.10984266  1
  Te  Te6  1  0.96125805  0.85609208  0.89015734  1
  Te  Te7  1  0.96125805  0.35609208  0.60984266  1
  O  O8  1  0.16924990  0.63228848  0.54789605  1
  O  O9  1  0.75417379  0.87532871  0.41823303  1
  O  O10  1  0.68238351  0.82062304  0.66598259  1
  O  O11  1  0.18715856  0.01672286  0.77694576  1
  O  O12  1  0.81284144  0.98327714  0.22305424  1
  O  O13  1  0.83075010  0.36771152  0.45210395  1
  O  O14  1  0.18715856  0.51672286  0.72305424  1
  O  O15  1  0.81284144  0.48327714  0.27694576  1
  O  O16  1  0.24582621  0.62467129  0.91823303  1
  O  O17  1  0.75417379  0.37532871  0.08176697  1
  O  O18  1  0.31761649  0.17937696  0.33401741  1
  O  O19  1  0.31761649  0.67937696  0.16598259  1
  O  O20  1  0.16924990  0.13228848  0.95210395  1
  O  O21  1  0.68238351  0.32062304  0.83401741  1
  O  O22  1  0.83075010  0.86771152  0.04789605  1
  O  O23  1  0.24582621  0.12467129  0.58176697  1
