# generated using pymatgen
data_KBa3Ca4V7Cu3O28
_symmetry_space_group_name_H-M   'P 1'
_cell_length_a   11.42723338
_cell_length_b   11.42723365
_cell_length_c   12.45572254
_cell_angle_alpha   90.00000000
_cell_angle_beta   90.00000000
_cell_angle_gamma   119.99999923
_symmetry_Int_Tables_number   1
_chemical_formula_structural   KBa3Ca4V7Cu3O28
_chemical_formula_sum   'K2 Ba6 Ca8 V14 Cu6 O56'
_cell_volume   1408.58080188
_cell_formula_units_Z   2
loop_
 _symmetry_equiv_pos_site_id
 _symmetry_equiv_pos_as_xyz
  1  'x, y, z'
loop_
 _atom_site_type_symbol
 _atom_site_label
 _atom_site_symmetry_multiplicity
 _atom_site_fract_x
 _atom_site_fract_y
 _atom_site_fract_z
 _atom_site_occupancy
  K  K0  1  0.33333300  0.66666700  0.43426271  1
  K  K1  1  0.66666700  0.33333300  0.93426271  1
  Ba  Ba2  1  0.14107177  0.85892823  0.24968038  1
  Ba  Ba3  1  0.14107177  0.28214254  0.24968038  1
  Ba  Ba4  1  0.85892823  0.14107177  0.74968038  1
  Ba  Ba5  1  0.85892823  0.71785746  0.74968038  1
  Ba  Ba6  1  0.28214254  0.14107177  0.74968038  1
  Ba  Ba7  1  0.71785746  0.85892823  0.24968038  1
  Ca  Ca8  1  0.00000000  0.00000000  0.99714731  1
  Ca  Ca9  1  0.54108636  0.45891364  0.53426609  1
  Ca  Ca10  1  0.08217273  0.54108636  0.03426609  1
  Ca  Ca11  1  0.45891364  0.91782727  0.03426609  1
  Ca  Ca12  1  0.54108636  0.08217273  0.53426609  1
  Ca  Ca13  1  0.45891364  0.54108636  0.03426609  1
  Ca  Ca14  1  0.91782727  0.45891364  0.53426609  1
  Ca  Ca15  1  0.00000000  0.00000000  0.49714731  1
  V  V16  1  0.17779984  0.35559967  0.58644646  1
  V  V17  1  0.17556736  0.35113472  0.90904987  1
  V  V18  1  0.82220016  0.17779984  0.08644646  1
  V  V19  1  0.64886528  0.82443264  0.90904987  1
  V  V20  1  0.17779984  0.82220016  0.58644646  1
  V  V21  1  0.35559967  0.17779984  0.08644646  1
  V  V22  1  0.82220016  0.64440033  0.08644646  1
  V  V23  1  0.82443264  0.64886528  0.40904987  1
  V  V24  1  0.64440033  0.82220016  0.58644646  1
  V  V25  1  0.82443264  0.17556736  0.40904987  1
  V  V26  1  0.35113472  0.17556736  0.40904987  1
  V  V27  1  0.33333300  0.66666700  0.17960126  1
  V  V28  1  0.66666700  0.33333300  0.67960126  1
  V  V29  1  0.17556736  0.82443264  0.90904987  1
  Cu  Cu30  1  0.08421206  0.54210603  0.75196729  1
  Cu  Cu31  1  0.54210603  0.45789397  0.25196729  1
  Cu  Cu32  1  0.45789397  0.91578794  0.75196729  1
  Cu  Cu33  1  0.91578794  0.45789397  0.25196729  1
  Cu  Cu34  1  0.45789397  0.54210603  0.75196729  1
  Cu  Cu35  1  0.54210603  0.08421206  0.25196729  1
  O  O36  1  0.19371031  0.38742161  0.45233779  1
  O  O37  1  0.57621163  0.91979556  0.63935816  1
  O  O38  1  0.66666700  0.33333300  0.53858413  1
  O  O39  1  0.33333300  0.66666700  0.03858413  1
  O  O40  1  0.18186359  0.09093179  0.37245089  1
  O  O41  1  0.58302160  0.41697840  0.72092341  1
  O  O42  1  0.90906821  0.81813641  0.37245089  1
  O  O43  1  0.65641607  0.57621163  0.13935816  1
  O  O44  1  0.16604220  0.58302160  0.22092341  1
  O  O45  1  0.65641607  0.08020444  0.13935816  1
  O  O46  1  0.57621163  0.65641607  0.63935816  1
  O  O47  1  0.37795148  0.18897574  0.54532258  1
  O  O48  1  0.83395780  0.41697840  0.72092341  1
  O  O49  1  0.08020444  0.42378837  0.63935816  1
  O  O50  1  0.90906821  0.09093179  0.37245089  1
  O  O51  1  0.41697840  0.58302160  0.22092341  1
  O  O52  1  0.81102426  0.62204852  0.54532258  1
  O  O53  1  0.18897574  0.81102426  0.04532258  1
  O  O54  1  0.38742161  0.19371031  0.95233779  1
  O  O55  1  0.80628969  0.19371031  0.95233779  1
  O  O56  1  0.42378837  0.08020444  0.13935816  1
  O  O57  1  0.18390622  0.09195361  0.11596156  1
  O  O58  1  0.42378837  0.34358393  0.13935816  1
  O  O59  1  0.09093179  0.90906821  0.87245089  1
  O  O60  1  0.09093179  0.18186359  0.87245089  1
  O  O61  1  0.62204852  0.81102426  0.04532258  1
  O  O62  1  0.08216249  0.65619476  0.86415611  1
  O  O63  1  0.65619476  0.57403227  0.36415611  1
  O  O64  1  0.42596773  0.34380524  0.36415611  1
  O  O65  1  0.91979556  0.34358393  0.13935816  1
  O  O66  1  0.57403227  0.65619476  0.86415611  1
  O  O67  1  0.08216249  0.42596773  0.86415611  1
  O  O68  1  0.91979556  0.57621163  0.13935816  1
  O  O69  1  0.34358393  0.42378837  0.63935816  1
  O  O70  1  0.65619476  0.08216249  0.36415611  1
  O  O71  1  0.90804639  0.81609378  0.11596156  1
  O  O72  1  0.81813641  0.90906821  0.87245089  1
  O  O73  1  0.34380524  0.91783751  0.86415611  1
  O  O74  1  0.18897574  0.37795148  0.04532258  1
  O  O75  1  0.57403227  0.91783751  0.86415611  1
  O  O76  1  0.81609378  0.90804639  0.61596156  1
  O  O77  1  0.91783751  0.57403227  0.36415611  1
  O  O78  1  0.09195361  0.18390622  0.61596156  1
  O  O79  1  0.34358393  0.91979556  0.63935816  1
  O  O80  1  0.91783751  0.34380524  0.36415611  1
  O  O81  1  0.58302160  0.16604220  0.72092341  1
  O  O82  1  0.61257839  0.80628969  0.45233779  1
  O  O83  1  0.42596773  0.08216249  0.36415611  1
  O  O84  1  0.19371031  0.80628969  0.45233779  1
  O  O85  1  0.41697840  0.83395780  0.22092341  1
  O  O86  1  0.81102426  0.18897574  0.54532258  1
  O  O87  1  0.08020444  0.65641607  0.63935816  1
  O  O88  1  0.09195361  0.90804639  0.61596156  1
  O  O89  1  0.34380524  0.42596773  0.86415611  1
  O  O90  1  0.90804639  0.09195361  0.11596156  1
  O  O91  1  0.80628969  0.61257839  0.95233779  1
