# generated using pymatgen
data_In5Se5Cl
_symmetry_space_group_name_H-M   'P 1'
_cell_length_a   4.17703326
_cell_length_b   9.39284830
_cell_length_c   15.65610359
_cell_angle_alpha   92.88304744
_cell_angle_beta   90.00000000
_cell_angle_gamma   90.00000000
_symmetry_Int_Tables_number   1
_chemical_formula_structural   In5Se5Cl
_chemical_formula_sum   'In10 Se10 Cl2'
_cell_volume   613.47784840
_cell_formula_units_Z   2
loop_
 _symmetry_equiv_pos_site_id
 _symmetry_equiv_pos_as_xyz
  1  'x, y, z'
loop_
 _atom_site_type_symbol
 _atom_site_label
 _atom_site_symmetry_multiplicity
 _atom_site_fract_x
 _atom_site_fract_y
 _atom_site_fract_z
 _atom_site_occupancy
  In  In0  1  0.75000000  0.76772077  0.70832677  1
  In  In1  1  0.25000000  0.60749487  0.14378244  1
  In  In2  1  0.25000000  0.95123614  0.34852816  1
  In  In3  1  0.75000000  0.39250513  0.85621756  1
  In  In4  1  0.75000000  0.04876386  0.65147184  1
  In  In5  1  0.25000000  0.23227923  0.29167323  1
  In  In6  1  0.75000000  0.12993466  0.06328028  1
  In  In7  1  0.25000000  0.33883593  0.55406012  1
  In  In8  1  0.75000000  0.66116407  0.44593988  1
  In  In9  1  0.25000000  0.87006534  0.93671972  1
  Se  Se10  1  0.75000000  0.32044824  0.19564335  1
  Se  Se11  1  0.25000000  0.95894024  0.10332991  1
  Se  Se12  1  0.75000000  0.53274139  0.60243053  1
  Se  Se13  1  0.25000000  0.67955176  0.80435665  1
  Se  Se14  1  0.75000000  0.04105976  0.89667009  1
  Se  Se15  1  0.25000000  0.83656127  0.50147570  1
  Se  Se16  1  0.75000000  0.78888760  0.28968411  1
  Se  Se17  1  0.75000000  0.16343873  0.49852430  1
  Se  Se18  1  0.25000000  0.21111240  0.71031589  1
  Se  Se19  1  0.25000000  0.46725861  0.39756947  1
  Cl  Cl20  1  0.25000000  0.32723811  0.00216589  1
  Cl  Cl21  1  0.75000000  0.67276189  0.99783411  1
