# generated using pymatgen
data_Cr(PO3)3
_symmetry_space_group_name_H-M   'P 1'
_cell_length_a   6.51423049
_cell_length_b   7.40043393
_cell_length_c   8.40072651
_cell_angle_alpha   73.95407679
_cell_angle_beta   67.18740078
_cell_angle_gamma   63.88815028
_symmetry_Int_Tables_number   1
_chemical_formula_structural   Cr(PO3)3
_chemical_formula_sum   'Cr2 P6 O18'
_cell_volume   332.45611537
_cell_formula_units_Z   2
loop_
 _symmetry_equiv_pos_site_id
 _symmetry_equiv_pos_as_xyz
  1  'x, y, z'
loop_
 _atom_site_type_symbol
 _atom_site_label
 _atom_site_symmetry_multiplicity
 _atom_site_fract_x
 _atom_site_fract_y
 _atom_site_fract_z
 _atom_site_occupancy
  Cr  Cr0  1  0.00944116  0.50063416  0.99778730  1
  Cr  Cr1  1  0.49213738  0.00063416  0.49778730  1
  P  P2  1  0.80039042  0.54969329  0.67287208  1
  P  P3  1  0.01447456  0.95129717  0.82037788  1
  P  P4  1  0.97704422  0.04969329  0.17287208  1
  P  P5  1  0.21385039  0.45129717  0.32037788  1
  P  P6  1  0.55648708  0.24915276  0.73894257  1
  P  P7  1  0.45541760  0.74915276  0.23894257  1
  O  O8  1  0.33947700  0.22467652  0.33378736  1
  O  O9  1  0.34816054  0.31145051  0.89948438  1
  O  O10  1  0.16780169  0.05174227  0.67539390  1
  O  O11  1  0.68480069  0.70874581  0.09077291  1
  O  O12  1  0.82392983  0.95863211  0.32822472  1
  O  O13  1  0.63464047  0.76902903  0.66532147  1
  O  O14  1  0.10205911  0.72467652  0.83378736  1
  O  O15  1  0.39977376  0.54702007  0.30081112  1
  O  O16  1  0.67897455  0.41335199  0.65375775  1
  O  O17  1  0.25391571  0.91335199  0.15375775  1
  O  O18  1  0.95477272  0.02237431  0.00026656  1
  O  O19  1  0.93100903  0.26902903  0.16532147  1
  O  O20  1  0.75239506  0.04702007  0.80081112  1
  O  O21  1  0.88921334  0.45863211  0.82822472  1
  O  O22  1  0.51568059  0.20874581  0.59077291  1
  O  O23  1  0.44090457  0.81145051  0.39948438  1
  O  O24  1  0.10506214  0.55174227  0.17539390  1
  O  O25  1  0.02258641  0.52237431  0.50026656  1
