# generated using pymatgen
data_La10(B3C4)3
_symmetry_space_group_name_H-M   'P 1'
_cell_length_a   8.68042066
_cell_length_b   8.68042066
_cell_length_c   25.46336082
_cell_angle_alpha   90.00000000
_cell_angle_beta   90.00000000
_cell_angle_gamma   90.00000000
_symmetry_Int_Tables_number   1
_chemical_formula_structural   La10(B3C4)3
_chemical_formula_sum   'La40 B36 C48'
_cell_volume   1918.65667096
_cell_formula_units_Z   4
loop_
 _symmetry_equiv_pos_site_id
 _symmetry_equiv_pos_as_xyz
  1  'x, y, z'
loop_
 _atom_site_type_symbol
 _atom_site_label
 _atom_site_symmetry_multiplicity
 _atom_site_fract_x
 _atom_site_fract_y
 _atom_site_fract_z
 _atom_site_occupancy
  La  La0  1  0.89721902  0.40439010  0.54074659  1
  La  La1  1  0.39721902  0.09560990  0.20925341  1
  La  La2  1  0.30529456  0.58539843  0.55390713  1
  La  La3  1  0.51650946  0.59752822  0.81042936  1
  La  La4  1  0.31751151  0.98875551  0.83277351  1
  La  La5  1  0.68248849  0.01124449  0.33277351  1
  La  La6  1  0.09560990  0.39721902  0.79074659  1
  La  La7  1  0.91460157  0.80529456  0.80390713  1
  La  La8  1  0.19470544  0.08539843  0.69609287  1
  La  La9  1  0.98349054  0.09752822  0.43957064  1
  La  La10  1  0.78563740  0.69661174  0.42880544  1
  La  La11  1  0.59560990  0.10278098  0.95925341  1
  La  La12  1  0.51124449  0.81751151  0.08277351  1
  La  La13  1  0.09752822  0.98349054  0.56042936  1
  La  La14  1  0.59752822  0.51650946  0.18957064  1
  La  La15  1  0.90439010  0.60278098  0.29074659  1
  La  La16  1  0.69661174  0.78563740  0.57119456  1
  La  La17  1  0.81751151  0.51124449  0.91722649  1
  La  La18  1  0.10278098  0.59560990  0.04074659  1
  La  La19  1  0.01124449  0.68248849  0.66722649  1
  La  La20  1  0.18248849  0.48875551  0.41722649  1
  La  La21  1  0.71436260  0.19661174  0.82119456  1
  La  La22  1  0.80338826  0.28563740  0.67880544  1
  La  La23  1  0.90247178  0.01650946  0.06042936  1
  La  La24  1  0.30338826  0.21436260  0.07119456  1
  La  La25  1  0.69470544  0.41460157  0.05390713  1
  La  La26  1  0.48875551  0.18248849  0.58277351  1
  La  La27  1  0.48349054  0.40247178  0.31042936  1
  La  La28  1  0.40439010  0.89721902  0.45925341  1
  La  La29  1  0.80529456  0.91460157  0.19609287  1
  La  La30  1  0.08539843  0.19470544  0.30390713  1
  La  La31  1  0.60278098  0.90439010  0.70925341  1
  La  La32  1  0.58539843  0.30529456  0.44609287  1
  La  La33  1  0.01650946  0.90247178  0.93957064  1
  La  La34  1  0.40247178  0.48349054  0.68957064  1
  La  La35  1  0.28563740  0.80338826  0.32119456  1
  La  La36  1  0.41460157  0.69470544  0.94609287  1
  La  La37  1  0.21436260  0.30338826  0.92880544  1
  La  La38  1  0.98875551  0.31751151  0.16722649  1
  La  La39  1  0.19661174  0.71436260  0.17880544  1
  B  B40  1  0.37611606  0.51031499  0.10706285  1
  B  B41  1  0.42099261  0.42099261  0.00000000  1
  B  B42  1  0.07900739  0.92099261  0.25000000  1
  B  B43  1  0.30250250  0.41312520  0.15686851  1
  B  B44  1  0.80250250  0.08687480  0.59313149  1
  B  B45  1  0.20587212  0.28085702  0.52499269  1
  B  B46  1  0.08687480  0.80250250  0.40686851  1
  B  B47  1  0.51031499  0.37611606  0.89293715  1
  B  B48  1  0.14373816  0.63831086  0.88295489  1
  B  B49  1  0.48968501  0.62388394  0.39293715  1
  B  B50  1  0.64373816  0.86168914  0.86704511  1
  B  B51  1  0.91312520  0.19749750  0.90686851  1
  B  B52  1  0.19749750  0.91312520  0.09313149  1
  B  B53  1  0.63831086  0.14373816  0.11704511  1
  B  B54  1  0.79412788  0.71914298  0.02499269  1
  B  B55  1  0.87611606  0.98968501  0.64293715  1
  B  B56  1  0.13831086  0.35626184  0.63295489  1
  B  B57  1  0.71914298  0.79412788  0.97500731  1
  B  B58  1  0.92099261  0.07900739  0.75000000  1
  B  B59  1  0.35626184  0.13831086  0.36704511  1
  B  B60  1  0.21914298  0.70587212  0.77499269  1
  B  B61  1  0.69749750  0.58687480  0.65686851  1
  B  B62  1  0.01031499  0.12388394  0.85706285  1
  B  B63  1  0.36168914  0.85626184  0.61704511  1
  B  B64  1  0.70587212  0.21914298  0.22500731  1
  B  B65  1  0.12388394  0.01031499  0.14293715  1
  B  B66  1  0.29412788  0.78085702  0.72500731  1
  B  B67  1  0.85626184  0.36168914  0.38295489  1
  B  B68  1  0.28085702  0.20587212  0.47500731  1
  B  B69  1  0.62388394  0.48968501  0.60706285  1
  B  B70  1  0.41312520  0.30250250  0.84313149  1
  B  B71  1  0.57900739  0.57900739  0.50000000  1
  B  B72  1  0.86168914  0.64373816  0.13295489  1
  B  B73  1  0.58687480  0.69749750  0.34313149  1
  B  B74  1  0.98968501  0.87611606  0.35706285  1
  B  B75  1  0.78085702  0.29412788  0.27499269  1
  C  C76  1  0.71195247  0.03087318  0.48946865  1
  C  C77  1  0.29693898  0.18288293  0.41833768  1
  C  C78  1  0.38592135  0.10777011  0.31162934  1
  C  C79  1  0.70306102  0.81711707  0.91833768  1
  C  C80  1  0.61407865  0.89222989  0.81162934  1
  C  C81  1  0.18288293  0.29693898  0.58166232  1
  C  C82  1  0.59689766  0.49039403  0.54942787  1
  C  C83  1  0.68923243  0.00667499  0.43749553  1
  C  C84  1  0.50667499  0.81076757  0.18749553  1
  C  C85  1  0.07513497  0.78331570  0.46521689  1
  C  C86  1  0.09689766  0.00960597  0.20057213  1
  C  C87  1  0.31076757  0.99332501  0.93749553  1
  C  C88  1  0.96912682  0.28804753  0.01053135  1
  C  C89  1  0.99332501  0.31076757  0.06250447  1
  C  C90  1  0.57513497  0.71668430  0.28478311  1
  C  C91  1  0.10777011  0.38592135  0.68837066  1
  C  C92  1  0.21668430  0.92486503  0.03478311  1
  C  C93  1  0.78331570  0.07513497  0.53478311  1
  C  C94  1  0.11407865  0.60777011  0.93837066  1
  C  C95  1  0.71668430  0.57513497  0.71521689  1
  C  C96  1  0.00960597  0.09689766  0.79942787  1
  C  C97  1  0.49039403  0.59689766  0.45057213  1
  C  C98  1  0.81076757  0.50667499  0.81250447  1
  C  C99  1  0.42486503  0.28331570  0.78478311  1
  C  C100  1  0.31711707  0.79693898  0.66833768  1
  C  C101  1  0.20306102  0.68288293  0.83166232  1
  C  C102  1  0.88592135  0.39222989  0.43837066  1
  C  C103  1  0.90310234  0.99039403  0.70057213  1
  C  C104  1  0.46912682  0.21195247  0.73946865  1
  C  C105  1  0.81711707  0.70306102  0.08166232  1
  C  C106  1  0.40310234  0.50960597  0.04942787  1
  C  C107  1  0.78804753  0.53087318  0.76053135  1
  C  C108  1  0.50960597  0.40310234  0.95057213  1
  C  C109  1  0.79693898  0.31711707  0.33166232  1
  C  C110  1  0.28331570  0.42486503  0.21521689  1
  C  C111  1  0.92486503  0.21668430  0.96521689  1
  C  C112  1  0.68288293  0.20306102  0.16833768  1
  C  C113  1  0.49332501  0.18923243  0.68749553  1
  C  C114  1  0.53087318  0.78804753  0.23946865  1
  C  C115  1  0.00667499  0.68923243  0.56250447  1
  C  C116  1  0.39222989  0.88592135  0.56162934  1
  C  C117  1  0.28804753  0.96912682  0.98946865  1
  C  C118  1  0.18923243  0.49332501  0.31250447  1
  C  C119  1  0.99039403  0.90310234  0.29942787  1
  C  C120  1  0.03087318  0.71195247  0.51053135  1
  C  C121  1  0.21195247  0.46912682  0.26053135  1
  C  C122  1  0.60777011  0.11407865  0.06162934  1
  C  C123  1  0.89222989  0.61407865  0.18837066  1
