# generated using pymatgen
data_CaAlH5
_symmetry_space_group_name_H-M   'P 1'
_cell_length_a   6.18653156
_cell_length_b   11.47499443
_cell_length_c   10.68366213
_cell_angle_alpha   108.26824943
_cell_angle_beta   90.00000000
_cell_angle_gamma   90.00000000
_symmetry_Int_Tables_number   1
_chemical_formula_structural   CaAlH5
_chemical_formula_sum   'Ca8 Al8 H40'
_cell_volume   720.21184764
_cell_formula_units_Z   8
loop_
 _symmetry_equiv_pos_site_id
 _symmetry_equiv_pos_as_xyz
  1  'x, y, z'
loop_
 _atom_site_type_symbol
 _atom_site_label
 _atom_site_symmetry_multiplicity
 _atom_site_fract_x
 _atom_site_fract_y
 _atom_site_fract_z
 _atom_site_occupancy
  Ca  Ca0  1  0.32118271  0.85026666  0.01989022  1
  Ca  Ca1  1  0.19017264  0.29869722  0.82695338  1
  Ca  Ca2  1  0.69017264  0.20130278  0.67304662  1
  Ca  Ca3  1  0.17881729  0.35026666  0.51989022  1
  Ca  Ca4  1  0.80982736  0.70130278  0.17304662  1
  Ca  Ca5  1  0.30982736  0.79869722  0.32695338  1
  Ca  Ca6  1  0.67881729  0.14973334  0.98010978  1
  Ca  Ca7  1  0.82118271  0.64973334  0.48010978  1
  Al  Al8  1  0.29202710  0.58072123  0.83119908  1
  Al  Al9  1  0.26792059  0.48053521  0.30371680  1
  Al  Al10  1  0.73207941  0.51946479  0.69628320  1
  Al  Al11  1  0.76792059  0.01946479  0.19628320  1
  Al  Al12  1  0.70797290  0.41927877  0.16880092  1
  Al  Al13  1  0.23207941  0.98053521  0.80371680  1
  Al  Al14  1  0.79202710  0.91927877  0.66880092  1
  Al  Al15  1  0.20797290  0.08072123  0.33119908  1
  H  H16  1  0.81193370  0.65655963  0.70271022  1
  H  H17  1  0.74587203  0.94615234  0.30128262  1
  H  H18  1  0.88969674  0.31266737  0.09282853  1
  H  H19  1  0.61601611  0.00454641  0.78274888  1
  H  H20  1  0.90340234  0.19311162  0.84062208  1
  H  H21  1  0.25412797  0.05384766  0.69871738  1
  H  H22  1  0.18641332  0.56019441  0.45777202  1
  H  H23  1  0.53738926  0.46866473  0.32895152  1
  H  H24  1  0.40340234  0.30688838  0.65937792  1
  H  H25  1  0.18806630  0.34344037  0.29728978  1
  H  H26  1  0.00468555  0.26711286  0.64477768  1
  H  H27  1  0.49531445  0.76711286  0.14477768  1
  H  H28  1  0.19053232  0.98795600  0.42014929  1
  H  H29  1  0.03738926  0.03133527  0.17104848  1
  H  H30  1  0.30946768  0.48795600  0.92014929  1
  H  H31  1  0.24587203  0.55384766  0.19871738  1
  H  H32  1  0.88398389  0.50454641  0.28274888  1
  H  H33  1  0.99531445  0.73288714  0.35522232  1
  H  H34  1  0.59659766  0.69311162  0.34062208  1
  H  H35  1  0.46261074  0.53133527  0.67104848  1
  H  H36  1  0.50404434  0.67485475  0.88501999  1
  H  H37  1  0.38398389  0.99545359  0.21725112  1
  H  H38  1  0.11030326  0.68733263  0.90717147  1
  H  H39  1  0.61030326  0.81266737  0.59282853  1
  H  H40  1  0.81358668  0.43980559  0.54222798  1
  H  H41  1  0.11601611  0.49545359  0.71725112  1
  H  H42  1  0.49595566  0.32514525  0.11498001  1
  H  H43  1  0.31358668  0.06019441  0.95777202  1
  H  H44  1  0.38969674  0.18733263  0.40717147  1
  H  H45  1  0.69053232  0.51204400  0.07985071  1
  H  H46  1  0.80946768  0.01204400  0.57985071  1
  H  H47  1  0.50468555  0.23288714  0.85522232  1
  H  H48  1  0.96261074  0.96866473  0.82895152  1
  H  H49  1  0.00404434  0.82514525  0.61498001  1
  H  H50  1  0.99595566  0.17485475  0.38501999  1
  H  H51  1  0.68641332  0.93980559  0.04222798  1
  H  H52  1  0.68806630  0.15655963  0.20271022  1
  H  H53  1  0.31193370  0.84344037  0.79728978  1
  H  H54  1  0.75412797  0.44615234  0.80128262  1
  H  H55  1  0.09659766  0.80688838  0.15937792  1
