# generated using pymatgen
data_Ba6Ge25
_symmetry_space_group_name_H-M   'P 1'
_cell_length_a   14.82730201
_cell_length_b   14.82730201
_cell_length_c   14.82730201
_cell_angle_alpha   90.00000000
_cell_angle_beta   90.00000000
_cell_angle_gamma   90.00000000
_symmetry_Int_Tables_number   1
_chemical_formula_structural   Ba6Ge25
_chemical_formula_sum   'Ba24 Ge100'
_cell_volume   3259.76581291
_cell_formula_units_Z   4
loop_
 _symmetry_equiv_pos_site_id
 _symmetry_equiv_pos_as_xyz
  1  'x, y, z'
loop_
 _atom_site_type_symbol
 _atom_site_label
 _atom_site_symmetry_multiplicity
 _atom_site_fract_x
 _atom_site_fract_y
 _atom_site_fract_z
 _atom_site_occupancy
  Ba  Ba0  1  0.55935360  0.55935360  0.55935360  1
  Ba  Ba1  1  0.81005065  0.06005065  0.12500000  1
  Ba  Ba2  1  0.93994935  0.62500000  0.68994935  1
  Ba  Ba3  1  0.05935360  0.94064640  0.44064640  1
  Ba  Ba4  1  0.06005065  0.12500000  0.81005065  1
  Ba  Ba5  1  0.62500000  0.12500000  0.37500000  1
  Ba  Ba6  1  0.37500000  0.18994935  0.56005065  1
  Ba  Ba7  1  0.18994935  0.56005065  0.37500000  1
  Ba  Ba8  1  0.30935360  0.80935360  0.69064640  1
  Ba  Ba9  1  0.87500000  0.31005065  0.43994935  1
  Ba  Ba10  1  0.87500000  0.87500000  0.87500000  1
  Ba  Ba11  1  0.31005065  0.43994935  0.87500000  1
  Ba  Ba12  1  0.68994935  0.93994935  0.62500000  1
  Ba  Ba13  1  0.43994935  0.87500000  0.31005065  1
  Ba  Ba14  1  0.12500000  0.37500000  0.62500000  1
  Ba  Ba15  1  0.19064640  0.19064640  0.19064640  1
  Ba  Ba16  1  0.62500000  0.68994935  0.93994935  1
  Ba  Ba17  1  0.12500000  0.81005065  0.06005065  1
  Ba  Ba18  1  0.44064640  0.05935360  0.94064640  1
  Ba  Ba19  1  0.56005065  0.37500000  0.18994935  1
  Ba  Ba20  1  0.37500000  0.62500000  0.12500000  1
  Ba  Ba21  1  0.69064640  0.30935360  0.80935360  1
  Ba  Ba22  1  0.94064640  0.44064640  0.05935360  1
  Ba  Ba23  1  0.80935360  0.69064640  0.30935360  1
  Ge  Ge24  1  0.39799694  0.16635296  0.33343599  1
  Ge  Ge25  1  0.67458653  0.82541347  0.17458653  1
  Ge  Ge26  1  0.93412550  0.87361137  0.23890954  1
  Ge  Ge27  1  0.32541347  0.32541347  0.32541347  1
  Ge  Ge28  1  0.54229747  0.50005576  0.79717788  1
  Ge  Ge29  1  0.04717788  0.74994424  0.29229747  1
  Ge  Ge30  1  0.70770253  0.54717788  0.75005576  1
  Ge  Ge31  1  0.29229747  0.04717788  0.74994424  1
  Ge  Ge32  1  0.58343599  0.08364704  0.14799694  1
  Ge  Ge33  1  0.58052587  0.62500000  0.33052587  1
  Ge  Ge34  1  0.16656401  0.60200306  0.66635296  1
  Ge  Ge35  1  0.24994424  0.20770253  0.95282212  1
  Ge  Ge36  1  0.37361137  0.26109046  0.06587450  1
  Ge  Ge37  1  0.18412550  0.01109046  0.62361137  1
  Ge  Ge38  1  0.45770253  0.00005576  0.70282212  1
  Ge  Ge39  1  0.16947413  0.41947413  0.12500000  1
  Ge  Ge40  1  0.04229747  0.99994424  0.20282212  1
  Ge  Ge41  1  0.12361137  0.31587450  0.98890954  1
  Ge  Ge42  1  0.82541347  0.17458653  0.67458653  1
  Ge  Ge43  1  0.01109046  0.62361137  0.18412550  1
  Ge  Ge44  1  0.26109046  0.06587450  0.37361137  1
  Ge  Ge45  1  0.37500000  0.83052587  0.91947413  1
  Ge  Ge46  1  0.31587450  0.98890954  0.12361137  1
  Ge  Ge47  1  0.99994424  0.20282212  0.04229747  1
  Ge  Ge48  1  0.08343599  0.41635296  0.85200306  1
  Ge  Ge49  1  0.70282212  0.45770253  0.00005576  1
  Ge  Ge50  1  0.21949334  0.78050666  0.28050666  1
  Ge  Ge51  1  0.95770253  0.49994424  0.29717788  1
  Ge  Ge52  1  0.66635296  0.16656401  0.60200306  1
  Ge  Ge53  1  0.28050666  0.21949334  0.78050666  1
  Ge  Ge54  1  0.91947413  0.37500000  0.83052587  1
  Ge  Ge55  1  0.37638863  0.68412550  0.48890954  1
  Ge  Ge56  1  0.74994424  0.29229747  0.04717788  1
  Ge  Ge57  1  0.41656401  0.58364704  0.35200306  1
  Ge  Ge58  1  0.95282212  0.24994424  0.20770253  1
  Ge  Ge59  1  0.45282212  0.25005576  0.79229747  1
  Ge  Ge60  1  0.03050666  0.03050666  0.03050666  1
  Ge  Ge61  1  0.33343599  0.39799694  0.16635296  1
  Ge  Ge62  1  0.73890954  0.56587450  0.12638863  1
  Ge  Ge63  1  0.12638863  0.73890954  0.56587450  1
  Ge  Ge64  1  0.79717788  0.54229747  0.50005576  1
  Ge  Ge65  1  0.41635296  0.85200306  0.08343599  1
  Ge  Ge66  1  0.35200306  0.41656401  0.58364704  1
  Ge  Ge67  1  0.62500000  0.33052587  0.58052587  1
  Ge  Ge68  1  0.98890954  0.12361137  0.31587450  1
  Ge  Ge69  1  0.81587450  0.51109046  0.87638863  1
  Ge  Ge70  1  0.79229747  0.45282212  0.25005576  1
  Ge  Ge71  1  0.56587450  0.12638863  0.73890954  1
  Ge  Ge72  1  0.87361137  0.23890954  0.93412550  1
  Ge  Ge73  1  0.66656401  0.89799694  0.33364704  1
  Ge  Ge74  1  0.64799694  0.91656401  0.91635296  1
  Ge  Ge75  1  0.10200306  0.83364704  0.83343599  1
  Ge  Ge76  1  0.29717788  0.95770253  0.49994424  1
  Ge  Ge77  1  0.57541347  0.92458653  0.07541347  1
  Ge  Ge78  1  0.92458653  0.07541347  0.57541347  1
  Ge  Ge79  1  0.96949334  0.53050666  0.46949334  1
  Ge  Ge80  1  0.16635296  0.33343599  0.39799694  1
  Ge  Ge81  1  0.17458653  0.67458653  0.82541347  1
  Ge  Ge82  1  0.78050666  0.28050666  0.21949334  1
  Ge  Ge83  1  0.54717788  0.75005576  0.70770253  1
  Ge  Ge84  1  0.51109046  0.87638863  0.81587450  1
  Ge  Ge85  1  0.76109046  0.43412550  0.62638863  1
  Ge  Ge86  1  0.62361137  0.18412550  0.01109046  1
  Ge  Ge87  1  0.62638863  0.76109046  0.43412550  1
  Ge  Ge88  1  0.50005576  0.79717788  0.54229747  1
  Ge  Ge89  1  0.08364704  0.14799694  0.58343599  1
  Ge  Ge90  1  0.58364704  0.35200306  0.41656401  1
  Ge  Ge91  1  0.89799694  0.33364704  0.66656401  1
  Ge  Ge92  1  0.83052587  0.91947413  0.37500000  1
  Ge  Ge93  1  0.07541347  0.57541347  0.92458653  1
  Ge  Ge94  1  0.43412550  0.62638863  0.76109046  1
  Ge  Ge95  1  0.06587450  0.37361137  0.26109046  1
  Ge  Ge96  1  0.33364704  0.66656401  0.89799694  1
  Ge  Ge97  1  0.87500000  0.66947413  0.08052587  1
  Ge  Ge98  1  0.75005576  0.70770253  0.54717788  1
  Ge  Ge99  1  0.46949334  0.96949334  0.53050666  1
  Ge  Ge100  1  0.20282212  0.04229747  0.99994424  1
  Ge  Ge101  1  0.20770253  0.95282212  0.24994424  1
  Ge  Ge102  1  0.83343599  0.10200306  0.83364704  1
  Ge  Ge103  1  0.87638863  0.81587450  0.51109046  1
  Ge  Ge104  1  0.12500000  0.16947413  0.41947413  1
  Ge  Ge105  1  0.23890954  0.93412550  0.87361137  1
  Ge  Ge106  1  0.91635296  0.64799694  0.91656401  1
  Ge  Ge107  1  0.49994424  0.29717788  0.95770253  1
  Ge  Ge108  1  0.91656401  0.91635296  0.64799694  1
  Ge  Ge109  1  0.25005576  0.79229747  0.45282212  1
  Ge  Ge110  1  0.48890954  0.37638863  0.68412550  1
  Ge  Ge111  1  0.14799694  0.58343599  0.08364704  1
  Ge  Ge112  1  0.66947413  0.08052587  0.87500000  1
  Ge  Ge113  1  0.83364704  0.83343599  0.10200306  1
  Ge  Ge114  1  0.68412550  0.48890954  0.37638863  1
  Ge  Ge115  1  0.85200306  0.08343599  0.41635296  1
  Ge  Ge116  1  0.33052587  0.58052587  0.62500000  1
  Ge  Ge117  1  0.08052587  0.87500000  0.66947413  1
  Ge  Ge118  1  0.53050666  0.46949334  0.96949334  1
  Ge  Ge119  1  0.71949334  0.71949334  0.71949334  1
  Ge  Ge120  1  0.00005576  0.70282212  0.45770253  1
  Ge  Ge121  1  0.60200306  0.66635296  0.16656401  1
  Ge  Ge122  1  0.42458653  0.42458653  0.42458653  1
  Ge  Ge123  1  0.41947413  0.12500000  0.16947413  1
