# generated using pymatgen
data_Th6Mg23
_symmetry_space_group_name_H-M   'P 1'
_cell_length_a   10.11686994
_cell_length_b   10.11686950
_cell_length_c   10.11686981
_cell_angle_alpha   59.99999894
_cell_angle_beta   60.00000039
_cell_angle_gamma   59.99999696
_symmetry_Int_Tables_number   1
_chemical_formula_structural   Th6Mg23
_chemical_formula_sum   'Th6 Mg23'
_cell_volume   732.18944842
_cell_formula_units_Z   1
loop_
 _symmetry_equiv_pos_site_id
 _symmetry_equiv_pos_as_xyz
  1  'x, y, z'
loop_
 _atom_site_type_symbol
 _atom_site_label
 _atom_site_symmetry_multiplicity
 _atom_site_fract_x
 _atom_site_fract_y
 _atom_site_fract_z
 _atom_site_occupancy
  Th  Th0  1  0.81636393  0.18363607  0.81636393  1
  Th  Th1  1  0.81636393  0.81636393  0.18363607  1
  Th  Th2  1  0.81636393  0.18363607  0.18363607  1
  Th  Th3  1  0.18363607  0.18363607  0.81636393  1
  Th  Th4  1  0.18363607  0.81636393  0.81636393  1
  Th  Th5  1  0.18363607  0.81636393  0.18363607  1
  Mg  Mg6  1  0.38020282  0.85939153  0.38020282  1
  Mg  Mg7  1  0.83000093  0.83000093  0.83000093  1
  Mg  Mg8  1  0.00000000  0.00000000  0.50000000  1
  Mg  Mg9  1  0.50000000  0.50000000  0.50000000  1
  Mg  Mg10  1  0.16999907  0.49000279  0.16999907  1
  Mg  Mg11  1  0.16999907  0.16999907  0.49000279  1
  Mg  Mg12  1  0.83000093  0.83000093  0.50999721  1
  Mg  Mg13  1  0.38020282  0.38020282  0.85939153  1
  Mg  Mg14  1  0.61979718  0.61979718  0.61979718  1
  Mg  Mg15  1  0.50000000  0.00000000  0.00000000  1
  Mg  Mg16  1  0.85939153  0.38020282  0.38020282  1
  Mg  Mg17  1  0.14060847  0.61979718  0.61979718  1
  Mg  Mg18  1  0.16999907  0.16999907  0.16999907  1
  Mg  Mg19  1  0.83000093  0.50999721  0.83000093  1
  Mg  Mg20  1  0.50999721  0.83000093  0.83000093  1
  Mg  Mg21  1  0.50000000  0.00000000  0.50000000  1
  Mg  Mg22  1  0.38020282  0.38020282  0.38020282  1
  Mg  Mg23  1  0.61979718  0.14060847  0.61979718  1
  Mg  Mg24  1  0.61979718  0.61979718  0.14060847  1
  Mg  Mg25  1  0.50000000  0.50000000  0.00000000  1
  Mg  Mg26  1  0.49000279  0.16999907  0.16999907  1
  Mg  Mg27  1  0.00000000  0.50000000  0.00000000  1
  Mg  Mg28  1  0.00000000  0.50000000  0.50000000  1
