# generated using pymatgen
data_TiCu2P
_symmetry_space_group_name_H-M   'P 1'
_cell_length_a   3.51682417
_cell_length_b   3.51682506
_cell_length_c   16.92995325
_cell_angle_alpha   95.96171435
_cell_angle_beta   95.96171585
_cell_angle_gamma   90.00000742
_symmetry_Int_Tables_number   1
_chemical_formula_structural   TiCu2P
_chemical_formula_sum   'Ti4 Cu8 P4'
_cell_volume   207.11943660
_cell_formula_units_Z   4
loop_
 _symmetry_equiv_pos_site_id
 _symmetry_equiv_pos_as_xyz
  1  'x, y, z'
loop_
 _atom_site_type_symbol
 _atom_site_label
 _atom_site_symmetry_multiplicity
 _atom_site_fract_x
 _atom_site_fract_y
 _atom_site_fract_z
 _atom_site_occupancy
  Ti  Ti0  1  0.90300238  0.15300238  0.30600475  1
  Ti  Ti1  1  0.34699762  0.59699762  0.19399525  1
  Ti  Ti2  1  0.65300238  0.40300238  0.80600475  1
  Ti  Ti3  1  0.09699762  0.84699762  0.69399525  1
  Cu  Cu4  1  0.52995640  0.77995640  0.55991281  1
  Cu  Cu5  1  0.47004360  0.22004360  0.44008719  1
  Cu  Cu6  1  0.27995640  0.02995640  0.05991281  1
  Cu  Cu7  1  0.72004360  0.97004360  0.94008719  1
  Cu  Cu8  1  0.77761268  0.52761268  0.05522537  1
  Cu  Cu9  1  0.22238732  0.47238732  0.94477463  1
  Cu  Cu10  1  0.97238732  0.72238732  0.44477463  1
  Cu  Cu11  1  0.02761268  0.27761268  0.55522537  1
  P  P12  1  0.42164593  0.67164593  0.34329186  1
  P  P13  1  0.57835407  0.32835407  0.65670814  1
  P  P14  1  0.82835407  0.07835407  0.15670814  1
  P  P15  1  0.17164593  0.92164593  0.84329186  1
