# generated using pymatgen
data_Li2MgSi
_symmetry_space_group_name_H-M   'P 1'
_cell_length_a   8.98581628
_cell_length_b   8.98581627
_cell_length_c   8.98581582
_cell_angle_alpha   59.99999821
_cell_angle_beta   59.99999823
_cell_angle_gamma   60.00000083
_symmetry_Int_Tables_number   1
_chemical_formula_structural   Li2MgSi
_chemical_formula_sum   'Li16 Mg8 Si8'
_cell_volume   513.04749988
_cell_formula_units_Z   8
loop_
 _symmetry_equiv_pos_site_id
 _symmetry_equiv_pos_as_xyz
  1  'x, y, z'
loop_
 _atom_site_type_symbol
 _atom_site_label
 _atom_site_symmetry_multiplicity
 _atom_site_fract_x
 _atom_site_fract_y
 _atom_site_fract_z
 _atom_site_occupancy
  Li  Li0  1  0.87437663  0.87437663  0.87437663  1
  Li  Li1  1  0.87437663  0.87437663  0.37687012  1
  Li  Li2  1  0.25000000  0.25000000  0.25000000  1
  Li  Li3  1  0.87437663  0.37687012  0.87437663  1
  Li  Li4  1  0.12562337  0.12562337  0.62312988  1
  Li  Li5  1  0.21903498  0.78096502  0.21903498  1
  Li  Li6  1  0.12562337  0.12562337  0.12562337  1
  Li  Li7  1  0.78096502  0.78096502  0.21903498  1
  Li  Li8  1  0.21903498  0.21903498  0.78096502  1
  Li  Li9  1  0.12562337  0.62312988  0.12562337  1
  Li  Li10  1  0.21903498  0.78096502  0.78096502  1
  Li  Li11  1  0.78096502  0.21903498  0.21903498  1
  Li  Li12  1  0.75000000  0.75000000  0.75000000  1
  Li  Li13  1  0.78096502  0.21903498  0.78096502  1
  Li  Li14  1  0.62312988  0.12562337  0.12562337  1
  Li  Li15  1  0.37687012  0.87437663  0.87437663  1
  Mg  Mg16  1  0.37426572  0.37426572  0.37426572  1
  Mg  Mg17  1  0.12279715  0.62573428  0.62573428  1
  Mg  Mg18  1  0.62573428  0.12279715  0.62573428  1
  Mg  Mg19  1  0.62573428  0.62573428  0.62573428  1
  Mg  Mg20  1  0.37426572  0.87720285  0.37426572  1
  Mg  Mg21  1  0.37426572  0.37426572  0.87720285  1
  Mg  Mg22  1  0.87720285  0.37426572  0.37426572  1
  Mg  Mg23  1  0.62573428  0.62573428  0.12279715  1
  Si  Si24  1  0.50000000  0.00000000  0.50000000  1
  Si  Si25  1  0.50000000  0.50000000  -0.00000000  1
  Si  Si26  1  0.50000000  0.50000000  0.50000000  1
  Si  Si27  1  0.00000000  -0.00000000  0.00000000  1
  Si  Si28  1  0.50000000  -0.00000000  -0.00000000  1
  Si  Si29  1  -0.00000000  0.50000000  0.50000000  1
  Si  Si30  1  -0.00000000  0.00000000  0.50000000  1
  Si  Si31  1  0.00000000  0.50000000  0.00000000  1
