# generated using pymatgen
data_ThMg2
_symmetry_space_group_name_H-M   'P 1'
_cell_length_a   6.07498081
_cell_length_b   6.07498115
_cell_length_c   19.59416637
_cell_angle_alpha   90.00000000
_cell_angle_beta   90.00000000
_cell_angle_gamma   119.99999812
_symmetry_Int_Tables_number   1
_chemical_formula_structural   ThMg2
_chemical_formula_sum   'Th8 Mg16'
_cell_volume   626.24933254
_cell_formula_units_Z   8
loop_
 _symmetry_equiv_pos_site_id
 _symmetry_equiv_pos_as_xyz
  1  'x, y, z'
loop_
 _atom_site_type_symbol
 _atom_site_label
 _atom_site_symmetry_multiplicity
 _atom_site_fract_x
 _atom_site_fract_y
 _atom_site_fract_z
 _atom_site_occupancy
  Th  Th0  1  0.33333300  0.66666700  0.84352182  1
  Th  Th1  1  0.00000000  0.00000000  0.09189102  1
  Th  Th2  1  0.00000000  0.00000000  0.90810898  1
  Th  Th3  1  0.66666700  0.33333300  0.15647818  1
  Th  Th4  1  0.00000000  0.00000000  0.59189102  1
  Th  Th5  1  0.66666700  0.33333300  0.34352182  1
  Th  Th6  1  0.00000000  0.00000000  0.40810898  1
  Th  Th7  1  0.33333300  0.66666700  0.65647818  1
  Mg  Mg8  1  0.50000000  0.50000000  0.50000000  1
  Mg  Mg9  1  0.83860110  0.16139890  0.75000000  1
  Mg  Mg10  1  0.66666700  0.33333300  0.87384370  1
  Mg  Mg11  1  0.16139890  0.32279781  0.25000000  1
  Mg  Mg12  1  0.32279781  0.16139890  0.75000000  1
  Mg  Mg13  1  0.83860110  0.67720219  0.75000000  1
  Mg  Mg14  1  0.50000000  0.00000000  0.50000000  1
  Mg  Mg15  1  0.67720219  0.83860110  0.25000000  1
  Mg  Mg16  1  0.50000000  0.50000000  0.00000000  1
  Mg  Mg17  1  0.16139890  0.83860110  0.25000000  1
  Mg  Mg18  1  0.33333300  0.66666700  0.37384370  1
  Mg  Mg19  1  0.00000000  0.50000000  0.00000000  1
  Mg  Mg20  1  0.66666700  0.33333300  0.62615630  1
  Mg  Mg21  1  0.00000000  0.50000000  0.50000000  1
  Mg  Mg22  1  0.33333300  0.66666700  0.12615630  1
  Mg  Mg23  1  0.50000000  0.00000000  0.00000000  1
