# generated using pymatgen
data_Cs3Li2Cl5
_symmetry_space_group_name_H-M   'P 1'
_cell_length_a   4.24376134
_cell_length_b   5.87544640
_cell_length_c   12.81162237
_cell_angle_alpha   103.25152077
_cell_angle_beta   99.52686571
_cell_angle_gamma   90.02654875
_symmetry_Int_Tables_number   1
_chemical_formula_structural   Cs3Li2Cl5
_chemical_formula_sum   'Cs3 Li2 Cl5'
_cell_volume   306.40517136
_cell_formula_units_Z   1
loop_
 _symmetry_equiv_pos_site_id
 _symmetry_equiv_pos_as_xyz
  1  'x, y, z'
loop_
 _atom_site_type_symbol
 _atom_site_label
 _atom_site_symmetry_multiplicity
 _atom_site_fract_x
 _atom_site_fract_y
 _atom_site_fract_z
 _atom_site_occupancy
  Cs  Cs0  1  0.86544909  0.61566919  0.24913188  1
  Cs  Cs1  1  0.61632292  0.36651986  0.75086182  1
  Cs  Cs2  1  0.73106891  0.99771840  0.99999926  1
  Li  Li3  1  0.03055131  0.73320508  0.56478576  1
  Li  Li4  1  0.46579968  0.16838512  0.43521662  1
  Cl  Cl5  1  0.48729032  0.79211761  0.47921369  1
  Cl  Cl6  1  0.12403113  0.87196690  0.75578875  1
  Cl  Cl7  1  0.00808574  0.31290420  0.52079101  1
  Cl  Cl8  1  0.36823180  0.11615912  0.24422036  1
  Cl  Cl9  1  0.24392910  0.49551452  -0.00000915  1
