# generated using pymatgen
data_Cs2CeAsS3Cl2
_symmetry_space_group_name_H-M   'P 1'
_cell_length_a   6.70114433
_cell_length_b   9.55029193
_cell_length_c   17.98308425
_cell_angle_alpha   90.00000000
_cell_angle_beta   90.00000000
_cell_angle_gamma   90.00000000
_symmetry_Int_Tables_number   1
_chemical_formula_structural   Cs2CeAsS3Cl2
_chemical_formula_sum   'Cs8 Ce4 As4 S12 Cl8'
_cell_volume   1150.87935088
_cell_formula_units_Z   4
loop_
 _symmetry_equiv_pos_site_id
 _symmetry_equiv_pos_as_xyz
  1  'x, y, z'
loop_
 _atom_site_type_symbol
 _atom_site_label
 _atom_site_symmetry_multiplicity
 _atom_site_fract_x
 _atom_site_fract_y
 _atom_site_fract_z
 _atom_site_occupancy
  Cs  Cs0  1  0.25000000  0.83799350  0.21918959  1
  Cs  Cs1  1  0.75000000  0.33799350  0.28081041  1
  Cs  Cs2  1  0.25000000  0.66200650  0.71918959  1
  Cs  Cs3  1  0.25000000  0.95938305  0.92753428  1
  Cs  Cs4  1  0.75000000  0.04061695  0.07246572  1
  Cs  Cs5  1  0.75000000  0.45938305  0.57246572  1
  Cs  Cs6  1  0.25000000  0.54061695  0.42753428  1
  Cs  Cs7  1  0.75000000  0.16200650  0.78081041  1
  Ce  Ce8  1  0.25000000  0.43362363  0.05707412  1
  Ce  Ce9  1  0.25000000  0.06637637  0.55707412  1
  Ce  Ce10  1  0.75000000  0.93362363  0.44292588  1
  Ce  Ce11  1  0.75000000  0.56637637  0.94292588  1
  As  As12  1  0.25000000  0.12232893  0.36527150  1
  As  As13  1  0.25000000  0.37767107  0.86527150  1
  As  As14  1  0.75000000  0.87767107  0.63472850  1
  As  As15  1  0.75000000  0.62232893  0.13472850  1
  S  S16  1  0.25000000  0.90142126  0.40973106  1
  S  S17  1  0.00383555  0.69419312  0.06055732  1
  S  S18  1  0.75000000  0.40142126  0.09026894  1
  S  S19  1  0.50383555  0.30580688  0.93944268  1
  S  S20  1  0.00383555  0.80580688  0.56055732  1
  S  S21  1  0.75000000  0.09857874  0.59026894  1
  S  S22  1  0.25000000  0.59857874  0.90973106  1
  S  S23  1  0.49616445  0.69419312  0.06055732  1
  S  S24  1  0.50383555  0.19419312  0.43944268  1
  S  S25  1  0.99616445  0.19419312  0.43944268  1
  S  S26  1  0.99616445  0.30580688  0.93944268  1
  S  S27  1  0.49616445  0.80580688  0.56055732  1
  Cl  Cl28  1  0.75000000  0.85563576  0.89442261  1
  Cl  Cl29  1  0.25000000  0.35563576  0.60557739  1
  Cl  Cl30  1  0.25000000  0.14436424  0.10557739  1
  Cl  Cl31  1  0.75000000  0.52924296  0.78302853  1
  Cl  Cl32  1  0.25000000  0.02924296  0.71697147  1
  Cl  Cl33  1  0.75000000  0.97075704  0.28302853  1
  Cl  Cl34  1  0.75000000  0.64436424  0.39442261  1
  Cl  Cl35  1  0.25000000  0.47075704  0.21697147  1
