# generated using pymatgen
data_Cu2P2PbO8
_symmetry_space_group_name_H-M   'P 1'
_cell_length_a   8.14934989
_cell_length_b   10.51179886
_cell_length_c   15.68057440
_cell_angle_alpha   90.00000000
_cell_angle_beta   90.00000000
_cell_angle_gamma   90.00000000
_symmetry_Int_Tables_number   1
_chemical_formula_structural   Cu2P2PbO8
_chemical_formula_sum   'Cu16 P16 Pb8 O64'
_cell_volume   1343.26585112
_cell_formula_units_Z   8
loop_
 _symmetry_equiv_pos_site_id
 _symmetry_equiv_pos_as_xyz
  1  'x, y, z'
loop_
 _atom_site_type_symbol
 _atom_site_label
 _atom_site_symmetry_multiplicity
 _atom_site_fract_x
 _atom_site_fract_y
 _atom_site_fract_z
 _atom_site_occupancy
  Cu  Cu0  1  0.43377328  0.44427856  0.33790089  1
  Cu  Cu1  1  0.59834022  0.70688595  0.42427871  1
  Cu  Cu2  1  0.40165978  0.29311405  0.57572129  1
  Cu  Cu3  1  0.09834022  0.79311405  0.57572129  1
  Cu  Cu4  1  0.59834022  0.20688595  0.07572129  1
  Cu  Cu5  1  0.06622672  0.44427856  0.16209911  1
  Cu  Cu6  1  0.90165978  0.70688595  0.07572129  1
  Cu  Cu7  1  0.93377328  0.05572144  0.66209911  1
  Cu  Cu8  1  0.90165978  0.20688595  0.42427871  1
  Cu  Cu9  1  0.56622672  0.05572144  0.83790089  1
  Cu  Cu10  1  0.56622672  0.55572144  0.66209911  1
  Cu  Cu11  1  0.93377328  0.55572144  0.83790089  1
  Cu  Cu12  1  0.40165978  0.79311405  0.92427871  1
  Cu  Cu13  1  0.43377328  0.94427856  0.16209911  1
  Cu  Cu14  1  0.09834022  0.29311405  0.92427871  1
  Cu  Cu15  1  0.06622672  0.94427856  0.33790089  1
  P  P16  1  0.80266343  0.42763261  0.00951147  1
  P  P17  1  0.75000000  0.32233227  0.25000000  1
  P  P18  1  0.19733657  0.07236739  0.50951147  1
  P  P19  1  0.75000000  0.29404150  0.75000000  1
  P  P20  1  0.25000000  0.67766773  0.75000000  1
  P  P21  1  0.25000000  0.70595850  0.25000000  1
  P  P22  1  0.19733657  0.57236739  0.99048853  1
  P  P23  1  0.30266343  0.07236739  0.99048853  1
  P  P24  1  0.75000000  0.79404150  0.75000000  1
  P  P25  1  0.25000000  0.17766773  0.75000000  1
  P  P26  1  0.75000000  0.82233227  0.25000000  1
  P  P27  1  0.80266343  0.92763261  0.49048853  1
  P  P28  1  0.69733657  0.92763261  0.00951147  1
  P  P29  1  0.25000000  0.20595850  0.25000000  1
  P  P30  1  0.69733657  0.42763261  0.49048853  1
  P  P31  1  0.30266343  0.57236739  0.50951147  1
  Pb  Pb32  1  0.48096065  0.41907198  0.86892299  1
  Pb  Pb33  1  0.01903935  0.91907198  0.86892299  1
  Pb  Pb34  1  0.51903935  0.08092802  0.36892299  1
  Pb  Pb35  1  0.01903935  0.41907198  0.63107701  1
  Pb  Pb36  1  0.48096065  0.91907198  0.63107701  1
  Pb  Pb37  1  0.98096065  0.08092802  0.13107701  1
  Pb  Pb38  1  0.98096065  0.58092802  0.36892299  1
  Pb  Pb39  1  0.51903935  0.58092802  0.13107701  1
  O  O40  1  0.09936169  0.11993516  0.27355927  1
  O  O41  1  0.59224657  0.90605460  0.25459260  1
  O  O42  1  0.19626838  0.28432141  0.17104064  1
  O  O43  1  0.41788979  0.18852965  0.99666018  1
  O  O44  1  0.09224657  0.09394540  0.75459260  1
  O  O45  1  0.86463314  0.01947770  0.41741038  1
  O  O46  1  0.19626838  0.78432141  0.32895936  1
  O  O47  1  0.25703716  0.26407205  0.83067901  1
  O  O48  1  0.80373162  0.21567859  0.67104064  1
  O  O49  1  0.24296284  0.76407205  0.83067901  1
  O  O50  1  0.59936169  0.38006484  0.72644073  1
  O  O51  1  0.87390380  0.38275063  0.46429392  1
  O  O52  1  0.37390380  0.11724937  0.53570608  1
  O  O53  1  0.08211021  0.68852965  0.99666018  1
  O  O54  1  0.62609620  0.38275063  0.03570608  1
  O  O55  1  0.90063831  0.38006484  0.77355927  1
  O  O56  1  0.40775343  0.09394540  0.74540740  1
  O  O57  1  0.27637038  0.49841612  0.42517172  1
  O  O58  1  0.91788979  0.81147035  0.49666018  1
  O  O59  1  0.87390380  0.88275063  0.03570608  1
  O  O60  1  0.86463314  0.51947770  0.08258962  1
  O  O61  1  0.36463314  0.48052230  0.58258962  1
  O  O62  1  0.74296284  0.73592795  0.16932099  1
  O  O63  1  0.09224657  0.59394540  0.74540740  1
  O  O64  1  0.13536686  0.98052230  0.58258962  1
  O  O65  1  0.58211021  0.31147035  0.49666018  1
  O  O66  1  0.13536686  0.48052230  0.91741038  1
  O  O67  1  0.75703716  0.23592795  0.16932099  1
  O  O68  1  0.90775343  0.40605460  0.25459260  1
  O  O69  1  0.37390380  0.61724937  0.96429392  1
  O  O70  1  0.12609620  0.61724937  0.53570608  1
  O  O71  1  0.22362962  0.49841612  0.07482828  1
  O  O72  1  0.63536686  0.01947770  0.08258962  1
  O  O73  1  0.62609620  0.88275063  0.46429392  1
  O  O74  1  0.91788979  0.31147035  0.00333982  1
  O  O75  1  0.27637038  0.99841612  0.07482828  1
  O  O76  1  0.12609620  0.11724937  0.96429392  1
  O  O77  1  0.72362962  0.50158388  0.57482828  1
  O  O78  1  0.69626838  0.21567859  0.82895936  1
  O  O79  1  0.77637038  0.50158388  0.92517172  1
  O  O80  1  0.59224657  0.40605460  0.24540740  1
  O  O81  1  0.69626838  0.71567859  0.67104064  1
  O  O82  1  0.08211021  0.18852965  0.50333982  1
  O  O83  1  0.90063831  0.88006484  0.72644073  1
  O  O84  1  0.90775343  0.90605460  0.24540740  1
  O  O85  1  0.75703716  0.73592795  0.33067901  1
  O  O86  1  0.40063831  0.11993516  0.22644073  1
  O  O87  1  0.30373162  0.28432141  0.32895936  1
  O  O88  1  0.80373162  0.71567859  0.82895936  1
  O  O89  1  0.30373162  0.78432141  0.17104064  1
  O  O90  1  0.63536686  0.51947770  0.41741038  1
  O  O91  1  0.25703716  0.76407205  0.66932099  1
  O  O92  1  0.40775343  0.59394540  0.75459260  1
  O  O93  1  0.09936169  0.61993516  0.22644073  1
  O  O94  1  0.58211021  0.81147035  0.00333982  1
  O  O95  1  0.24296284  0.26407205  0.66932099  1
  O  O96  1  0.36463314  0.98052230  0.91741038  1
  O  O97  1  0.41788979  0.68852965  0.50333982  1
  O  O98  1  0.74296284  0.23592795  0.33067901  1
  O  O99  1  0.72362962  0.00158388  0.92517172  1
  O  O100  1  0.77637038  0.00158388  0.57482828  1
  O  O101  1  0.40063831  0.61993516  0.27355927  1
  O  O102  1  0.22362962  0.99841612  0.42517172  1
  O  O103  1  0.59936169  0.88006484  0.77355927  1
