# generated using pymatgen
data_Cs2LiCl3
_symmetry_space_group_name_H-M   'P 1'
_cell_length_a   4.27380965
_cell_length_b   7.88965532
_cell_length_c   11.92362500
_cell_angle_alpha   90.00000000
_cell_angle_beta   100.32409623
_cell_angle_gamma   90.00000000
_symmetry_Int_Tables_number   1
_chemical_formula_structural   Cs2LiCl3
_chemical_formula_sum   'Cs4 Li2 Cl6'
_cell_volume   395.54203036
_cell_formula_units_Z   2
loop_
 _symmetry_equiv_pos_site_id
 _symmetry_equiv_pos_as_xyz
  1  'x, y, z'
loop_
 _atom_site_type_symbol
 _atom_site_label
 _atom_site_symmetry_multiplicity
 _atom_site_fract_x
 _atom_site_fract_y
 _atom_site_fract_z
 _atom_site_occupancy
  Cs  Cs0  1  0.00296178  0.75000000  0.00592357  1
  Cs  Cs1  1  0.17819636  0.25000000  0.35639272  1
  Cs  Cs2  1  0.82180364  0.75000000  0.64360728  1
  Cs  Cs3  1  0.99703822  0.25000000  0.99407643  1
  Li  Li4  1  0.64782422  0.75000000  0.29564844  1
  Li  Li5  1  0.35217578  0.25000000  0.70435156  1
  Cl  Cl6  1  0.79805849  0.25000000  0.59611698  1
  Cl  Cl7  1  0.20194151  0.75000000  0.40388302  1
  Cl  Cl8  1  0.58850413  0.99781449  0.17700826  1
  Cl  Cl9  1  0.41149587  0.00218551  0.82299174  1
  Cl  Cl10  1  0.58850413  0.50218551  0.17700826  1
  Cl  Cl11  1  0.41149587  0.49781449  0.82299174  1
