# generated using pymatgen
data_CsNb3(PO5)3
_symmetry_space_group_name_H-M   'P 1'
_cell_length_a   6.59513648
_cell_length_b   13.20715483
_cell_length_c   15.65481284
_cell_angle_alpha   90.00000000
_cell_angle_beta   90.00000000
_cell_angle_gamma   90.00000000
_symmetry_Int_Tables_number   1
_chemical_formula_structural   CsNb3(PO5)3
_chemical_formula_sum   'Cs4 Nb12 P12 O60'
_cell_volume   1363.58098459
_cell_formula_units_Z   4
loop_
 _symmetry_equiv_pos_site_id
 _symmetry_equiv_pos_as_xyz
  1  'x, y, z'
loop_
 _atom_site_type_symbol
 _atom_site_label
 _atom_site_symmetry_multiplicity
 _atom_site_fract_x
 _atom_site_fract_y
 _atom_site_fract_z
 _atom_site_occupancy
  Cs  Cs0  1  0.00000000  0.01642772  0.33221772  1
  Cs  Cs1  1  0.50000000  0.48357228  0.83221772  1
  Cs  Cs2  1  0.50000000  0.51642772  0.16778228  1
  Cs  Cs3  1  0.00000000  0.98357228  0.66778228  1
  Nb  Nb4  1  0.50000000  0.85441989  0.52660718  1
  Nb  Nb5  1  0.00000000  0.64558011  0.02660718  1
  Nb  Nb6  1  0.00000000  0.35441989  0.97339282  1
  Nb  Nb7  1  0.00000000  0.57303526  0.63668590  1
  Nb  Nb8  1  0.50000000  0.79359345  0.76844723  1
  Nb  Nb9  1  0.50000000  0.20640655  0.23155277  1
  Nb  Nb10  1  0.00000000  0.42696474  0.36331410  1
  Nb  Nb11  1  0.00000000  0.29359345  0.73155277  1
  Nb  Nb12  1  0.50000000  0.92696474  0.13668590  1
  Nb  Nb13  1  0.50000000  0.07303526  0.86331410  1
  Nb  Nb14  1  0.50000000  0.14558011  0.47339282  1
  Nb  Nb15  1  0.00000000  0.70640655  0.26844723  1
  P  P16  1  0.50000000  0.27818464  0.00859144  1
  P  P17  1  0.00000000  0.22181536  0.50859144  1
  P  P18  1  0.00000000  0.73792552  0.80657748  1
  P  P19  1  0.50000000  0.58647766  0.56966980  1
  P  P20  1  0.50000000  0.41352234  0.43033020  1
  P  P21  1  0.00000000  0.08647766  0.93033020  1
  P  P22  1  0.50000000  0.76207448  0.30657748  1
  P  P23  1  0.00000000  0.26207448  0.19342252  1
  P  P24  1  0.00000000  0.77818464  0.49140856  1
  P  P25  1  0.00000000  0.91352234  0.06966980  1
  P  P26  1  0.50000000  0.23792552  0.69342252  1
  P  P27  1  0.50000000  0.72181536  0.99140856  1
  O  O28  1  0.00000000  0.35561858  0.25797566  1
  O  O29  1  0.68542180  0.30377494  0.71511254  1
  O  O30  1  0.50000000  0.31056334  0.47123444  1
  O  O31  1  0.00000000  0.32634873  0.46147002  1
  O  O32  1  0.19511014  0.93697126  0.11985790  1
  O  O33  1  0.31457820  0.30377494  0.71511254  1
  O  O34  1  0.50000000  0.82634873  0.03852998  1
  O  O35  1  0.50000000  0.33286225  0.26467461  1
  O  O36  1  0.50000000  0.68943666  0.52876556  1
  O  O37  1  0.00000000  0.44138286  0.66571542  1
  O  O38  1  0.00000000  0.35703734  0.85025834  1
  O  O39  1  0.80488986  0.06302874  0.88014210  1
  O  O40  1  0.00000000  0.16713775  0.76467461  1
  O  O41  1  0.00000000  0.81056334  0.02876556  1
  O  O42  1  0.81463763  0.84211224  0.51989748  1
  O  O43  1  0.50000000  0.18725053  0.60638788  1
  O  O44  1  0.50000000  0.85703734  0.64974166  1
  O  O45  1  0.19511014  0.06302874  0.88014210  1
  O  O46  1  0.81457820  0.19622506  0.21511254  1
  O  O47  1  0.50000000  0.66713775  0.73532539  1
  O  O48  1  0.50000000  0.73937025  0.89564111  1
  O  O49  1  0.50000000  0.26062975  0.10435889  1
  O  O50  1  0.18536237  0.15788776  0.48010252  1
  O  O51  1  0.30488986  0.43697126  0.38014210  1
  O  O52  1  0.81463763  0.15788776  0.48010252  1
  O  O53  1  0.50000000  0.50000000  0.50000000  1
  O  O54  1  0.18542180  0.19622506  0.21511254  1
  O  O55  1  0.80488986  0.93697126  0.11985790  1
  O  O56  1  0.68542180  0.69622506  0.28488746  1
  O  O57  1  0.68536237  0.65788776  0.01989748  1
  O  O58  1  0.50000000  0.14296266  0.35025834  1
  O  O59  1  0.50000000  0.14438142  0.75797566  1
  O  O60  1  0.50000000  0.05861714  0.16571542  1
  O  O61  1  0.50000000  0.94138286  0.83428458  1
  O  O62  1  0.00000000  0.68725053  0.89361212  1
  O  O63  1  0.31463763  0.65788776  0.01989748  1
  O  O64  1  0.69511014  0.43697126  0.38014210  1
  O  O65  1  0.00000000  0.23937025  0.60435889  1
  O  O66  1  0.31457820  0.69622506  0.28488746  1
  O  O67  1  0.31463763  0.34211224  0.98010252  1
  O  O68  1  0.30488986  0.56302874  0.61985790  1
  O  O69  1  0.18542180  0.80377494  0.78488746  1
  O  O70  1  0.00000000  0.76062975  0.39564111  1
  O  O71  1  0.50000000  0.00000000  0.50000000  1
  O  O72  1  0.00000000  0.50000000  0.00000000  1
  O  O73  1  0.81457820  0.80377494  0.78488746  1
  O  O74  1  0.18536237  0.84211224  0.51989748  1
  O  O75  1  0.50000000  0.17365127  0.96147002  1
  O  O76  1  0.00000000  0.83286225  0.23532539  1
  O  O77  1  0.00000000  0.55861714  0.33428458  1
  O  O78  1  0.00000000  0.64438142  0.74202434  1
  O  O79  1  0.50000000  0.85561858  0.24202434  1
  O  O80  1  0.00000000  0.18943666  0.97123444  1
  O  O81  1  0.00000000  0.64296266  0.14974166  1
  O  O82  1  0.00000000  0.00000000  0.00000000  1
  O  O83  1  0.00000000  0.67365127  0.53852998  1
  O  O84  1  0.00000000  0.31274947  0.10638788  1
  O  O85  1  0.68536237  0.34211224  0.98010252  1
  O  O86  1  0.69511014  0.56302874  0.61985790  1
  O  O87  1  0.50000000  0.81274947  0.39361212  1
