# generated using pymatgen
data_Li3Co2(PO4)3
_symmetry_space_group_name_H-M   'P 1'
_cell_length_a   8.45038850
_cell_length_b   8.75515692
_cell_length_c   12.00440571
_cell_angle_alpha   89.99741227
_cell_angle_beta   88.33311791
_cell_angle_gamma   90.00156959
_symmetry_Int_Tables_number   1
_chemical_formula_structural   Li3Co2(PO4)3
_chemical_formula_sum   'Li12 Co8 P12 O48'
_cell_volume   887.76385640
_cell_formula_units_Z   4
loop_
 _symmetry_equiv_pos_site_id
 _symmetry_equiv_pos_as_xyz
  1  'x, y, z'
loop_
 _atom_site_type_symbol
 _atom_site_label
 _atom_site_symmetry_multiplicity
 _atom_site_fract_x
 _atom_site_fract_y
 _atom_site_fract_z
 _atom_site_occupancy
  Li  Li0  1  0.06057311  0.51031476  0.65654882  1
  Li  Li1  1  0.08000293  0.08793226  0.30679584  1
  Li  Li2  1  0.18381844  0.77988834  0.82295327  1
  Li  Li3  1  0.31616214  0.27989427  0.67704520  1
  Li  Li4  1  0.42004872  0.58789865  0.19320390  1
  Li  Li5  1  0.43941553  0.01033985  0.84346962  1
  Li  Li6  1  0.56058447  0.98966015  0.15653038  1
  Li  Li7  1  0.57995128  0.41210135  0.80679610  1
  Li  Li8  1  0.68383786  0.72010573  0.32295480  1
  Li  Li9  1  0.81618156  0.22011166  0.17704673  1
  Li  Li10  1  0.91999707  0.91206774  0.69320416  1
  Li  Li11  1  0.93942689  0.48968524  0.34345118  1
  Co  Co12  1  0.24307008  0.02543782  0.10046836  1
  Co  Co13  1  0.25693512  0.52544798  0.39953016  1
  Co  Co14  1  0.24581848  0.46458130  0.89429207  1
  Co  Co15  1  0.25417493  0.96456215  0.60570060  1
  Co  Co16  1  0.74582507  0.03543785  0.39429940  1
  Co  Co17  1  0.75418152  0.53541870  0.10570793  1
  Co  Co18  1  0.74306488  0.47455202  0.60046984  1
  Co  Co19  1  0.75692992  0.97456218  0.89953164  1
  P  P20  1  0.04061085  0.24894632  0.50810696  1
  P  P21  1  0.11469956  0.38154488  0.15003428  1
  P  P22  1  0.11414066  0.10994915  0.85114003  1
  P  P23  1  0.38530981  0.88152522  0.34996247  1
  P  P24  1  0.38585693  0.60996428  0.64884690  1
  P  P25  1  0.45941980  0.74894000  0.99190589  1
  P  P26  1  0.54058020  0.25106000  0.00809411  1
  P  P27  1  0.61414307  0.39003572  0.35115310  1
  P  P28  1  0.61469019  0.11847478  0.65003753  1
  P  P29  1  0.88585934  0.89005085  0.14885997  1
  P  P30  1  0.88530044  0.61845512  0.84996572  1
  P  P31  1  0.95938915  0.75105368  0.49189304  1
  O  O32  1  0.05622143  0.89207775  0.10100816  1
  O  O33  1  0.05025536  0.87263296  0.55655868  1
  O  O34  1  0.05921799  0.66544916  0.40140847  1
  O  O35  1  0.06017134  0.58033181  0.81369201  1
  O  O36  1  0.10219196  0.36036922  0.41454576  1
  O  O37  1  0.12624157  0.20463771  0.16375019  1
  O  O38  1  0.13924167  0.42082463  0.02468557  1
  O  O39  1  0.12758844  0.99156580  0.75216025  1
  O  O40  1  0.16943700  0.26877722  0.81075718  1
  O  O41  1  0.18635489  0.17866506  0.56474542  1
  O  O42  1  0.23124292  0.47165342  0.22008577  1
  O  O43  1  0.23679011  0.04786714  0.93578884  1
  O  O44  1  0.26877779  0.97164976  0.27990996  1
  O  O45  1  0.26318536  0.54790145  0.56419778  1
  O  O46  1  0.31367859  0.67868849  0.93523193  1
  O  O47  1  0.33053166  0.76879392  0.68923780  1
  O  O48  1  0.36077094  0.92077822  0.47531905  1
  O  O49  1  0.37376257  0.70461313  0.33624882  1
  O  O50  1  0.37237791  0.49157775  0.74782753  1
  O  O51  1  0.39783334  0.86034100  0.08545982  1
  O  O52  1  0.44073730  0.16541878  0.09857924  1
  O  O53  1  0.44380031  0.39203806  0.39899529  1
  O  O54  1  0.43980763  0.08034887  0.68631243  1
  O  O55  1  0.44973235  0.37263942  0.94345412  1
  O  O56  1  0.55026765  0.62736058  0.05654588  1
  O  O57  1  0.56019237  0.91965113  0.31368757  1
  O  O58  1  0.55619969  0.60796194  0.60100471  1
  O  O59  1  0.55926270  0.83458122  0.90142076  1
  O  O60  1  0.60216666  0.13965900  0.91454018  1
  O  O61  1  0.62762209  0.50842225  0.25217247  1
  O  O62  1  0.62623743  0.29538687  0.66375118  1
  O  O63  1  0.63923006  0.07922178  0.52468095  1
  O  O64  1  0.66946834  0.23120608  0.31076220  1
  O  O65  1  0.68632141  0.32131151  0.06476807  1
  O  O66  1  0.73681464  0.45209855  0.43580222  1
  O  O67  1  0.73122221  0.02835024  0.72009004  1
  O  O68  1  0.76320989  0.95213286  0.06421116  1
  O  O69  1  0.76875708  0.52834658  0.77991423  1
  O  O70  1  0.81364511  0.82133494  0.43525458  1
  O  O71  1  0.83056300  0.73122278  0.18924282  1
  O  O72  1  0.87241156  0.00843420  0.24783975  1
  O  O73  1  0.86075833  0.57917537  0.97531443  1
  O  O74  1  0.87375843  0.79536229  0.83624981  1
  O  O75  1  0.89780804  0.63963078  0.58545424  1
  O  O76  1  0.93982866  0.41966819  0.18630799  1
  O  O77  1  0.94078201  0.33455084  0.59859153  1
  O  O78  1  0.94974464  0.12736704  0.44344132  1
  O  O79  1  0.94377857  0.10792225  0.89899184  1
