# generated using pymatgen
data_K2Fe2P2O7F2
_symmetry_space_group_name_H-M   'P 1'
_cell_length_a   6.66942173
_cell_length_b   9.74357040
_cell_length_c   16.58624712
_cell_angle_alpha   90.00000000
_cell_angle_beta   90.00000000
_cell_angle_gamma   90.00000000
_symmetry_Int_Tables_number   1
_chemical_formula_structural   K2Fe2P2O7F2
_chemical_formula_sum   'K8 Fe8 P8 O28 F8'
_cell_volume   1077.84035367
_cell_formula_units_Z   4
loop_
 _symmetry_equiv_pos_site_id
 _symmetry_equiv_pos_as_xyz
  1  'x, y, z'
loop_
 _atom_site_type_symbol
 _atom_site_label
 _atom_site_symmetry_multiplicity
 _atom_site_fract_x
 _atom_site_fract_y
 _atom_site_fract_z
 _atom_site_occupancy
  K  K0  1  0.41222936  0.02574213  0.83043959  1
  K  K1  1  0.08777064  0.52574213  0.66956041  1
  K  K2  1  0.08777064  0.02574213  0.33043959  1
  K  K3  1  0.41222936  0.52574213  0.16956041  1
  K  K4  1  0.91222936  0.97425787  0.66956041  1
  K  K5  1  0.58777064  0.97425787  0.16956041  1
  K  K6  1  0.91222936  0.47425787  0.33043959  1
  K  K7  1  0.58777064  0.47425787  0.83043959  1
  Fe  Fe8  1  0.00000000  0.75000000  0.84256885  1
  Fe  Fe9  1  0.50000000  0.25000000  0.65743115  1
  Fe  Fe10  1  0.50000000  0.75000000  0.34256885  1
  Fe  Fe11  1  0.00000000  0.50000000  0.00000000  1
  Fe  Fe12  1  0.00000000  0.00000000  0.00000000  1
  Fe  Fe13  1  0.00000000  0.25000000  0.15743115  1
  Fe  Fe14  1  0.50000000  0.00000000  0.50000000  1
  Fe  Fe15  1  0.50000000  0.50000000  0.50000000  1
  P  P16  1  0.22630491  0.71221253  0.47185391  1
  P  P17  1  0.72630491  0.78778747  0.97185391  1
  P  P18  1  0.72630491  0.28778747  0.02814609  1
  P  P19  1  0.27369509  0.21221253  0.02814609  1
  P  P20  1  0.22630491  0.21221253  0.52814609  1
  P  P21  1  0.77369509  0.28778747  0.52814609  1
  P  P22  1  0.27369509  0.71221253  0.97185391  1
  P  P23  1  0.77369509  0.78778747  0.47185391  1
  O  O24  1  0.82400088  0.65102107  0.94469335  1
  O  O25  1  0.67599912  0.65102107  0.44469335  1
  O  O26  1  0.17599912  0.34897893  0.05530665  1
  O  O27  1  0.24242191  0.11171581  0.59921728  1
  O  O28  1  0.32400188  0.34897893  0.55530665  1
  O  O29  1  0.18848146  0.14959519  0.95090994  1
  O  O30  1  0.00000000  0.25000000  0.50368474  1
  O  O31  1  0.00000000  0.75000000  0.49631526  1
  O  O32  1  0.75757809  0.38828419  0.59921728  1
  O  O33  1  0.18848146  0.64959519  0.04909006  1
  O  O34  1  0.31151854  0.64959519  0.54909006  1
  O  O35  1  0.81151854  0.35040481  0.95090994  1
  O  O36  1  0.81151854  0.85040481  0.04909006  1
  O  O37  1  0.74242191  0.88828419  0.90078272  1
  O  O38  1  0.82400088  0.15102107  0.05530665  1
  O  O39  1  0.24242191  0.61171581  0.40078272  1
  O  O40  1  0.31151854  0.14959519  0.45090994  1
  O  O41  1  0.75757809  0.88828419  0.40078272  1
  O  O42  1  0.17599912  0.84897893  0.94469335  1
  O  O43  1  0.32400188  0.84897893  0.44469335  1
  O  O44  1  0.67599912  0.15102107  0.55530665  1
  O  O45  1  0.50000000  0.25000000  0.00368474  1
  O  O46  1  0.68848146  0.35040481  0.45090994  1
  O  O47  1  0.74242191  0.38828419  0.09921728  1
  O  O48  1  0.25757809  0.11171581  0.09921728  1
  O  O49  1  0.68848146  0.85040481  0.54909006  1
  O  O50  1  0.25757809  0.61171581  0.90078272  1
  O  O51  1  0.50000000  0.75000000  0.99631526  1
  F  F52  1  0.16701520  0.84281190  0.76091181  1
  F  F53  1  0.83298480  0.15718810  0.23908819  1
  F  F54  1  0.33298480  0.34281190  0.73908819  1
  F  F55  1  0.16701520  0.34281190  0.23908819  1
  F  F56  1  0.66701520  0.65718810  0.26091181  1
  F  F57  1  0.33298480  0.84281190  0.26091181  1
  F  F58  1  0.83298480  0.65718810  0.76091181  1
  F  F59  1  0.66701520  0.15718810  0.73908819  1
