# generated using pymatgen
data_RbNO3
_symmetry_space_group_name_H-M   'P 1'
_cell_length_a   11.66064312
_cell_length_b   11.66064372
_cell_length_c   7.39170790
_cell_angle_alpha   90.00000000
_cell_angle_beta   90.00000000
_cell_angle_gamma   119.99999461
_symmetry_Int_Tables_number   1
_chemical_formula_structural   RbNO3
_chemical_formula_sum   'Rb9 N9 O27'
_cell_volume   870.40320468
_cell_formula_units_Z   9
loop_
 _symmetry_equiv_pos_site_id
 _symmetry_equiv_pos_as_xyz
  1  'x, y, z'
loop_
 _atom_site_type_symbol
 _atom_site_label
 _atom_site_symmetry_multiplicity
 _atom_site_fract_x
 _atom_site_fract_y
 _atom_site_fract_z
 _atom_site_occupancy
  Rb  Rb0  1  0.09225158  0.56797937  0.91891490  1
  Rb  Rb1  1  0.47572679  0.90774842  0.25224890  1
  Rb  Rb2  1  0.73905557  0.56135972  0.25023429  1
  Rb  Rb3  1  0.43202063  0.52427321  0.58558190  1
  Rb  Rb4  1  0.10189642  0.22903748  0.05438840  1
  Rb  Rb5  1  0.77096252  0.87285893  0.72105540  1
  Rb  Rb6  1  0.12714107  0.89810358  0.38772140  1
  Rb  Rb7  1  0.82230415  0.26094443  0.58356729  1
  Rb  Rb8  1  0.43864028  0.17769585  0.91690029  1
  N  N9  1  0.76250952  0.22802524  0.07535313  1
  N  N10  1  0.40428510  0.53487616  0.07803129  1
  N  N11  1  0.08205680  0.18607544  0.57505433  1
  N  N12  1  0.13059206  0.59571490  0.41136429  1
  N  N13  1  0.46551572  0.23749048  0.40868613  1
  N  N14  1  0.46512384  0.86940794  0.74469829  1
  N  N15  1  0.77197476  0.53448428  0.74202013  1
  N  N16  1  0.10401964  0.91794320  0.90838733  1
  N  N17  1  0.81392456  0.89598036  0.24172133  1
  O  O18  1  0.06148072  0.13374369  0.42035822  1
  O  O19  1  0.07226297  0.93851928  0.75369122  1
  O  O20  1  0.17185742  0.01623156  0.01444298  1
  O  O21  1  0.88751482  0.29187619  0.05665842  1
  O  O22  1  0.35452315  0.46345591  0.21696568  1
  O  O23  1  0.49250644  0.28926810  0.56522235  1
  O  O24  1  0.53654409  0.89106824  0.88363268  1
  O  O25  1  0.73246632  0.93016782  0.29514382  1
  O  O26  1  0.52564953  0.62155423  0.07189491  1
  O  O27  1  0.98376844  0.15562587  0.68110998  1
  O  O28  1  0.79676167  0.50749356  0.89855635  1
  O  O29  1  0.71073190  0.20323833  0.23188935  1
  O  O30  1  0.68807758  0.18866473  0.93717392  1
  O  O31  1  0.06983218  0.80229850  0.96180982  1
  O  O32  1  0.50058715  0.31192242  0.27050692  1
  O  O33  1  0.32878605  0.51655320  0.94159736  1
  O  O34  1  0.84437413  0.82814258  0.34777698  1
  O  O35  1  0.86625631  0.92773703  0.08702522  1
  O  O36  1  0.09590469  0.47435047  0.40522791  1
  O  O37  1  0.37844577  0.90409531  0.73856191  1
  O  O38  1  0.40436136  0.11248518  0.38999142  1
  O  O39  1  0.81133527  0.49941285  0.60384092  1
  O  O40  1  0.10893176  0.64547685  0.55029868  1
  O  O41  1  0.70812381  0.59563864  0.72332542  1
  O  O42  1  0.18776716  0.67121395  0.27493036  1
  O  O43  1  0.48344680  0.81223284  0.60826436  1
  O  O44  1  0.19770150  0.26753368  0.62847682  1
