# generated using pymatgen
data_MnNb2Zn2O8
_symmetry_space_group_name_H-M   'P 1'
_cell_length_a   5.31280250
_cell_length_b   6.00269080
_cell_length_c   10.27704589
_cell_angle_alpha   106.98034262
_cell_angle_beta   89.94236151
_cell_angle_gamma   89.99999990
_symmetry_Int_Tables_number   1
_chemical_formula_structural   MnNb2Zn2O8
_chemical_formula_sum   'Mn2 Nb4 Zn4 O16'
_cell_volume   313.45813239
_cell_formula_units_Z   2
loop_
 _symmetry_equiv_pos_site_id
 _symmetry_equiv_pos_as_xyz
  1  'x, y, z'
loop_
 _atom_site_type_symbol
 _atom_site_label
 _atom_site_symmetry_multiplicity
 _atom_site_fract_x
 _atom_site_fract_y
 _atom_site_fract_z
 _atom_site_occupancy
  O  O0  1  0.06807725  0.18282945  0.14355299  1
  O  O1  1  0.43192275  0.03927645  0.85644701  1
  O  O2  1  0.93192275  0.81717055  0.85644701  1
  O  O3  1  0.56807725  0.96072355  0.14355299  1
  O  O4  1  0.59433014  0.43389640  0.11990998  1
  O  O5  1  0.90566986  0.31398641  0.88009002  1
  O  O6  1  0.40566986  0.56610360  0.88009002  1
  O  O7  1  0.09433014  0.68601359  0.11990998  1
  O  O8  1  0.43770947  0.28563401  0.36072960  1
  O  O9  1  0.06229053  0.92490441  0.63927040  1
  O  O10  1  0.36609398  0.84015625  0.38819037  1
  O  O11  1  0.13390602  0.45196588  0.61180963  1
  O  O12  1  0.63390602  0.15984375  0.61180963  1
  O  O13  1  0.86609398  0.54803412  0.38819037  1
  O  O14  1  0.93770947  0.07509559  0.36072960  1
  O  O15  1  0.56229053  0.71436599  0.63927040  1
  Mn  Mn16  1  0.75000000  0.65925078  0.00000000  1
  Mn  Mn17  1  0.25000000  0.34074922  0.00000000  1
  Zn  Zn18  1  0.76476120  0.43228378  0.55875531  1
  Zn  Zn19  1  0.73523880  0.87352847  0.44124469  1
  Zn  Zn20  1  0.23523880  0.56771622  0.44124469  1
  Zn  Zn21  1  0.26476120  0.12647153  0.55875531  1
  Nb  Nb22  1  0.73371820  0.27871174  0.23375171  1
  Nb  Nb23  1  0.76628180  0.04496003  0.76624829  1
  Nb  Nb24  1  0.26628180  0.72128826  0.76624829  1
  Nb  Nb25  1  0.23371820  0.95503997  0.23375171  1
