# generated using pymatgen
data_Ba2EuCu3O7
_symmetry_space_group_name_H-M   'P 1'
_cell_length_a   3.85432060
_cell_length_b   3.94799941
_cell_length_c   11.78208026
_cell_angle_alpha   90.00007619
_cell_angle_beta   89.99996416
_cell_angle_gamma   90.00017698
_symmetry_Int_Tables_number   1
_chemical_formula_structural   Ba2EuCu3O7
_chemical_formula_sum   'Ba2 Eu1 Cu3 O7'
_cell_volume   179.28621227
_cell_formula_units_Z   1
loop_
 _symmetry_equiv_pos_site_id
 _symmetry_equiv_pos_as_xyz
  1  'x, y, z'
loop_
 _atom_site_type_symbol
 _atom_site_label
 _atom_site_symmetry_multiplicity
 _atom_site_fract_x
 _atom_site_fract_y
 _atom_site_fract_z
 _atom_site_occupancy
  Eu  Eu0  1  0.49999943  0.49999978  0.50001642  1
  Ba  Ba1  1  0.49999935  0.49999966  0.81859372  1
  Ba  Ba2  1  0.49999879  0.49999942  0.18138199  1
  Cu  Cu3  1  0.00000113  0.00000053  0.64956731  1
  Cu  Cu4  1  0.00000138  0.00000057  0.00000340  1
  Cu  Cu5  1  0.99999988  0.00000150  0.35044158  1
  O  O6  1  0.00000012  0.49999867  0.37097137  1
  O  O7  1  0.00000070  0.99999946  0.15841905  1
  O  O8  1  0.49999986  0.00000093  0.37366264  1
  O  O9  1  0.49999993  -0.00000066  0.62633643  1
  O  O10  1  0.99999902  0.49999994  0.62901925  1
  O  O11  1  -0.00000009  0.00000043  0.84158889  1
  O  O12  1  0.00000051  0.49999977  0.99999795  1
