# generated using pymatgen
data_KB3(HO3)2
_symmetry_space_group_name_H-M   'P 1'
_cell_length_a   11.55181818
_cell_length_b   11.55181818
_cell_length_c   16.70297980
_cell_angle_alpha   90.00000000
_cell_angle_beta   90.00000000
_cell_angle_gamma   90.00000000
_symmetry_Int_Tables_number   1
_chemical_formula_structural   KB3(HO3)2
_chemical_formula_sum   'K16 B48 H32 O96'
_cell_volume   2228.92084244
_cell_formula_units_Z   16
loop_
 _symmetry_equiv_pos_site_id
 _symmetry_equiv_pos_as_xyz
  1  'x, y, z'
loop_
 _atom_site_type_symbol
 _atom_site_label
 _atom_site_symmetry_multiplicity
 _atom_site_fract_x
 _atom_site_fract_y
 _atom_site_fract_z
 _atom_site_occupancy
  K  K0  1  0.75000000  0.75000000  0.48366949  1
  K  K1  1  0.25000000  0.25000000  0.01633051  1
  K  K2  1  0.25000000  0.75000000  0.00000000  1
  K  K3  1  0.75000000  0.25000000  0.00000000  1
  K  K4  1  0.75000000  0.75000000  0.23909875  1
  K  K5  1  0.75000000  0.25000000  0.25000000  1
  K  K6  1  0.25000000  0.25000000  0.51633051  1
  K  K7  1  0.75000000  0.25000000  0.50000000  1
  K  K8  1  0.25000000  0.25000000  0.26090125  1
  K  K9  1  0.75000000  0.25000000  0.75000000  1
  K  K10  1  0.25000000  0.25000000  0.76090125  1
  K  K11  1  0.25000000  0.75000000  0.25000000  1
  K  K12  1  0.75000000  0.75000000  0.73909875  1
  K  K13  1  0.75000000  0.75000000  0.98366949  1
  K  K14  1  0.25000000  0.75000000  0.75000000  1
  K  K15  1  0.25000000  0.75000000  0.50000000  1
  B  B16  1  0.48190942  0.80710272  0.61333123  1
  B  B17  1  0.98190942  0.30710272  0.38666877  1
  B  B18  1  0.80710272  0.48190942  0.11333123  1
  B  B19  1  0.51696087  0.90335078  0.15010272  1
  B  B20  1  0.30710272  0.98190942  0.88666877  1
  B  B21  1  0.88810755  0.49685494  0.35798660  1
  B  B22  1  0.11189245  0.50314506  0.64201340  1
  B  B23  1  0.40335078  0.01696087  0.34989728  1
  B  B24  1  0.01809058  0.80710272  0.11333123  1
  B  B25  1  0.49685494  0.88810755  0.85798660  1
  B  B26  1  0.40335078  0.48303913  0.84989728  1
  B  B27  1  0.80710272  0.01809058  0.61333123  1
  B  B28  1  0.61189245  0.00314506  0.35798660  1
  B  B29  1  0.09664922  0.48303913  0.34989728  1
  B  B30  1  0.38810755  0.50314506  0.14201340  1
  B  B31  1  0.61189245  0.49685494  0.85798660  1
  B  B32  1  0.99685494  0.38810755  0.14201340  1
  B  B33  1  0.09664922  0.01696087  0.84989728  1
  B  B34  1  0.19289728  0.98190942  0.38666877  1
  B  B35  1  0.38810755  0.99685494  0.64201340  1
  B  B36  1  0.30710272  0.51809058  0.38666877  1
  B  B37  1  0.51696087  0.59664922  0.65010272  1
  B  B38  1  0.88810755  0.00314506  0.85798660  1
  B  B39  1  0.01696087  0.40335078  0.84989728  1
  B  B40  1  0.59664922  0.51696087  0.15010272  1
  B  B41  1  0.11189245  0.99685494  0.14201340  1
  B  B42  1  0.59664922  0.98303913  0.65010272  1
  B  B43  1  0.49685494  0.61189245  0.35798660  1
  B  B44  1  0.01809058  0.69289728  0.61333123  1
  B  B45  1  0.01696087  0.09664922  0.34989728  1
  B  B46  1  0.69289728  0.48190942  0.61333123  1
  B  B47  1  0.19289728  0.51809058  0.88666877  1
  B  B48  1  0.98303913  0.59664922  0.15010272  1
  B  B49  1  0.00314506  0.61189245  0.85798660  1
  B  B50  1  0.51809058  0.19289728  0.38666877  1
  B  B51  1  0.90335078  0.98303913  0.15010272  1
  B  B52  1  0.90335078  0.51696087  0.65010272  1
  B  B53  1  0.50314506  0.11189245  0.14201340  1
  B  B54  1  0.48190942  0.69289728  0.11333123  1
  B  B55  1  0.50314506  0.38810755  0.64201340  1
  B  B56  1  0.48303913  0.40335078  0.34989728  1
  B  B57  1  0.48303913  0.09664922  0.84989728  1
  B  B58  1  0.98190942  0.19289728  0.88666877  1
  B  B59  1  0.69289728  0.01809058  0.11333123  1
  B  B60  1  0.99685494  0.11189245  0.64201340  1
  B  B61  1  0.98303913  0.90335078  0.65010272  1
  B  B62  1  0.51809058  0.30710272  0.88666877  1
  B  B63  1  0.00314506  0.88810755  0.35798660  1
  H  H64  1  0.02987245  0.28281872  0.64083114  1
  H  H65  1  0.97012755  0.71718128  0.35916886  1
  H  H66  1  0.21479761  0.01054378  0.99121664  1
  H  H67  1  0.71479761  0.98945622  0.50878336  1
  H  H68  1  0.01054378  0.28520239  0.99121664  1
  H  H69  1  0.28281872  0.02987245  0.14083114  1
  H  H70  1  0.71718128  0.97012755  0.85916886  1
  H  H71  1  0.01054378  0.21479761  0.49121664  1
  H  H72  1  0.21718128  0.02987245  0.64083114  1
  H  H73  1  0.51054378  0.78520239  0.00878336  1
  H  H74  1  0.48945622  0.28520239  0.49121664  1
  H  H75  1  0.98945622  0.71479761  0.00878336  1
  H  H76  1  0.52987245  0.78281872  0.35916886  1
  H  H77  1  0.28520239  0.01054378  0.49121664  1
  H  H78  1  0.48945622  0.21479761  0.99121664  1
  H  H79  1  0.28281872  0.47012755  0.64083114  1
  H  H80  1  0.97012755  0.78281872  0.85916886  1
  H  H81  1  0.98945622  0.78520239  0.50878336  1
  H  H82  1  0.47012755  0.21718128  0.64083114  1
  H  H83  1  0.78281872  0.52987245  0.85916886  1
  H  H84  1  0.78281872  0.97012755  0.35916886  1
  H  H85  1  0.21479761  0.48945622  0.49121664  1
  H  H86  1  0.71479761  0.51054378  0.00878336  1
  H  H87  1  0.02987245  0.21718128  0.14083114  1
  H  H88  1  0.21718128  0.47012755  0.14083114  1
  H  H89  1  0.78520239  0.98945622  0.00878336  1
  H  H90  1  0.28520239  0.48945622  0.99121664  1
  H  H91  1  0.71718128  0.52987245  0.35916886  1
  H  H92  1  0.51054378  0.71479761  0.50878336  1
  H  H93  1  0.47012755  0.28281872  0.14083114  1
  H  H94  1  0.78520239  0.51054378  0.50878336  1
  H  H95  1  0.52987245  0.71718128  0.85916886  1
  O  O96  1  0.45851432  0.69872426  0.65598628  1
  O  O97  1  0.55073533  0.50511524  0.34677828  1
  O  O98  1  0.29295871  0.06923878  0.64332830  1
  O  O99  1  0.95851432  0.30127574  0.84401372  1
  O  O100  1  0.86582687  0.91041854  0.64041147  1
  O  O101  1  0.19872426  0.95851432  0.84401372  1
  O  O102  1  0.51136909  0.29214211  0.97460302  1
  O  O103  1  0.79295871  0.93076122  0.85667170  1
  O  O104  1  0.91041854  0.86582687  0.14041147  1
  O  O105  1  0.41041854  0.36582687  0.85958853  1
  O  O106  1  0.87791555  0.38117752  0.37116143  1
  O  O107  1  0.06923878  0.20704129  0.64332830  1
  O  O108  1  0.12208445  0.61882248  0.62883857  1
  O  O109  1  0.79214211  0.48863091  0.02539698  1
  O  O110  1  0.13417313  0.41041854  0.85958853  1
  O  O111  1  0.69872426  0.45851432  0.15598628  1
  O  O112  1  0.54148568  0.19872426  0.84401372  1
  O  O113  1  0.98863091  0.20785789  0.97460302  1
  O  O114  1  0.56923878  0.70704129  0.35667170  1
  O  O115  1  0.79295871  0.56923878  0.35667170  1
  O  O116  1  0.91041854  0.63417313  0.64041147  1
  O  O117  1  0.86582687  0.58958146  0.14041147  1
  O  O118  1  0.06923878  0.29295871  0.14332830  1
  O  O119  1  0.69872426  0.04148568  0.65598628  1
  O  O120  1  0.45851432  0.80127574  0.15598628  1
  O  O121  1  0.49488476  0.05073533  0.65322172  1
  O  O122  1  0.93076122  0.79295871  0.35667170  1
  O  O123  1  0.63417313  0.58958146  0.64041147  1
  O  O124  1  0.04148568  0.80127574  0.65598628  1
  O  O125  1  0.49488476  0.44926467  0.15322172  1
  O  O126  1  0.99488476  0.94926467  0.84677828  1
  O  O127  1  0.79214211  0.01136909  0.52539698  1
  O  O128  1  0.43076122  0.29295871  0.64332830  1
  O  O129  1  0.94926467  0.50511524  0.84677828  1
  O  O130  1  0.11882248  0.87791555  0.37116143  1
  O  O131  1  0.70704129  0.56923878  0.85667170  1
  O  O132  1  0.20704129  0.43076122  0.64332830  1
  O  O133  1  0.88117752  0.37791555  0.12883857  1
  O  O134  1  0.88117752  0.12208445  0.62883857  1
  O  O135  1  0.43076122  0.20704129  0.14332830  1
  O  O136  1  0.05073533  0.49488476  0.15322172  1
  O  O137  1  0.93076122  0.70704129  0.85667170  1
  O  O138  1  0.30127574  0.95851432  0.34401372  1
  O  O139  1  0.50511524  0.94926467  0.34677828  1
  O  O140  1  0.58958146  0.63417313  0.14041147  1
  O  O141  1  0.36582687  0.08958146  0.85958853  1
  O  O142  1  0.30127574  0.54148568  0.84401372  1
  O  O143  1  0.70785789  0.48863091  0.52539698  1
  O  O144  1  0.80127574  0.45851432  0.65598628  1
  O  O145  1  0.29295871  0.43076122  0.14332830  1
  O  O146  1  0.58958146  0.86582687  0.64041147  1
  O  O147  1  0.98863091  0.29214211  0.47460302  1
  O  O148  1  0.70704129  0.93076122  0.35667170  1
  O  O149  1  0.37791555  0.88117752  0.62883857  1
  O  O150  1  0.63417313  0.91041854  0.14041147  1
  O  O151  1  0.48863091  0.70785789  0.02539698  1
  O  O152  1  0.70785789  0.01136909  0.02539698  1
  O  O153  1  0.48863091  0.79214211  0.52539698  1
  O  O154  1  0.44926467  0.49488476  0.65322172  1
  O  O155  1  0.44926467  0.00511524  0.15322172  1
  O  O156  1  0.08958146  0.36582687  0.35958853  1
  O  O157  1  0.20785789  0.51136909  0.97460302  1
  O  O158  1  0.37791555  0.61882248  0.12883857  1
  O  O159  1  0.50511524  0.55073533  0.84677828  1
  O  O160  1  0.61882248  0.12208445  0.12883857  1
  O  O161  1  0.05073533  0.00511524  0.65322172  1
  O  O162  1  0.41041854  0.13417313  0.35958853  1
  O  O163  1  0.19872426  0.54148568  0.34401372  1
  O  O164  1  0.04148568  0.69872426  0.15598628  1
  O  O165  1  0.51136909  0.20785789  0.47460302  1
  O  O166  1  0.54148568  0.30127574  0.34401372  1
  O  O167  1  0.56923878  0.79295871  0.85667170  1
  O  O168  1  0.62208445  0.38117752  0.87116143  1
  O  O169  1  0.94926467  0.99488476  0.34677828  1
  O  O170  1  0.20704129  0.06923878  0.14332830  1
  O  O171  1  0.36582687  0.41041854  0.35958853  1
  O  O172  1  0.61882248  0.37791555  0.62883857  1
  O  O173  1  0.12208445  0.88117752  0.12883857  1
  O  O174  1  0.20785789  0.98863091  0.47460302  1
  O  O175  1  0.01136909  0.70785789  0.52539698  1
  O  O176  1  0.99488476  0.55073533  0.34677828  1
  O  O177  1  0.00511524  0.44926467  0.65322172  1
  O  O178  1  0.08958146  0.13417313  0.85958853  1
  O  O179  1  0.00511524  0.05073533  0.15322172  1
  O  O180  1  0.11882248  0.62208445  0.87116143  1
  O  O181  1  0.87791555  0.11882248  0.87116143  1
  O  O182  1  0.13417313  0.08958146  0.35958853  1
  O  O183  1  0.80127574  0.04148568  0.15598628  1
  O  O184  1  0.95851432  0.19872426  0.34401372  1
  O  O185  1  0.01136909  0.79214211  0.02539698  1
  O  O186  1  0.29214211  0.98863091  0.97460302  1
  O  O187  1  0.62208445  0.11882248  0.37116143  1
  O  O188  1  0.55073533  0.99488476  0.84677828  1
  O  O189  1  0.38117752  0.87791555  0.87116143  1
  O  O190  1  0.29214211  0.51136909  0.47460302  1
  O  O191  1  0.38117752  0.62208445  0.37116143  1
