# generated using pymatgen
data_HgH16(Br3N2)2
_symmetry_space_group_name_H-M   'P 1'
_cell_length_a   9.04224508
_cell_length_b   9.23237706
_cell_length_c   9.30946172
_cell_angle_alpha   90.00000000
_cell_angle_beta   90.00000000
_cell_angle_gamma   90.79341108
_symmetry_Int_Tables_number   1
_chemical_formula_structural   HgH16(Br3N2)2
_chemical_formula_sum   'Hg2 H32 Br12 N8'
_cell_volume   777.09253452
_cell_formula_units_Z   2
loop_
 _symmetry_equiv_pos_site_id
 _symmetry_equiv_pos_as_xyz
  1  'x, y, z'
loop_
 _atom_site_type_symbol
 _atom_site_label
 _atom_site_symmetry_multiplicity
 _atom_site_fract_x
 _atom_site_fract_y
 _atom_site_fract_z
 _atom_site_occupancy
  Hg  Hg0  1  0.00000000  0.00000000  0.00000000  1
  Hg  Hg1  1  0.50000000  0.50000000  0.50000000  1
  H  H2  1  0.87485920  0.68184487  0.44120242  1
  H  H3  1  0.25380788  0.29815172  0.12959869  1
  H  H4  1  0.34903199  0.18847911  0.23747123  1
  H  H5  1  0.65096801  0.81152089  0.76252877  1
  H  H6  1  0.16035468  0.64584304  0.60565771  1
  H  H7  1  0.75380788  0.79815172  0.37040131  1
  H  H8  1  0.84903199  0.68847911  0.26252877  1
  H  H9  1  0.96014403  0.21372601  0.37931955  1
  H  H10  1  0.83964532  0.35415696  0.39434229  1
  H  H11  1  0.65520139  0.25122488  0.74445326  1
  H  H12  1  0.34479861  0.74877512  0.25554674  1
  H  H13  1  0.77687531  0.18296100  0.40056828  1
  H  H14  1  0.43830394  0.32974240  0.15636010  1
  H  H15  1  0.53985597  0.28627399  0.87931955  1
  H  H16  1  0.74619212  0.70184828  0.87040131  1
  H  H17  1  0.15520139  0.75122488  0.75554674  1
  H  H18  1  0.27687531  0.68296100  0.09943172  1
  H  H19  1  0.33964532  0.85415696  0.10565771  1
  H  H20  1  0.84479861  0.24877512  0.24445326  1
  H  H21  1  0.46014403  0.71372601  0.12068045  1
  H  H22  1  0.24619212  0.20184828  0.62959869  1
  H  H23  1  0.22312469  0.81703900  0.59943172  1
  H  H24  1  0.56169606  0.67025760  0.84363990  1
  H  H25  1  0.66035468  0.14584304  0.89434229  1
  H  H26  1  0.03985597  0.78627399  0.62068045  1
  H  H27  1  0.06169606  0.17025760  0.65636010  1
  H  H28  1  0.37485920  0.18184487  0.05879758  1
  H  H29  1  0.12514080  0.31815513  0.55879758  1
  H  H30  1  0.62514080  0.81815513  0.94120242  1
  H  H31  1  0.72312469  0.31703900  0.90056828  1
  H  H32  1  0.93830394  0.82974240  0.34363990  1
  H  H33  1  0.15096801  0.31152089  0.73747123  1
  Br  Br34  1  0.36716211  0.49902122  0.82376145  1
  Br  Br35  1  0.49895680  0.77941455  0.49774251  1
  Br  Br36  1  0.17671705  0.49703928  0.37200824  1
  Br  Br37  1  0.00104320  0.72058545  0.99774251  1
  Br  Br38  1  0.63283789  0.50097878  0.17623855  1
  Br  Br39  1  0.50104320  0.22058545  0.50225749  1
  Br  Br40  1  0.86716211  0.99902122  0.67623855  1
  Br  Br41  1  0.67671705  0.99703928  0.12799176  1
  Br  Br42  1  0.99895680  0.27941455  0.00225749  1
  Br  Br43  1  0.82328295  0.50296072  0.62799176  1
  Br  Br44  1  0.13283789  0.00097878  0.32376145  1
  Br  Br45  1  0.32328295  0.00296072  0.87200824  1
  N  N46  1  0.14439896  0.74948156  0.64508488  1
  N  N47  1  0.64439896  0.24948156  0.85491512  1
  N  N48  1  0.14498367  0.24979116  0.64519421  1
  N  N49  1  0.35501633  0.25020884  0.14519421  1
  N  N50  1  0.85501633  0.75020884  0.35480579  1
  N  N51  1  0.64498367  0.74979116  0.85480579  1
  N  N52  1  0.85560104  0.25051844  0.35491512  1
  N  N53  1  0.35560104  0.75051844  0.14508488  1
