# generated using pymatgen
data_Y(HO)3
_symmetry_space_group_name_H-M   'P 1'
_cell_length_a   6.38159480
_cell_length_b   6.38174385
_cell_length_c   3.51804299
_cell_angle_alpha   90.00000000
_cell_angle_beta   90.00000000
_cell_angle_gamma   120.00018568
_symmetry_Int_Tables_number   1
_chemical_formula_structural   Y(HO)3
_chemical_formula_sum   'Y2 H6 O6'
_cell_volume   124.07936295
_cell_formula_units_Z   2
loop_
 _symmetry_equiv_pos_site_id
 _symmetry_equiv_pos_as_xyz
  1  'x, y, z'
loop_
 _atom_site_type_symbol
 _atom_site_label
 _atom_site_symmetry_multiplicity
 _atom_site_fract_x
 _atom_site_fract_y
 _atom_site_fract_z
 _atom_site_occupancy
  Y  Y0  1  0.66665866  0.33333076  0.31269166  1
  Y  Y1  1  0.33334134  0.66666924  0.81269166  1
  H  H2  1  0.14192543  0.86116336  0.35075681  1
  H  H3  1  0.71925104  0.85808004  0.35073475  1
  H  H4  1  0.13883120  0.28076667  0.35075661  1
  H  H5  1  0.85807457  0.13883664  0.85075681  1
  H  H6  1  0.28074896  0.14191996  0.85073475  1
  H  H7  1  0.86116880  0.71923333  0.85075661  1
  O  O8  1  0.08636129  0.69061283  0.30813640  1
  O  O9  1  0.60425613  0.91363579  0.30811917  1
  O  O10  1  0.30938713  0.39575660  0.30812359  1
  O  O11  1  0.91363871  0.30938717  0.80813640  1
  O  O12  1  0.39574387  0.08636421  0.80811917  1
  O  O13  1  0.69061287  0.60424340  0.80812359  1
