# generated using pymatgen
data_H9BrO4
_symmetry_space_group_name_H-M   'P 1'
_cell_length_a   6.88955483
_cell_length_b   12.05327783
_cell_length_c   7.48493150
_cell_angle_alpha   90.00000000
_cell_angle_beta   109.49929212
_cell_angle_gamma   90.00000000
_symmetry_Int_Tables_number   1
_chemical_formula_structural   H9BrO4
_chemical_formula_sum   'H36 Br4 O16'
_cell_volume   585.91229323
_cell_formula_units_Z   4
loop_
 _symmetry_equiv_pos_site_id
 _symmetry_equiv_pos_as_xyz
  1  'x, y, z'
loop_
 _atom_site_type_symbol
 _atom_site_label
 _atom_site_symmetry_multiplicity
 _atom_site_fract_x
 _atom_site_fract_y
 _atom_site_fract_z
 _atom_site_occupancy
  H  H0  1  0.32521522  0.32821441  0.99807471  1
  H  H1  1  0.11379343  0.25757618  0.02281057  1
  H  H2  1  0.88620657  0.75757618  0.97718943  1
  H  H3  1  0.67478478  0.82821441  0.00192529  1
  H  H4  1  0.97617519  0.17550321  0.14973664  1
  H  H5  1  0.82712503  0.25372595  0.98713220  1
  H  H6  1  0.02382481  0.67550321  0.85026336  1
  H  H7  1  0.17287497  0.75372595  0.01286780  1
  H  H8  1  0.53662100  0.18319912  0.80672528  1
  H  H9  1  0.64325223  0.25120969  0.68838773  1
  H  H10  1  0.46337900  0.68319912  0.19327472  1
  H  H11  1  0.35674777  0.75120969  0.31161227  1
  H  H12  1  0.70105436  0.30943055  0.37615473  1
  H  H13  1  0.61475784  0.18765209  0.35785803  1
  H  H14  1  0.29894564  0.80943055  0.62384527  1
  H  H15  1  0.38524216  0.68765209  0.64214197  1
  H  H16  1  0.03638725  0.18180243  0.54642288  1
  H  H17  1  0.17811369  0.28714055  0.55132821  1
  H  H18  1  0.20026304  0.24199348  0.82015349  1
  H  H19  1  0.96361275  0.68180243  0.45357712  1
  H  H20  1  0.82188631  0.78714055  0.44867179  1
  H  H21  1  0.79973696  0.74199348  0.17984651  1
  H  H22  1  0.19653514  0.44210506  0.35262388  1
  H  H23  1  0.39252627  0.35669945  0.42214172  1
  H  H24  1  0.60747373  0.85669945  0.57785828  1
  H  H25  1  0.80346486  0.94210506  0.64737612  1
  H  H26  1  0.50890372  0.50440630  0.84993466  1
  H  H27  1  0.65315209  0.52292569  0.71475239  1
  H  H28  1  0.40826268  0.46922479  0.60933462  1
  H  H29  1  0.49109628  0.00440630  0.15006534  1
  H  H30  1  0.34684791  0.02292569  0.28524761  1
  H  H31  1  0.59173732  0.96922479  0.39066538  1
  H  H32  1  0.04759344  0.50586193  0.07244500  1
  H  H33  1  0.89540616  0.49364871  0.18571489  1
  H  H34  1  0.95240656  0.00586193  0.92755500  1
  H  H35  1  0.10459384  0.99364871  0.81428511  1
  Br  Br36  1  0.95115427  0.50690890  0.72338356  1
  Br  Br37  1  0.04884573  0.00690890  0.27661644  1
  Br  Br38  1  0.53744494  0.47089816  0.13062914  1
  Br  Br39  1  0.46255506  0.97089816  0.86937086  1
  O  O40  1  0.24759178  0.25687813  0.96768481  1
  O  O41  1  0.75240822  0.75687813  0.03231519  1
  O  O42  1  0.96383028  0.25205502  0.09610287  1
  O  O43  1  0.03616972  0.75205502  0.90389713  1
  O  O44  1  0.61553463  0.25127759  0.80940652  1
  O  O45  1  0.38446537  0.75127759  0.19059348  1
  O  O46  1  0.65772155  0.25059294  0.44472932  1
  O  O47  1  0.34227845  0.75059294  0.55527068  1
  O  O48  1  0.16224679  0.21965081  0.62062552  1
  O  O49  1  0.83775321  0.71965081  0.37937448  1
  O  O50  1  0.29573430  0.39882365  0.46689849  1
  O  O51  1  0.70426570  0.89882365  0.53310151  1
  O  O52  1  0.50313905  0.52767542  0.71631522  1
  O  O53  1  0.49686095  0.02767542  0.28368478  1
  O  O54  1  0.04003851  0.51243578  0.20099872  1
  O  O55  1  0.95996149  0.01243578  0.79900128  1
