# generated using pymatgen
data_LiFe4(PO4)4
_symmetry_space_group_name_H-M   'P 1'
_cell_length_a   10.11953312
_cell_length_b   5.98057662
_cell_length_c   4.86982546
_cell_angle_alpha   89.77302622
_cell_angle_beta   89.08168880
_cell_angle_gamma   90.16848573
_symmetry_Int_Tables_number   1
_chemical_formula_structural   LiFe4(PO4)4
_chemical_formula_sum   'Li1 Fe4 P4 O16'
_cell_volume   294.68347316
_cell_formula_units_Z   1
loop_
 _symmetry_equiv_pos_site_id
 _symmetry_equiv_pos_as_xyz
  1  'x, y, z'
loop_
 _atom_site_type_symbol
 _atom_site_label
 _atom_site_symmetry_multiplicity
 _atom_site_fract_x
 _atom_site_fract_y
 _atom_site_fract_z
 _atom_site_occupancy
  Li  Li0  1  0.99570243  0.99185295  0.00182560  1
  Fe  Fe1  1  0.22515788  0.74651711  0.47407037  1
  Fe  Fe2  1  0.28075422  0.25095514  0.96323297  1
  Fe  Fe3  1  0.71888274  0.74838233  0.04347571  1
  Fe  Fe4  1  0.77149616  0.25431227  0.52981670  1
  P  P5  1  0.09750887  0.24853175  0.41852706  1
  P  P6  1  0.40023062  0.75110705  0.91258573  1
  P  P7  1  0.59805641  0.24802605  0.09725317  1
  P  P8  1  0.90561099  0.75371296  0.57067367  1
  O  O9  1  0.05315663  0.75357171  0.66236498  1
  O  O10  1  0.11712306  0.23605476  0.73042123  1
  O  O11  1  0.16668086  0.04602101  0.26083081  1
  O  O12  1  0.17643282  0.44745306  0.28200782  1
  O  O13  1  0.32247802  0.54899548  0.77301722  1
  O  O14  1  0.32314932  0.95102451  0.76843092  1
  O  O15  1  0.37176265  0.75263307  0.22242296  1
  O  O16  1  0.44694233  0.24916947  0.14772736  1
  O  O17  1  0.54445364  0.75066172  0.84077832  1
  O  O18  1  0.62535091  0.24712671  0.78808091  1
  O  O19  1  0.66732129  0.04988173  0.24921369  1
  O  O20  1  0.66823343  0.44766325  0.24443079  1
  O  O21  1  0.83177554  0.54868607  0.69991546  1
  O  O22  1  0.84175856  0.96112982  0.72382901  1
  O  O23  1  0.89781143  0.76922183  0.25879605  1
  O  O24  1  0.95216821  0.24731016  0.33626950  1
