# generated using pymatgen
data_Ga2Ge4Pb3O14
_symmetry_space_group_name_H-M   'P 1'
_cell_length_a   8.54163812
_cell_length_b   8.54163855
_cell_length_c   5.01101639
_cell_angle_alpha   90.00000000
_cell_angle_beta   90.00000000
_cell_angle_gamma   119.99999833
_symmetry_Int_Tables_number   1
_chemical_formula_structural   Ga2Ge4Pb3O14
_chemical_formula_sum   'Ga2 Ge4 Pb3 O14'
_cell_volume   316.62034661
_cell_formula_units_Z   1
loop_
 _symmetry_equiv_pos_site_id
 _symmetry_equiv_pos_as_xyz
  1  'x, y, z'
loop_
 _atom_site_type_symbol
 _atom_site_label
 _atom_site_symmetry_multiplicity
 _atom_site_fract_x
 _atom_site_fract_y
 _atom_site_fract_z
 _atom_site_occupancy
  Ga  Ga0  1  0.66666700  0.33333300  0.49515165  1
  Ga  Ga1  1  0.33333300  0.66666700  0.50484835  1
  Ge  Ge2  1  0.24539858  0.00000000  0.50000000  1
  Ge  Ge3  1  0.00000000  0.00000000  0.00000000  1
  Ge  Ge4  1  0.00000000  0.24539858  0.50000000  1
  Ge  Ge5  1  0.75460142  0.75460142  0.50000000  1
  Pb  Pb6  1  0.57913198  0.00000000  0.00000000  1
  Pb  Pb7  1  1.00000000  0.57913198  0.00000000  1
  Pb  Pb8  1  0.42086802  0.42086802  0.00000000  1
  O  O9  1  0.66666700  0.33333300  0.85260475  1
  O  O10  1  0.55281023  0.71456465  0.66514627  1
  O  O11  1  0.28543535  0.83824558  0.66514627  1
  O  O12  1  0.79237596  0.90970373  0.23263752  1
  O  O13  1  0.11732777  0.20762404  0.23263752  1
  O  O14  1  0.83824558  0.28543535  0.33485373  1
  O  O15  1  0.88267223  0.09029627  0.76736248  1
  O  O16  1  0.44718977  0.16175442  0.33485373  1
  O  O17  1  0.71456465  0.55281023  0.33485373  1
  O  O18  1  0.09029627  0.88267223  0.23263752  1
  O  O19  1  0.90970373  0.79237596  0.76736248  1
  O  O20  1  0.16175442  0.44718977  0.66514627  1
  O  O21  1  0.33333300  0.66666700  0.14739525  1
  O  O22  1  0.20762404  0.11732777  0.76736248  1
