# generated using pymatgen
data_La5Ti4FeO17
_symmetry_space_group_name_H-M   'P 1'
_cell_length_a   3.97274936
_cell_length_b   5.55709856
_cell_length_c   31.47044945
_cell_angle_alpha   90.00000000
_cell_angle_beta   90.00000000
_cell_angle_gamma   90.00000000
_symmetry_Int_Tables_number   1
_chemical_formula_structural   La5Ti4FeO17
_chemical_formula_sum   'La10 Ti8 Fe2 O34'
_cell_volume   694.77184575
_cell_formula_units_Z   2
loop_
 _symmetry_equiv_pos_site_id
 _symmetry_equiv_pos_as_xyz
  1  'x, y, z'
loop_
 _atom_site_type_symbol
 _atom_site_label
 _atom_site_symmetry_multiplicity
 _atom_site_fract_x
 _atom_site_fract_y
 _atom_site_fract_z
 _atom_site_occupancy
  La  La0  1  0.50000000  0.51971585  0.90953700  1
  La  La1  1  0.00000000  0.54824020  0.28676545  1
  La  La2  1  0.00000000  0.45175980  0.71323455  1
  La  La3  1  0.50000000  0.48028415  0.09046300  1
  La  La4  1  0.50000000  0.04824020  0.21323455  1
  La  La5  1  0.00000000  0.50000000  0.50000000  1
  La  La6  1  0.50000000  0.95175980  0.78676545  1
  La  La7  1  0.50000000  0.00000000  0.00000000  1
  La  La8  1  0.00000000  0.01971585  0.59046300  1
  La  La9  1  0.00000000  0.98028415  0.40953700  1
  Ti  Ti10  1  0.50000000  0.01468505  0.32217924  1
  Ti  Ti11  1  0.50000000  0.49501034  0.40817873  1
  Ti  Ti12  1  0.50000000  0.50498966  0.59182127  1
  Ti  Ti13  1  0.50000000  0.98531495  0.67782076  1
  Ti  Ti14  1  0.00000000  0.99501034  0.09182127  1
  Ti  Ti15  1  0.00000000  0.00498966  0.90817873  1
  Ti  Ti16  1  0.00000000  0.48531495  0.82217924  1
  Ti  Ti17  1  0.00000000  0.51468505  0.17782076  1
  Fe  Fe18  1  0.00000000  0.50000000  0.00000000  1
  Fe  Fe19  1  0.50000000  0.00000000  0.50000000  1
  O  O20  1  0.50000000  0.20715740  0.55396404  1
  O  O21  1  0.00000000  0.00000000  0.50000000  1
  O  O22  1  0.50000000  0.00642652  0.91578364  1
  O  O23  1  0.00000000  0.21951603  0.78742592  1
  O  O24  1  0.00000000  0.29442980  0.22400806  1
  O  O25  1  0.00000000  0.70715740  0.94603596  1
  O  O26  1  0.00000000  0.01068008  0.67159892  1
  O  O27  1  0.00000000  0.80397301  0.03530282  1
  O  O28  1  0.00000000  0.78048397  0.21257408  1
  O  O29  1  0.50000000  0.29759542  0.63776825  1
  O  O30  1  0.00000000  0.49357348  0.41578364  1
  O  O31  1  0.50000000  0.69602699  0.53530282  1
  O  O32  1  0.50000000  0.50000000  0.00000000  1
  O  O33  1  0.00000000  0.20240458  0.13776825  1
  O  O34  1  0.50000000  0.30397301  0.46469718  1
  O  O35  1  0.00000000  0.29284260  0.05396404  1
  O  O36  1  0.50000000  0.81005397  0.62126792  1
  O  O37  1  0.50000000  0.70240458  0.36223175  1
  O  O38  1  0.00000000  0.79759542  0.86223175  1
  O  O39  1  0.00000000  0.19602699  0.96469718  1
  O  O40  1  0.50000000  0.48931992  0.17159892  1
  O  O41  1  0.50000000  0.28048397  0.28742592  1
  O  O42  1  0.50000000  0.18994603  0.37873208  1
  O  O43  1  0.50000000  0.99357348  0.08421636  1
  O  O44  1  0.00000000  0.68994603  0.12126792  1
  O  O45  1  0.00000000  0.70557020  0.77599194  1
  O  O46  1  0.00000000  0.50642652  0.58421636  1
  O  O47  1  0.50000000  0.79442980  0.27599194  1
  O  O48  1  0.50000000  0.71951603  0.71257408  1
  O  O49  1  0.50000000  0.51068008  0.82840108  1
  O  O50  1  0.00000000  0.31005397  0.87873208  1
  O  O51  1  0.50000000  0.20557020  0.72400806  1
  O  O52  1  0.00000000  0.98931992  0.32840108  1
  O  O53  1  0.50000000  0.79284260  0.44603596  1
