# generated using pymatgen
data_Sr(H8O5)2
_symmetry_space_group_name_H-M   'P 1'
_cell_length_a   6.51819286
_cell_length_b   6.25605732
_cell_length_c   11.20786732
_cell_angle_alpha   90.46978526
_cell_angle_beta   90.54768962
_cell_angle_gamma   87.90665562
_symmetry_Int_Tables_number   1
_chemical_formula_structural   Sr(H8O5)2
_chemical_formula_sum   'Sr2 H32 O20'
_cell_volume   456.69655683
_cell_formula_units_Z   2
loop_
 _symmetry_equiv_pos_site_id
 _symmetry_equiv_pos_as_xyz
  1  'x, y, z'
loop_
 _atom_site_type_symbol
 _atom_site_label
 _atom_site_symmetry_multiplicity
 _atom_site_fract_x
 _atom_site_fract_y
 _atom_site_fract_z
 _atom_site_occupancy
  Sr  Sr0  1  0.99798193  0.00681853  0.25099810  1
  Sr  Sr1  1  0.99743733  0.99665192  0.75082851  1
  H  H2  1  0.07799194  0.44557956  0.36740966  1
  H  H3  1  0.13145815  0.29454591  0.47504301  1
  H  H4  1  0.75415384  0.63534932  0.35301402  1
  H  H5  1  0.88786697  0.68900439  0.46850327  1
  H  H6  1  0.59107323  0.28232415  0.35623636  1
  H  H7  1  0.68344716  0.12903843  0.45566483  1
  H  H8  1  0.42912795  0.97105894  0.36573451  1
  H  H9  1  0.42646796  0.66231307  0.33892665  1
  H  H10  1  0.31996218  0.86781548  0.47609928  1
  H  H11  1  0.72666470  0.39884108  0.85062120  1
  H  H12  1  0.96084449  0.45726629  0.87009054  1
  H  H13  1  0.26920117  0.61060691  0.85385409  1
  H  H14  1  0.13707943  0.67994152  0.96949688  1
  H  H15  1  0.45304923  0.04051135  0.87213491  1
  H  H16  1  0.37831495  0.27867690  0.85020507  1
  H  H17  1  0.60852405  0.73777513  0.85269995  1
  H  H18  1  0.68698206  0.87013583  0.96589036  1
  H  H19  1  0.75145117  0.61524137  0.64082845  1
  H  H20  1  0.97955764  0.50876749  0.62301810  1
  H  H21  1  0.24944259  0.37734324  0.64022371  1
  H  H22  1  0.42374773  0.69083093  0.66191659  1
  H  H23  1  0.27333581  0.05625806  0.60501414  1
  H  H24  1  0.55391136  0.02847099  0.61641955  1
  H  H25  1  0.62950207  0.26585124  0.63197884  1
  H  H26  1  0.03412846  0.54763591  0.12967063  1
  H  H27  1  0.26939151  0.61042340  0.14723635  1
  H  H28  1  0.72291589  0.39836838  0.14494982  1
  H  H29  1  0.85783845  0.32439988  0.03233862  1
  H  H30  1  0.55351665  0.97018016  0.12822554  1
  H  H31  1  0.61471072  0.72575248  0.13858699  1
  H  H32  1  0.38506963  0.27332124  0.15448480  1
  H  H33  1  0.31646541  0.14526826  0.03786626  1
  O  O34  1  0.52662648  0.53511243  0.31307956  1
  O  O35  1  0.49495859  0.52049299  0.80950879  1
  O  O36  1  0.49318865  0.54296112  0.67759101  1
  O  O37  1  0.49878314  0.51167581  0.18252171  1
  O  O38  1  0.13325774  0.30055005  0.38395313  1
  O  O39  1  0.88915400  0.69302262  0.37910284  1
  O  O40  1  0.65236008  0.13479395  0.36851667  1
  O  O41  1  0.32280488  0.86377353  0.38105703  1
  O  O42  1  0.86377853  0.33716855  0.87783496  1
  O  O43  1  0.12902474  0.66713576  0.88023806  1
  O  O44  1  0.32857219  0.13957067  0.87975032  1
  O  O45  1  0.67104314  0.87803312  0.87675833  1
  O  O46  1  0.89355196  0.65230651  0.62130218  1
  O  O47  1  0.12502721  0.30011171  0.62064247  1
  O  O48  1  0.34057516  0.90999139  0.60643572  1
  O  O49  1  0.68265603  0.12032909  0.61524142  1
  O  O50  1  0.12886194  0.66894161  0.12137782  1
  O  O51  1  0.86342554  0.33810913  0.12138612  1
  O  O52  1  0.67429355  0.86831559  0.11783989  1
  O  O53  1  0.32940963  0.13289261  0.12651339  1
