# generated using pymatgen
data_HI3O8
_symmetry_space_group_name_H-M   'P 1'
_cell_length_a   7.74510901
_cell_length_b   7.94106033
_cell_length_c   11.64796185
_cell_angle_alpha   90.00000000
_cell_angle_beta   87.91565542
_cell_angle_gamma   90.00000000
_symmetry_Int_Tables_number   1
_chemical_formula_structural   HI3O8
_chemical_formula_sum   'H4 I12 O32'
_cell_volume   715.92665428
_cell_formula_units_Z   4
loop_
 _symmetry_equiv_pos_site_id
 _symmetry_equiv_pos_as_xyz
  1  'x, y, z'
loop_
 _atom_site_type_symbol
 _atom_site_label
 _atom_site_symmetry_multiplicity
 _atom_site_fract_x
 _atom_site_fract_y
 _atom_site_fract_z
 _atom_site_occupancy
  H  H0  1  0.50137674  0.91243739  0.38523252  1
  H  H1  1  0.00137674  0.58756261  0.88523252  1
  H  H2  1  0.49862326  0.08756261  0.61476748  1
  H  H3  1  0.99862326  0.41243739  0.11476748  1
  I  I4  1  0.26176535  0.70068393  0.41160998  1
  I  I5  1  0.76176535  0.79931607  0.91160998  1
  I  I6  1  0.73823465  0.29931607  0.58839002  1
  I  I7  1  0.23823465  0.20068393  0.08839002  1
  I  I8  1  0.15882199  0.24050375  0.39020315  1
  I  I9  1  0.65882199  0.25949625  0.89020315  1
  I  I10  1  0.84117801  0.75949625  0.60979685  1
  I  I11  1  0.34117801  0.74050375  0.10979685  1
  I  I12  1  0.74447065  0.54934250  0.30694704  1
  I  I13  1  0.24447065  0.95065750  0.80694704  1
  I  I14  1  0.25552935  0.45065750  0.69305296  1
  I  I15  1  0.75552935  0.04934250  0.19305296  1
  O  O16  1  0.06023246  0.80098965  0.45582522  1
  O  O17  1  0.56023246  0.69901035  0.95582522  1
  O  O18  1  0.93976754  0.19901035  0.54417478  1
  O  O19  1  0.43976754  0.30098965  0.04417478  1
  O  O20  1  0.37831896  0.91285449  0.41953857  1
  O  O21  1  0.87831896  0.58714551  0.91953857  1
  O  O22  1  0.62168104  0.08714551  0.58046143  1
  O  O23  1  0.12168104  0.41285449  0.08046143  1
  O  O24  1  0.32676680  0.30663240  0.48291291  1
  O  O25  1  0.82676680  0.19336760  0.98291291  1
  O  O26  1  0.67323320  0.69336760  0.51708709  1
  O  O27  1  0.17323320  0.80663240  0.01708709  1
  O  O28  1  0.06913760  0.45146932  0.36739439  1
  O  O29  1  0.56913760  0.04853068  0.86739439  1
  O  O30  1  0.93086240  0.54853068  0.63260561  1
  O  O31  1  0.43086240  0.95146932  0.13260561  1
  O  O32  1  0.30948461  0.24703434  0.25084878  1
  O  O33  1  0.80948461  0.25296566  0.75084878  1
  O  O34  1  0.69051539  0.75296566  0.74915122  1
  O  O35  1  0.19051539  0.74703434  0.24915122  1
  O  O36  1  0.70506295  0.94617208  0.32851359  1
  O  O37  1  0.20506295  0.55382792  0.82851359  1
  O  O38  1  0.29493705  0.05382792  0.67148641  1
  O  O39  1  0.79493705  0.44617208  0.17148641  1
  O  O40  1  0.69898094  0.35510294  0.39401472  1
  O  O41  1  0.19898094  0.14489706  0.89401472  1
  O  O42  1  0.30101906  0.64489706  0.60598528  1
  O  O43  1  0.80101906  0.85510294  0.10598528  1
  O  O44  1  0.51850351  0.61241279  0.28177944  1
  O  O45  1  0.01850351  0.88758721  0.78177944  1
  O  O46  1  0.48149649  0.38758721  0.71822056  1
  O  O47  1  0.98149649  0.11241279  0.21822056  1
