# generated using pymatgen
data_Na6Mo10O33
_symmetry_space_group_name_H-M   'P 1'
_cell_length_a   7.68367903
_cell_length_b   8.20903352
_cell_length_c   12.34112844
_cell_angle_alpha   71.17505602
_cell_angle_beta   72.86088305
_cell_angle_gamma   79.41419336
_symmetry_Int_Tables_number   1
_chemical_formula_structural   Na6Mo10O33
_chemical_formula_sum   'Na6 Mo10 O33'
_cell_volume   700.67851001
_cell_formula_units_Z   1
loop_
 _symmetry_equiv_pos_site_id
 _symmetry_equiv_pos_as_xyz
  1  'x, y, z'
loop_
 _atom_site_type_symbol
 _atom_site_label
 _atom_site_symmetry_multiplicity
 _atom_site_fract_x
 _atom_site_fract_y
 _atom_site_fract_z
 _atom_site_occupancy
  Na  Na0  1  0.89487076  0.65873577  0.21599327  1
  Na  Na1  1  0.36696487  0.61252575  0.23933956  1
  Na  Na2  1  0.63303513  0.38747425  0.76066044  1
  Na  Na3  1  0.10512924  0.34126423  0.78400673  1
  Na  Na4  1  0.85540152  0.15278869  0.23347770  1
  Na  Na5  1  0.14459848  0.84721131  0.76652230  1
  Mo  Mo6  1  0.28758907  0.39172543  0.01776977  1
  Mo  Mo7  1  0.95164613  0.23018503  0.49279111  1
  Mo  Mo8  1  0.71241093  0.60827457  0.98223023  1
  Mo  Mo9  1  0.44943581  0.22802835  0.49914093  1
  Mo  Mo10  1  0.28118662  0.98302688  0.02614752  1
  Mo  Mo11  1  0.32381212  0.06855095  0.31793337  1
  Mo  Mo12  1  0.55056419  0.77197165  0.50085907  1
  Mo  Mo13  1  0.71881338  0.01697312  0.97385248  1
  Mo  Mo14  1  0.04835387  0.76981497  0.50720889  1
  Mo  Mo15  1  0.67618788  0.93144905  0.68206663  1
  O  O16  1  0.71086437  0.54177078  0.13296021  1
  O  O17  1  0.21775168  0.18744116  0.47184889  1
  O  O18  1  0.61002613  0.07525850  0.76803019  1
  O  O19  1  0.22042020  0.01001651  0.89534119  1
  O  O20  1  0.85152237  0.81378427  0.92643948  1
  O  O21  1  0.38997387  0.92474150  0.23196981  1
  O  O22  1  0.06287004  0.61657863  0.64086792  1
  O  O23  1  0.14847763  0.18621573  0.07356052  1
  O  O24  1  0.66531289  0.71309802  0.37337306  1
  O  O25  1  0.77957980  0.98998349  0.10465881  1
  O  O26  1  0.30082942  0.83575542  0.48090729  1
  O  O27  1  0.28913563  0.45822922  0.86703979  1
  O  O28  1  0.33468711  0.28690198  0.62662694  1
  O  O29  1  0.69917058  0.16424458  0.51909271  1
  O  O30  1  0.06320730  0.03314549  0.37860349  1
  O  O31  1  0.48784797  0.42013193  0.38779873  1
  O  O32  1  0.15161361  0.82342852  0.13494200  1
  O  O33  1  0.93712996  0.38342137  0.35913208  1
  O  O34  1  0.53538221  0.06129551  0.37605079  1
  O  O35  1  0.32758120  0.27628743  0.21199118  1
  O  O36  1  0.51215203  0.57986807  0.61220127  1
  O  O37  1  0.93679270  0.96685451  0.62139651  1
  O  O38  1  0.84838639  0.17657148  0.86505800  1
  O  O39  1  0.11321126  0.52721205  0.07872177  1
  O  O40  1  0.10027448  0.65769708  0.40246697  1
  O  O41  1  0.67241880  0.72371257  0.78800882  1
  O  O42  1  0.48386687  0.15619254  0.99229065  1
  O  O43  1  0.46461779  0.93870449  0.62394921  1
  O  O44  1  0.50000000  0.50000000  0.00000000  1
  O  O45  1  0.78224832  0.81255884  0.52815111  1
  O  O46  1  0.88678874  0.47278795  0.92127823  1
  O  O47  1  0.89972552  0.34230292  0.59753303  1
  O  O48  1  0.51613313  0.84380746  0.00770935  1
