# generated using pymatgen
data_BaEr2ZnO5
_symmetry_space_group_name_H-M   'P 1'
_cell_length_a   5.72426774
_cell_length_b   7.09652910
_cell_length_c   12.35577734
_cell_angle_alpha   90.00000000
_cell_angle_beta   90.00000000
_cell_angle_gamma   90.00000000
_symmetry_Int_Tables_number   1
_chemical_formula_structural   BaEr2ZnO5
_chemical_formula_sum   'Ba4 Er8 Zn4 O20'
_cell_volume   501.92173213
_cell_formula_units_Z   4
loop_
 _symmetry_equiv_pos_site_id
 _symmetry_equiv_pos_as_xyz
  1  'x, y, z'
loop_
 _atom_site_type_symbol
 _atom_site_label
 _atom_site_symmetry_multiplicity
 _atom_site_fract_x
 _atom_site_fract_y
 _atom_site_fract_z
 _atom_site_occupancy
  O  O0  1  0.25000000  0.42211776  0.60119075  1
  O  O1  1  0.75000000  0.57788224  0.39880925  1
  O  O2  1  0.75000000  0.92211776  0.89880925  1
  O  O3  1  0.25000000  0.07788224  0.10119075  1
  O  O4  1  0.99938942  0.86027839  0.27540006  1
  O  O5  1  0.49938942  0.13972161  0.72459994  1
  O  O6  1  0.00061058  0.36027839  0.22459994  1
  O  O7  1  0.50061058  0.63972161  0.77540006  1
  O  O8  1  0.00061058  0.13972161  0.72459994  1
  O  O9  1  0.50061058  0.86027839  0.27540006  1
  O  O10  1  0.99938942  0.63972161  0.77540006  1
  O  O11  1  0.49938942  0.36027839  0.22459994  1
  O  O12  1  0.49960483  0.66214442  0.06616928  1
  O  O13  1  0.99960483  0.33785558  0.93383072  1
  O  O14  1  0.50039517  0.16214442  0.43383072  1
  O  O15  1  0.00039517  0.83785558  0.56616928  1
  O  O16  1  0.99960483  0.16214442  0.43383072  1
  O  O17  1  0.49960483  0.83785558  0.56616928  1
  O  O18  1  0.00039517  0.66214442  0.06616928  1
  O  O19  1  0.50039517  0.33785558  0.93383072  1
  Zn  Zn20  1  0.25000000  0.80874647  0.15013814  1
  Zn  Zn21  1  0.75000000  0.19125353  0.84986186  1
  Zn  Zn22  1  0.75000000  0.30874647  0.34986186  1
  Zn  Zn23  1  0.25000000  0.69125353  0.65013814  1
  Ba  Ba24  1  0.75000000  0.07806166  0.10172627  1
  Ba  Ba25  1  0.75000000  0.42193834  0.60172627  1
  Ba  Ba26  1  0.25000000  0.57806166  0.39827373  1
  Ba  Ba27  1  0.25000000  0.92193834  0.89827373  1
  Er  Er28  1  0.25000000  0.40036996  0.07437827  1
  Er  Er29  1  0.75000000  0.61931391  0.20813273  1
  Er  Er30  1  0.75000000  0.88068609  0.70813273  1
  Er  Er31  1  0.25000000  0.11931391  0.29186727  1
  Er  Er32  1  0.75000000  0.59963004  0.92562173  1
  Er  Er33  1  0.75000000  0.90036996  0.42562173  1
  Er  Er34  1  0.25000000  0.09963004  0.57437827  1
  Er  Er35  1  0.25000000  0.38068609  0.79186727  1
