# generated using pymatgen
data_BaB2F8
_symmetry_space_group_name_H-M   'P 1'
_cell_length_a   8.54988339
_cell_length_b   10.86333142
_cell_length_c   16.93578823
_cell_angle_alpha   90.00000000
_cell_angle_beta   90.00000000
_cell_angle_gamma   112.53702144
_symmetry_Int_Tables_number   1
_chemical_formula_structural   BaB2F8
_chemical_formula_sum   'Ba8 B16 F64'
_cell_volume   1452.87295408
_cell_formula_units_Z   8
loop_
 _symmetry_equiv_pos_site_id
 _symmetry_equiv_pos_as_xyz
  1  'x, y, z'
loop_
 _atom_site_type_symbol
 _atom_site_label
 _atom_site_symmetry_multiplicity
 _atom_site_fract_x
 _atom_site_fract_y
 _atom_site_fract_z
 _atom_site_occupancy
  Ba  Ba0  1  0.74292388  0.25976768  0.09989782  1
  Ba  Ba1  1  0.27569394  0.27179535  0.84791959  1
  Ba  Ba2  1  0.77569394  0.77179535  0.65208041  1
  Ba  Ba3  1  0.22430606  0.22820465  0.34791959  1
  Ba  Ba4  1  0.24292388  0.75976768  0.40010218  1
  Ba  Ba5  1  0.72430606  0.72820465  0.15208041  1
  Ba  Ba6  1  0.25707612  0.74023232  0.90010218  1
  Ba  Ba7  1  0.75707612  0.24023232  0.59989782  1
  B  B8  1  0.78722309  0.06026275  0.24460200  1
  B  B9  1  0.80132235  0.55720534  0.99533816  1
  B  B10  1  0.30132235  0.05720534  0.50466184  1
  B  B11  1  0.82313950  0.06570817  0.75757035  1
  B  B12  1  0.71277691  0.43973725  0.74460200  1
  B  B13  1  0.21277691  0.93973725  0.75539800  1
  B  B14  1  0.32313950  0.56570817  0.74242965  1
  B  B15  1  0.69867765  0.94279466  0.49533816  1
  B  B16  1  0.18443374  0.42763136  0.49284997  1
  B  B17  1  0.28722309  0.56026275  0.25539800  1
  B  B18  1  0.81556626  0.57236864  0.50715003  1
  B  B19  1  0.67686050  0.43429183  0.25757035  1
  B  B20  1  0.68443374  0.92763136  0.00714903  1
  B  B21  1  0.31556626  0.07236864  0.99284997  1
  B  B22  1  0.19867765  0.44279466  0.00466184  1
  B  B23  1  0.17686050  0.93429183  0.24242965  1
  F  F24  1  0.37680648  0.06833067  0.42725906  1
  F  F25  1  0.42645086  0.13283645  0.55902937  1
  F  F26  1  0.09388965  0.92150913  0.31833323  1
  F  F27  1  0.67124628  0.60562048  0.00162693  1
  F  F28  1  0.60405573  0.37408990  0.80773180  1
  F  F29  1  0.65149613  0.10248675  0.23784583  1
  F  F30  1  0.32350324  0.39032182  0.48256732  1
  F  F31  1  0.25987205  0.42926837  0.72197580  1
  F  F32  1  0.87680648  0.56833067  0.07274094  1
  F  F33  1  0.30797768  0.88791056  0.25240677  1
  F  F34  1  0.12319352  0.43166933  0.92725906  1
  F  F35  1  0.91600040  0.63936087  0.44172831  1
  F  F36  1  0.61869687  0.40524289  0.67238103  1
  F  F37  1  0.84850387  0.39751325  0.73784583  1
  F  F38  1  0.26217058  0.93278156  0.00292212  1
  F  F39  1  0.44272226  0.64302364  0.68625396  1
  F  F40  1  0.23654764  0.92062240  0.52534886  1
  F  F41  1  0.08323778  0.38859901  0.42277759  1
  F  F42  1  0.17124628  0.10562048  0.49837307  1
  F  F43  1  0.62319352  0.93166933  0.57274094  1
  F  F44  1  0.67649676  0.60967818  0.51743268  1
  F  F45  1  0.39594427  0.62591010  0.19226820  1
  F  F46  1  0.11869687  0.90524289  0.82761897  1
  F  F47  1  0.23782942  0.56721844  0.50292212  1
  F  F48  1  0.90611035  0.07849087  0.68166677  1
  F  F49  1  0.73782942  0.06721844  0.99707788  1
  F  F50  1  0.59388965  0.42150913  0.18166677  1
  F  F51  1  0.22813290  0.42035084  0.24439750  1
  F  F52  1  0.77186710  0.57964916  0.75560250  1
  F  F53  1  0.08399960  0.36063913  0.55827169  1
  F  F54  1  0.57354914  0.86716355  0.44097063  1
  F  F55  1  0.19202232  0.61208944  0.75240677  1
  F  F56  1  0.34850387  0.89751325  0.76215417  1
  F  F57  1  0.82350324  0.89032182  0.01743268  1
  F  F58  1  0.75987205  0.92926837  0.77802420  1
  F  F59  1  0.38130313  0.59475711  0.32761897  1
  F  F60  1  0.91676222  0.61140099  0.57722241  1
  F  F61  1  0.82875372  0.89437952  0.50162693  1
  F  F62  1  0.17649676  0.10967818  0.98256732  1
  F  F63  1  0.58399960  0.86063913  0.94172831  1
  F  F64  1  0.27186710  0.07964916  0.74439750  1
  F  F65  1  0.94272226  0.14302364  0.81374604  1
  F  F66  1  0.58323778  0.88859901  0.07722241  1
  F  F67  1  0.05727774  0.85697636  0.18625396  1
  F  F68  1  0.89594427  0.12591010  0.30773180  1
  F  F69  1  0.55727774  0.35697636  0.31374604  1
  F  F70  1  0.32875372  0.39437952  0.99837307  1
  F  F71  1  0.07354914  0.36716355  0.05902937  1
  F  F72  1  0.41600040  0.13936087  0.05827169  1
  F  F73  1  0.41676222  0.11140099  0.92277759  1
  F  F74  1  0.76345236  0.07937760  0.47465114  1
  F  F75  1  0.73654764  0.42062240  0.97465114  1
  F  F76  1  0.92645086  0.63283645  0.94097063  1
  F  F77  1  0.40611035  0.57849087  0.81833323  1
  F  F78  1  0.74012795  0.57073163  0.27802420  1
  F  F79  1  0.10405573  0.87408990  0.69226820  1
  F  F80  1  0.72813290  0.92035084  0.25560250  1
  F  F81  1  0.69202232  0.11208944  0.74759323  1
  F  F82  1  0.15149613  0.60248675  0.26215417  1
  F  F83  1  0.24012795  0.07073163  0.22197580  1
  F  F84  1  0.76217058  0.43278156  0.49707788  1
  F  F85  1  0.26345236  0.57937760  0.02534886  1
  F  F86  1  0.88130313  0.09475711  0.17238103  1
  F  F87  1  0.80797768  0.38791056  0.24759323  1
