# generated using pymatgen
data_AlPO4
_symmetry_space_group_name_H-M   'P 1'
_cell_length_a   8.57018806
_cell_length_b   14.96235572
_cell_length_c   18.32587722
_cell_angle_alpha   114.09371101
_cell_angle_beta   90.00000000
_cell_angle_gamma   90.00000000
_symmetry_Int_Tables_number   1
_chemical_formula_structural   AlPO4
_chemical_formula_sum   'Al18 P18 O72'
_cell_volume   2145.20258907
_cell_formula_units_Z   18
loop_
 _symmetry_equiv_pos_site_id
 _symmetry_equiv_pos_as_xyz
  1  'x, y, z'
loop_
 _atom_site_type_symbol
 _atom_site_label
 _atom_site_symmetry_multiplicity
 _atom_site_fract_x
 _atom_site_fract_y
 _atom_site_fract_z
 _atom_site_occupancy
  Al  Al0  1  0.94851696  0.07452443  1.00000000  1
  Al  Al1  1  0.97642231  0.96591976  0.16343182  1
  Al  Al2  1  0.97642231  0.80248794  0.83656818  1
  Al  Al3  1  0.96996457  0.77549133  0.36569214  1
  Al  Al4  1  0.46996457  0.59020081  0.36569214  1
  Al  Al5  1  0.97296827  0.12397664  0.45312091  1
  Al  Al6  1  0.96818166  0.05776138  0.69561256  1
  Al  Al7  1  0.46818166  0.63785118  0.69561256  1
  Al  Al8  1  0.97296827  0.67085573  0.54687909  1
  Al  Al9  1  0.47296827  0.32914427  0.45312091  1
  Al  Al10  1  0.96818166  0.36214882  0.30438744  1
  Al  Al11  1  0.47296827  0.87602336  0.54687909  1
  Al  Al12  1  0.96996457  0.40979919  0.63430786  1
  Al  Al13  1  0.44851696  0.92547557  0.00000000  1
  Al  Al14  1  0.46818166  0.94223862  0.30438744  1
  Al  Al15  1  0.47642231  0.03408024  0.83656818  1
  Al  Al16  1  0.47642231  0.19751206  0.16343182  1
  Al  Al17  1  0.46996457  0.22450867  0.63430786  1
  P  P18  1  0.08798353  0.21699543  0.63910845  1
  P  P19  1  0.09623638  0.93201329  0.31151622  1
  P  P20  1  0.58150151  0.12435861  0.00000000  1
  P  P21  1  0.10961668  0.16598578  0.16387421  1
  P  P22  1  0.59623638  0.06798671  0.68848378  1
  P  P23  1  0.58798353  0.78300457  0.36089155  1
  P  P24  1  0.09092224  0.86845124  0.55098240  1
  P  P25  1  0.10961668  0.00211156  0.83612579  1
  P  P26  1  0.59623638  0.37950294  0.31151622  1
  P  P27  1  0.59092224  0.68253116  0.55098240  1
  P  P28  1  0.09092224  0.31746884  0.44901760  1
  P  P29  1  0.58798353  0.42211302  0.63910845  1
  P  P30  1  0.08150151  0.87564139  1.00000000  1
  P  P31  1  0.60961668  0.99788844  0.16387421  1
  P  P32  1  0.59092224  0.13154876  0.44901760  1
  P  P33  1  0.08798353  0.57788698  0.36089155  1
  P  P34  1  0.60961668  0.83401422  0.83612579  1
  P  P35  1  0.09623638  0.62049706  0.68848378  1
  O  O36  1  0.56754293  0.48046704  0.31089680  1
  O  O37  1  0.52983912  0.34759405  0.67124728  1
  O  O38  1  0.57043260  0.10558788  0.18345062  1
  O  O39  1  0.98756842  0.94399753  0.24940663  1
  O  O40  1  0.56845234  0.73747941  0.76600511  1
  O  O41  1  0.78361872  0.83879853  0.85357397  1
  O  O42  1  0.54734711  0.13691761  0.92193955  1
  O  O43  1  0.07043260  0.07786274  0.18345062  1
  O  O44  1  0.28361872  0.01477543  0.85357397  1
  O  O45  1  0.06754293  0.83042975  0.31089680  1
  O  O46  1  0.52983912  0.67634677  0.32875272  1
  O  O47  1  0.02983912  0.32365323  0.67124728  1
  O  O48  1  0.56754293  0.16957025  0.68910320  1
  O  O49  1  0.26902563  0.32777577  0.44543635  1
  O  O50  1  0.75149759  0.09509574  1.00000000  1
  O  O51  1  0.76902563  0.67222423  0.55456365  1
  O  O52  1  0.51231905  0.03360935  0.39846301  1
  O  O53  1  0.28361872  0.16120147  0.14642603  1
  O  O54  1  0.06754293  0.51953296  0.68910320  1
  O  O55  1  0.25149759  0.90490426  0.00000000  1
  O  O56  1  0.53321396  0.16458584  0.53526057  1
  O  O57  1  0.07043260  0.89441212  0.81654938  1
  O  O58  1  0.02179119  0.16201120  0.08913034  1
  O  O59  1  0.52525335  0.52405963  0.69384057  1
  O  O60  1  0.04629287  0.20804502  0.41658007  1
  O  O61  1  0.06845234  0.26252059  0.23399489  1
  O  O62  1  0.26668874  0.93985059  0.28857549  1
  O  O63  1  0.76902563  0.11766058  0.44543635  1
  O  O64  1  0.76668874  0.06014941  0.71142451  1
  O  O65  1  0.02179119  0.07288086  0.91086966  1
  O  O66  1  0.76732905  0.42532598  0.64036465  1
  O  O67  1  0.03321396  0.83541416  0.46473943  1
  O  O68  1  0.26668874  0.65127509  0.71142451  1
  O  O69  1  0.76732905  0.78496133  0.35963535  1
  O  O70  1  0.56845234  0.97147430  0.23399489  1
  O  O71  1  0.05942673  0.61590555  0.60476594  1
  O  O72  1  0.26902563  0.88233942  0.55456365  1
  O  O73  1  0.47427245  0.04109244  1.00000000  1
  O  O74  1  0.48756842  0.05600247  0.75059337  1
  O  O75  1  0.57043260  0.92213726  0.81654938  1
  O  O76  1  0.02983912  0.65240595  0.32875272  1
  O  O77  1  0.51231905  0.63514634  0.60153699  1
  O  O78  1  0.52525335  0.83021906  0.30615943  1
  O  O79  1  0.53321396  0.62932527  0.46473943  1
  O  O80  1  0.04734711  0.78502194  0.92193955  1
  O  O81  1  0.02896831  0.60671446  0.44697471  1
  O  O82  1  0.48756842  0.30540910  0.24940663  1
  O  O83  1  0.03321396  0.37067473  0.53526057  1
  O  O84  1  0.01231905  0.96639065  0.60153699  1
  O  O85  1  0.26732905  0.21503867  0.64036465  1
  O  O86  1  0.52179119  0.92711914  0.08913034  1
  O  O87  1  0.97427245  0.95890756  0.00000000  1
  O  O88  1  0.04734711  0.86308239  0.07806045  1
  O  O89  1  0.26732905  0.57467402  0.35963535  1
  O  O90  1  0.05942673  0.01113961  0.39523406  1
  O  O91  1  0.54734711  0.21497806  0.07806045  1
  O  O92  1  0.02896831  0.15973975  0.55302529  1
  O  O93  1  0.06845234  0.02852570  0.76600511  1
  O  O94  1  0.55942673  0.38409445  0.39523406  1
  O  O95  1  0.01231905  0.36485366  0.39846301  1
  O  O96  1  0.54629287  0.20853506  0.41658007  1
  O  O97  1  0.78361872  0.98522457  0.14642603  1
  O  O98  1  0.02525335  0.47594037  0.30615943  1
  O  O99  1  0.02525335  0.16978094  0.69384057  1
  O  O100  1  0.55942673  0.98886039  0.60476594  1
  O  O101  1  0.52896831  0.84026025  0.44697471  1
  O  O102  1  0.52179119  0.83798880  0.91086966  1
  O  O103  1  0.54629287  0.79195498  0.58341993  1
  O  O104  1  0.04629287  0.79146494  0.58341993  1
  O  O105  1  0.98756842  0.69459090  0.75059337  1
  O  O106  1  0.52896831  0.39328554  0.55302529  1
  O  O107  1  0.76668874  0.34872491  0.28857549  1
