# generated using pymatgen
data_Rb3Ce2(NO3)9
_symmetry_space_group_name_H-M   'P 1'
_cell_length_a   13.97611268
_cell_length_b   13.97611268
_cell_length_c   13.97611268
_cell_angle_alpha   90.00000000
_cell_angle_beta   90.00000000
_cell_angle_gamma   90.00000000
_symmetry_Int_Tables_number   1
_chemical_formula_structural   Rb3Ce2(NO3)9
_chemical_formula_sum   'Rb12 Ce8 N36 O108'
_cell_volume   2729.97820758
_cell_formula_units_Z   4
loop_
 _symmetry_equiv_pos_site_id
 _symmetry_equiv_pos_as_xyz
  1  'x, y, z'
loop_
 _atom_site_type_symbol
 _atom_site_label
 _atom_site_symmetry_multiplicity
 _atom_site_fract_x
 _atom_site_fract_y
 _atom_site_fract_z
 _atom_site_occupancy
  Rb  Rb0  1  0.30450434  0.44549566  0.87500000  1
  Rb  Rb1  1  0.12500000  0.80450434  0.05450434  1
  Rb  Rb2  1  0.37500000  0.19549566  0.55450434  1
  Rb  Rb3  1  0.55450434  0.37500000  0.19549566  1
  Rb  Rb4  1  0.19549566  0.55450434  0.37500000  1
  Rb  Rb5  1  0.05450434  0.12500000  0.80450434  1
  Rb  Rb6  1  0.62500000  0.69549566  0.94549566  1
  Rb  Rb7  1  0.87500000  0.30450434  0.44549566  1
  Rb  Rb8  1  0.69549566  0.94549566  0.62500000  1
  Rb  Rb9  1  0.44549566  0.87500000  0.30450434  1
  Rb  Rb10  1  0.80450434  0.05450434  0.12500000  1
  Rb  Rb11  1  0.94549566  0.62500000  0.69549566  1
  Ce  Ce12  1  0.69493267  0.30506733  0.80506733  1
  Ce  Ce13  1  0.19493267  0.19493267  0.19493267  1
  Ce  Ce14  1  0.30506733  0.80506733  0.69493267  1
  Ce  Ce15  1  0.80506733  0.69493267  0.30506733  1
  Ce  Ce16  1  0.94493267  0.44493267  0.05506733  1
  Ce  Ce17  1  0.44493267  0.05506733  0.94493267  1
  Ce  Ce18  1  0.05506733  0.94493267  0.44493267  1
  Ce  Ce19  1  0.55506733  0.55506733  0.55506733  1
  N  N20  1  0.76616364  0.62500000  0.51616364  1
  N  N21  1  0.84630973  0.38832191  0.67292199  1
  N  N22  1  0.07707801  0.36167809  0.90369027  1
  N  N23  1  0.23383636  0.12500000  0.98383636  1
  N  N24  1  0.32707801  0.34630973  0.11167809  1
  N  N25  1  0.42292199  0.63832191  0.40369027  1
  N  N26  1  0.98383636  0.23383636  0.12500000  1
  N  N27  1  0.34630973  0.11167809  0.32707801  1
  N  N28  1  0.63832191  0.40369027  0.42292199  1
  N  N29  1  0.37500000  0.01616364  0.73383636  1
  N  N30  1  0.86167809  0.59630973  0.92292199  1
  N  N31  1  0.38832191  0.67292199  0.84630973  1
  N  N32  1  0.36167809  0.90369027  0.07707801  1
  N  N33  1  0.51616364  0.76616364  0.62500000  1
  N  N34  1  0.12500000  0.98383636  0.23383636  1
  N  N35  1  0.15369027  0.88832191  0.82707801  1
  N  N36  1  0.26616364  0.87500000  0.48383636  1
  N  N37  1  0.17292199  0.65369027  0.61167809  1
  N  N38  1  0.40369027  0.42292199  0.63832191  1
  N  N39  1  0.59630973  0.92292199  0.86167809  1
  N  N40  1  0.09630973  0.57707801  0.13832191  1
  N  N41  1  0.73383636  0.37500000  0.01616364  1
  N  N42  1  0.90369027  0.07707801  0.36167809  1
  N  N43  1  0.82707801  0.15369027  0.88832191  1
  N  N44  1  0.65369027  0.61167809  0.17292199  1
  N  N45  1  0.13832191  0.09630973  0.57707801  1
  N  N46  1  0.48383636  0.26616364  0.87500000  1
  N  N47  1  0.61167809  0.17292199  0.65369027  1
  N  N48  1  0.88832191  0.82707801  0.15369027  1
  N  N49  1  0.92292199  0.86167809  0.59630973  1
  N  N50  1  0.87500000  0.48383636  0.26616364  1
  N  N51  1  0.62500000  0.51616364  0.76616364  1
  N  N52  1  0.67292199  0.84630973  0.38832191  1
  N  N53  1  0.11167809  0.32707801  0.34630973  1
  N  N54  1  0.57707801  0.13832191  0.09630973  1
  N  N55  1  0.01616364  0.73383636  0.37500000  1
  O  O56  1  0.00545542  0.15158749  0.15435958  1
  O  O57  1  0.32657275  0.07489053  0.24552358  1
  O  O58  1  0.44858751  0.40023234  0.56170025  1
  O  O59  1  0.07657275  0.49552358  0.17510947  1
  O  O60  1  0.69858751  0.68829975  0.15023234  1
  O  O61  1  0.81170025  0.84976766  0.19858751  1
  O  O62  1  0.40435958  0.09841251  0.75545542  1
  O  O63  1  0.05141249  0.59976766  0.06170025  1
  O  O64  1  0.07451490  0.38177033  0.40631708  1
  O  O65  1  0.17342725  0.92510947  0.74552358  1
  O  O66  1  0.90023234  0.93829975  0.55141249  1
  O  O67  1  0.65023234  0.80141249  0.31170025  1
  O  O68  1  0.59564042  0.59841251  0.74454458  1
  O  O69  1  0.42548510  0.61822967  0.90631708  1
  O  O70  1  0.99552358  0.32489053  0.92342725  1
  O  O71  1  0.18829975  0.34976766  0.30141249  1
  O  O72  1  0.54919108  0.20080892  0.87500000  1
  O  O73  1  0.09841251  0.75545542  0.40435958  1
  O  O74  1  0.36822967  0.67548510  0.34368292  1
  O  O75  1  0.67510947  0.42342725  0.50447642  1
  O  O76  1  0.00447642  0.82489053  0.57657275  1
  O  O77  1  0.87500000  0.54919108  0.20080892  1
  O  O78  1  0.45080892  0.70080892  0.62500000  1
  O  O79  1  0.65631708  0.86822967  0.82451490  1
  O  O80  1  0.40158749  0.24454458  0.90435958  1
  O  O81  1  0.11822967  0.59368292  0.57451490  1
  O  O82  1  0.68829975  0.15023234  0.69858751  1
  O  O83  1  0.70080892  0.62500000  0.45080892  1
  O  O84  1  0.57489053  0.25447642  0.67342725  1
  O  O85  1  0.30141249  0.18829975  0.34976766  1
  O  O86  1  0.61822967  0.90631708  0.42548510  1
  O  O87  1  0.17548510  0.15631708  0.63177033  1
  O  O88  1  0.75447642  0.82657275  0.42510947  1
  O  O89  1  0.63177033  0.17548510  0.15631708  1
  O  O90  1  0.67342725  0.57489053  0.25447642  1
  O  O91  1  0.15435958  0.00545542  0.15158749  1
  O  O92  1  0.06170025  0.05141249  0.59976766  1
  O  O93  1  0.84841251  0.65435958  0.49454458  1
  O  O94  1  0.12500000  0.04919108  0.29919108  1
  O  O95  1  0.09564042  0.90158749  0.25545542  1
  O  O96  1  0.24552358  0.32657275  0.07489053  1
  O  O97  1  0.74552358  0.17342725  0.92510947  1
  O  O98  1  0.99454458  0.65158749  0.34564042  1
  O  O99  1  0.90158749  0.25545542  0.09564042  1
  O  O100  1  0.86822967  0.82451490  0.65631708  1
  O  O101  1  0.94858751  0.09976766  0.43829975  1
  O  O102  1  0.42510947  0.75447642  0.82657275  1
  O  O103  1  0.50545542  0.34841251  0.84564042  1
  O  O104  1  0.80141249  0.31170025  0.65023234  1
  O  O105  1  0.62500000  0.45080892  0.70080892  1
  O  O106  1  0.38177033  0.40631708  0.07451490  1
  O  O107  1  0.34564042  0.99454458  0.65158749  1
  O  O108  1  0.40631708  0.07451490  0.38177033  1
  O  O109  1  0.17510947  0.07657275  0.49552358  1
  O  O110  1  0.32489053  0.92342725  0.99552358  1
  O  O111  1  0.59841251  0.74454458  0.59564042  1
  O  O112  1  0.31170025  0.65023234  0.80141249  1
  O  O113  1  0.34976766  0.30141249  0.18829975  1
  O  O114  1  0.65435958  0.49454458  0.84841251  1
  O  O115  1  0.50447642  0.67510947  0.42342725  1
  O  O116  1  0.20080892  0.87500000  0.54919108  1
  O  O117  1  0.90631708  0.42548510  0.61822967  1
  O  O118  1  0.40023234  0.56170025  0.44858751  1
  O  O119  1  0.29919108  0.12500000  0.04919108  1
  O  O120  1  0.92342725  0.99552358  0.32489053  1
  O  O121  1  0.82489053  0.57657275  0.00447642  1
  O  O122  1  0.57657275  0.00447642  0.82489053  1
  O  O123  1  0.15158749  0.15435958  0.00545542  1
  O  O124  1  0.32451490  0.84368292  0.13177033  1
  O  O125  1  0.49552358  0.17510947  0.07657275  1
  O  O126  1  0.93829975  0.55141249  0.90023234  1
  O  O127  1  0.84564042  0.50545542  0.34841251  1
  O  O128  1  0.75545542  0.40435958  0.09841251  1
  O  O129  1  0.19858751  0.81170025  0.84976766  1
  O  O130  1  0.09368292  0.92548510  0.88177033  1
  O  O131  1  0.37500000  0.95080892  0.79919108  1
  O  O132  1  0.55141249  0.90023234  0.93829975  1
  O  O133  1  0.24454458  0.90435958  0.40158749  1
  O  O134  1  0.15023234  0.69858751  0.68829975  1
  O  O135  1  0.42342725  0.50447642  0.67510947  1
  O  O136  1  0.59368292  0.57451490  0.11822967  1
  O  O137  1  0.25447642  0.67342725  0.57489053  1
  O  O138  1  0.43829975  0.94858751  0.09976766  1
  O  O139  1  0.07489053  0.24552358  0.32657275  1
  O  O140  1  0.82657275  0.42510947  0.75447642  1
  O  O141  1  0.67548510  0.34368292  0.36822967  1
  O  O142  1  0.13177033  0.32451490  0.84368292  1
  O  O143  1  0.57451490  0.11822967  0.59368292  1
  O  O144  1  0.84368292  0.13177033  0.32451490  1
  O  O145  1  0.49454458  0.84841251  0.65435958  1
  O  O146  1  0.15631708  0.63177033  0.17548510  1
  O  O147  1  0.79919108  0.37500000  0.95080892  1
  O  O148  1  0.95080892  0.79919108  0.37500000  1
  O  O149  1  0.90435958  0.40158749  0.24454458  1
  O  O150  1  0.74454458  0.59564042  0.59841251  1
  O  O151  1  0.25545542  0.09564042  0.90158749  1
  O  O152  1  0.92548510  0.88177033  0.09368292  1
  O  O153  1  0.88177033  0.09368292  0.92548510  1
  O  O154  1  0.56170025  0.44858751  0.40023234  1
  O  O155  1  0.04919108  0.29919108  0.12500000  1
  O  O156  1  0.65158749  0.34564042  0.99454458  1
  O  O157  1  0.34841251  0.84564042  0.50545542  1
  O  O158  1  0.92510947  0.74552358  0.17342725  1
  O  O159  1  0.34368292  0.36822967  0.67548510  1
  O  O160  1  0.82451490  0.65631708  0.86822967  1
  O  O161  1  0.09976766  0.43829975  0.94858751  1
  O  O162  1  0.84976766  0.19858751  0.81170025  1
  O  O163  1  0.59976766  0.06170025  0.05141249  1
