# generated using pymatgen
data_La4C5Cl2
_symmetry_space_group_name_H-M   'P 1'
_cell_length_a   3.98730080
_cell_length_b   10.19028943
_cell_length_c   11.47693512
_cell_angle_alpha   95.85100878
_cell_angle_beta   99.87927196
_cell_angle_gamma   89.96999593
_symmetry_Int_Tables_number   1
_chemical_formula_structural   La4C5Cl2
_chemical_formula_sum   'La8 C10 Cl4'
_cell_volume   456.95111095
_cell_formula_units_Z   2
loop_
 _symmetry_equiv_pos_site_id
 _symmetry_equiv_pos_as_xyz
  1  'x, y, z'
loop_
 _atom_site_type_symbol
 _atom_site_label
 _atom_site_symmetry_multiplicity
 _atom_site_fract_x
 _atom_site_fract_y
 _atom_site_fract_z
 _atom_site_occupancy
  La  La0  1  0.62272939  0.35201615  0.23384274  1
  La  La1  1  0.17567531  0.02488462  0.34993047  1
  La  La2  1  0.04814127  0.64987032  0.09139650  1
  La  La3  1  0.27380282  0.33354123  0.54888072  1
  La  La4  1  0.72431149  0.66468928  0.44912883  1
  La  La5  1  0.37762049  0.64640990  0.76521234  1
  La  La6  1  0.95459376  0.34916993  0.90856670  1
  La  La7  1  0.82268363  0.97499373  0.64925839  1
  C  C8  1  0.85456265  0.45259684  0.71206371  1
  C  C9  1  0.74709845  0.13149493  0.49728080  1
  C  C10  1  0.47490381  0.53419129  0.95270499  1
  C  C11  1  0.52736321  0.46344881  0.04655538  1
  C  C12  1  0.80745513  0.52295256  0.62137509  1
  C  C13  1  0.25118276  0.86764782  0.50136977  1
  C  C14  1  0.19068378  0.47498471  0.37772483  1
  C  C15  1  0.14543754  0.54620812  0.28752817  1
  C  C16  1  0.70302846  0.20360535  0.40588875  1
  C  C17  1  0.29616185  0.79621484  0.59303192  1
  Cl  Cl18  1  0.60826234  0.84995489  0.20411445  1
  Cl  Cl19  1  0.39593936  0.14729843  0.79608414  1
  Cl  Cl20  1  0.93375033  0.83706483  0.88537560  1
  Cl  Cl21  1  0.05667914  0.16098941  0.11354173  1
