# generated using pymatgen
data_LiSn(PO3)3
_symmetry_space_group_name_H-M   'P 1'
_cell_length_a   10.48303863
_cell_length_b   10.46807831
_cell_length_c   9.77906884
_cell_angle_alpha   107.65777938
_cell_angle_beta   103.88241009
_cell_angle_gamma   112.82637027
_symmetry_Int_Tables_number   1
_chemical_formula_structural   LiSn(PO3)3
_chemical_formula_sum   'Li4 Sn4 P12 O36'
_cell_volume   860.81980267
_cell_formula_units_Z   4
loop_
 _symmetry_equiv_pos_site_id
 _symmetry_equiv_pos_as_xyz
  1  'x, y, z'
loop_
 _atom_site_type_symbol
 _atom_site_label
 _atom_site_symmetry_multiplicity
 _atom_site_fract_x
 _atom_site_fract_y
 _atom_site_fract_z
 _atom_site_occupancy
  Li  Li0  1  0.50682713  0.93590811  0.33757220  1
  Li  Li1  1  0.36821538  0.11910513  0.33708913  1
  Li  Li2  1  0.49317287  0.06409189  0.66242780  1
  Li  Li3  1  0.63178462  0.88089487  0.66291087  1
  Sn  Sn4  1  0.78475563  0.67273916  0.87575188  1
  Sn  Sn5  1  0.27519546  0.24683784  0.73461670  1
  Sn  Sn6  1  0.72480454  0.75316216  0.26538330  1
  Sn  Sn7  1  0.21524437  0.32726084  0.12424812  1
  P  P8  1  0.82671891  0.20647073  0.96513215  1
  P  P9  1  0.35871027  0.64846910  0.99096610  1
  P  P10  1  0.40383662  0.61167103  0.68992609  1
  P  P11  1  0.17328109  0.79352927  0.03486785  1
  P  P12  1  0.12245341  0.85189385  0.49198772  1
  P  P13  1  0.91425501  0.10224754  0.20781943  1
  P  P14  1  0.29951940  0.69428414  0.44052470  1
  P  P15  1  0.08574499  0.89775246  0.79218057  1
  P  P16  1  0.70048060  0.30571586  0.55947530  1
  P  P17  1  0.64128973  0.35153090  0.00903390  1
  P  P18  1  0.59616338  0.38832897  0.31007391  1
  P  P19  1  0.87754659  0.14810615  0.50801228  1
  O  O20  1  0.51479615  0.22020084  0.85755612  1
  O  O21  1  0.26527649  0.00644862  0.56177192  1
  O  O22  1  0.27055105  0.56539975  0.29481279  1
  O  O23  1  0.55471482  0.15349125  0.49327137  1
  O  O24  1  0.71316007  0.36003851  0.42397855  1
  O  O25  1  0.98814079  0.27642077  0.98276683  1
  O  O26  1  0.70420527  0.08639452  0.80567152  1
  O  O27  1  0.73472351  0.99355138  0.43822808  1
  O  O28  1  0.48520385  0.77979916  0.14244388  1
  O  O29  1  0.44528518  0.84650875  0.50672863  1
  O  O30  1  0.34582203  0.44250733  0.63461761  1
  O  O31  1  0.56231132  0.71395794  0.71055789  1
  O  O32  1  0.90787469  0.19378096  0.37004725  1
  O  O33  1  0.16335943  0.06849367  0.84097895  1
  O  O34  1  0.09212531  0.80621904  0.62995275  1
  O  O35  1  0.15416971  0.71787411  0.40220658  1
  O  O36  1  0.38704123  0.68720880  0.85001414  1
  O  O37  1  0.84583029  0.28212589  0.59779342  1
  O  O38  1  0.20205976  0.65081747  0.97194721  1
  O  O39  1  0.67411325  0.51344353  0.03890456  1
  O  O40  1  0.07592388  0.17935533  0.22294768  1
  O  O41  1  0.65417797  0.55749267  0.36538239  1
  O  O42  1  0.83664057  0.93150633  0.15902105  1
  O  O43  1  0.01185921  0.72357923  0.01723317  1
  O  O44  1  0.80904577  0.13735496  0.09126657  1
  O  O45  1  0.43768868  0.28604206  0.28944211  1
  O  O46  1  0.98064167  0.83059996  0.38231032  1
  O  O47  1  0.79794024  0.34918253  0.02805279  1
  O  O48  1  0.19095423  0.86264504  0.90873343  1
  O  O49  1  0.01935833  0.16940004  0.61768968  1
  O  O50  1  0.28683993  0.63996149  0.57602145  1
  O  O51  1  0.92407612  0.82064467  0.77705232  1
  O  O52  1  0.29579473  0.91360548  0.19432848  1
  O  O53  1  0.61295877  0.31279120  0.14998586  1
  O  O54  1  0.32588675  0.48655647  0.96109544  1
  O  O55  1  0.72944895  0.43460025  0.70518721  1
