# generated using pymatgen
data_Gd(C2N3)3
_symmetry_space_group_name_H-M   'P 1'
_cell_length_a   6.99078689
_cell_length_b   6.99078729
_cell_length_c   10.29520171
_cell_angle_alpha   90.00000000
_cell_angle_beta   90.00000000
_cell_angle_gamma   111.94458621
_symmetry_Int_Tables_number   1
_chemical_formula_structural   Gd(C2N3)3
_chemical_formula_sum   'Gd2 C12 N18'
_cell_volume   466.68338401
_cell_formula_units_Z   2
loop_
 _symmetry_equiv_pos_site_id
 _symmetry_equiv_pos_as_xyz
  1  'x, y, z'
loop_
 _atom_site_type_symbol
 _atom_site_label
 _atom_site_symmetry_multiplicity
 _atom_site_fract_x
 _atom_site_fract_y
 _atom_site_fract_z
 _atom_site_occupancy
  Gd  Gd0  1  0.28537563  0.71462437  0.75000000  1
  Gd  Gd1  1  0.71462437  0.28537563  0.25000000  1
  C  C2  1  0.99643710  0.29123205  0.55209114  1
  C  C3  1  0.44180840  0.27369209  0.75000000  1
  C  C4  1  0.55819160  0.72630791  0.25000000  1
  C  C5  1  0.70876795  0.00356290  0.94790886  1
  C  C6  1  0.29123205  0.99643710  0.44790886  1
  C  C7  1  0.29123205  0.99643710  0.05209114  1
  C  C8  1  0.00356290  0.70876795  0.05209114  1
  C  C9  1  0.00356290  0.70876795  0.44790886  1
  C  C10  1  0.70876795  0.00356290  0.55209114  1
  C  C11  1  0.72630791  0.55819160  0.75000000  1
  C  C12  1  0.27369209  0.44180840  0.25000000  1
  C  C13  1  0.99643710  0.29123205  0.94790886  1
  N  N14  1  0.41729659  0.14089158  0.39907302  1
  N  N15  1  0.35903492  0.09274264  0.75000000  1
  N  N16  1  0.84080290  0.15919710  0.48992498  1
  N  N17  1  0.58270341  0.85910842  0.89907302  1
  N  N18  1  0.09274264  0.35903492  0.25000000  1
  N  N19  1  0.85910842  0.58270341  0.39907302  1
  N  N20  1  0.14089158  0.41729659  0.89907302  1
  N  N21  1  0.90725736  0.64096508  0.75000000  1
  N  N22  1  0.84080290  0.15919710  0.01007502  1
  N  N23  1  0.14089158  0.41729659  0.60092698  1
  N  N24  1  0.15919710  0.84080290  0.98992498  1
  N  N25  1  0.41729659  0.14089158  0.10092698  1
  N  N26  1  0.58270341  0.85910842  0.60092698  1
  N  N27  1  0.85910842  0.58270341  0.10092698  1
  N  N28  1  0.15919710  0.84080290  0.51007502  1
  N  N29  1  0.64096508  0.90725736  0.25000000  1
  N  N30  1  0.52524120  0.47475880  0.75000000  1
  N  N31  1  0.47475880  0.52524120  0.25000000  1
