# generated using pymatgen
data_Ho4Si2S3O7
_symmetry_space_group_name_H-M   'P 1'
_cell_length_a   10.71719864
_cell_length_b   10.71719864
_cell_length_c   10.71719864
_cell_angle_alpha   101.05087686
_cell_angle_beta   113.83848112
_cell_angle_gamma   113.83848116
_symmetry_Int_Tables_number   1
_chemical_formula_structural   Ho4Si2S3O7
_chemical_formula_sum   'Ho16 Si8 S12 O28'
_cell_volume   932.56735956
_cell_formula_units_Z   4
loop_
 _symmetry_equiv_pos_site_id
 _symmetry_equiv_pos_as_xyz
  1  'x, y, z'
loop_
 _atom_site_type_symbol
 _atom_site_label
 _atom_site_symmetry_multiplicity
 _atom_site_fract_x
 _atom_site_fract_y
 _atom_site_fract_z
 _atom_site_occupancy
  O  O0  1  0.51686017  0.17400753  0.19086771  1
  O  O1  1  0.98313983  0.17400753  0.65714736  1
  O  O2  1  0.98313983  0.80913229  0.82599247  1
  O  O3  1  0.48313983  0.65714736  0.17400753  1
  O  O4  1  0.01686017  0.19086771  0.17400753  1
  O  O5  1  0.01686017  0.82599247  0.34285264  1
  O  O6  1  0.48313983  0.82599247  0.80913229  1
  O  O7  1  0.51686017  0.34285264  0.82599247  1
  O  O8  1  0.75000000  0.14956701  0.39956701  1
  O  O9  1  0.25000000  0.39956701  0.14956701  1
  O  O10  1  0.25000000  0.85043299  0.60043299  1
  O  O11  1  0.75000000  0.60043299  0.85043299  1
  O  O12  1  0.26742233  0.83476507  0.84998638  1
  O  O13  1  0.23257767  0.08256406  0.56734275  1
  O  O14  1  0.23257767  0.15001362  0.16523493  1
  O  O15  1  0.48477869  0.56734275  0.83476507  1
  O  O16  1  0.01522131  0.84998638  0.08256406  1
  O  O17  1  0.01522131  0.16523493  0.43265725  1
  O  O18  1  0.48477869  0.91743594  0.15001362  1
  O  O19  1  0.26742233  0.43265725  0.91743594  1
  O  O20  1  0.73257767  0.16523493  0.15001362  1
  O  O21  1  0.76742233  0.91743594  0.43265725  1
  O  O22  1  0.76742233  0.84998638  0.83476507  1
  O  O23  1  0.51522131  0.43265725  0.16523493  1
  O  O24  1  0.98477869  0.15001362  0.91743594  1
  O  O25  1  0.98477869  0.83476507  0.56734275  1
  O  O26  1  0.51522131  0.08256406  0.84998638  1
  O  O27  1  0.73257767  0.56734275  0.08256406  1
  Si  Si28  1  0.62489144  0.09573006  0.22062150  1
  Si  Si29  1  0.87510856  0.09573006  0.47083861  1
  Si  Si30  1  0.87510856  0.77937850  0.90426994  1
  Si  Si31  1  0.37510856  0.47083861  0.09573006  1
  Si  Si32  1  0.12489144  0.22062150  0.09573006  1
  Si  Si33  1  0.12489144  0.90426994  0.52916139  1
  Si  Si34  1  0.37510856  0.90426994  0.77937850  1
  Si  Si35  1  0.62489144  0.52916139  0.90426994  1
  S  S36  1  0.35408284  0.00000000  0.35408284  1
  S  S37  1  0.35408284  0.35408284  0.50000000  1
  S  S38  1  0.14591716  0.64591716  0.00000000  1
  S  S39  1  0.14591716  0.50000000  0.64591716  1
  S  S40  1  0.64591716  0.00000000  0.64591716  1
  S  S41  1  0.64591716  0.64591716  0.50000000  1
  S  S42  1  0.85408284  0.35408284  0.00000000  1
  S  S43  1  0.85408284  0.50000000  0.35408284  1
  S  S44  1  0.25000000  0.62500000  0.37500000  1
  S  S45  1  0.75000000  0.37500000  0.62500000  1
  S  S46  1  0.75000000  0.87500000  0.12500000  1
  S  S47  1  0.25000000  0.12500000  0.87500000  1
  Ho  Ho48  1  0.09462997  0.04731499  0.29731499  1
  Ho  Ho49  1  0.25000000  0.29731499  0.70268501  1
  Ho  Ho50  1  0.25000000  0.95268501  0.04731499  1
  Ho  Ho51  1  0.40537003  0.70268501  0.95268501  1
  Ho  Ho52  1  0.90537003  0.95268501  0.70268501  1
  Ho  Ho53  1  0.75000000  0.70268501  0.29731499  1
  Ho  Ho54  1  0.75000000  0.04731499  0.95268501  1
  Ho  Ho55  1  0.59462997  0.29731499  0.04731499  1
  Ho  Ho56  1  0.51444929  0.34131659  0.35576588  1
  Ho  Ho57  1  0.98555071  0.34131659  0.82686731  1
  Ho  Ho58  1  0.98555071  0.64423412  0.65868341  1
  Ho  Ho59  1  0.48555071  0.82686731  0.34131659  1
  Ho  Ho60  1  0.01444929  0.35576588  0.34131659  1
  Ho  Ho61  1  0.01444929  0.65868341  0.17313269  1
  Ho  Ho62  1  0.48555071  0.65868341  0.64423412  1
  Ho  Ho63  1  0.51444929  0.17313269  0.65868341  1
