# generated using pymatgen
data_BaVSe3
_symmetry_space_group_name_H-M   'P 1'
_cell_length_a   5.90219420
_cell_length_b   7.10297581
_cell_length_c   7.03591971
_cell_angle_alpha   120.32006287
_cell_angle_beta   90.00000000
_cell_angle_gamma   90.00000000
_symmetry_Int_Tables_number   1
_chemical_formula_structural   BaVSe3
_chemical_formula_sum   'Ba2 V2 Se6'
_cell_volume   254.62181621
_cell_formula_units_Z   2
loop_
 _symmetry_equiv_pos_site_id
 _symmetry_equiv_pos_as_xyz
  1  'x, y, z'
loop_
 _atom_site_type_symbol
 _atom_site_label
 _atom_site_symmetry_multiplicity
 _atom_site_fract_x
 _atom_site_fract_y
 _atom_site_fract_z
 _atom_site_occupancy
  Ba  Ba0  1  0.75495124  0.33612803  0.67224401  1
  Ba  Ba1  1  0.25495124  0.66387197  0.32775599  1
  V  V2  1  0.01323653  0.02580518  0.05167886  1
  V  V3  1  0.51323653  0.97419482  0.94832114  1
  Se  Se4  1  0.24308145  0.16345693  0.83349002  1
  Se  Se5  1  0.24311306  0.67001019  0.83349880  1
  Se  Se6  1  0.27461772  0.17075234  0.34144613  1
  Se  Se7  1  0.74311306  0.32998981  0.16650120  1
  Se  Se8  1  0.74308145  0.83654307  0.16650998  1
  Se  Se9  1  0.77461772  0.82924766  0.65855387  1
