# generated using pymatgen
data_Ba11(Ta3S13)2
_symmetry_space_group_name_H-M   'P 1'
_cell_length_a   14.53470109
_cell_length_b   14.52959572
_cell_length_c   29.06383762
_cell_angle_alpha   27.81541415
_cell_angle_beta   27.62505146
_cell_angle_gamma   27.54045836
_symmetry_Int_Tables_number   1
_chemical_formula_structural   Ba11(Ta3S13)2
_chemical_formula_sum   'Ba11 Ta6 S26'
_cell_volume   1167.69436309
_cell_formula_units_Z   1
loop_
 _symmetry_equiv_pos_site_id
 _symmetry_equiv_pos_as_xyz
  1  'x, y, z'
loop_
 _atom_site_type_symbol
 _atom_site_label
 _atom_site_symmetry_multiplicity
 _atom_site_fract_x
 _atom_site_fract_y
 _atom_site_fract_z
 _atom_site_occupancy
  Ba  Ba0  1  0.06293665  0.07481866  0.03542120  1
  Ba  Ba1  1  0.20069689  0.20102252  0.10348754  1
  Ba  Ba2  1  0.39945890  0.26339623  0.16788592  1
  Ba  Ba3  1  0.07575815  0.06285567  0.53491345  1
  Ba  Ba4  1  0.20205284  0.20515335  0.60061902  1
  Ba  Ba5  1  0.38514131  0.35336467  0.62933517  1
  Ba  Ba6  1  0.80071010  0.80044641  0.39433682  1
  Ba  Ba7  1  0.93466128  0.92027437  0.46741170  1
  Ba  Ba8  1  0.69551016  0.65658957  0.82571357  1
  Ba  Ba9  1  0.79622821  0.79227417  0.90139447  1
  Ba  Ba10  1  0.92750422  0.93728324  0.96353451  1
  Ta  Ta11  1  0.41468109  0.42651273  0.21192637  1
  Ta  Ta12  1  0.49400497  0.50161105  0.25241165  1
  Ta  Ta13  1  0.59873754  0.56897981  0.28351244  1
  Ta  Ta14  1  0.42988087  0.41670447  0.71096406  1
  Ta  Ta15  1  0.49485483  0.50368116  0.75115926  1
  Ta  Ta16  1  0.57730766  0.57866860  0.78906951  1
  S  S17  1  0.06147970  0.55229308  0.28261600  1
  S  S18  1  0.57434139  0.05372491  0.28167862  1
  S  S19  1  0.55155492  0.56804721  0.03081919  1
  S  S20  1  0.30204555  0.30288801  0.39488533  1
  S  S21  1  0.30381208  0.78899211  0.15017696  1
  S  S22  1  0.79201085  0.30558987  0.14821681  1
  S  S23  1  0.20399879  0.70041325  0.34840414  1
  S  S24  1  0.70240760  0.69136416  0.10586536  1
  S  S25  1  0.70442231  0.20960466  0.34492284  1
  S  S26  1  0.43321283  0.42616643  0.47071384  1
  S  S27  1  0.42972453  0.94126884  0.21662310  1
  S  S28  1  0.95091586  0.43422035  0.21765877  1
  S  S29  1  0.06235846  0.56988242  0.78001322  1
  S  S30  1  0.55670108  0.06284521  0.78116372  1
  S  S31  1  0.57552412  0.56328001  0.52723443  1
  S  S32  1  0.30555022  0.30004175  0.89522415  1
  S  S33  1  0.30198100  0.79239525  0.65171645  1
  S  S34  1  0.79333514  0.29678531  0.65343069  1
  S  S35  1  0.20716662  0.69908423  0.85026226  1
  S  S36  1  0.69514927  0.21160713  0.85020013  1
  S  S37  1  0.69611219  0.69831925  0.60571243  1
  S  S38  1  0.43160840  0.44972958  0.96905925  1
  S  S39  1  0.43761332  0.93938568  0.72053900  1
  S  S40  1  0.94533679  0.43001255  0.71781190  1
  S  S41  1  0.94189337  0.92776785  0.56501004  1
  S  S42  1  0.91831792  0.13445424  0.97384467  1
