# generated using pymatgen
data_Cs2NaCo(CN)6
_symmetry_space_group_name_H-M   'P 1'
_cell_length_a   7.58328805
_cell_length_b   7.68256346
_cell_length_c   10.85093008
_cell_angle_alpha   90.00000000
_cell_angle_beta   89.98556659
_cell_angle_gamma   90.00000000
_symmetry_Int_Tables_number   1
_chemical_formula_structural   Cs2NaCo(CN)6
_chemical_formula_sum   'Cs4 Na2 Co2 C12 N12'
_cell_volume   632.16530973
_cell_formula_units_Z   2
loop_
 _symmetry_equiv_pos_site_id
 _symmetry_equiv_pos_as_xyz
  1  'x, y, z'
loop_
 _atom_site_type_symbol
 _atom_site_label
 _atom_site_symmetry_multiplicity
 _atom_site_fract_x
 _atom_site_fract_y
 _atom_site_fract_z
 _atom_site_occupancy
  Cs  Cs0  1  0.00762380  0.46449756  0.24996484  1
  Cs  Cs1  1  0.99237620  0.53550244  0.75003516  1
  Cs  Cs2  1  0.49237620  0.96449756  0.25003516  1
  Cs  Cs3  1  0.50762380  0.03550244  0.74996484  1
  Na  Na4  1  0.50000000  0.50000000  0.00000000  1
  Na  Na5  1  0.00000000  0.00000000  0.50000000  1
  Co  Co6  1  0.50000000  0.50000000  0.50000000  1
  Co  Co7  1  0.00000000  0.00000000  0.00000000  1
  C  C8  1  0.96154417  0.00584520  0.17104319  1
  C  C9  1  0.85844570  0.19883420  0.97933805  1
  C  C10  1  0.46154417  0.49415480  0.67104319  1
  C  C11  1  0.64155430  0.69883420  0.52066195  1
  C  C12  1  0.53845583  0.50584520  0.32895681  1
  C  C13  1  0.79941943  0.85863070  0.98313635  1
  C  C14  1  0.35844570  0.30116580  0.47933805  1
  C  C15  1  0.03845583  0.99415480  0.82895681  1
  C  C16  1  0.20058057  0.14136930  0.01686365  1
  C  C17  1  0.14155430  0.80116580  0.02066195  1
  C  C18  1  0.29941943  0.64136930  0.48313635  1
  C  C19  1  0.70058057  0.35863070  0.51686365  1
  N  N20  1  0.22935643  0.67602732  0.03479473  1
  N  N21  1  0.43591001  0.48803067  0.77791228  1
  N  N22  1  0.82718953  0.27096628  0.52807137  1
  N  N23  1  0.67281047  0.77096628  0.97192863  1
  N  N24  1  0.17281047  0.72903372  0.47192863  1
  N  N25  1  0.27064357  0.17602732  0.46520527  1
  N  N26  1  0.56408999  0.51196933  0.22208772  1
  N  N27  1  0.93591001  0.01196933  0.27791228  1
  N  N28  1  0.77064357  0.32397268  0.96520527  1
  N  N29  1  0.32718953  0.22903372  0.02807137  1
  N  N30  1  0.72935643  0.82397268  0.53479473  1
  N  N31  1  0.06408999  0.98803067  0.72208772  1
