# generated using pymatgen
data_MgIn2O4
_symmetry_space_group_name_H-M   'P 1'
_cell_length_a   6.36086798
_cell_length_b   6.36086832
_cell_length_c   6.43755316
_cell_angle_alpha   59.60039787
_cell_angle_beta   59.60039607
_cell_angle_gamma   59.65963795
_symmetry_Int_Tables_number   1
_chemical_formula_structural   MgIn2O4
_chemical_formula_sum   'Mg2 In4 O8'
_cell_volume   182.58829272
_cell_formula_units_Z   2
loop_
 _symmetry_equiv_pos_site_id
 _symmetry_equiv_pos_as_xyz
  1  'x, y, z'
loop_
 _atom_site_type_symbol
 _atom_site_label
 _atom_site_symmetry_multiplicity
 _atom_site_fract_x
 _atom_site_fract_y
 _atom_site_fract_z
 _atom_site_occupancy
  Mg  Mg0  1  0.12500000  0.62500000  0.62500000  1
  Mg  Mg1  1  0.62500000  0.12500000  0.62500000  1
  In  In2  1  0.99434667  0.99434667  0.00565333  1
  In  In3  1  0.25565333  0.25565333  0.24434667  1
  In  In4  1  0.62500000  0.62500000  0.12500000  1
  In  In5  1  0.62500000  0.62500000  0.62500000  1
  O  O6  1  0.38210968  0.38210968  0.39221437  1
  O  O7  1  0.38210968  0.38210968  0.84356627  1
  O  O8  1  0.37610667  0.84844642  0.38772345  1
  O  O9  1  0.40155358  0.87389333  0.86227655  1
  O  O10  1  0.84844642  0.37610667  0.38772345  1
  O  O11  1  0.87389333  0.40155358  0.86227655  1
  O  O12  1  0.86789032  0.86789032  0.40643373  1
  O  O13  1  0.86789032  0.86789032  0.85778563  1
