# generated using pymatgen
data_Ca16HN8
_symmetry_space_group_name_H-M   'P 1'
_cell_length_a   7.29611624
_cell_length_b   29.30103075
_cell_length_c   12.67008422
_cell_angle_alpha   30.13764745
_cell_angle_beta   54.84055010
_cell_angle_gamma   60.13151012
_symmetry_Int_Tables_number   1
_chemical_formula_structural   Ca16HN8
_chemical_formula_sum   'Ca32 H2 N16'
_cell_volume   1111.83928929
_cell_formula_units_Z   2
loop_
 _symmetry_equiv_pos_site_id
 _symmetry_equiv_pos_as_xyz
  1  'x, y, z'
loop_
 _atom_site_type_symbol
 _atom_site_label
 _atom_site_symmetry_multiplicity
 _atom_site_fract_x
 _atom_site_fract_y
 _atom_site_fract_z
 _atom_site_occupancy
  Ca  Ca0  1  0.26525364  0.99976917  0.26516991  1
  Ca  Ca1  1  0.26062347  0.11102734  0.26732185  1
  Ca  Ca2  1  0.70532987  0.99976917  0.26516991  1
  Ca  Ca3  1  0.26096840  0.24836088  0.26712200  1
  Ca  Ca4  1  0.28979550  0.00178171  0.73213663  1
  Ca  Ca5  1  0.73540554  0.10997148  0.29465151  1
  Ca  Ca6  1  0.26561226  0.35982812  0.26473149  1
  Ca  Ca7  1  0.26480122  0.13997156  0.70525565  1
  Ca  Ca8  1  0.73880442  0.00178171  0.73213663  1
  Ca  Ca9  1  0.71134409  0.24836088  0.26712200  1
  Ca  Ca10  1  0.26119558  0.50178171  0.26073654  1
  Ca  Ca11  1  0.29469309  0.25026235  0.73468391  1
  Ca  Ca12  1  0.73902494  0.13938269  0.73220968  1
  Ca  Ca13  1  0.73461687  0.36060679  0.29416954  1
  Ca  Ca14  1  0.26459446  0.60997148  0.26546258  1
  Ca  Ca15  1  0.26576782  0.39068465  0.70286289  1
  Ca  Ca16  1  0.71020450  0.50178171  0.26073654  1
  Ca  Ca17  1  0.73488967  0.25026235  0.73468391  1
  Ca  Ca18  1  0.26511033  0.75026235  0.26426667  1
  Ca  Ca19  1  0.29467013  0.49976917  0.73575341  1
  Ca  Ca20  1  0.73937653  0.61102734  0.28856880  1
  Ca  Ca21  1  0.73468016  0.38955482  0.73621020  1
  Ca  Ca22  1  0.26538313  0.86060679  0.26340328  1
  Ca  Ca23  1  0.26097506  0.63938269  0.71025956  1
  Ca  Ca24  1  0.73474636  0.49976917  0.73575341  1
  Ca  Ca25  1  0.70530691  0.75026235  0.26426667  1
  Ca  Ca26  1  0.28865591  0.74836088  0.73943449  1
  Ca  Ca27  1  0.73438774  0.85982812  0.29595601  1
  Ca  Ca28  1  0.73519878  0.63997156  0.73485810  1
  Ca  Ca29  1  0.26531984  0.88955482  0.70557052  1
  Ca  Ca30  1  0.73903160  0.74836088  0.73943449  1
  Ca  Ca31  1  0.73423218  0.89068465  0.73439853  1
  H  H32  1  0.01434450  0.13936890  0.45691671  1
  H  H33  1  0.98565550  0.63936890  0.98560670  1
  N  N34  1  0.50033351  0.12519147  0.99928355  1
  N  N35  1  0.50074934  0.37500527  0.99924012  1
  N  N36  1  0.50000367  0.12491991  0.50015650  1
  N  N37  1  0.50060001  0.24938988  0.50085715  1
  N  N38  1  0.99956612  0.00060038  0.49931527  1
  N  N39  1  0.49999633  0.62491991  0.00016385  1
  N  N40  1  0.50043611  0.37549126  0.49858138  1
  N  N41  1  0.50059818  0.50060038  0.49828321  1
  N  N42  1  0.00012616  0.24938988  0.50085715  1
  N  N43  1  0.49956389  0.87549126  0.99945360  1
  N  N44  1  0.49966649  0.62519147  0.49995057  1
  N  N45  1  0.49939999  0.74938988  0.50158332  1
  N  N46  1  0.00043388  0.50060038  0.49828321  1
  N  N47  1  0.49925066  0.87500527  0.50073880  1
  N  N48  1  0.99987384  0.74938988  0.50158332  1
  N  N49  1  0.49940182  0.00060038  0.49931527  1
