# generated using pymatgen
data_Te6H6S(Cl13O2)2
_symmetry_space_group_name_H-M   'P 1'
_cell_length_a   8.86235780
_cell_length_b   8.86235775
_cell_length_c   17.82811710
_cell_angle_alpha   81.91710375
_cell_angle_beta   81.91710386
_cell_angle_gamma   82.35701222
_symmetry_Int_Tables_number   1
_chemical_formula_structural   Te6H6S(Cl13O2)2
_chemical_formula_sum   'Te6 H6 S1 Cl26 O4'
_cell_volume   1363.37412938
_cell_formula_units_Z   1
loop_
 _symmetry_equiv_pos_site_id
 _symmetry_equiv_pos_as_xyz
  1  'x, y, z'
loop_
 _atom_site_type_symbol
 _atom_site_label
 _atom_site_symmetry_multiplicity
 _atom_site_fract_x
 _atom_site_fract_y
 _atom_site_fract_z
 _atom_site_occupancy
  Te  Te0  1  0.54534270  0.92536796  0.46190900  1
  Te  Te1  1  0.54542515  0.92401156  0.96251388  1
  Te  Te2  1  0.92512736  0.92512736  0.27240794  1
  Te  Te3  1  0.92536796  0.54534270  0.46190900  1
  Te  Te4  1  0.92401156  0.54542515  0.96251388  1
  Te  Te5  1  0.92631611  0.92631611  0.77231649  1
  H  H6  1  0.56242536  0.69941133  0.28102450  1
  H  H7  1  0.56063981  0.56063981  0.34841244  1
  H  H8  1  0.69941133  0.56242536  0.28102450  1
  H  H9  1  0.56584686  0.70334171  0.78689796  1
  H  H10  1  0.56530644  0.56530644  0.85533310  1
  H  H11  1  0.70334171  0.56584686  0.78689796  1
  S  S12  1  0.45404000  0.45404000  0.64605614  1
  Cl  Cl13  1  0.19643165  0.89890150  0.26841415  1
  Cl  Cl14  1  0.19613536  0.53772798  0.44771502  1
  Cl  Cl15  1  0.27681859  0.93512435  0.46730256  1
  Cl  Cl16  1  0.19520758  0.53763864  0.94861310  1
  Cl  Cl17  1  0.19698114  0.90022759  0.76847498  1
  Cl  Cl18  1  0.53772798  0.19613536  0.44771502  1
  Cl  Cl19  1  0.53698561  0.89842915  0.09753489  1
  Cl  Cl20  1  0.27675806  0.93362688  0.96747878  1
  Cl  Cl21  1  0.59015204  0.92038004  0.29563253  1
  Cl  Cl22  1  0.59014024  0.59014024  0.45881950  1
  Cl  Cl23  1  0.53763864  0.19520758  0.94861310  1
  Cl  Cl24  1  0.53734775  0.90026478  0.59664955  1
  Cl  Cl25  1  0.89890150  0.19643165  0.26841415  1
  Cl  Cl26  1  0.89842915  0.53698561  0.09753489  1
  Cl  Cl27  1  0.58881262  0.92348683  0.79692995  1
  Cl  Cl28  1  0.58920685  0.58920685  0.96456924  1
  Cl  Cl29  1  0.93512435  0.27681859  0.46730256  1
  Cl  Cl30  1  0.93415507  0.93415507  0.13912647  1
  Cl  Cl31  1  0.92038004  0.59015204  0.29563253  1
  Cl  Cl32  1  0.90026478  0.53734775  0.59664955  1
  Cl  Cl33  1  0.90022759  0.19698114  0.76847498  1
  Cl  Cl34  1  0.88671129  0.88671129  0.44298695  1
  Cl  Cl35  1  0.93362688  0.27675806  0.96747878  1
  Cl  Cl36  1  0.93460352  0.93460352  0.63914423  1
  Cl  Cl37  1  0.92348683  0.58881262  0.79692995  1
  Cl  Cl38  1  0.88705059  0.88705059  0.94278442  1
  O  O39  1  0.29091793  0.50591130  0.65969100  1
  O  O40  1  0.50591130  0.29091793  0.65969100  1
  O  O41  1  0.58214709  0.58214709  0.29044531  1
  O  O42  1  0.58564362  0.58564362  0.79684607  1
