# generated using pymatgen
data_KMg4Al9(SiO4)9
_symmetry_space_group_name_H-M   'P 1'
_cell_length_a   9.88681842
_cell_length_b   9.85865113
_cell_length_c   9.50690159
_cell_angle_alpha   89.98077092
_cell_angle_beta   90.01217210
_cell_angle_gamma   119.65695956
_symmetry_Int_Tables_number   1
_chemical_formula_structural   KMg4Al9(SiO4)9
_chemical_formula_sum   'K1 Mg4 Al9 Si9 O36'
_cell_volume   805.25704614
_cell_formula_units_Z   1
loop_
 _symmetry_equiv_pos_site_id
 _symmetry_equiv_pos_as_xyz
  1  'x, y, z'
loop_
 _atom_site_type_symbol
 _atom_site_label
 _atom_site_symmetry_multiplicity
 _atom_site_fract_x
 _atom_site_fract_y
 _atom_site_fract_z
 _atom_site_occupancy
  K  K0  1  0.99086822  0.99637236  0.83539211  1
  Mg  Mg1  1  0.33202049  0.66676145  0.75091561  1
  Mg  Mg2  1  0.33199731  0.66655428  0.24965873  1
  Mg  Mg3  1  0.67766877  0.33486578  0.75155714  1
  Mg  Mg4  1  0.67682323  0.33463023  0.24954676  1
  Al  Al5  1  0.99808334  0.49748033  0.74995939  1
  Al  Al6  1  0.50349104  0.00122962  0.74835215  1
  Al  Al7  1  0.50313902  0.50193244  0.24951850  1
  Al  Al8  1  0.50335018  0.50177039  0.75092040  1
  Al  Al9  1  0.50218403  0.00096789  0.25221400  1
  Al  Al10  1  0.89312097  0.63045049  0.00040485  1
  Al  Al11  1  0.73713200  0.11610612  0.00057760  1
  Al  Al12  1  0.99780353  0.49720293  0.25068751  1
  Al  Al13  1  0.89150480  0.25766868  0.50014398  1
  Si  Si14  1  0.10493080  0.73252419  0.50015042  1
  Si  Si15  1  0.27020583  0.89662694  0.99932741  1
  Si  Si16  1  0.11356261  0.37856399  0.99933164  1
  Si  Si17  1  0.26841471  0.37317976  0.50046530  1
  Si  Si18  1  0.62100956  0.88415899  0.50046920  1
  Si  Si19  1  0.37825702  0.26883119  0.99988854  1
  Si  Si20  1  0.62143163  0.73566213  0.99883755  1
  Si  Si21  1  0.36711625  0.10287096  0.50034978  1
  Si  Si22  1  0.73483153  0.62432936  0.50013790  1
  O  O23  1  0.08499068  0.78959608  0.99355115  1
  O  O24  1  0.21993438  0.92239622  0.50196525  1
  O  O25  1  0.13687212  0.65626786  0.35820575  1
  O  O26  1  0.13675323  0.65618203  0.64194715  1
  O  O27  1  0.14277826  0.48714498  0.14157295  1
  O  O28  1  0.14427178  0.48935046  0.85834831  1
  O  O29  1  0.34976771  0.86629353  0.85832166  1
  O  O30  1  0.34813044  0.86612215  0.14160365  1
  O  O31  1  0.08582969  0.30267040  0.50343993  1
  O  O32  1  0.23331211  0.30605433  0.99607628  1
  O  O33  1  0.51008821  0.85477510  0.35956087  1
  O  O34  1  0.50935783  0.85418018  0.64073694  1
  O  O35  1  0.35042929  0.48371418  0.35958513  1
  O  O36  1  0.35111990  0.48385727  0.64068630  1
  O  O37  1  0.51060131  0.65146317  0.14012349  1
  O  O38  1  0.50769547  0.64981065  0.85957326  1
  O  O39  1  0.30705277  0.22926184  0.50194395  1
  O  O40  1  0.69028894  0.92027449  0.99333631  1
  O  O41  1  0.30641743  0.08016706  0.99611579  1
  O  O42  1  0.69054241  0.76362745  0.50193402  1
  O  O43  1  0.48169408  0.34475664  0.14322514  1
  O  O44  1  0.48267606  0.34494176  0.85691559  1
  O  O45  1  0.65645901  0.51781670  0.35829260  1
  O  O46  1  0.65655060  0.51779136  0.64199407  1
  O  O47  1  0.47288396  0.13093201  0.35973415  1
  O  O48  1  0.47270442  0.13053783  0.64106604  1
  O  O49  1  0.76366730  0.70127193  0.99296647  1
  O  O50  1  0.92401466  0.69888813  0.50192079  1
  O  O51  1  0.64976233  0.14256294  0.85071583  1
  O  O52  1  0.64884592  0.14188870  0.14957700  1
  O  O53  1  0.86261939  0.51592802  0.14846554  1
  O  O54  1  0.86288085  0.51660895  0.85144016  1
  O  O55  1  0.86241975  0.34721548  0.35467364  1
  O  O56  1  0.86296936  0.34686616  0.64626909  1
  O  O57  1  0.76358577  0.05762679  0.50365062  1
  O  O58  1  0.94108573  0.23041666  0.99335868  1
