# generated using pymatgen
data_Ba13Ru10BrO36
_symmetry_space_group_name_H-M   'P 1'
_cell_length_a   20.41674418
_cell_length_b   40.86848303
_cell_length_c   40.86848242
_cell_angle_alpha   16.47875375
_cell_angle_beta   16.47295851
_cell_angle_gamma   16.47295802
_symmetry_Int_Tables_number   1
_chemical_formula_structural   Ba13Ru10BrO36
_chemical_formula_sum   'Ba26 Ru20 Br2 O72'
_cell_volume   2391.51576700
_cell_formula_units_Z   2
loop_
 _symmetry_equiv_pos_site_id
 _symmetry_equiv_pos_as_xyz
  1  'x, y, z'
loop_
 _atom_site_type_symbol
 _atom_site_label
 _atom_site_symmetry_multiplicity
 _atom_site_fract_x
 _atom_site_fract_y
 _atom_site_fract_z
 _atom_site_occupancy
  Ba  Ba0  1  0.18806282  0.09418541  0.09418541  1
  Ba  Ba1  1  0.26213117  0.13083404  0.13083404  1
  Ba  Ba2  1  0.43697423  0.22058466  0.22058466  1
  Ba  Ba3  1  0.18798821  0.59402935  0.09428857  1
  Ba  Ba4  1  0.18798821  0.09428857  0.59402935  1
  Ba  Ba5  1  0.56302577  0.27941534  0.27941534  1
  Ba  Ba6  1  0.25633067  0.62795542  0.13391169  1
  Ba  Ba7  1  0.25633067  0.13391169  0.62795542  1
  Ba  Ba8  1  0.73786883  0.36916596  0.36916596  1
  Ba  Ba9  1  0.44229649  0.22014745  0.71838732  1
  Ba  Ba10  1  0.44229649  0.71838732  0.22014745  1
  Ba  Ba11  1  0.81193718  0.40581459  0.40581459  1
  Ba  Ba12  1  0.18842369  0.59413440  0.59413440  1
  Ba  Ba13  1  0.55770351  0.27985255  0.78161268  1
  Ba  Ba14  1  0.55770351  0.78161268  0.27985255  1
  Ba  Ba15  1  0.27191061  0.62789058  0.62789058  1
  Ba  Ba16  1  0.34166812  0.69163857  0.69163857  1
  Ba  Ba17  1  0.74366933  0.36608831  0.87204458  1
  Ba  Ba18  1  0.74366933  0.87204458  0.36608831  1
  Ba  Ba19  1  0.43881508  0.72015438  0.72015438  1
  Ba  Ba20  1  0.81201179  0.90597065  0.40571143  1
  Ba  Ba21  1  0.81201179  0.40571143  0.90597065  1
  Ba  Ba22  1  0.56118492  0.77984562  0.77984562  1
  Ba  Ba23  1  0.65833188  0.80836143  0.80836143  1
  Ba  Ba24  1  0.72808939  0.87210942  0.87210942  1
  Ba  Ba25  1  0.81157631  0.90586560  0.90586560  1
  Ru  Ru26  1  0.08388979  0.04171149  0.04171149  1
  Ru  Ru27  1  0.12990088  0.06516512  0.06516512  1
  Ru  Ru28  1  0.08391576  0.04273119  0.54085112  1
  Ru  Ru29  1  0.08391576  0.54085112  0.04273119  1
  Ru  Ru30  1  0.13107320  0.06441872  0.56508372  1
  Ru  Ru31  1  0.13107320  0.56508372  0.06441872  1
  Ru  Ru32  1  0.50000000  0.25000000  0.25000000  1
  Ru  Ru33  1  0.08335937  0.54179747  0.54179747  1
  Ru  Ru34  1  0.12854170  0.56533285  0.56533285  1
  Ru  Ru35  1  0.50000000  0.75000000  0.25000000  1
  Ru  Ru36  1  0.50000000  0.25000000  0.75000000  1
  Ru  Ru37  1  0.87009912  0.43483488  0.43483488  1
  Ru  Ru38  1  0.91611021  0.45828851  0.45828851  1
  Ru  Ru39  1  0.50000000  0.75000000  0.75000000  1
  Ru  Ru40  1  0.86892680  0.43558128  0.93491628  1
  Ru  Ru41  1  0.86892680  0.93491628  0.43558128  1
  Ru  Ru42  1  0.91608424  0.45726881  0.95914888  1
  Ru  Ru43  1  0.91608424  0.95914888  0.45726881  1
  Ru  Ru44  1  0.87145830  0.93466715  0.93466715  1
  Ru  Ru45  1  0.91664063  0.95820253  0.95820253  1
  Br  Br46  1  0.30184083  0.66028367  0.66028367  1
  Br  Br47  1  0.69815917  0.83971633  0.83971633  1
  O  O48  1  0.04201455  0.29484354  0.02152200  1
  O  O49  1  0.04201455  0.02152200  0.29484354  1
  O  O50  1  0.59048517  0.02106076  0.02106076  1
  O  O51  1  0.23452180  0.11362394  0.37337449  1
  O  O52  1  0.23452180  0.37337449  0.11362394  1
  O  O53  1  0.74563782  0.11574130  0.11574130  1
  O  O54  1  0.31635917  0.40511669  0.15848987  1
  O  O55  1  0.31635917  0.15848987  0.40511669  1
  O  O56  1  0.81025877  0.15841336  0.15841336  1
  O  O57  1  0.18974123  0.34158664  0.34158664  1
  O  O58  1  0.68364083  0.34151013  0.09488331  1
  O  O59  1  0.68364083  0.09488331  0.34151013  1
  O  O60  1  0.04234091  0.29567738  0.52024178  1
  O  O61  1  0.04610647  0.79377114  0.02040824  1
  O  O62  1  0.04610647  0.02040824  0.79377114  1
  O  O63  1  0.04234091  0.52024178  0.29567738  1
  O  O64  1  0.58696789  0.02082295  0.52279213  1
  O  O65  1  0.58696789  0.52279213  0.02082295  1
  O  O66  1  0.25436218  0.38425870  0.38425870  1
  O  O67  1  0.76547820  0.12662551  0.38637606  1
  O  O68  1  0.76547820  0.38637606  0.12662551  1
  O  O69  1  0.22700637  0.11815324  0.87316073  1
  O  O70  1  0.22729164  0.37358039  0.61702588  1
  O  O71  1  0.22729164  0.61702588  0.37358039  1
  O  O72  1  0.22700637  0.87316073  0.11815324  1
  O  O73  1  0.74658246  0.61565463  0.11566882  1
  O  O74  1  0.74658246  0.11566882  0.61565463  1
  O  O75  1  0.40951483  0.47893924  0.47893924  1
  O  O76  1  0.95798545  0.47847800  0.20515646  1
  O  O77  1  0.95798545  0.20515646  0.47847800  1
  O  O78  1  0.31641340  0.15841373  0.90531858  1
  O  O79  1  0.31632932  0.40543485  0.65809559  1
  O  O80  1  0.31632932  0.65809559  0.40543485  1
  O  O81  1  0.31641340  0.90531858  0.15841373  1
  O  O82  1  0.81044327  0.15836796  0.65814790  1
  O  O83  1  0.81044327  0.65814790  0.15836796  1
  O  O84  1  0.18955673  0.34163204  0.84185210  1
  O  O85  1  0.18955673  0.84185210  0.34163204  1
  O  O86  1  0.68367068  0.09456515  0.84190441  1
  O  O87  1  0.68358660  0.34158627  0.59468142  1
  O  O88  1  0.68367068  0.84190441  0.09456515  1
  O  O89  1  0.68358660  0.59468142  0.34158627  1
  O  O90  1  0.03979294  0.79461458  0.52262159  1
  O  O91  1  0.03979294  0.52262159  0.79461458  1
  O  O92  1  0.59166507  0.52054736  0.52054736  1
  O  O93  1  0.25341754  0.38433118  0.88434537  1
  O  O94  1  0.25341754  0.88434537  0.38433118  1
  O  O95  1  0.77270836  0.12641961  0.88297412  1
  O  O96  1  0.77270836  0.88297412  0.12641961  1
  O  O97  1  0.77299363  0.38184676  0.62683927  1
  O  O98  1  0.77299363  0.62683927  0.38184676  1
  O  O99  1  0.23503266  0.61197149  0.87202150  1
  O  O100  1  0.23503266  0.87202150  0.61197149  1
  O  O101  1  0.74299350  0.61467264  0.61467264  1
  O  O102  1  0.41303211  0.47917705  0.97720787  1
  O  O103  1  0.41303211  0.97720787  0.47917705  1
  O  O104  1  0.95389353  0.47959176  0.70622886  1
  O  O105  1  0.95765909  0.20432262  0.97975822  1
  O  O106  1  0.95389353  0.70622886  0.47959176  1
  O  O107  1  0.95765909  0.97975822  0.20432262  1
  O  O108  1  0.31640167  0.65820929  0.90546440  1
  O  O109  1  0.31640167  0.90546440  0.65820929  1
  O  O110  1  0.81119675  0.65811488  0.65811488  1
  O  O111  1  0.18880325  0.84188512  0.84188512  1
  O  O112  1  0.68359833  0.59453560  0.84179071  1
  O  O113  1  0.68359833  0.84179071  0.59453560  1
  O  O114  1  0.25700650  0.88532736  0.88532736  1
  O  O115  1  0.76496734  0.62797850  0.88802851  1
  O  O116  1  0.76496734  0.88802851  0.62797850  1
  O  O117  1  0.40833493  0.97945264  0.97945264  1
  O  O118  1  0.96020706  0.70538542  0.97737841  1
  O  O119  1  0.96020706  0.97737841  0.70538542  1
