# generated using pymatgen
data_Tm4Zr3O12
_symmetry_space_group_name_H-M   'P 1'
_cell_length_a   6.40383178
_cell_length_b   6.37608563
_cell_length_c   12.78025439
_cell_angle_alpha   99.40036579
_cell_angle_beta   99.14360358
_cell_angle_gamma   99.35116819
_symmetry_Int_Tables_number   1
_chemical_formula_structural   Tm4Zr3O12
_chemical_formula_sum   'Tm8 Zr6 O24'
_cell_volume   498.68312424
_cell_formula_units_Z   2
loop_
 _symmetry_equiv_pos_site_id
 _symmetry_equiv_pos_as_xyz
  1  'x, y, z'
loop_
 _atom_site_type_symbol
 _atom_site_label
 _atom_site_symmetry_multiplicity
 _atom_site_fract_x
 _atom_site_fract_y
 _atom_site_fract_z
 _atom_site_occupancy
  Tm  Tm0  1  0.13746786  0.60955301  0.65347634  1
  Tm  Tm1  1  0.39094241  0.68748195  0.93081550  1
  Tm  Tm2  1  0.38966441  0.69775228  0.43071761  1
  Tm  Tm3  1  0.31022500  0.14033691  0.30381933  1
  Tm  Tm4  1  0.60905759  0.31251805  0.56918450  1
  Tm  Tm5  1  0.68977500  0.85966309  0.19618067  1
  Tm  Tm6  1  0.86253214  0.39044699  0.84652366  1
  Tm  Tm7  1  0.61033559  0.30224772  0.06928239  1
  Zr  Zr8  1  0.00614454  0.00637499  0.50194266  1
  Zr  Zr9  1  0.14296019  0.61011742  0.15598152  1
  Zr  Zr10  1  0.99385546  0.99362501  0.99805734  1
  Zr  Zr11  1  0.31868884  0.14326057  0.80487180  1
  Zr  Zr12  1  0.68131116  0.85673943  0.69512820  1
  Zr  Zr13  1  0.85703981  0.38988258  0.34401848  1
  O  O14  1  0.05705372  0.67920527  0.96265541  1
  O  O15  1  0.09578202  0.95732827  0.66165396  1
  O  O16  1  0.04296550  0.68046778  0.45441245  1
  O  O17  1  0.08004541  0.92869296  0.15759433  1
  O  O18  1  0.18041867  0.41367891  0.78719183  1
  O  O19  1  0.31149422  0.07808135  0.96162533  1
  O  O20  1  0.42473560  0.82556383  0.78456214  1
  O  O21  1  0.17177657  0.43014306  0.28689349  1
  O  O22  1  0.43309363  0.59112992  0.59147276  1
  O  O23  1  0.31974096  0.07738820  0.47216735  1
  O  O24  1  0.56690637  0.40887008  0.90852724  1
  O  O25  1  0.40926020  0.81611709  0.28173603  1
  O  O26  1  0.57526440  0.17443617  0.71543786  1
  O  O27  1  0.41854719  0.57495047  0.09121573  1
  O  O28  1  0.68850578  0.92191865  0.53837467  1
  O  O29  1  0.58145281  0.42504953  0.40878427  1
  O  O30  1  0.81958133  0.58632109  0.71280817  1
  O  O31  1  0.59073980  0.18388291  0.21826397  1
  O  O32  1  0.68025904  0.92261180  0.02783265  1
  O  O33  1  0.82822343  0.56985694  0.21310651  1
  O  O34  1  0.90421798  0.04267173  0.83834604  1
  O  O35  1  0.94294628  0.32079473  0.53734459  1
  O  O36  1  0.91995459  0.07130704  0.34240567  1
  O  O37  1  0.95703450  0.31953222  0.04558755  1
