# generated using pymatgen
data_Al2CoO4
_symmetry_space_group_name_H-M   'P 1'
_cell_length_a   5.78149931
_cell_length_b   5.78149877
_cell_length_c   28.95848036
_cell_angle_alpha   60.05822100
_cell_angle_beta   60.05822452
_cell_angle_gamma   59.99999380
_symmetry_Int_Tables_number   1
_chemical_formula_structural   Al2CoO4
_chemical_formula_sum   'Al20 Co10 O40'
_cell_volume   685.05162513
_cell_formula_units_Z   10
loop_
 _symmetry_equiv_pos_site_id
 _symmetry_equiv_pos_as_xyz
  1  'x, y, z'
loop_
 _atom_site_type_symbol
 _atom_site_label
 _atom_site_symmetry_multiplicity
 _atom_site_fract_x
 _atom_site_fract_y
 _atom_site_fract_z
 _atom_site_occupancy
  Al  Al0  1  0.24505702  0.24505702  0.05296579  1
  Al  Al1  1  0.11830993  0.62869220  0.12486114  1
  Al  Al2  1  0.24846813  0.24846813  0.25091912  1
  Al  Al3  1  0.62869220  0.11830993  0.12486114  1
  Al  Al4  1  0.62869220  0.62869220  0.12486114  1
  Al  Al5  1  0.12065866  0.62682153  0.32513966  1
  Al  Al6  1  0.62682153  0.12065866  0.32513966  1
  Al  Al7  1  0.12418996  0.62494716  0.52518314  1
  Al  Al8  1  0.62682153  0.62682153  0.32513966  1
  Al  Al9  1  0.62393748  0.62393748  0.42563751  1
  Al  Al10  1  0.62494716  0.12418996  0.52518314  1
  Al  Al11  1  0.62494716  0.62494716  0.52518314  1
  Al  Al12  1  0.12411999  0.62392645  0.72560542  1
  Al  Al13  1  0.62392645  0.12411999  0.72560542  1
  Al  Al14  1  0.62432270  0.62432270  0.62540638  1
  Al  Al15  1  0.12194817  0.62776403  0.92450475  1
  Al  Al16  1  0.62392645  0.62392645  0.72560542  1
  Al  Al17  1  0.62456428  0.62456428  0.82526143  1
  Al  Al18  1  0.62776403  0.12194817  0.92450475  1
  Al  Al19  1  0.62776403  0.62776403  0.92450475  1
  Co  Co20  1  0.00384065  0.00384065  0.99769561  1
  Co  Co21  1  0.62800275  0.62800275  0.02319835  1
  Co  Co22  1  0.00269061  0.00269061  0.19838564  1
  Co  Co23  1  0.62608169  0.62608169  0.22435099  1
  Co  Co24  1  -0.00005764  -0.00005764  0.40003458  1
  Co  Co25  1  0.25185475  0.25185475  0.44888715  1
  Co  Co26  1  0.24973392  0.24973392  0.65015965  1
  Co  Co27  1  0.99888662  0.99888662  0.60066803  1
  Co  Co28  1  0.24601626  0.24601626  0.85239024  1
  Co  Co29  1  0.00096397  0.00096397  0.79942162  1
  O  O30  1  0.37040115  0.37040115  0.08094455  1
  O  O31  1  0.38018092  0.38018092  0.17189145  1
  O  O32  1  0.37040115  0.85447494  0.08094455  1
  O  O33  1  0.85447494  0.37040115  0.08094455  1
  O  O34  1  0.36694187  0.36694187  0.28052990  1
  O  O35  1  0.41397009  0.87235239  0.16826503  1
  O  O36  1  0.86345217  0.86345217  0.08192870  1
  O  O37  1  0.87235239  0.41397009  0.16826503  1
  O  O38  1  0.39469083  0.39469083  0.36318550  1
  O  O39  1  0.36694187  0.86346676  0.28052990  1
  O  O40  1  0.86346676  0.36694187  0.28052990  1
  O  O41  1  0.87235239  0.87235239  0.16826503  1
  O  O42  1  0.38931466  0.38931466  0.47764206  1
  O  O43  1  0.41914148  0.85835634  0.37282917  1
  O  O44  1  0.86119264  0.86119264  0.28328442  1
  O  O45  1  0.38931466  0.83316038  0.47764206  1
  O  O46  1  0.85835634  0.41914148  0.37282917  1
  O  O47  1  0.39008967  0.39008967  0.56594620  1
  O  O48  1  0.83316038  0.38931466  0.47764206  1
  O  O49  1  0.85835634  0.85835634  0.37282917  1
  O  O50  1  0.38938041  0.38938041  0.67801470  1
  O  O51  1  0.41852731  0.86079618  0.57197607  1
  O  O52  1  0.86079618  0.41852731  0.57197607  1
  O  O53  1  0.86079840  0.86079840  0.48352096  1
  O  O54  1  0.38794904  0.38794904  0.76723058  1
  O  O55  1  0.38938041  0.83116566  0.67801470  1
  O  O56  1  0.83116566  0.38938041  0.67801470  1
  O  O57  1  0.86079618  0.86079618  0.57197607  1
  O  O58  1  0.39128571  0.39128571  0.87839357  1
  O  O59  1  0.41904286  0.86039665  0.77203277  1
  O  O60  1  0.86039665  0.41904286  0.77203277  1
  O  O61  1  0.86031423  0.86031423  0.68381146  1
  O  O62  1  0.37499506  0.37499506  0.97500296  1
  O  O63  1  0.39128571  0.82546073  0.87839357  1
  O  O64  1  0.82546073  0.39128571  0.87839357  1
  O  O65  1  0.86039665  0.86039665  0.77203277  1
  O  O66  1  0.41512728  0.87629837  0.96645520  1
  O  O67  1  0.86385946  0.86385946  0.88168432  1
  O  O68  1  0.87629837  0.41512728  0.96645520  1
  O  O69  1  0.87629837  0.87629837  0.96645520  1
