# generated using pymatgen
data_Ti5Fe7O18
_symmetry_space_group_name_H-M   'P 1'
_cell_length_a   5.55488768
_cell_length_b   16.76395644
_cell_length_c   15.09471402
_cell_angle_alpha   17.63118435
_cell_angle_beta   50.76374966
_cell_angle_gamma   55.25400517
_symmetry_Int_Tables_number   1
_chemical_formula_structural   Ti5Fe7O18
_chemical_formula_sum   'Ti5 Fe7 O18'
_cell_volume   326.51363329
_cell_formula_units_Z   1
loop_
 _symmetry_equiv_pos_site_id
 _symmetry_equiv_pos_as_xyz
  1  'x, y, z'
loop_
 _atom_site_type_symbol
 _atom_site_label
 _atom_site_symmetry_multiplicity
 _atom_site_fract_x
 _atom_site_fract_y
 _atom_site_fract_z
 _atom_site_occupancy
  Ti  Ti0  1  0.14458831  0.61996576  0.14295974  1
  Ti  Ti1  1  0.84968660  0.05364605  0.84885092  1
  Ti  Ti2  1  0.35411334  0.87862144  0.36167506  1
  Ti  Ti3  1  0.86798561  0.39146467  0.84109320  1
  Ti  Ti4  1  0.84240569  0.70354093  0.86872279  1
  Fe  Fe5  1  0.14760410  0.28604497  0.14929839  1
  Fe  Fe6  1  0.35947033  0.21787984  0.34959574  1
  Fe  Fe7  1  0.35505549  0.54058407  0.36405187  1
  Fe  Fe8  1  0.63887259  0.11210193  0.65201796  1
  Fe  Fe9  1  0.14890015  0.94667130  0.14841889  1
  Fe  Fe10  1  0.64858491  0.45728830  0.63648697  1
  Fe  Fe11  1  0.64201422  0.79164881  0.63901913  1
  O  O12  1  0.73162103  0.09501324  0.07718741  1
  O  O13  1  0.57424825  0.17513066  0.20963780  1
  O  O14  1  0.04757687  0.30050583  0.43872507  1
  O  O15  1  0.76436803  0.45308877  0.04452056  1
  O  O16  1  0.56617069  0.50423567  0.21916064  1
  O  O17  1  0.04363006  0.60963213  0.46604782  1
  O  O18  1  0.95190170  0.02815727  0.56424724  1
  O  O19  1  0.44502543  0.16720543  0.77196136  1
  O  O20  1  0.78062280  0.77882871  0.04979304  1
  O  O21  1  0.21840878  0.21239054  0.96320913  1
  O  O22  1  0.56443058  0.84425948  0.21784449  1
  O  O23  1  0.08276108  0.96405302  0.42327188  1
  O  O24  1  0.95291145  0.36117005  0.56547532  1
  O  O25  1  0.43784121  0.54096373  0.73215787  1
  O  O26  1  0.21876756  0.55742398  0.94905771  1
  O  O27  1  0.97031024  0.69676588  0.56402705  1
  O  O28  1  0.43340375  0.83212786  0.77905543  1
  O  O29  1  0.21671912  0.87958969  0.96242952  1
