# generated using pymatgen
data_CsMg12Al25Si29O108
_symmetry_space_group_name_H-M   'P 1'
_cell_length_a   9.96209778
_cell_length_b   9.83964308
_cell_length_c   28.36730502
_cell_angle_alpha   90.00809978
_cell_angle_beta   89.99614677
_cell_angle_gamma   119.37983658
_symmetry_Int_Tables_number   1
_chemical_formula_structural   CsMg12Al25Si29O108
_chemical_formula_sum   'Cs1 Mg12 Al25 Si29 O108'
_cell_volume   2423.03146848
_cell_formula_units_Z   1
loop_
 _symmetry_equiv_pos_site_id
 _symmetry_equiv_pos_as_xyz
  1  'x, y, z'
loop_
 _atom_site_type_symbol
 _atom_site_label
 _atom_site_symmetry_multiplicity
 _atom_site_fract_x
 _atom_site_fract_y
 _atom_site_fract_z
 _atom_site_occupancy
  Cs  Cs0  1  0.99054632  0.99527748  0.91665278  1
  Mg  Mg1  1  0.34036438  0.67023271  0.08366067  1
  Mg  Mg2  1  0.33485945  0.66960528  0.58322718  1
  Mg  Mg3  1  0.34151008  0.67118839  0.25000341  1
  Mg  Mg4  1  0.33487028  0.66962059  0.41675155  1
  Mg  Mg5  1  0.34020384  0.67088733  0.74974827  1
  Mg  Mg6  1  0.33599747  0.66834100  0.91666327  1
  Mg  Mg7  1  0.66819539  0.33422748  0.08360275  1
  Mg  Mg8  1  0.66744057  0.33329222  0.24997079  1
  Mg  Mg9  1  0.67013758  0.33287719  0.41684201  1
  Mg  Mg10  1  0.67024536  0.33291219  0.58315253  1
  Mg  Mg11  1  0.66849971  0.33346434  0.74977935  1
  Mg  Mg12  1  0.67669331  0.33815376  0.91672852  1
  Al  Al13  1  0.10121115  0.73364527  0.50000885  1
  Al  Al14  1  0.00012589  0.50004760  0.91655942  1
  Al  Al15  1  0.50315925  0.49981115  0.08327984  1
  Al  Al16  1  0.49998529  0.50073084  0.41644688  1
  Al  Al17  1  0.50235466  0.49894807  0.74933681  1
  Al  Al18  1  0.50293732  0.49928330  0.25043078  1
  Al  Al19  1  0.49995975  0.50070464  0.58352181  1
  Al  Al20  1  0.50255883  0.49907399  0.91681844  1
  Al  Al21  1  0.73347592  0.62251766  0.16684666  1
  Al  Al22  1  0.73506432  0.62098147  0.83291875  1
  Al  Al23  1  0.50242817  0.00324727  0.08374905  1
  Al  Al24  1  0.50307597  0.00406312  0.41736149  1
  Al  Al25  1  0.50277857  0.00342977  0.24986359  1
  Al  Al26  1  0.50305363  0.00407335  0.58260288  1
  Al  Al27  1  0.50305632  0.00334648  0.74993686  1
  Al  Al28  1  0.50264561  0.00349134  0.91662395  1
  Al  Al29  1  0.89713148  0.63520984  0.00028797  1
  Al  Al30  1  0.90079035  0.64020338  0.33356254  1
  Al  Al31  1  0.90068648  0.64070778  0.66618209  1
  Al  Al32  1  0.73539056  0.11389848  0.00038612  1
  Al  Al33  1  0.73335903  0.10953509  0.66677760  1
  Al  Al34  1  0.73312156  0.10947984  0.33307041  1
  Al  Al35  1  0.90007185  0.25860998  0.16693019  1
  Al  Al36  1  0.89980448  0.25907207  0.49997494  1
  Al  Al37  1  0.89654051  0.26131771  0.83304177  1
  Si  Si38  1  0.10336976  0.73216480  0.16692397  1
  Si  Si39  1  0.10717315  0.73278659  0.83303805  1
  Si  Si40  1  0.00044768  0.50012654  0.24984324  1
  Si  Si41  1  0.00011779  0.49775448  0.58385725  1
  Si  Si42  1  0.26954350  0.89650898  0.00012085  1
  Si  Si43  1  0.27177945  0.89849187  0.33360921  1
  Si  Si44  1  0.27166801  0.89843887  0.66629303  1
  Si  Si45  1  0.10690807  0.37457197  0.00029218  1
  Si  Si46  1  0.10265846  0.36874643  0.33237365  1
  Si  Si47  1  0.10274143  0.36843270  0.66736017  1
  Si  Si48  1  0.27136421  0.37355211  0.16678376  1
  Si  Si49  1  0.27075959  0.37541491  0.49999345  1
  Si  Si50  1  0.26966822  0.37340552  0.83319866  1
  Si  Si51  1  0.62063319  0.88880540  0.16674929  1
  Si  Si52  1  0.62096282  0.88829807  0.49999382  1
  Si  Si53  1  0.62108839  0.88795379  0.83318539  1
  Si  Si54  1  0.37197315  0.26737857  0.33399159  1
  Si  Si55  1  0.37080540  0.26611056  0.00044650  1
  Si  Si56  1  0.37189048  0.26714182  0.66587687  1
  Si  Si57  1  0.62055988  0.73158992  0.33335526  1
  Si  Si58  1  0.62086884  0.73327626  0.00012216  1
  Si  Si59  1  0.62046007  0.73173542  0.66658848  1
  Si  Si60  1  0.36885331  0.10264205  0.16678910  1
  Si  Si61  1  0.37316941  0.10777454  0.50000017  1
  Si  Si62  1  0.37043143  0.10418181  0.83288230  1
  Si  Si63  1  0.72979917  0.62384126  0.49999558  1
  Si  Si64  1  0.00064949  0.49981917  0.08433056  1
  Si  Si65  1  0.00017117  0.49779121  0.41607958  1
  Si  Si66  1  0.00065133  0.50072124  0.74929158  1
  O  O67  1  0.08705215  0.78672696  0.99888857  1
  O  O68  1  0.09091434  0.78407828  0.33345909  1
  O  O69  1  0.09090987  0.78422720  0.66645016  1
  O  O70  1  0.23419235  0.91613533  0.16677227  1
  O  O71  1  0.23667811  0.92945210  0.50000510  1
  O  O72  1  0.23040695  0.92049616  0.83167724  1
  O  O73  1  0.13144986  0.64624069  0.11862483  1
  O  O74  1  0.13088025  0.64607965  0.21533505  1
  O  O75  1  0.12925442  0.64109422  0.44857431  1
  O  O76  1  0.12927699  0.64113973  0.55141055  1
  O  O77  1  0.13011434  0.64791460  0.78327274  1
  O  O78  1  0.14314845  0.65260944  0.87917793  1
  O  O79  1  0.13002802  0.48214301  0.05012401  1
  O  O80  1  0.12801261  0.47997176  0.38045701  1
  O  O81  1  0.13151165  0.48357133  0.71537275  1
  O  O82  1  0.13091406  0.48334825  0.28411497  1
  O  O83  1  0.12799742  0.47986893  0.61937919  1
  O  O84  1  0.14302314  0.49047802  0.95416391  1
  O  O85  1  0.34935619  0.86669101  0.28606625  1
  O  O86  1  0.34889253  0.86698059  0.95279779  1
  O  O87  1  0.34818904  0.86584945  0.04751639  1
  O  O88  1  0.35097065  0.86747179  0.61913485  1
  O  O89  1  0.35097560  0.86751146  0.38080869  1
  O  O90  1  0.34947579  0.86676163  0.71381464  1
  O  O91  1  0.09065543  0.30674158  0.16678355  1
  O  O92  1  0.08991754  0.30582923  0.49999023  1
  O  O93  1  0.08700490  0.30059696  0.83441990  1
  O  O94  1  0.23037923  0.30972998  0.00166775  1
  O  O95  1  0.23571135  0.31745683  0.33343944  1
  O  O96  1  0.23577354  0.31723060  0.66644937  1
  O  O97  1  0.50696677  0.85845587  0.12007195  1
  O  O98  1  0.51033702  0.85808616  0.45311478  1
  O  O99  1  0.50735788  0.85847010  0.78666130  1
  O  O100  1  0.50698143  0.85882474  0.21334214  1
  O  O101  1  0.51033609  0.85805949  0.54687189  1
  O  O102  1  0.50958787  0.85971710  0.88017676  1
  O  O103  1  0.34956090  0.48353118  0.11946268  1
  O  O104  1  0.34852464  0.48590262  0.45267772  1
  O  O105  1  0.34821497  0.48238131  0.78578513  1
  O  O106  1  0.34968238  0.48341050  0.21409834  1
  O  O107  1  0.34850001  0.48588567  0.54731295  1
  O  O108  1  0.34869282  0.48206089  0.88052235  1
  O  O109  1  0.50723720  0.64909603  0.04662459  1
  O  O110  1  0.50672843  0.64801870  0.28687480  1
  O  O111  1  0.50707167  0.64980992  0.38021739  1
  O  O112  1  0.50698395  0.64977944  0.61975836  1
  O  O113  1  0.50650014  0.64828765  0.71311056  1
  O  O114  1  0.50934375  0.65001482  0.95316002  1
  O  O115  1  0.30464824  0.22551430  0.16674040  1
  O  O116  1  0.31458787  0.23606432  0.50000440  1
  O  O117  1  0.30249790  0.22450174  0.83372961  1
  O  O118  1  0.68847615  0.91827761  0.99892310  1
  O  O119  1  0.68417803  0.91478724  0.33313178  1
  O  O120  1  0.68426099  0.91488491  0.66684572  1
  O  O121  1  0.30267605  0.07817047  0.99958490  1
  O  O122  1  0.30655448  0.08054782  0.33399516  1
  O  O123  1  0.30643892  0.08040246  0.66594067  1
  O  O124  1  0.68445876  0.76879678  0.16672421  1
  O  O125  1  0.68903397  0.77058584  0.83437554  1
  O  O126  1  0.68207239  0.76148198  0.49999548  1
  O  O127  1  0.47726829  0.34129715  0.04725259  1
  O  O128  1  0.47688527  0.34185573  0.28689402  1
  O  O129  1  0.47906339  0.34359725  0.38121112  1
  O  O130  1  0.47665821  0.34152699  0.71300733  1
  O  O131  1  0.47230274  0.33963638  0.95277115  1
  O  O132  1  0.47908429  0.34356276  0.61871432  1
  O  O133  1  0.65131782  0.50535465  0.11675548  1
  O  O134  1  0.65101052  0.51370540  0.45256368  1
  O  O135  1  0.65185360  0.50566659  0.78261078  1
  O  O136  1  0.65132509  0.50494012  0.21695195  1
  O  O137  1  0.65101805  0.51372657  0.54742812  1
  O  O138  1  0.65055091  0.50626139  0.88308758  1
  O  O139  1  0.47428589  0.13385626  0.11971540  1
  O  O140  1  0.48376218  0.14104157  0.45338252  1
  O  O141  1  0.47686465  0.13562807  0.78604620  1
  O  O142  1  0.47454504  0.13395778  0.21379338  1
  O  O143  1  0.48372151  0.14104351  0.54662112  1
  O  O144  1  0.47186446  0.13211408  0.88057198  1
  O  O145  1  0.75877151  0.69248733  0.00068678  1
  O  O146  1  0.75220549  0.68151947  0.33361170  1
  O  O147  1  0.75199661  0.68169269  0.66635634  1
  O  O148  1  0.93247521  0.69978858  0.16681860  1
  O  O149  1  0.91122193  0.69109168  0.50000256  1
  O  O150  1  0.93646367  0.70585368  0.83434156  1
  O  O151  1  0.65129322  0.14596780  0.28305391  1
  O  O152  1  0.65117008  0.14385371  0.61661763  1
  O  O153  1  0.65116197  0.14564099  0.71669325  1
  O  O154  1  0.65203644  0.14588179  0.05070568  1
  O  O155  1  0.65115386  0.14381259  0.38331115  1
  O  O156  1  0.65056588  0.14402136  0.95021672  1
  O  O157  1  0.87597354  0.51815439  0.38333610  1
  O  O158  1  0.88077509  0.52428489  0.05179544  1
  O  O159  1  0.87983743  0.52242757  0.71619866  1
  O  O160  1  0.88054582  0.52224932  0.28329031  1
  O  O161  1  0.87597147  0.51824856  0.61654930  1
  O  O162  1  0.86600876  0.51389779  0.95234790  1
  O  O163  1  0.87940767  0.35723415  0.11714632  1
  O  O164  1  0.87982822  0.35803852  0.21673881  1
  O  O165  1  0.87747713  0.35502357  0.44946963  1
  O  O166  1  0.87744975  0.35496512  0.55049257  1
  O  O167  1  0.88051898  0.35664935  0.78166291  1
  O  O168  1  0.86602064  0.35203556  0.88100582  1
  O  O169  1  0.75180474  0.06997398  0.16672002  1
  O  O170  1  0.75850475  0.06527611  0.49999349  1
  O  O171  1  0.75856140  0.06631636  0.83264364  1
  O  O172  1  0.93649548  0.23097487  0.99898448  1
  O  O173  1  0.93188074  0.23040894  0.33229004  1
  O  O174  1  0.93198461  0.23025626  0.66755520  1
