# generated using pymatgen
data_BaLa5TiCr5O18
_symmetry_space_group_name_H-M   'P 1'
_cell_length_a   5.56195669
_cell_length_b   5.56585381
_cell_length_c   33.35231685
_cell_angle_alpha   60.56353095
_cell_angle_beta   60.62156117
_cell_angle_gamma   60.66259628
_symmetry_Int_Tables_number   1
_chemical_formula_structural   BaLa5TiCr5O18
_chemical_formula_sum   'Ba2 La10 Ti2 Cr10 O36'
_cell_volume   740.23322635
_cell_formula_units_Z   2
loop_
 _symmetry_equiv_pos_site_id
 _symmetry_equiv_pos_as_xyz
  1  'x, y, z'
loop_
 _atom_site_type_symbol
 _atom_site_label
 _atom_site_symmetry_multiplicity
 _atom_site_fract_x
 _atom_site_fract_y
 _atom_site_fract_z
 _atom_site_occupancy
  Ba  Ba0  1  0.74916917  0.75001638  0.12548300  1
  Ba  Ba1  1  0.75172043  0.75727286  0.95566779  1
  La  La2  1  0.25208600  0.25830220  0.03914905  1
  La  La3  1  0.24813944  0.25026179  0.21090653  1
  La  La4  1  0.25056903  0.24807676  0.37616528  1
  La  La5  1  0.24999901  0.24972276  0.54234297  1
  La  La6  1  0.75465143  0.74816613  0.29227761  1
  La  La7  1  0.25197226  0.24797620  0.70834953  1
  La  La8  1  0.74978772  0.74868864  0.45933780  1
  La  La9  1  0.25059948  0.25567941  0.87123853  1
  La  La10  1  0.75176455  0.74966871  0.62519944  1
  La  La11  1  0.74914141  0.74316332  0.79263860  1
  Ti  Ti12  1  0.00189583  0.00365935  0.99908994  1
  Ti  Ti13  1  0.00513900  0.99669260  0.16711349  1
  Cr  Cr14  1  0.99969723  0.99467312  0.33495760  1
  Cr  Cr15  1  0.49913146  0.49904310  0.08400238  1
  Cr  Cr16  1  0.49433401  0.49830606  0.25221094  1
  Cr  Cr17  1  0.00102525  0.00035427  0.66626895  1
  Cr  Cr18  1  0.49918669  0.49857027  0.41727709  1
  Cr  Cr19  1  0.50025174  0.49974947  0.58334912  1
  Cr  Cr20  1  0.99972816  0.99940480  0.50027622  1
  Cr  Cr21  1  0.50612632  0.50027475  0.74809655  1
  Cr  Cr22  1  0.50315341  0.50438119  0.91491445  1
  Cr  Cr23  1  0.99970956  0.00760679  0.83107772  1
  O  O24  1  0.22060158  0.26629007  0.12797317  1
  O  O25  1  0.26848103  0.75140557  0.03787383  1
  O  O26  1  0.24175358  0.79875857  0.11882184  1
  O  O27  1  0.75021087  0.22530655  0.04534351  1
  O  O28  1  0.17833750  0.31389100  0.29329599  1
  O  O29  1  0.70053583  0.24377391  0.13596821  1
  O  O30  1  0.26825671  0.74794659  0.20561100  1
  O  O31  1  0.79902041  0.70385612  0.04132203  1
  O  O32  1  0.24927340  0.82016525  0.28144048  1
  O  O33  1  0.74301449  0.19549817  0.21866075  1
  O  O34  1  0.17570284  0.32275680  0.45813679  1
  O  O35  1  0.68179579  0.24215791  0.30421924  1
  O  O36  1  0.32408652  0.74611726  0.36355875  1
  O  O37  1  0.80383708  0.69010015  0.21240121  1
  O  O38  1  0.24978190  0.82201637  0.44650134  1
  O  O39  1  0.74734394  0.17572018  0.38787787  1
  O  O40  1  0.17730322  0.32385710  0.62414752  1
  O  O41  1  0.67620274  0.24830693  0.47097655  1
  O  O42  1  0.32278521  0.74968042  0.52957739  1
  O  O43  1  0.82309304  0.67318552  0.37528513  1
  O  O44  1  0.25123662  0.82224780  0.61257763  1
  O  O45  1  0.75011868  0.17627059  0.55394455  1
  O  O46  1  0.18731027  0.32166093  0.78924464  1
  O  O47  1  0.67648166  0.24964195  0.63706723  1
  O  O48  1  0.32390696  0.75354096  0.69538334  1
  O  O49  1  0.82376826  0.67597281  0.54123184  1
  O  O50  1  0.25994681  0.81464143  0.77946029  1
  O  O51  1  0.75315509  0.17528678  0.71965735  1
  O  O52  1  0.22506728  0.27224526  0.95920005  1
  O  O53  1  0.68246600  0.24918417  0.80101698  1
  O  O54  1  0.30427895  0.76791472  0.86410530  1
  O  O55  1  0.82776307  0.67625092  0.70679870  1
  O  O56  1  0.24598470  0.80045737  0.95041794  1
  O  O57  1  0.74649354  0.23316751  0.87683097  1
  O  O58  1  0.70267549  0.24994220  0.96652340  1
  O  O59  1  0.81895034  0.69107325  0.87015666  1
