# generated using pymatgen
data_Mo(PO3)4
_symmetry_space_group_name_H-M   'P 1'
_cell_length_a   7.31267607
_cell_length_b   7.30579435
_cell_length_c   9.92540942
_cell_angle_alpha   79.91063318
_cell_angle_beta   72.22866628
_cell_angle_gamma   110.19500728
_symmetry_Int_Tables_number   1
_chemical_formula_structural   Mo(PO3)4
_chemical_formula_sum   'Mo2 P8 O24'
_cell_volume   449.96290550
_cell_formula_units_Z   2
loop_
 _symmetry_equiv_pos_site_id
 _symmetry_equiv_pos_as_xyz
  1  'x, y, z'
loop_
 _atom_site_type_symbol
 _atom_site_label
 _atom_site_symmetry_multiplicity
 _atom_site_fract_x
 _atom_site_fract_y
 _atom_site_fract_z
 _atom_site_occupancy
  Mo  Mo0  1  0.80507586  0.05524823  0.25018649  1
  Mo  Mo1  1  0.19492414  0.94475177  0.74981351  1
  P  P2  1  0.73244157  0.27198605  0.52008031  1
  P  P3  1  0.50996834  0.71391233  0.80231192  1
  P  P4  1  0.49003166  0.28608767  0.19768808  1
  P  P5  1  0.26755843  0.72801395  0.47991969  1
  P  P6  1  0.29161016  0.25258861  0.98018923  1
  P  P7  1  0.98360814  0.68772885  0.30233769  1
  P  P8  1  0.01639186  0.31227115  0.69766231  1
  P  P9  1  0.70838984  0.74741139  0.01981077  1
  O  O10  1  0.10496183  0.26170901  0.09295277  1
  O  O11  1  0.43474107  0.46722429  0.85352212  1
  O  O12  1  0.56525893  0.53277571  0.14647788  1
  O  O13  1  0.05983308  0.12365995  0.68752451  1
  O  O14  1  0.77943682  0.50386030  0.44258559  1
  O  O15  1  0.30586973  0.19153105  0.34041458  1
  O  O16  1  0.55368641  0.77829816  0.94267558  1
  O  O17  1  0.96877947  0.35361234  0.84054058  1
  O  O18  1  0.24884281  0.08882108  0.90604310  1
  O  O19  1  0.44631359  0.22170184  0.05732442  1
  O  O20  1  0.49551419  0.15576105  0.59359102  1
  O  O21  1  0.89503817  0.73829099  0.90704723  1
  O  O22  1  0.94016692  0.87634005  0.31247549  1
  O  O23  1  0.82097877  0.28855512  0.64657782  1
  O  O24  1  0.31141811  0.74745957  0.81250002  1
  O  O25  1  0.68858189  0.25254043  0.18749998  1
  O  O26  1  0.03122053  0.64638766  0.15945942  1
  O  O27  1  0.69413027  0.80846895  0.65958542  1
  O  O28  1  0.14545386  0.80210592  0.59307378  1
  O  O29  1  0.17902123  0.71144488  0.35342218  1
  O  O30  1  0.50448581  0.84423895  0.40640898  1
  O  O31  1  0.22056318  0.49613970  0.55741441  1
  O  O32  1  0.85454614  0.19789408  0.40692622  1
  O  O33  1  0.75115719  0.91117892  0.09395690  1
