# generated using pymatgen
data_Li2FeP2O7
_symmetry_space_group_name_H-M   'P 1'
_cell_length_a   5.05710033
_cell_length_b   7.00257670
_cell_length_c   8.37020600
_cell_angle_alpha   66.60287997
_cell_angle_beta   88.16597159
_cell_angle_gamma   88.87989576
_symmetry_Int_Tables_number   1
_chemical_formula_structural   Li2FeP2O7
_chemical_formula_sum   'Li4 Fe2 P4 O14'
_cell_volume   271.89236603
_cell_formula_units_Z   2
loop_
 _symmetry_equiv_pos_site_id
 _symmetry_equiv_pos_as_xyz
  1  'x, y, z'
loop_
 _atom_site_type_symbol
 _atom_site_label
 _atom_site_symmetry_multiplicity
 _atom_site_fract_x
 _atom_site_fract_y
 _atom_site_fract_z
 _atom_site_occupancy
  Li  Li0  1  0.22989198  0.80655600  0.56687304  1
  Li  Li1  1  0.77010802  0.19344400  0.43312696  1
  Li  Li2  1  0.28617918  0.84047927  0.99891671  1
  Li  Li3  1  0.71382082  0.15952073  0.00108329  1
  Fe  Fe4  1  0.76139651  0.76628225  0.28236939  1
  Fe  Fe5  1  0.23860349  0.23371775  0.71763061  1
  P  P6  1  0.22463838  0.11695063  0.17887461  1
  P  P7  1  0.71691389  0.55074490  0.69579658  1
  P  P8  1  0.28308611  0.44925510  0.30420342  1
  P  P9  1  0.77536162  0.88304937  0.82112539  1
  O  O10  1  0.07583717  0.91579723  0.78183415  1
  O  O11  1  0.29005888  0.35088285  0.15753692  1
  O  O12  1  0.57494048  0.47528187  0.33485584  1
  O  O13  1  0.60552640  0.03766635  0.67714127  1
  O  O14  1  0.86415998  0.34372713  0.78206852  1
  O  O15  1  0.69552040  0.87380833  0.00260897  1
  O  O16  1  0.30447960  0.12619167  0.99739103  1
  O  O17  1  0.13548518  0.29127890  0.46313615  1
  O  O18  1  0.39447360  0.96233365  0.32285873  1
  O  O19  1  0.86451482  0.70872110  0.53686385  1
  O  O20  1  0.42505952  0.52471813  0.66514416  1
  O  O21  1  0.70994112  0.64911715  0.84246308  1
  O  O22  1  0.13584002  0.65627287  0.21793148  1
  O  O23  1  0.92416283  0.08420277  0.21816585  1
