# generated using pymatgen
data_BeH4NF3
_symmetry_space_group_name_H-M   'P 1'
_cell_length_a   5.83048570
_cell_length_b   4.48699263
_cell_length_c   13.01990606
_cell_angle_alpha   90.00000000
_cell_angle_beta   90.42142389
_cell_angle_gamma   90.00000000
_symmetry_Int_Tables_number   1
_chemical_formula_structural   BeH4NF3
_chemical_formula_sum   'Be4 H16 N4 F12'
_cell_volume   340.60905866
_cell_formula_units_Z   4
loop_
 _symmetry_equiv_pos_site_id
 _symmetry_equiv_pos_as_xyz
  1  'x, y, z'
loop_
 _atom_site_type_symbol
 _atom_site_label
 _atom_site_symmetry_multiplicity
 _atom_site_fract_x
 _atom_site_fract_y
 _atom_site_fract_z
 _atom_site_occupancy
  Be  Be0  1  0.73026539  0.81969705  0.67756190  1
  Be  Be1  1  0.23026539  0.18030295  0.17756190  1
  Be  Be2  1  0.78269581  0.31829746  0.81752976  1
  Be  Be3  1  0.28269581  0.68170254  0.31752976  1
  H  H4  1  0.07120157  0.26837253  0.63781499  1
  H  H5  1  0.57120157  0.73162747  0.13781499  1
  H  H6  1  0.31346372  0.47016411  0.61908097  1
  H  H7  1  0.81346372  0.52983589  0.11908097  1
  H  H8  1  0.32179638  0.08201681  0.61989203  1
  H  H9  1  0.82179638  0.91798319  0.11989203  1
  H  H10  1  0.19518928  0.27200290  0.52338220  1
  H  H11  1  0.69518928  0.72799710  0.02338220  1
  H  H12  1  0.42865601  0.76591530  0.86038397  1
  H  H13  1  0.92865601  0.23408470  0.36038397  1
  H  H14  1  0.18322760  0.57069005  0.88148110  1
  H  H15  1  0.68322760  0.42930995  0.38148110  1
  H  H16  1  0.18413015  0.95946436  0.88016710  1
  H  H17  1  0.68413015  0.04053564  0.38016710  1
  H  H18  1  0.31179340  0.77066000  0.97608838  1
  H  H19  1  0.81179340  0.22934000  0.47608838  1
  N  N20  1  0.22648342  0.27277195  0.60094625  1
  N  N21  1  0.72648342  0.72722805  0.10094625  1
  N  N22  1  0.27578608  0.76591407  0.89912675  1
  N  N23  1  0.77578608  0.23408593  0.39912675  1
  F  F24  1  0.75239059  0.16829242  0.70587214  1
  F  F25  1  0.25239059  0.83170758  0.20587214  1
  F  F26  1  0.91831405  0.74359859  0.60490008  1
  F  F27  1  0.41831405  0.25640141  0.10490008  1
  F  F28  1  0.47833612  0.77290204  0.63991841  1
  F  F29  1  0.97833612  0.22709796  0.13991841  1
  F  F30  1  0.75618244  0.66603593  0.78899700  1
  F  F31  1  0.25618244  0.33396407  0.28899700  1
  F  F32  1  0.60296506  0.23910292  0.89368354  1
  F  F33  1  0.10296506  0.76089708  0.39368354  1
  F  F34  1  0.03692293  0.26849557  0.85197344  1
  F  F35  1  0.53692293  0.73150443  0.35197344  1
