# generated using pymatgen
data_LiMo(PO3)5
_symmetry_space_group_name_H-M   'P 1'
_cell_length_a   10.63651249
_cell_length_b   13.82708042
_cell_length_c   9.46586266
_cell_angle_alpha   90.00000000
_cell_angle_beta   68.13330589
_cell_angle_gamma   90.00000000
_symmetry_Int_Tables_number   1
_chemical_formula_structural   LiMo(PO3)5
_chemical_formula_sum   'Li4 Mo4 P20 O60'
_cell_volume   1292.00049855
_cell_formula_units_Z   4
loop_
 _symmetry_equiv_pos_site_id
 _symmetry_equiv_pos_as_xyz
  1  'x, y, z'
loop_
 _atom_site_type_symbol
 _atom_site_label
 _atom_site_symmetry_multiplicity
 _atom_site_fract_x
 _atom_site_fract_y
 _atom_site_fract_z
 _atom_site_occupancy
  Li  Li0  1  0.51548064  0.86719457  0.92670240  1
  Li  Li1  1  0.48451936  0.36719457  0.07329760  1
  Li  Li2  1  0.01548064  0.63280543  0.92670240  1
  Li  Li3  1  0.98451936  0.13280543  0.07329760  1
  Mo  Mo4  1  0.49819899  0.99922870  0.50179728  1
  Mo  Mo5  1  0.99819899  0.50077130  0.50179728  1
  Mo  Mo6  1  0.50180101  0.49922870  0.49820272  1
  Mo  Mo7  1  0.00180101  0.00077130  0.49820272  1
  P  P8  1  0.73412705  0.58694508  0.17664055  1
  P  P9  1  0.23596486  0.74881294  0.98471847  1
  P  P10  1  0.25583966  0.42426071  0.81698606  1
  P  P11  1  0.76008394  0.85823950  0.47666424  1
  P  P12  1  0.26403514  0.25118706  0.01528153  1
  P  P13  1  0.74243216  0.35661995  0.52597590  1
  P  P14  1  0.26008394  0.64176050  0.47666424  1
  P  P15  1  0.74416034  0.92426071  0.18301394  1
  P  P16  1  0.75756784  0.64338005  0.47402410  1
  P  P17  1  0.75583966  0.07573929  0.81698606  1
  P  P18  1  0.23412705  0.91305492  0.17664055  1
  P  P19  1  0.24416034  0.57573929  0.18301394  1
  P  P20  1  0.25756784  0.85661995  0.47402410  1
  P  P21  1  0.24243216  0.14338005  0.52597590  1
  P  P22  1  0.73991606  0.14176050  0.52333576  1
  P  P23  1  0.76403514  0.24881294  0.01528153  1
  P  P24  1  0.76587295  0.41305492  0.82336045  1
  P  P25  1  0.73596486  0.75118706  0.98471847  1
  P  P26  1  0.23991606  0.35823950  0.52333576  1
  P  P27  1  0.26587295  0.08694508  0.82336045  1
  O  O28  1  0.31118142  0.34399815  0.89479050  1
  O  O29  1  0.11371173  0.52194898  0.28532454  1
  O  O30  1  0.11975003  0.98050624  0.27731295  1
  O  O31  1  0.64116656  0.92211544  0.56515805  1
  O  O32  1  0.88628827  0.02194898  0.71467546  1
  O  O33  1  0.81118142  0.15600185  0.89479050  1
  O  O34  1  0.72032647  0.35035770  0.69935807  1
  O  O35  1  0.88024997  0.48050624  0.72268705  1
  O  O36  1  0.64124820  0.57770386  0.56153756  1
  O  O37  1  0.78453252  0.24916381  0.46658883  1
  O  O38  1  0.22032647  0.14964130  0.69935807  1
  O  O39  1  0.38024997  0.01949376  0.72268705  1
  O  O40  1  0.39021033  0.87690236  0.49538364  1
  O  O41  1  0.18881858  0.65600185  0.10520950  1
  O  O42  1  0.14214424  0.48538584  0.90931759  1
  O  O43  1  0.21203732  0.35651851  0.69796139  1
  O  O44  1  0.10978967  0.12309764  0.50461636  1
  O  O45  1  0.85883344  0.07788456  0.43484195  1
  O  O46  1  0.39263713  0.62207339  0.49846432  1
  O  O47  1  0.88397529  0.73329092  0.93045857  1
  O  O48  1  0.28453252  0.25083619  0.46658883  1
  O  O49  1  0.14116656  0.57788456  0.56515805  1
  O  O50  1  0.71203732  0.14348149  0.69796139  1
  O  O51  1  0.89263713  0.87792661  0.49846432  1
  O  O52  1  0.60736287  0.12207339  0.50153568  1
  O  O53  1  0.84106789  0.33395025  0.88456740  1
  O  O54  1  0.28796268  0.64348149  0.30203861  1
  O  O55  1  0.14124820  0.92229614  0.56153756  1
  O  O56  1  0.64202653  0.45574382  0.93533941  1
  O  O57  1  0.21546748  0.74916381  0.53341117  1
  O  O58  1  0.85785576  0.98538584  0.09068241  1
  O  O59  1  0.89021033  0.62309764  0.49538364  1
  O  O60  1  0.65893211  0.66604975  0.11543260  1
  O  O61  1  0.10736287  0.37792661  0.50153568  1
  O  O62  1  0.65929671  0.76668131  0.88454533  1
  O  O63  1  0.34070329  0.26668131  0.11545467  1
  O  O64  1  0.85875180  0.42229614  0.43846244  1
  O  O65  1  0.35883344  0.42211544  0.43484195  1
  O  O66  1  0.77967353  0.64964130  0.30064193  1
  O  O67  1  0.34106789  0.16604975  0.88456740  1
  O  O68  1  0.35875180  0.07770386  0.43846244  1
  O  O69  1  0.60978967  0.37690236  0.50461636  1
  O  O70  1  0.68881858  0.84399815  0.10520950  1
  O  O71  1  0.84070329  0.23331869  0.11545467  1
  O  O72  1  0.14202653  0.04425618  0.93533941  1
  O  O73  1  0.78796268  0.85651851  0.30203861  1
  O  O74  1  0.71546748  0.75083619  0.53341117  1
  O  O75  1  0.35785576  0.51461416  0.09068241  1
  O  O76  1  0.15929671  0.73331869  0.88454533  1
  O  O77  1  0.27967353  0.85035870  0.30064193  1
  O  O78  1  0.61602471  0.26670908  0.06954143  1
  O  O79  1  0.85797347  0.54425618  0.06466059  1
  O  O80  1  0.38628827  0.47805102  0.71467546  1
  O  O81  1  0.61371173  0.97805102  0.28532454  1
  O  O82  1  0.35797347  0.95574382  0.06466059  1
  O  O83  1  0.64214424  0.01461416  0.90931759  1
  O  O84  1  0.38397529  0.76670908  0.93045857  1
  O  O85  1  0.15893211  0.83395025  0.11543260  1
  O  O86  1  0.11602471  0.23329092  0.06954143  1
  O  O87  1  0.61975003  0.51949376  0.27731295  1
