# generated using pymatgen
data_LiZnPH2O5
_symmetry_space_group_name_H-M   'P 1'
_cell_length_a   10.15418552
_cell_length_b   16.73517420
_cell_length_c   5.07305725
_cell_angle_alpha   90.00000000
_cell_angle_beta   90.00000000
_cell_angle_gamma   90.00000000
_symmetry_Int_Tables_number   1
_chemical_formula_structural   LiZnPH2O5
_chemical_formula_sum   'Li8 Zn8 P8 H16 O40'
_cell_volume   862.07508693
_cell_formula_units_Z   8
loop_
 _symmetry_equiv_pos_site_id
 _symmetry_equiv_pos_as_xyz
  1  'x, y, z'
loop_
 _atom_site_type_symbol
 _atom_site_label
 _atom_site_symmetry_multiplicity
 _atom_site_fract_x
 _atom_site_fract_y
 _atom_site_fract_z
 _atom_site_occupancy
  Li  Li0  1  0.89786412  0.25195633  0.90651367  1
  Li  Li1  1  0.39786412  0.74804367  0.09348633  1
  Li  Li2  1  0.39786412  0.24804367  0.90651367  1
  Li  Li3  1  0.89786412  0.75195633  0.09348633  1
  Li  Li4  1  0.17599030  0.99670594  0.53059390  1
  Li  Li5  1  0.67599030  0.00329406  0.46940610  1
  Li  Li6  1  0.67599030  0.50329406  0.53059390  1
  Li  Li7  1  0.17599030  0.49670594  0.46940610  1
  Zn  Zn8  1  0.15251107  0.19090732  0.54104997  1
  Zn  Zn9  1  0.65251107  0.80909268  0.45895003  1
  Zn  Zn10  1  0.65251107  0.30909268  0.54104997  1
  Zn  Zn11  1  0.15251107  0.69090732  0.45895003  1
  Zn  Zn12  1  0.91801152  0.05669936  0.89163014  1
  Zn  Zn13  1  0.41801152  0.94330064  0.10836986  1
  Zn  Zn14  1  0.41801152  0.44330064  0.89163014  1
  Zn  Zn15  1  0.91801152  0.55669936  0.10836986  1
  P  P16  1  0.84901832  0.15826698  0.41180412  1
  P  P17  1  0.34901832  0.84173302  0.58819588  1
  P  P18  1  0.34901832  0.34173302  0.41180412  1
  P  P19  1  0.84901832  0.65826698  0.58819588  1
  P  P20  1  0.72345149  0.90834632  0.98508177  1
  P  P21  1  0.22345149  0.09165368  0.01491823  1
  P  P22  1  0.22345149  0.59165368  0.98508177  1
  P  P23  1  0.72345149  0.40834632  0.01491823  1
  H  H24  1  0.10635942  0.30283628  0.13408567  1
  H  H25  1  0.60635942  0.69716372  0.86591433  1
  H  H26  1  0.60635942  0.19716372  0.13408567  1
  H  H27  1  0.10635942  0.80283628  0.86591433  1
  H  H28  1  0.00745958  0.37223234  0.09389393  1
  H  H29  1  0.50745958  0.62776766  0.90610607  1
  H  H30  1  0.50745958  0.12776766  0.09389393  1
  H  H31  1  0.00745958  0.87223234  0.90610607  1
  H  H32  1  0.04893430  0.88055911  0.36042248  1
  H  H33  1  0.54893430  0.11944089  0.63957752  1
  H  H34  1  0.54893430  0.61944089  0.36042248  1
  H  H35  1  0.04893430  0.38055911  0.63957752  1
  H  H36  1  0.94610171  0.94729219  0.39709109  1
  H  H37  1  0.44610171  0.05270781  0.60290891  1
  H  H38  1  0.44610171  0.55270781  0.39709109  1
  H  H39  1  0.94610171  0.44729219  0.60290891  1
  O  O40  1  0.95747812  0.20457617  0.56725667  1
  O  O41  1  0.45747812  0.79542383  0.43274333  1
  O  O42  1  0.45747812  0.29542383  0.56725667  1
  O  O43  1  0.95747812  0.70457617  0.43274333  1
  O  O44  1  0.19182759  0.09702177  0.31420073  1
  O  O45  1  0.69182759  0.90297823  0.68579927  1
  O  O46  1  0.69182759  0.40297823  0.31420073  1
  O  O47  1  0.19182759  0.59702177  0.68579927  1
  O  O48  1  0.23886588  0.17677616  0.89275851  1
  O  O49  1  0.73886588  0.82322384  0.10724149  1
  O  O50  1  0.73886588  0.32322384  0.89275851  1
  O  O51  1  0.23886588  0.67677616  0.10724149  1
  O  O52  1  0.83276898  0.07335622  0.53697209  1
  O  O53  1  0.33276898  0.92664378  0.46302791  1
  O  O54  1  0.33276898  0.42664378  0.53697209  1
  O  O55  1  0.83276898  0.57335622  0.46302791  1
  O  O56  1  0.11256335  0.04624257  0.86429246  1
  O  O57  1  0.61256335  0.95375743  0.13570754  1
  O  O58  1  0.61256335  0.45375743  0.86429246  1
  O  O59  1  0.11256335  0.54624257  0.13570754  1
  O  O60  1  0.88700774  0.15128992  0.11660141  1
  O  O61  1  0.38700774  0.84871008  0.88339859  1
  O  O62  1  0.38700774  0.34871008  0.11660141  1
  O  O63  1  0.88700774  0.65128992  0.88339859  1
  O  O64  1  0.21704116  0.29551564  0.43007177  1
  O  O65  1  0.71704116  0.70448436  0.56992823  1
  O  O66  1  0.71704116  0.20448436  0.43007177  1
  O  O67  1  0.21704116  0.79551564  0.56992823  1
  O  O68  1  0.85380735  0.95479597  0.02853118  1
  O  O69  1  0.35380735  0.04520403  0.97146882  1
  O  O70  1  0.35380735  0.54520403  0.02853118  1
  O  O71  1  0.85380735  0.45479597  0.97146882  1
  O  O72  1  0.03957641  0.32332216  0.01048563  1
  O  O73  1  0.53957641  0.67667784  0.98951437  1
  O  O74  1  0.53957641  0.17667784  0.01048563  1
  O  O75  1  0.03957641  0.82332216  0.98951437  1
  O  O76  1  0.02716159  0.92610123  0.47406185  1
  O  O77  1  0.52716159  0.07389877  0.52593815  1
  O  O78  1  0.52716159  0.57389877  0.47406185  1
  O  O79  1  0.02716159  0.42610123  0.52593815  1
