# generated using pymatgen
data_Li6Mn3P8O29
_symmetry_space_group_name_H-M   'P 1'
_cell_length_a   9.69120502
_cell_length_b   9.72978662
_cell_length_c   13.94581563
_cell_angle_alpha   89.98114139
_cell_angle_beta   89.60726506
_cell_angle_gamma   120.23195630
_symmetry_Int_Tables_number   1
_chemical_formula_structural   Li6Mn3P8O29
_chemical_formula_sum   'Li12 Mn6 P16 O58'
_cell_volume   1136.11276537
_cell_formula_units_Z   2
loop_
 _symmetry_equiv_pos_site_id
 _symmetry_equiv_pos_as_xyz
  1  'x, y, z'
loop_
 _atom_site_type_symbol
 _atom_site_label
 _atom_site_symmetry_multiplicity
 _atom_site_fract_x
 _atom_site_fract_y
 _atom_site_fract_z
 _atom_site_occupancy
  Li  Li0  1  0.76503532  0.10111137  0.56194405  1
  Li  Li1  1  0.23546181  0.33882928  0.93861357  1
  Li  Li2  1  0.65647100  0.32582834  0.88825625  1
  Li  Li3  1  0.10180518  0.33790741  0.43924882  1
  Li  Li4  1  0.00443466  0.00100004  0.00320554  1
  Li  Li5  1  0.10411623  0.76300508  0.94188012  1
  Li  Li6  1  0.90146980  0.66410821  0.56037493  1
  Li  Li7  1  0.23949271  0.90200886  0.43644904  1
  Li  Li8  1  0.66756889  0.76554929  0.44062479  1
  Li  Li9  1  0.76495763  0.67240375  0.06262464  1
  Li  Li10  1  0.05844872  0.04312178  0.50917369  1
  Li  Li11  1  0.90558011  0.23485543  0.06222434  1
  Mn  Mn12  1  0.43466598  0.43298553  0.74927700  1
  Mn  Mn13  1  0.99930334  0.43489635  0.25057612  1
  Mn  Mn14  1  0.43710020  0.00181449  0.24661344  1
  Mn  Mn15  1  -0.00005443  0.56514434  0.74952266  1
  Mn  Mn16  1  0.56283305  0.99830594  0.75087492  1
  Mn  Mn17  1  0.56155343  0.56288780  0.24939806  1
  P  P18  1  0.69230499  0.91455957  0.16057261  1
  P  P19  1  0.22856505  0.91267959  0.65431567  1
  P  P20  1  0.77526915  0.68393249  0.84417665  1
  P  P21  1  0.22567218  0.31472932  0.15434558  1
  P  P22  1  0.30746427  0.22107515  0.33668594  1
  P  P23  1  0.90856356  0.68146580  0.34097558  1
  P  P24  1  0.66742545  0.33430323  0.13090335  1
  P  P25  1  0.68428423  0.77191856  0.66107918  1
  P  P26  1  0.09235248  0.31816649  0.65956116  1
  P  P27  1  0.90427650  0.22447732  0.84084656  1
  P  P28  1  0.76962328  0.08791453  0.34416448  1
  P  P29  1  0.33230649  0.66452132  0.86876137  1
  P  P30  1  0.66750098  0.33511299  0.63034404  1
  P  P31  1  0.30650133  0.08558998  0.83868289  1
  P  P32  1  0.33277159  0.66769824  0.36847343  1
  P  P33  1  0.09252799  0.77403230  0.15967284  1
  O  O34  1  0.07811300  0.33706807  0.16189357  1
  O  O35  1  0.07935783  0.74336630  0.66067640  1
  O  O36  1  0.67900117  0.18749829  0.66650356  1
  O  O37  1  0.33428163  0.25691167  0.84234958  1
  O  O38  1  0.66652433  0.92125796  0.66049750  1
  O  O39  1  0.18594844  0.50914444  0.33194481  1
  O  O40  1  0.62360744  0.51760382  0.83165544  1
  O  O41  1  0.47410564  0.10060966  0.83080213  1
  O  O42  1  0.53252538  0.91152617  0.16794240  1
  O  O43  1  0.51311691  0.19195897  0.17152163  1
  O  O44  1  0.79119643  0.99107042  0.25828616  1
  O  O45  1  0.49064516  0.67874657  0.33035768  1
  O  O46  1  0.20273098  0.20897533  0.42018817  1
  O  O47  1  0.00781332  0.22716962  0.56948792  1
  O  O48  1  0.67542148  0.33964908  0.02264641  1
  O  O49  1  0.73676115  0.07756020  0.84110274  1
  O  O50  1  0.33214670  0.66706572  0.47607701  1
  O  O51  1  0.46631723  0.37952576  0.32984439  1
  O  O52  1  0.32184797  0.65714975  0.97604679  1
  O  O53  1  0.38055791  0.47494334  0.16816102  1
  O  O54  1  0.81568587  0.32494865  0.16710868  1
  O  O55  1  0.77314161  0.77412511  0.57082281  1
  O  O56  1  0.99817519  0.79345087  0.25003366  1
  O  O57  1  0.51379485  0.32090809  0.67471858  1
  O  O58  1  0.81434791  0.49336196  0.66953913  1
  O  O59  1  0.66426306  0.74293434  0.16005939  1
  O  O60  1  0.48469023  0.80907931  0.82748004  1
  O  O61  1  0.25905326  0.33726405  0.66132339  1
  O  O62  1  0.09503460  0.47608296  0.67017404  1
  O  O63  1  0.21100577  0.01147557  0.74093774  1
  O  O64  1  0.67753394  0.34328095  0.52322991  1
  O  O65  1  0.88775422  0.37453138  0.82826708  1
  O  O66  1  0.78285053  0.76814201  0.93540032  1
  O  O67  1  0.99528001  0.76852358  0.43086865  1
  O  O68  1  0.80012578  0.00552010  0.07796620  1
  O  O69  1  0.09812985  0.61986302  0.17262800  1
  O  O70  1  0.61786616  0.09629638  0.32866134  1
  O  O71  1  0.90018880  0.52100303  0.32847493  1
  O  O72  1  0.91983982  0.25612339  0.34215791  1
  O  O73  1  0.76851514  0.00524915  0.43653994  1
  O  O74  1  0.92384800  0.66298637  0.84076968  1
  O  O75  1  0.18318250  0.67176128  0.83134525  1
  O  O76  1  0.52278122  0.61938034  0.67331886  1
  O  O77  1  0.33462270  0.07750090  0.33869591  1
  O  O78  1  0.99405125  0.23009857  0.93026177  1
  O  O79  1  0.32301527  0.81379151  0.33002784  1
  O  O80  1  0.32381497  0.50731664  0.83235291  1
  O  O81  1  0.20270231  0.99059376  0.92118550  1
  O  O82  1  0.67800609  0.49220372  0.16700419  1
  O  O83  1  0.38298567  0.90871108  0.66782943  1
  O  O84  1  0.99729943  0.20674887  0.75048905  1
  O  O85  1  0.26002917  0.92056144  0.15982978  1
  O  O86  1  0.73964918  0.66129332  0.34158720  1
  O  O87  1  0.00495903  0.77387865  0.06981964  1
  O  O88  1  0.21578800  0.98392690  0.56144725  1
  O  O89  1  0.79355921  0.79269821  0.75286284  1
  O  O90  1  0.20707562  0.19762383  0.24036297  1
  O  O91  1  0.21243250  0.23263042  0.06089260  1
