# generated using pymatgen
data_Sr2La2Mg(RuO4)3
_symmetry_space_group_name_H-M   'P 1'
_cell_length_a   5.63536623
_cell_length_b   5.63750251
_cell_length_c   15.97138918
_cell_angle_alpha   90.28590692
_cell_angle_beta   90.00000000
_cell_angle_gamma   90.00000000
_symmetry_Int_Tables_number   1
_chemical_formula_structural   Sr2La2Mg(RuO4)3
_chemical_formula_sum   'Sr4 La4 Mg2 Ru6 O24'
_cell_volume   507.39499475
_cell_formula_units_Z   2
loop_
 _symmetry_equiv_pos_site_id
 _symmetry_equiv_pos_as_xyz
  1  'x, y, z'
loop_
 _atom_site_type_symbol
 _atom_site_label
 _atom_site_symmetry_multiplicity
 _atom_site_fract_x
 _atom_site_fract_y
 _atom_site_fract_z
 _atom_site_occupancy
  Sr  Sr0  1  0.00654713  0.02654844  0.12316897  1
  Sr  Sr1  1  0.49345287  0.52654844  0.12316897  1
  Sr  Sr2  1  0.50654713  0.47345156  0.87683103  1
  Sr  Sr3  1  0.99345287  0.97345156  0.87683103  1
  La  La4  1  0.01574819  0.03102453  0.61656387  1
  La  La5  1  0.48425181  0.53102453  0.61656387  1
  La  La6  1  0.51574819  0.46897547  0.38343613  1
  La  La7  1  0.98425181  0.96897547  0.38343613  1
  Mg  Mg8  1  0.00000000  0.50000000  0.50000000  1
  Mg  Mg9  1  0.50000000  0.00000000  0.50000000  1
  Ru  Ru10  1  0.00000000  0.50000000  0.00000000  1
  Ru  Ru11  1  0.00696886  0.50184391  0.24865139  1
  Ru  Ru12  1  0.99303114  0.49815609  0.75134861  1
  Ru  Ru13  1  0.49303114  0.00184391  0.24865139  1
  Ru  Ru14  1  0.50696886  0.99815609  0.75134861  1
  Ru  Ru15  1  0.50000000  0.00000000  0.00000000  1
  O  O16  1  0.08653920  0.51966099  0.36953779  1
  O  O17  1  0.07029372  0.51098257  0.87594879  1
  O  O18  1  0.22042768  0.77993401  0.52304500  1
  O  O19  1  0.22771762  0.77204889  0.01918032  1
  O  O20  1  0.22261574  0.77732745  0.22750469  1
  O  O21  1  0.22417256  0.77382024  0.72417595  1
  O  O22  1  0.27228238  0.27204889  0.01918032  1
  O  O23  1  0.27957232  0.27993401  0.52304500  1
  O  O24  1  0.27738426  0.27732745  0.22750469  1
  O  O25  1  0.27582744  0.27382024  0.72417595  1
  O  O26  1  0.42970628  0.01098257  0.87594879  1
  O  O27  1  0.41346080  0.01966099  0.36953779  1
  O  O28  1  0.58653920  0.98033901  0.63046221  1
  O  O29  1  0.57029372  0.98901743  0.12405121  1
  O  O30  1  0.72417256  0.72617976  0.27582405  1
  O  O31  1  0.72261574  0.72267255  0.77249531  1
  O  O32  1  0.72042768  0.72006599  0.47695500  1
  O  O33  1  0.72771762  0.72795111  0.98081968  1
  O  O34  1  0.77957232  0.22006599  0.47695500  1
  O  O35  1  0.77582744  0.22617976  0.27582405  1
  O  O36  1  0.77738426  0.22267255  0.77249531  1
  O  O37  1  0.77228238  0.22795111  0.98081968  1
  O  O38  1  0.92970628  0.48901743  0.12405121  1
  O  O39  1  0.91346080  0.48033901  0.63046221  1
