# generated using pymatgen
data_Li2MoO3
_symmetry_space_group_name_H-M   'P 1'
_cell_length_a   6.06354631
_cell_length_b   18.15964661
_cell_length_c   16.09507581
_cell_angle_alpha   19.20088072
_cell_angle_beta   55.26568050
_cell_angle_gamma   59.91908205
_symmetry_Int_Tables_number   1
_chemical_formula_structural   Li2MoO3
_chemical_formula_sum   'Li16 Mo8 O24'
_cell_volume   474.52421914
_cell_formula_units_Z   8
loop_
 _symmetry_equiv_pos_site_id
 _symmetry_equiv_pos_as_xyz
  1  'x, y, z'
loop_
 _atom_site_type_symbol
 _atom_site_label
 _atom_site_symmetry_multiplicity
 _atom_site_fract_x
 _atom_site_fract_y
 _atom_site_fract_z
 _atom_site_occupancy
  Li  Li0  1  0.97834231  0.00166856  0.00943203  1
  Li  Li1  1  0.50767832  0.01031632  0.99684311  1
  Li  Li2  1  0.50527059  0.18101669  0.98105190  1
  Li  Li3  1  0.97883303  0.48587443  0.01758692  1
  Li  Li4  1  0.50048632  0.33183647  0.99928872  1
  Li  Li5  1  0.01999883  0.18571909  0.97549094  1
  Li  Li6  1  0.50099687  0.50502893  0.99340589  1
  Li  Li7  1  0.99181390  0.33230335  0.50275598  1
  Li  Li8  1  0.00784748  0.33269354  0.99307060  1
  Li  Li9  1  0.49301807  0.16784888  0.50164353  1
  Li  Li10  1  0.49006918  0.64975657  0.01252111  1
  Li  Li11  1  0.01428086  0.66661195  0.49416198  1
  Li  Li12  1  0.01067685  0.65377672  0.01078002  1
  Li  Li13  1  0.49743676  0.49143433  0.51860740  1
  Li  Li14  1  0.99295334  0.83079171  0.00591334  1
  Li  Li15  1  0.98806856  0.00152456  0.49859590  1
  Mo  Mo16  1  0.48639207  0.01054204  0.49710715  1
  Mo  Mo17  1  0.99863572  0.49517231  0.50160475  1
  Mo  Mo18  1  0.49771926  0.33359178  0.50000313  1
  Mo  Mo19  1  0.49749814  0.82672159  0.00775580  1
  Mo  Mo20  1  0.01968997  0.17090710  0.49128298  1
  Mo  Mo21  1  0.00496400  0.83135003  0.49944716  1
  Mo  Mo22  1  0.49022666  0.66449151  0.50642988  1
  Mo  Mo23  1  0.49543734  0.83223018  0.50033610  1
  O  O24  1  0.23185258  0.07079170  0.26584093  1
  O  O25  1  0.24126574  0.24483969  0.25775464  1
  O  O26  1  0.24064041  0.39597525  0.27063663  1
  O  O27  1  0.73804344  0.07965602  0.26214859  1
  O  O28  1  0.71360506  0.22722364  0.27619854  1
  O  O29  1  0.25288244  0.58086291  0.24666506  1
  O  O30  1  0.27174950  0.07999988  0.75324528  1
  O  O31  1  0.26094903  0.26461657  0.72812585  1
  O  O32  1  0.26171497  0.74678567  0.24462970  1
  O  O33  1  0.74809894  0.40067414  0.27207010  1
  O  O34  1  0.75351679  0.08320327  0.74714970  1
  O  O35  1  0.73679999  0.58292094  0.24754609  1
  O  O36  1  0.24970714  0.91446286  0.25669104  1
  O  O37  1  0.26262956  0.43600342  0.73072477  1
  O  O38  1  0.77095714  0.26300185  0.73440014  1
  O  O39  1  0.23291376  0.57124406  0.76855953  1
  O  O40  1  0.76276856  0.73845926  0.26623361  1
  O  O41  1  0.74848205  0.43688705  0.72436050  1
  O  O42  1  0.73824221  0.91286394  0.25538036  1
  O  O43  1  0.26604781  0.77693724  0.72407374  1
  O  O44  1  0.75533063  0.59560417  0.73962287  1
  O  O45  1  0.25078586  0.91315772  0.75154012  1
  O  O46  1  0.73964472  0.76799046  0.72632385  1
  O  O47  1  0.75098424  0.92110663  0.75449301  1
