# generated using pymatgen
data_Sr12Co10O27
_symmetry_space_group_name_H-M   'P 1'
_cell_length_a   14.16542321
_cell_length_b   10.28680777
_cell_length_c   10.30733687
_cell_angle_alpha   55.69484299
_cell_angle_beta   42.47977812
_cell_angle_gamma   43.00810797
_symmetry_Int_Tables_number   1
_chemical_formula_structural   Sr12Co10O27
_chemical_formula_sum   'Sr12 Co10 O27'
_cell_volume   690.90355696
_cell_formula_units_Z   1
loop_
 _symmetry_equiv_pos_site_id
 _symmetry_equiv_pos_as_xyz
  1  'x, y, z'
loop_
 _atom_site_type_symbol
 _atom_site_label
 _atom_site_symmetry_multiplicity
 _atom_site_fract_x
 _atom_site_fract_y
 _atom_site_fract_z
 _atom_site_occupancy
  Sr  Sr0  1  0.10101395  0.44329991  0.08522355  1
  Sr  Sr1  1  0.03818158  0.27397032  0.55882650  1
  Sr  Sr2  1  0.32687844  0.09267526  0.71884772  1
  Sr  Sr3  1  0.18590635  0.90345989  0.26771094  1
  Sr  Sr4  1  0.59784914  0.44572878  0.09122866  1
  Sr  Sr5  1  0.53631270  0.27211462  0.56394150  1
  Sr  Sr6  1  0.46751206  0.72313076  0.43334094  1
  Sr  Sr7  1  0.41954643  0.54087079  0.90791993  1
  Sr  Sr8  1  0.81174436  0.09518324  0.73275182  1
  Sr  Sr9  1  0.67770910  0.90775082  0.27167990  1
  Sr  Sr10  1  0.95634207  0.71649493  0.45808669  1
  Sr  Sr11  1  0.89520196  0.56118096  0.91944758  1
  Co  Co12  1  0.42429160  0.11215171  0.12577062  1
  Co  Co13  1  0.35114866  0.30234887  0.30413879  1
  Co  Co14  1  0.24842951  0.50151006  0.49872656  1
  Co  Co15  1  0.14909205  0.69285126  0.68327383  1
  Co  Co16  1  0.05733585  0.88779384  0.87066083  1
  Co  Co17  1  0.93220871  0.13106718  0.11814500  1
  Co  Co18  1  0.84309085  0.31263766  0.31593771  1
  Co  Co19  1  0.74954584  0.50110357  0.49959146  1
  Co  Co20  1  0.64566548  0.69636417  0.70054711  1
  Co  Co21  1  0.57437441  0.89107110  0.87499642  1
  O  O22  1  0.06458949  0.19478721  0.03549567  1
  O  O23  1  0.23432121  0.36054311  0.21039910  1
  O  O24  1  0.38618968  0.04920290  0.37387769  1
  O  O25  1  0.14510811  0.38998754  0.57480226  1
  O  O26  1  0.55879627  0.19925202  0.05622068  1
  O  O27  1  0.28142282  0.57294490  0.25434863  1
  O  O28  1  0.02776818  0.75020176  0.60443278  1
  O  O29  1  0.46619403  0.25540632  0.39569342  1
  O  O30  1  0.21411093  0.43249914  0.74541134  1
  O  O31  1  0.35684036  0.60814146  0.42002019  1
  O  O32  1  0.10963598  0.94992489  0.61712660  1
  O  O33  1  0.42173617  0.14954073  0.92624429  1
  O  O34  1  0.25011100  0.65491479  0.81725049  1
  O  O35  1  0.73014686  0.38267238  0.21756612  1
  O  O36  1  0.57682679  0.85517890  0.07273933  1
  O  O37  1  0.89914901  0.03465372  0.35368058  1
  O  O38  1  0.64077964  0.39053638  0.58336416  1
  O  O39  1  0.78624449  0.57702715  0.25370892  1
  O  O40  1  0.53470177  0.74625567  0.60284858  1
  O  O41  1  0.96830464  0.24756534  0.38609359  1
  O  O42  1  0.72046960  0.42124770  0.74403084  1
  O  O43  1  0.43957584  0.79360361  0.94353326  1
  O  O44  1  0.85403209  0.60860328  0.42944547  1
  O  O45  1  0.61323555  0.94983514  0.63027454  1
  O  O46  1  0.91423384  0.11925278  0.96557180  1
  O  O47  1  0.75895156  0.63816304  0.79973644  1
  O  O48  1  0.93764301  0.80129842  0.94728915  1
