# generated using pymatgen
data_Li2MnP2O7
_symmetry_space_group_name_H-M   'P 1'
_cell_length_a   5.08664723
_cell_length_b   7.09992263
_cell_length_c   8.36129451
_cell_angle_alpha   66.74954741
_cell_angle_beta   88.29312647
_cell_angle_gamma   89.59687531
_symmetry_Int_Tables_number   1
_chemical_formula_structural   Li2MnP2O7
_chemical_formula_sum   'Li4 Mn2 P4 O14'
_cell_volume   277.31644938
_cell_formula_units_Z   2
loop_
 _symmetry_equiv_pos_site_id
 _symmetry_equiv_pos_as_xyz
  1  'x, y, z'
loop_
 _atom_site_type_symbol
 _atom_site_label
 _atom_site_symmetry_multiplicity
 _atom_site_fract_x
 _atom_site_fract_y
 _atom_site_fract_z
 _atom_site_occupancy
  Li  Li0  1  0.23525012  0.81571856  0.57352988  1
  Li  Li1  1  0.76474988  0.18428144  0.42647012  1
  Li  Li2  1  0.28626080  0.84773647  0.99509931  1
  Li  Li3  1  0.71373920  0.15226353  0.00490069  1
  Mn  Mn4  1  0.76817827  0.75378075  0.28610491  1
  Mn  Mn5  1  0.23182173  0.24621925  0.71389509  1
  P  P6  1  0.77619198  0.88211102  0.82102834  1
  P  P7  1  0.28280760  0.44794703  0.29943497  1
  P  P8  1  0.22380802  0.11788898  0.17897166  1
  P  P9  1  0.71719240  0.55205297  0.70056503  1
  O  O10  1  0.85006665  0.34332541  0.78719183  1
  O  O11  1  0.71449371  0.64737882  0.84842500  1
  O  O12  1  0.42687305  0.53604348  0.66259660  1
  O  O13  1  0.07414350  0.91880918  0.78121654  1
  O  O14  1  0.92585650  0.08119082  0.21878346  1
  O  O15  1  0.60553223  0.02718216  0.67642163  1
  O  O16  1  0.69628158  0.87599363  0.00236325  1
  O  O17  1  0.57312695  0.46395652  0.33740340  1
  O  O18  1  0.39446777  0.97281784  0.32357837  1
  O  O19  1  0.87588720  0.70229569  0.54378946  1
  O  O20  1  0.30371842  0.12400637  0.99763675  1
  O  O21  1  0.12411280  0.29770431  0.45621054  1
  O  O22  1  0.14993335  0.65667459  0.21280817  1
  O  O23  1  0.28550629  0.35262118  0.15157500  1
