# generated using pymatgen
data_NaCaAlH2OF6
_symmetry_space_group_name_H-M   'P 1'
_cell_length_a   5.67103662
_cell_length_b   5.60266444
_cell_length_c   16.28495952
_cell_angle_alpha   90.00000000
_cell_angle_beta   95.93259188
_cell_angle_gamma   90.00000000
_symmetry_Int_Tables_number   1
_chemical_formula_structural   NaCaAlH2OF6
_chemical_formula_sum   'Na4 Ca4 Al4 H8 O4 F24'
_cell_volume   514.64942801
_cell_formula_units_Z   4
loop_
 _symmetry_equiv_pos_site_id
 _symmetry_equiv_pos_as_xyz
  1  'x, y, z'
loop_
 _atom_site_type_symbol
 _atom_site_label
 _atom_site_symmetry_multiplicity
 _atom_site_fract_x
 _atom_site_fract_y
 _atom_site_fract_z
 _atom_site_occupancy
  Na  Na0  1  0.25365459  0.35683960  0.74751769  1
  Na  Na1  1  0.74634541  0.85683960  0.75248231  1
  Na  Na2  1  0.74634541  0.64316040  0.25248231  1
  Na  Na3  1  0.25365459  0.14316040  0.24751769  1
  Ca  Ca4  1  0.19536476  0.82898963  0.59767902  1
  Ca  Ca5  1  0.80463524  0.32898963  0.90232098  1
  Ca  Ca6  1  0.80463524  0.17101037  0.40232098  1
  Ca  Ca7  1  0.19536476  0.67101037  0.09767902  1
  Al  Al8  1  0.71929287  0.32169557  0.63899880  1
  Al  Al9  1  0.28070713  0.82169557  0.86100120  1
  Al  Al10  1  0.28070713  0.67830443  0.36100120  1
  Al  Al11  1  0.71929287  0.17830443  0.13899880  1
  H  H12  1  0.70387480  0.88820198  0.55119021  1
  H  H13  1  0.29612520  0.38820198  0.94880979  1
  H  H14  1  0.29612520  0.11179802  0.44880979  1
  H  H15  1  0.70387480  0.61179802  0.05119021  1
  H  H16  1  0.74819842  0.67881526  0.49022644  1
  H  H17  1  0.25180158  0.17881526  0.00977356  1
  H  H18  1  0.25180158  0.32118474  0.50977356  1
  H  H19  1  0.74819842  0.82118474  0.99022644  1
  O  O20  1  0.80788031  0.83734721  0.50911130  1
  O  O21  1  0.19211969  0.33734721  0.99088870  1
  O  O22  1  0.19211969  0.16265279  0.49088870  1
  O  O23  1  0.80788031  0.66265279  0.00911130  1
  F  F24  1  0.55597467  0.03046196  0.62528943  1
  F  F25  1  0.44402533  0.53046196  0.87471057  1
  F  F26  1  0.44402533  0.96953804  0.37471057  1
  F  F27  1  0.55597467  0.46953804  0.12528943  1
  F  F28  1  0.98813087  0.13428219  0.65547321  1
  F  F29  1  0.01186913  0.63428219  0.84452679  1
  F  F30  1  0.01186913  0.86571781  0.34452679  1
  F  F31  1  0.98813087  0.36571781  0.15547321  1
  F  F32  1  0.43992991  0.48648704  0.62741561  1
  F  F33  1  0.56007009  0.98648704  0.87258439  1
  F  F34  1  0.56007009  0.51351296  0.37258439  1
  F  F35  1  0.43992991  0.01351296  0.12741561  1
  F  F36  1  0.90463330  0.58641251  0.65774864  1
  F  F37  1  0.09536670  0.08641251  0.84225136  1
  F  F38  1  0.09536670  0.41358749  0.34225136  1
  F  F39  1  0.90463330  0.91358749  0.15774864  1
  F  F40  1  0.68607187  0.30029623  0.75019870  1
  F  F41  1  0.31392813  0.80029623  0.74980130  1
  F  F42  1  0.31392813  0.69970377  0.24980130  1
  F  F43  1  0.68607187  0.19970377  0.25019870  1
  F  F44  1  0.73561563  0.33855022  0.52860367  1
  F  F45  1  0.26438437  0.83855022  0.97139633  1
  F  F46  1  0.26438437  0.66144978  0.47139633  1
  F  F47  1  0.73561563  0.16144978  0.02860367  1
