# generated using pymatgen
data_Al13Si5H18ClO38
_symmetry_space_group_name_H-M   'P 1'
_cell_length_a   9.94786656
_cell_length_b   9.94786656
_cell_length_c   9.94786656
_cell_angle_alpha   60.00000000
_cell_angle_beta   90.00000000
_cell_angle_gamma   120.00000000
_symmetry_Int_Tables_number   1
_chemical_formula_structural   Al13Si5H18ClO38
_chemical_formula_sum   'Al13 Si5 H18 Cl1 O38'
_cell_volume   696.10516272
_cell_formula_units_Z   1
loop_
 _symmetry_equiv_pos_site_id
 _symmetry_equiv_pos_as_xyz
  1  'x, y, z'
loop_
 _atom_site_type_symbol
 _atom_site_label
 _atom_site_symmetry_multiplicity
 _atom_site_fract_x
 _atom_site_fract_y
 _atom_site_fract_z
 _atom_site_occupancy
  Al  Al0  1  0.76581201  0.17196659  0.06222140  1
  Al  Al1  1  0.40615358  0.17196659  0.06222140  1
  Al  Al2  1  0.76581201  0.53162502  0.06222140  1
  Al  Al3  1  0.76581201  0.53162502  0.40615358  1
  Al  Al4  1  0.76581201  0.17196659  0.76581201  1
  Al  Al5  1  0.76581201  0.82803341  0.40615358  1
  Al  Al6  1  0.75000000  0.50000000  0.75000000  1
  Al  Al7  1  0.40615358  0.17196659  0.76581201  1
  Al  Al8  1  0.40615358  0.46837498  0.76581201  1
  Al  Al9  1  0.76581201  0.82803341  0.76581201  1
  Al  Al10  1  0.06222140  0.82803341  0.40615358  1
  Al  Al11  1  0.06222140  0.46837498  0.76581201  1
  Al  Al12  1  0.06222140  0.82803341  0.76581201  1
  Si  Si13  1  0.11320992  0.22641985  0.11320992  1
  Si  Si14  1  0.66036923  0.77358015  0.11320992  1
  Si  Si15  1  0.25000000  0.50000000  0.25000000  1
  Si  Si16  1  0.11320992  0.22641985  0.66036923  1
  Si  Si17  1  0.11320992  0.77358015  0.11320992  1
  H  H18  1  0.48238380  0.96476760  0.11858840  1
  H  H19  1  0.91664400  0.39902780  0.11858840  1
  H  H20  1  0.65192150  0.00000000  0.34807850  1
  H  H21  1  0.48238380  0.39902780  0.11858840  1
  H  H22  1  0.65192150  0.00000000  0.65192150  1
  H  H23  1  0.34807850  0.00000000  0.34807850  1
  H  H24  1  0.65192150  0.30384400  0.34807850  1
  H  H25  1  0.91664400  0.39902780  0.48238380  1
  H  H26  1  0.34807850  0.00000000  0.65192150  1
  H  H27  1  0.48238380  0.96476760  0.91664400  1
  H  H28  1  0.48238380  0.39902780  0.48238380  1
  H  H29  1  0.48238380  0.60097220  0.48238380  1
  H  H30  1  0.91664400  0.03523240  0.48238380  1
  H  H31  1  0.48238380  0.60097220  0.91664400  1
  H  H32  1  0.34807850  0.69615600  0.65192150  1
  H  H33  1  0.11858840  0.60097220  0.48238380  1
  H  H34  1  0.11858840  0.03523240  0.48238380  1
  H  H35  1  0.11858840  0.60097220  0.91664400  1
  Cl  Cl36  1  0.50000000  0.00000000  0.50000000  1
  O  O37  1  0.72234045  0.00000000  0.27765955  1
  O  O38  1  0.54442813  0.08885526  0.09862329  1
  O  O39  1  0.81252145  0.35694858  0.09862329  1
  O  O40  1  0.54442813  0.35694858  0.09862329  1
  O  O41  1  0.27765955  0.00000000  0.27765955  1
  O  O42  1  0.72234045  0.44468090  0.27765955  1
  O  O43  1  0.72234045  0.00000000  0.72234045  1
  O  O44  1  0.27497099  0.27674906  0.00177907  1
  O  O45  1  0.72147187  0.72325094  0.00177907  1
  O  O46  1  0.81252145  0.35694858  0.54442813  1
  O  O47  1  0.00177907  0.00355714  0.27497099  1
  O  O48  1  0.00177907  0.27674906  0.00177907  1
  O  O49  1  0.72147187  0.72325094  0.27497099  1
  O  O50  1  0.72147187  0.99644286  0.00177907  1
  O  O51  1  0.82486636  0.64973172  0.52540192  1
  O  O52  1  0.82486636  0.35026828  0.82486636  1
  O  O53  1  0.54442813  0.08885526  0.81252145  1
  O  O54  1  0.54442813  0.35694858  0.54442813  1
  O  O55  1  0.18258567  0.36517034  0.18258567  1
  O  O56  1  0.45224399  0.63482966  0.18258567  1
  O  O57  1  0.27765955  0.00000000  0.72234045  1
  O  O58  1  0.18258567  0.63482966  0.18258567  1
  O  O59  1  0.18258567  0.36517034  0.45224399  1
  O  O60  1  0.54442813  0.64305142  0.54442813  1
  O  O61  1  0.81252145  0.91114474  0.54442813  1
  O  O62  1  0.52540192  0.35026828  0.82486636  1
  O  O63  1  0.82486636  0.64973172  0.82486636  1
  O  O64  1  0.27497099  0.99644286  0.00177907  1
  O  O65  1  0.00177907  0.00355714  0.72147187  1
  O  O66  1  0.27497099  0.27674906  0.72147187  1
  O  O67  1  0.00177907  0.72325094  0.00177907  1
  O  O68  1  0.54442813  0.64305142  0.81252145  1
  O  O69  1  0.00177907  0.27674906  0.72147187  1
  O  O70  1  0.00177907  0.72325094  0.27497099  1
  O  O71  1  0.27765955  0.55531910  0.72234045  1
  O  O72  1  0.09862329  0.64305142  0.54442813  1
  O  O73  1  0.09862329  0.91114474  0.54442813  1
  O  O74  1  0.09862329  0.64305142  0.81252145  1
