# generated using pymatgen
data_Na4GeH28(Se2O7)2
_symmetry_space_group_name_H-M   'P 1'
_cell_length_a   8.58518909
_cell_length_b   8.58518909
_cell_length_c   8.21802523
_cell_angle_alpha   76.09692795
_cell_angle_beta   103.90307205
_cell_angle_gamma   97.46020574
_symmetry_Int_Tables_number   1
_chemical_formula_structural   Na4GeH28(Se2O7)2
_chemical_formula_sum   'Na4 Ge1 H28 Se4 O14'
_cell_volume   569.06941891
_cell_formula_units_Z   1
loop_
 _symmetry_equiv_pos_site_id
 _symmetry_equiv_pos_as_xyz
  1  'x, y, z'
loop_
 _atom_site_type_symbol
 _atom_site_label
 _atom_site_symmetry_multiplicity
 _atom_site_fract_x
 _atom_site_fract_y
 _atom_site_fract_z
 _atom_site_occupancy
  Na  Na0  1  0.13566842  0.42793191  0.40820336  1
  Na  Na1  1  0.42793191  0.13566842  0.59179664  1
  Na  Na2  1  0.41348304  0.74473154  0.68453944  1
  Na  Na3  1  0.74473154  0.41348304  0.31546056  1
  Ge  Ge4  1  0.00404242  0.00404242  0.00000000  1
  H  H5  1  0.62405527  0.45284281  0.91011744  1
  H  H6  1  0.45284281  0.62405527  0.08988256  1
  H  H7  1  0.71003389  0.61340558  0.81741973  1
  H  H8  1  0.61340558  0.71003389  0.18258027  1
  H  H9  1  0.19985394  0.49683840  0.91519244  1
  H  H10  1  0.49683840  0.19985394  0.08480756  1
  H  H11  1  0.18093866  0.67916792  0.88923561  1
  H  H12  1  0.67916792  0.18093866  0.11076439  1
  H  H13  1  0.61404101  0.94384686  0.94191663  1
  H  H14  1  0.94384686  0.61404101  0.05808337  1
  H  H15  1  0.43199473  0.95578562  0.93392557  1
  H  H16  1  0.95578562  0.43199473  0.06607443  1
  H  H17  1  0.15619559  0.94232241  0.43078057  1
  H  H18  1  0.94232241  0.15619559  0.56921943  1
  H  H19  1  0.11604941  0.91092551  0.61482232  1
  H  H20  1  0.91092551  0.11604941  0.38517768  1
  H  H21  1  0.35986258  0.39486346  0.74322688  1
  H  H22  1  0.39486346  0.35986258  0.25677312  1
  H  H23  1  0.20355392  0.28225257  0.75839459  1
  H  H24  1  0.28225257  0.20355392  0.24160541  1
  H  H25  1  0.74207450  0.30053283  0.65745901  1
  H  H26  1  0.30053283  0.74207450  0.34254099  1
  H  H27  1  0.62136835  0.42457436  0.63714795  1
  H  H28  1  0.42457436  0.62136835  0.36285205  1
  H  H29  1  0.68242285  0.92750741  0.55828918  1
  H  H30  1  0.92750741  0.68242285  0.44171082  1
  H  H31  1  0.54401589  0.94228133  0.38918581  1
  H  H32  1  0.94228133  0.54401589  0.61081419  1
  Se  Se33  1  0.98115149  0.28042530  0.86425534  1
  Se  Se34  1  0.28042530  0.98115149  0.13574466  1
  Se  Se35  1  0.93046500  0.83628042  0.79387581  1
  Se  Se36  1  0.83628042  0.93046500  0.20612419  1
  O  O37  1  0.61121569  0.53966616  0.80474556  1
  O  O38  1  0.53966616  0.61121569  0.19525444  1
  O  O39  1  0.26348117  0.60237092  0.90705838  1
  O  O40  1  0.60237092  0.26348117  0.09294162  1
  O  O41  1  0.50662008  0.94160573  0.86394186  1
  O  O42  1  0.94160573  0.50662008  0.13605814  1
  O  O43  1  0.20595954  0.92750270  0.55384124  1
  O  O44  1  0.92750270  0.20595954  0.44615876  1
  O  O45  1  0.29176667  0.31064373  0.69341352  1
  O  O46  1  0.31064373  0.29176667  0.30658648  1
  O  O47  1  0.64137695  0.34276091  0.57939136  1
  O  O48  1  0.34276091  0.64137695  0.42060864  1
  O  O49  1  0.56787730  0.94556527  0.51115222  1
  O  O50  1  0.94556527  0.56787730  0.48884778  1
