# generated using pymatgen
data_NaCaAlH2OF6
_symmetry_space_group_name_H-M   'P 1'
_cell_length_a   8.07319741
_cell_length_b   9.58772508
_cell_length_c   10.04886506
_cell_angle_alpha   48.48158142
_cell_angle_beta   62.77369380
_cell_angle_gamma   69.13573768
_symmetry_Int_Tables_number   1
_chemical_formula_structural   NaCaAlH2OF6
_chemical_formula_sum   'Na4 Ca4 Al4 H8 O4 F24'
_cell_volume   516.22439069
_cell_formula_units_Z   4
loop_
 _symmetry_equiv_pos_site_id
 _symmetry_equiv_pos_as_xyz
  1  'x, y, z'
loop_
 _atom_site_type_symbol
 _atom_site_label
 _atom_site_symmetry_multiplicity
 _atom_site_fract_x
 _atom_site_fract_y
 _atom_site_fract_z
 _atom_site_occupancy
  Na  Na0  1  0.63135876  0.86444332  0.12754193  1
  Na  Na1  1  0.38555668  0.61864124  0.87334401  1
  Na  Na2  1  0.86444332  0.63135876  0.87665599  1
  Na  Na3  1  0.61864124  0.38555668  0.62245807  1
  Ca  Ca4  1  0.20281909  0.20281909  0.04718091  1
  Ca  Ca5  1  0.04718091  0.04718091  0.70281909  1
  Ca  Ca6  1  0.80434029  0.80434029  0.44565971  1
  Ca  Ca7  1  0.44565971  0.44565971  0.30434029  1
  Al  Al8  1  0.97283041  0.52420779  0.21962726  1
  Al  Al9  1  0.72579221  0.27716959  0.96666546  1
  Al  Al10  1  0.52420779  0.97283041  0.78333454  1
  Al  Al11  1  0.27716959  0.72579221  0.53037274  1
  H  H12  1  0.11916822  0.89767058  0.07799257  1
  H  H13  1  0.35232942  0.13083178  0.34483136  1
  H  H14  1  0.20879488  0.81290705  0.22981800  1
  H  H15  1  0.43709295  0.04120512  0.50151994  1
  H  H16  1  0.89767058  0.11916822  0.40516864  1
  H  H17  1  0.13083178  0.35232942  0.67200743  1
  H  H18  1  0.81290705  0.20879488  0.24848006  1
  H  H19  1  0.04120512  0.43709295  0.52018200  1
  O  O20  1  0.10519221  0.89756383  0.18004566  1
  O  O21  1  0.35243617  0.14480779  0.43280171  1
  O  O22  1  0.89756383  0.10519221  0.31719829  1
  O  O23  1  0.14480779  0.35243617  0.56995434  1
  F  F24  1  0.03814278  0.71199302  0.57068280  1
  F  F25  1  0.53800698  0.21185722  0.57081861  1
  F  F26  1  0.29490756  0.47519705  0.72518852  1
  F  F27  1  0.77480295  0.95509244  0.74529313  1
  F  F28  1  0.06403803  0.45699863  0.06348036  1
  F  F29  1  0.79300137  0.18596197  0.83451703  1
  F  F30  1  0.88084206  0.58282292  0.38627842  1
  F  F31  1  0.66717708  0.36915794  0.09994340  1
  F  F32  1  0.97101084  0.28044862  0.92436409  1
  F  F33  1  0.96955138  0.27898916  0.42582356  1
  F  F34  1  0.72665314  0.51679316  0.75349945  1
  F  F35  1  0.73320684  0.52334686  0.24694575  1
  F  F36  1  0.71199302  0.03814278  0.17918139  1
  F  F37  1  0.21185722  0.53800698  0.17931720  1
  F  F38  1  0.47519705  0.29490756  0.00470687  1
  F  F39  1  0.95509244  0.77480295  0.02481148  1
  F  F40  1  0.45699863  0.06403803  0.91548297  1
  F  F41  1  0.18596197  0.79300137  0.68651964  1
  F  F42  1  0.58282292  0.88084206  0.65005660  1
  F  F43  1  0.36915794  0.66717708  0.36372158  1
  F  F44  1  0.28044862  0.97101084  0.32417644  1
  F  F45  1  0.27898916  0.96955138  0.82563591  1
  F  F46  1  0.51679316  0.72665314  0.50305425  1
  F  F47  1  0.52334686  0.73320684  0.99650055  1
