# generated using pymatgen
data_Li23Ni17O40
_symmetry_space_group_name_H-M   'P 1'
_cell_length_a   4.98045137
_cell_length_b   50.18205698
_cell_length_c   14.50804046
_cell_angle_alpha   22.39421954
_cell_angle_beta   29.53715391
_cell_angle_gamma   33.08559190
_symmetry_Int_Tables_number   1
_chemical_formula_structural   Li23Ni17O40
_chemical_formula_sum   'Li23 Ni17 O40'
_cell_volume   670.14448053
_cell_formula_units_Z   1
loop_
 _symmetry_equiv_pos_site_id
 _symmetry_equiv_pos_as_xyz
  1  'x, y, z'
loop_
 _atom_site_type_symbol
 _atom_site_label
 _atom_site_symmetry_multiplicity
 _atom_site_fract_x
 _atom_site_fract_y
 _atom_site_fract_z
 _atom_site_occupancy
  Li  Li0  1  0.50071890  0.02485545  0.24920589  1
  Li  Li1  1  0.50280302  0.12598705  0.24514898  1
  Li  Li2  1  0.49928110  0.07514455  0.75079411  1
  Li  Li3  1  0.49031718  0.22592536  0.25210086  1
  Li  Li4  1  0.00029218  0.25031999  0.49886837  1
  Li  Li5  1  0.49824081  0.17757439  0.74251644  1
  Li  Li6  1  0.50049882  0.32286088  0.25694560  1
  Li  Li7  1  0.50723977  0.27454520  0.74645587  1
  Li  Li8  1  0.50327453  0.42530324  0.24569562  1
  Li  Li9  1  0.49602311  0.37484303  0.75419694  1
  Li  Li10  1  0.49288636  0.52584658  0.25207321  1
  Li  Li11  1  0.50018046  0.47719585  0.74242942  1
  Li  Li12  1  0.49981954  0.62280415  0.25757058  1
  Li  Li13  1  0.00000000  0.55000000  0.50000000  1
  Li  Li14  1  0.50711364  0.57415342  0.74792679  1
  Li  Li15  1  0.50397689  0.72515697  0.24580306  1
  Li  Li16  1  0.49672547  0.67469676  0.75430438  1
  Li  Li17  1  0.49276023  0.82545480  0.25354413  1
  Li  Li18  1  0.99970782  0.84968001  0.50113163  1
  Li  Li19  1  0.49950118  0.77713912  0.74305440  1
  Li  Li20  1  0.50175919  0.92242561  0.25748356  1
  Li  Li21  1  0.50968282  0.87407464  0.74789914  1
  Li  Li22  1  0.49719698  0.97401295  0.75485102  1
  Ni  Ni23  1  0.00281173  0.99979758  0.00081735  1
  Ni  Ni24  1  0.99718827  0.10020242  0.99918265  1
  Ni  Ni25  1  0.00000000  0.05000000  0.50000000  1
  Ni  Ni26  1  -0.00295606  0.19983829  -0.00028253  1
  Ni  Ni27  1  0.00094955  0.15043616  0.49838285  1
  Ni  Ni28  1  0.00006186  0.40013816  0.99955958  1
  Ni  Ni29  1  0.99803409  0.29986409  0.00313469  1
  Ni  Ni30  1  0.00355349  0.34993137  0.49811941  1
  Ni  Ni31  1  -0.00118153  0.50024047  0.99759020  1
  Ni  Ni32  1  0.99993814  0.69986184  0.00044042  1
  Ni  Ni33  1  0.99680474  0.45041031  0.50062409  1
  Ni  Ni34  1  0.00118153  0.59975953  0.00240980  1
  Ni  Ni35  1  0.00196591  0.80013591  0.99686531  1
  Ni  Ni36  1  0.00319526  0.64958969  0.49937591  1
  Ni  Ni37  1  0.99644651  0.75006863  0.50188059  1
  Ni  Ni38  1  0.00295606  0.90016171  0.00028253  1
  Ni  Ni39  1  -0.00094955  0.94956384  0.50161715  1
  O  O40  1  0.24621432  0.01506239  0.12611094  1
  O  O41  1  0.27011233  0.11498255  0.11302187  1
  O  O42  1  0.76438673  0.03660529  0.36392041  1
  O  O43  1  0.23561327  0.06339471  0.63607959  1
  O  O44  1  0.27757814  0.21071877  0.12812666  1
  O  O45  1  0.72679031  0.13966659  0.36496271  1
  O  O46  1  0.27664831  0.31813044  0.10794065  1
  O  O47  1  0.28776566  0.15808329  0.63601625  1
  O  O48  1  0.75378568  0.08493761  0.87388906  1
  O  O49  1  0.78099256  0.23507922  0.36610087  1
  O  O50  1  0.30294104  0.41142280  0.11708974  1
  O  O51  1  0.21295365  0.26443815  0.63785798  1
  O  O52  1  0.72524223  0.34295037  0.35499017  1
  O  O53  1  0.71552268  0.18233653  0.89431063  1
  O  O54  1  0.26115472  0.36358357  0.62930327  1
  O  O55  1  0.27980357  0.51165442  0.12367169  1
  O  O56  1  0.73823565  0.43648133  0.37058116  1
  O  O57  1  0.72286296  0.28713701  0.87876733  1
  O  O58  1  0.27818946  0.61789740  0.10829469  1
  O  O59  1  0.27599776  0.45716009  0.64438733  1
  O  O60  1  0.78568171  0.53534865  0.36371148  1
  O  O61  1  0.69769642  0.38934982  0.88026574  1
  O  O62  1  0.21431829  0.56465135  0.63628852  1
  O  O63  1  0.30230358  0.71065018  0.11973426  1
  O  O64  1  0.72181054  0.48210260  0.89170531  1
  O  O65  1  0.72400224  0.64283991  0.35561267  1
  O  O66  1  0.26176435  0.66351867  0.62941884  1
  O  O67  1  0.27713704  0.81286299  0.12123267  1
  O  O68  1  0.73884528  0.73641643  0.37069673  1
  O  O69  1  0.72019643  0.58834558  0.87632831  1
  O  O70  1  0.27475777  0.75704963  0.64500983  1
  O  O71  1  0.28447732  0.91766347  0.10568937  1
  O  O72  1  0.69705896  0.68857720  0.88291026  1
  O  O73  1  0.78704635  0.83556185  0.36214202  1
  O  O74  1  0.21900744  0.86492078  0.63389913  1
  O  O75  1  0.72335169  0.78186956  0.89205935  1
  O  O76  1  0.71223434  0.94191671  0.36398375  1
  O  O77  1  0.27320969  0.96033341  0.63503729  1
  O  O78  1  0.72242186  0.88928123  0.87187334  1
  O  O79  1  0.72988767  0.98501745  0.88697813  1
