# generated using pymatgen
data_Ca5Ho3Ti5Mn3O24
_symmetry_space_group_name_H-M   'P 1'
_cell_length_a   5.37524881
_cell_length_b   5.61694929
_cell_length_c   15.28231444
_cell_angle_alpha   90.12174707
_cell_angle_beta   89.83424276
_cell_angle_gamma   89.49221150
_symmetry_Int_Tables_number   1
_chemical_formula_structural   Ca5Ho3Ti5Mn3O24
_chemical_formula_sum   'Ca5 Ho3 Ti5 Mn3 O24'
_cell_volume   461.39016022
_cell_formula_units_Z   1
loop_
 _symmetry_equiv_pos_site_id
 _symmetry_equiv_pos_as_xyz
  1  'x, y, z'
loop_
 _atom_site_type_symbol
 _atom_site_label
 _atom_site_symmetry_multiplicity
 _atom_site_fract_x
 _atom_site_fract_y
 _atom_site_fract_z
 _atom_site_occupancy
  Ca  Ca0  1  0.01158249  0.94938674  0.37628033  1
  Ca  Ca1  1  0.01301821  0.94193238  0.87193083  1
  Ca  Ca2  1  0.49051371  0.44752314  0.37628722  1
  Ca  Ca3  1  0.50981259  0.54625032  0.12714241  1
  Ca  Ca4  1  0.99175964  0.04587170  0.12782636  1
  Ho  Ho5  1  0.48512670  0.42965209  0.87103488  1
  Ho  Ho6  1  0.51691108  0.57239591  0.62635121  1
  Ho  Ho7  1  0.97848060  0.07305333  0.62530786  1
  Ti  Ti8  1  0.99149795  0.48274662  0.99874672  1
  Ti  Ti9  1  0.00976093  0.49795346  0.25145357  1
  Ti  Ti10  1  0.00739177  0.50451905  0.49998964  1
  Ti  Ti11  1  0.51100667  0.00314374  0.25088853  1
  Ti  Ti12  1  0.50628142  0.97663786  0.99837487  1
  Mn  Mn13  1  0.00263199  0.50434727  0.74994195  1
  Mn  Mn14  1  0.49630529  0.99949625  0.74940174  1
  Mn  Mn15  1  0.49189192  0.00570658  0.50062484  1
  O  O16  1  0.07744322  0.47818437  0.12368742  1
  O  O17  1  0.11215711  0.46618991  0.62563306  1
  O  O18  1  0.18403772  0.19789948  0.48004314  1
  O  O19  1  0.20234342  0.20944268  0.27050796  1
  O  O20  1  0.21268928  0.19328799  0.77556610  1
  O  O21  1  0.21002008  0.21800966  0.97320348  1
  O  O22  1  0.30416724  0.68020413  0.77384402  1
  O  O23  1  0.28673508  0.70590602  0.27034598  1
  O  O24  1  0.29677621  0.68079389  0.48056805  1
  O  O25  1  0.30842002  0.70266956  0.97196369  1
  O  O26  1  0.41836581  0.97738174  0.12311559  1
  O  O27  1  0.38651750  0.96785829  0.62230562  1
  O  O28  1  0.59300017  0.03630738  0.87729689  1
  O  O29  1  0.57886405  0.02614226  0.37555058  1
  O  O30  1  0.70583097  0.30122401  0.01906059  1
  O  O31  1  0.70450405  0.28596003  0.22844653  1
  O  O32  1  0.70816378  0.31692264  0.72352557  1
  O  O33  1  0.71106754  0.31424280  0.53404471  1
  O  O34  1  0.80004467  0.79993754  0.02129291  1
  O  O35  1  0.78562189  0.78952375  0.22862777  1
  O  O36  1  0.80108154  0.80026740  0.53015100  1
  O  O37  1  0.79002651  0.81547890  0.71859542  1
  O  O38  1  0.91435379  0.52575881  0.37527693  1
  O  O39  1  0.89379539  0.52979032  0.87576402  1
