# generated using pymatgen
data_K2PH3O5
_symmetry_space_group_name_H-M   'P 1'
_cell_length_a   9.83660551
_cell_length_b   10.20104971
_cell_length_c   12.04161743
_cell_angle_alpha   90.00000000
_cell_angle_beta   107.36504544
_cell_angle_gamma   90.00000000
_symmetry_Int_Tables_number   1
_chemical_formula_structural   K2PH3O5
_chemical_formula_sum   'K16 P8 H24 O40'
_cell_volume   1153.22925925
_cell_formula_units_Z   8
loop_
 _symmetry_equiv_pos_site_id
 _symmetry_equiv_pos_as_xyz
  1  'x, y, z'
loop_
 _atom_site_type_symbol
 _atom_site_label
 _atom_site_symmetry_multiplicity
 _atom_site_fract_x
 _atom_site_fract_y
 _atom_site_fract_z
 _atom_site_occupancy
  K  K0  1  0.14094899  0.31346443  0.51140883  1
  K  K1  1  0.35007620  0.38941162  0.85659583  1
  K  K2  1  0.24856857  0.91789350  0.60154424  1
  K  K3  1  0.14094899  0.18653557  0.01140883  1
  K  K4  1  0.51483499  0.05562508  0.86639278  1
  K  K5  1  0.35007620  0.11058838  0.35659583  1
  K  K6  1  0.24856857  0.58210650  0.10154424  1
  K  K7  1  0.48516501  0.55562508  0.63360722  1
  K  K8  1  0.51483499  0.44437592  0.36639278  1
  K  K9  1  0.75143143  0.41789350  0.89845576  1
  K  K10  1  0.64992380  0.88941162  0.64340417  1
  K  K11  1  0.48516501  0.94437492  0.13360722  1
  K  K12  1  0.85905101  0.81346443  0.98859117  1
  K  K13  1  0.75143143  0.08210650  0.39845576  1
  K  K14  1  0.64992380  0.61058838  0.14340417  1
  K  K15  1  0.85905101  0.68653557  0.48859117  1
  P  P16  1  0.18858339  0.81030661  0.86450189  1
  P  P17  1  0.18858339  0.68969339  0.36450189  1
  P  P18  1  0.48597271  0.72731982  0.87325832  1
  P  P19  1  0.51402729  0.22731982  0.62674168  1
  P  P20  1  0.48597271  0.77268018  0.37325832  1
  P  P21  1  0.51402729  0.27268018  0.12674168  1
  P  P22  1  0.81141661  0.31030661  0.63549811  1
  P  P23  1  0.81141661  0.18969339  0.13549811  1
  H  H24  1  0.01020650  0.38465285  0.84328461  1
  H  H25  1  0.05715051  0.53056007  0.87877546  1
  H  H26  1  0.07569291  0.19050593  0.73620132  1
  H  H27  1  0.01020650  0.11534715  0.34328461  1
  H  H28  1  0.19159159  0.08076218  0.79360206  1
  H  H29  1  0.05715051  0.96943993  0.37877546  1
  H  H30  1  0.15516383  0.62406127  0.69269726  1
  H  H31  1  0.16199024  0.58674500  0.57177110  1
  H  H32  1  0.07569291  0.30949407  0.23620132  1
  H  H33  1  0.19159159  0.41923782  0.29360206  1
  H  H34  1  0.15516383  0.87593873  0.19269726  1
  H  H35  1  0.16199024  0.91325500  0.07177110  1
  H  H36  1  0.83800976  0.08674500  0.92822890  1
  H  H37  1  0.84483617  0.12406127  0.80730274  1
  H  H38  1  0.80840841  0.58076218  0.70639794  1
  H  H39  1  0.92430709  0.69050593  0.76379868  1
  H  H40  1  0.83800976  0.41325500  0.42822890  1
  H  H41  1  0.84483617  0.37593873  0.30730274  1
  H  H42  1  0.94284949  0.03056007  0.62122454  1
  H  H43  1  0.80840841  0.91923782  0.20639794  1
  H  H44  1  0.98979350  0.88465285  0.65671539  1
  H  H45  1  0.92430709  0.80949407  0.26379868  1
  H  H46  1  0.94284949  0.46943993  0.12122554  1
  H  H47  1  0.98979350  0.61534715  0.15671539  1
  O  O48  1  0.08069541  0.43999979  0.90323054  1
  O  O49  1  0.11039972  0.77309007  0.95236384  1
  O  O50  1  0.10053846  0.77489147  0.73790469  1
  O  O51  1  0.17399110  0.16250075  0.74417430  1
  O  O52  1  0.24425052  0.95185738  0.87720377  1
  O  O53  1  0.17352370  0.54613190  0.64870572  1
  O  O54  1  0.08069541  0.06000021  0.40323054  1
  O  O55  1  0.11039972  0.72690993  0.45236384  1
  O  O56  1  0.32628091  0.71076443  0.89636691  1
  O  O57  1  0.10053846  0.72510853  0.23790469  1
  O  O58  1  0.17399110  0.33749925  0.24417430  1
  O  O59  1  0.24425052  0.54814262  0.37720377  1
  O  O60  1  0.17352370  0.95386810  0.14870572  1
  O  O61  1  0.46221514  0.79194848  0.75438408  1
  O  O62  1  0.32628091  0.78923557  0.39636691  1
  O  O63  1  0.57552680  0.81064939  0.97487206  1
  O  O64  1  0.53791126  0.58519351  0.87928116  1
  O  O65  1  0.46208874  0.08519351  0.62071884  1
  O  O66  1  0.42447320  0.31064939  0.52512794  1
  O  O67  1  0.53778486  0.29194848  0.74561592  1
  O  O68  1  0.46221514  0.70805152  0.25438408  1
  O  O69  1  0.57552680  0.68935061  0.47487206  1
  O  O70  1  0.53791126  0.91480649  0.37928116  1
  O  O71  1  0.46208874  0.41480649  0.12071884  1
  O  O72  1  0.42447320  0.18935061  0.02512794  1
  O  O73  1  0.67371909  0.21076443  0.60363309  1
  O  O74  1  0.53778486  0.20805152  0.24561592  1
  O  O75  1  0.82647630  0.04613190  0.85129428  1
  O  O76  1  0.75574948  0.45185738  0.62279623  1
  O  O77  1  0.82600890  0.66250075  0.75582570  1
  O  O78  1  0.89946154  0.27489147  0.76209531  1
  O  O79  1  0.67371909  0.28923557  0.10363309  1
  O  O80  1  0.88960028  0.27309007  0.54763616  1
  O  O81  1  0.91930459  0.93999979  0.59676946  1
  O  O82  1  0.82647630  0.45386810  0.35129428  1
  O  O83  1  0.75574948  0.04814262  0.12279623  1
  O  O84  1  0.82600890  0.83749925  0.25582570  1
  O  O85  1  0.89946154  0.22510853  0.26209531  1
  O  O86  1  0.88960028  0.22690993  0.04763616  1
  O  O87  1  0.91930459  0.56000021  0.09676946  1
