# generated using pymatgen
data_Ca6La2Mn7CrO24
_symmetry_space_group_name_H-M   'P 1'
_cell_length_a   10.90264218
_cell_length_b   7.69848025
_cell_length_c   7.65262358
_cell_angle_alpha   90.15764355
_cell_angle_beta   90.19914561
_cell_angle_gamma   44.85634523
_symmetry_Int_Tables_number   1
_chemical_formula_structural   Ca6La2Mn7CrO24
_chemical_formula_sum   'Ca6 La2 Mn7 Cr1 O24'
_cell_volume   453.04134103
_cell_formula_units_Z   1
loop_
 _symmetry_equiv_pos_site_id
 _symmetry_equiv_pos_as_xyz
  1  'x, y, z'
loop_
 _atom_site_type_symbol
 _atom_site_label
 _atom_site_symmetry_multiplicity
 _atom_site_fract_x
 _atom_site_fract_y
 _atom_site_fract_z
 _atom_site_occupancy
  Ca  Ca0  1  0.01283490  0.50966151  0.24883184  1
  Ca  Ca1  1  0.47659217  0.00914595  0.75092936  1
  Ca  Ca2  1  0.02340783  0.99085405  0.24907064  1
  Ca  Ca3  1  0.48716510  0.49033849  0.75116816  1
  Ca  Ca4  1  0.51073340  0.50879749  0.25003030  1
  Ca  Ca5  1  0.98926660  0.49120251  0.74996970  1
  La  La6  1  0.98492497  0.00566524  0.75077197  1
  La  La7  1  0.51507503  0.99433476  0.24922803  1
  Mn  Mn8  1  0.25000000  0.00000000  0.50000000  1
  Mn  Mn9  1  0.25000000  0.00000000  0.00000000  1
  Mn  Mn10  1  0.25000000  0.50000000  0.50000000  1
  Mn  Mn11  1  0.25000000  0.50000000  0.00000000  1
  Mn  Mn12  1  0.75000000  0.00000000  0.50000000  1
  Mn  Mn13  1  0.75000000  0.50000000  0.50000000  1
  Mn  Mn14  1  0.75000000  0.50000000  0.00000000  1
  Cr  Cr15  1  0.75000000  0.00000000  0.00000000  1
  O  O16  1  0.21195874  0.07527047  0.24986158  1
  O  O17  1  0.22213026  0.27806079  0.53913867  1
  O  O18  1  0.21948612  0.27991060  0.96091032  1
  O  O19  1  0.99974716  0.78486856  0.45766551  1
  O  O20  1  0.00473883  0.78154830  0.03979296  1
  O  O21  1  0.27909604  0.42939421  0.25061784  1
  O  O22  1  0.22090396  0.57060579  0.74938216  1
  O  O23  1  0.49526117  0.21845170  0.96020704  1
  O  O24  1  0.50025284  0.21513144  0.54233449  1
  O  O25  1  0.27786974  0.72193921  0.46086133  1
  O  O26  1  0.28051388  0.72008940  0.03908968  1
  O  O27  1  0.69804207  0.08351456  0.25542492  1
  O  O28  1  0.28804126  0.92472953  0.75013842  1
  O  O29  1  0.72013769  0.28540641  0.95244903  1
  O  O30  1  0.72108704  0.27939290  0.54725485  1
  O  O31  1  0.50026053  0.77685014  0.46458121  1
  O  O32  1  0.49956636  0.77909641  0.03525568  1
  O  O33  1  0.77445966  0.42352611  0.25057569  1
  O  O34  1  0.72554034  0.57647389  0.74942431  1
  O  O35  1  0.99973947  0.22314986  0.53541879  1
  O  O36  1  0.00043364  0.22090359  0.96474432  1
  O  O37  1  0.77986231  0.71459359  0.04755097  1
  O  O38  1  0.77891296  0.72060710  0.45274515  1
  O  O39  1  0.80195793  0.91648544  0.74457508  1
