# generated using pymatgen
data_BaSiO3
_symmetry_space_group_name_H-M   'P 1'
_cell_length_a   4.63802156
_cell_length_b   5.69167359
_cell_length_c   12.70790930
_cell_angle_alpha   90.00000000
_cell_angle_beta   90.00000000
_cell_angle_gamma   90.00000000
_symmetry_Int_Tables_number   1
_chemical_formula_structural   BaSiO3
_chemical_formula_sum   'Ba4 Si4 O12'
_cell_volume   335.46472178
_cell_formula_units_Z   4
loop_
 _symmetry_equiv_pos_site_id
 _symmetry_equiv_pos_as_xyz
  1  'x, y, z'
loop_
 _atom_site_type_symbol
 _atom_site_label
 _atom_site_symmetry_multiplicity
 _atom_site_fract_x
 _atom_site_fract_y
 _atom_site_fract_z
 _atom_site_occupancy
  O  O0  1  0.24022446  0.58017286  0.90635616  1
  O  O1  1  0.74022446  0.91982714  0.09364384  1
  O  O2  1  0.75977554  0.08017286  0.59364384  1
  O  O3  1  0.25977554  0.41982714  0.40635616  1
  O  O4  1  0.24951157  0.12164082  0.83251952  1
  O  O5  1  0.74951157  0.37835918  0.16748048  1
  O  O6  1  0.75048843  0.62164082  0.66748048  1
  O  O7  1  0.25048843  0.87835918  0.33251952  1
  O  O8  1  0.67084097  0.72317570  0.45744245  1
  O  O9  1  0.17084097  0.77682430  0.54255755  1
  O  O10  1  0.32915903  0.22317570  0.04255755  1
  O  O11  1  0.82915903  0.27682430  0.95744245  1
  Si  Si12  1  0.18107909  0.30347188  0.92703055  1
  Si  Si13  1  0.68107909  0.19652812  0.07296945  1
  Si  Si14  1  0.81892091  0.80347188  0.57296945  1
  Si  Si15  1  0.31892091  0.69652812  0.42703055  1
  Ba  Ba16  1  0.72940997  0.81559996  0.85790773  1
  Ba  Ba17  1  0.22940997  0.68440004  0.14209227  1
  Ba  Ba18  1  0.27059003  0.31559996  0.64209227  1
  Ba  Ba19  1  0.77059003  0.18440004  0.35790773  1
