# generated using pymatgen
data_Y3Ge13Ru4
_symmetry_space_group_name_H-M   'P 1'
_cell_length_a   9.00681028
_cell_length_b   9.01064486
_cell_length_c   9.00593826
_cell_angle_alpha   90.02728202
_cell_angle_beta   90.03274728
_cell_angle_gamma   89.95826815
_symmetry_Int_Tables_number   1
_chemical_formula_structural   Y3Ge13Ru4
_chemical_formula_sum   'Y6 Ge26 Ru8'
_cell_volume   730.89605523
_cell_formula_units_Z   2
loop_
 _symmetry_equiv_pos_site_id
 _symmetry_equiv_pos_as_xyz
  1  'x, y, z'
loop_
 _atom_site_type_symbol
 _atom_site_label
 _atom_site_symmetry_multiplicity
 _atom_site_fract_x
 _atom_site_fract_y
 _atom_site_fract_z
 _atom_site_occupancy
  Y  Y0  1  0.49998254  0.00025525  0.24871232  1
  Y  Y1  1  0.74963790  0.50006744  0.00059162  1
  Y  Y2  1  0.00018719  0.74974309  0.50012219  1
  Y  Y3  1  0.25050045  0.50096632  0.00020316  1
  Y  Y4  1  0.49984605  0.00007369  0.74938651  1
  Y  Y5  1  0.99959100  0.25041631  0.49994273  1
  Ge  Ge6  1  0.00033670  0.69345946  0.84852864  1
  Ge  Ge7  1  0.50002627  0.65063156  0.19432110  1
  Ge  Ge8  1  0.30548313  0.15120286  0.99964535  1
  Ge  Ge9  1  0.49927041  0.49894689  0.50029557  1
  Ge  Ge10  1  0.65078304  0.19318870  0.49985673  1
  Ge  Ge11  1  0.19509645  0.50002469  0.65099228  1
  Ge  Ge12  1  0.15041238  0.00000555  0.30553474  1
  Ge  Ge13  1  0.69401276  0.15069181  0.99981860  1
  Ge  Ge14  1  0.80594754  0.50014403  0.34903843  1
  Ge  Ge15  1  0.50020554  0.34846295  0.80660821  1
  Ge  Ge16  1  0.34887638  0.19362562  0.49959024  1
  Ge  Ge17  1  0.30700244  0.84922561  -0.00000540  1
  Ge  Ge18  1  0.99997753  0.69319906  0.15095192  1
  Ge  Ge19  1  0.69301334  0.84882688  0.00000206  1
  Ge  Ge20  1  0.34905715  0.80618431  0.49963719  1
  Ge  Ge21  1  0.84901906  0.00005028  0.30597285  1
  Ge  Ge22  1  0.99993892  0.30688204  0.15088768  1
  Ge  Ge23  1  0.15066271  0.00002141  0.69521132  1
  Ge  Ge24  1  0.65144352  0.80639423  0.49999629  1
  Ge  Ge25  1  0.50018335  0.65069922  0.80569282  1
  Ge  Ge26  1  0.49981526  0.34975403  0.19461615  1
  Ge  Ge27  1  0.00024768  0.00024483  0.00141709  1
  Ge  Ge28  1  0.80505677  0.49999376  0.65081489  1
  Ge  Ge29  1  0.00029400  0.30686608  0.84891338  1
  Ge  Ge30  1  0.19424412  0.49984946  0.34844574  1
  Ge  Ge31  1  0.84920963  0.99980805  0.69496340  1
  Ru  Ru32  1  0.25003104  0.24988601  0.24966360  1
  Ru  Ru33  1  0.24996411  0.74994906  0.24985360  1
  Ru  Ru34  1  0.74985856  0.25018228  0.24995017  1
  Ru  Ru35  1  0.25028600  0.75021546  0.74984872  1
  Ru  Ru36  1  0.75003498  0.74998355  0.25002819  1
  Ru  Ru37  1  0.25011712  0.24993113  0.74972795  1
  Ru  Ru38  1  0.75026494  0.24996672  0.75000463  1
  Ru  Ru39  1  0.75008204  0.74998031  0.75021734  1
