# generated using pymatgen
data_CaCuMo2O7
_symmetry_space_group_name_H-M   'P 1'
_cell_length_a   9.11016179
_cell_length_b   10.64679194
_cell_length_c   10.96314149
_cell_angle_alpha   94.72257662
_cell_angle_beta   90.00000000
_cell_angle_gamma   90.00000000
_symmetry_Int_Tables_number   1
_chemical_formula_structural   CaCuMo2O7
_chemical_formula_sum   'Ca6 Cu6 Mo12 O42'
_cell_volume   1059.74883436
_cell_formula_units_Z   6
loop_
 _symmetry_equiv_pos_site_id
 _symmetry_equiv_pos_as_xyz
  1  'x, y, z'
loop_
 _atom_site_type_symbol
 _atom_site_label
 _atom_site_symmetry_multiplicity
 _atom_site_fract_x
 _atom_site_fract_y
 _atom_site_fract_z
 _atom_site_occupancy
  Ca  Ca0  1  0.43499744  0.18023997  0.57495924  1
  Ca  Ca1  1  0.93073662  0.50000000  0.75000000  1
  Ca  Ca2  1  0.43499744  0.81976003  0.92504076  1
  Ca  Ca3  1  0.06926338  0.50000000  0.25000000  1
  Ca  Ca4  1  0.56500256  0.81976003  0.42504076  1
  Ca  Ca5  1  0.56500256  0.18023997  0.07495924  1
  Cu  Cu6  1  0.93575650  0.79490526  0.41146828  1
  Cu  Cu7  1  0.06424350  0.20509474  0.58853172  1
  Cu  Cu8  1  0.44515005  0.50000000  0.25000000  1
  Cu  Cu9  1  0.93575650  0.20509474  0.08853172  1
  Cu  Cu10  1  0.55484995  0.50000000  0.75000000  1
  Cu  Cu11  1  0.06424350  0.79490526  0.91146828  1
  Mo  Mo12  1  0.20812222  0.17110650  0.29033381  1
  Mo  Mo13  1  0.74106457  0.15791080  0.38225353  1
  Mo  Mo14  1  0.25893543  0.15791080  0.88225353  1
  Mo  Mo15  1  0.79187778  0.17110650  0.79033381  1
  Mo  Mo16  1  0.28837400  0.48657420  0.96314763  1
  Mo  Mo17  1  0.74106457  0.84208920  0.11774647  1
  Mo  Mo18  1  0.71162600  0.48657420  0.46314763  1
  Mo  Mo19  1  0.25893543  0.84208920  0.61774647  1
  Mo  Mo20  1  0.28837400  0.51342580  0.53685237  1
  Mo  Mo21  1  0.71162600  0.51342580  0.03685237  1
  Mo  Mo22  1  0.79187778  0.82889350  0.70966619  1
  Mo  Mo23  1  0.20812222  0.82889350  0.20966619  1
  O  O24  1  0.78230968  0.19834096  0.96082996  1
  O  O25  1  0.76324132  0.84162560  0.28115747  1
  O  O26  1  0.85045083  -0.00000000  0.75000000  1
  O  O27  1  0.88332954  0.51157891  0.11247964  1
  O  O28  1  0.38977780  0.95390899  0.57053005  1
  O  O29  1  0.92774459  0.27265395  0.71481905  1
  O  O30  1  0.35100205  0.30804686  0.94153653  1
  O  O31  1  0.11667046  0.51157891  0.61247964  1
  O  O32  1  0.71624308  0.47384951  0.87062393  1
  O  O33  1  0.38977780  0.04609101  0.92946995  1
  O  O34  1  0.71624308  0.52615049  0.62937607  1
  O  O35  1  0.42429786  0.58309953  0.88312136  1
  O  O36  1  0.91232379  0.85843079  0.04421297  1
  O  O37  1  0.07225541  0.27265395  0.21481905  1
  O  O38  1  0.64899795  0.69195314  0.05846347  1
  O  O39  1  0.35100205  0.69195314  0.55846347  1
  O  O40  1  0.92774459  0.72734605  0.78518095  1
  O  O41  1  0.61022220  0.04609101  0.42946995  1
  O  O42  1  0.21769032  0.19834096  0.46082996  1
  O  O43  1  0.57570214  0.41690047  0.11687864  1
  O  O44  1  0.38186364  0.81296355  0.28441226  1
  O  O45  1  0.28375692  0.52615049  0.12937607  1
  O  O46  1  0.08767621  0.85843079  0.54421297  1
  O  O47  1  0.28375692  0.47384951  0.37062393  1
  O  O48  1  0.88332954  0.48842109  0.38752036  1
  O  O49  1  0.57570214  0.58309953  0.38312136  1
  O  O50  1  0.11667046  0.48842109  0.88752036  1
  O  O51  1  0.61813636  0.81296355  0.78441226  1
  O  O52  1  0.61813636  0.18703645  0.71558774  1
  O  O53  1  0.08767621  0.14156921  0.95578703  1
  O  O54  1  0.07225541  0.72734605  0.28518095  1
  O  O55  1  0.78230968  0.80165904  0.53917004  1
  O  O56  1  0.14954917  -0.00000000  0.25000000  1
  O  O57  1  0.23675868  0.84162560  0.78115747  1
  O  O58  1  0.61022220  0.95390899  0.07053005  1
  O  O59  1  0.91232379  0.14156921  0.45578703  1
  O  O60  1  0.21769032  0.80165904  0.03917004  1
  O  O61  1  0.76324132  0.15837440  0.21884253  1
  O  O62  1  0.42429786  0.41690047  0.61687864  1
  O  O63  1  0.64899795  0.30804686  0.44153653  1
  O  O64  1  0.23675868  0.15837440  0.71884253  1
  O  O65  1  0.38186364  0.18703645  0.21558774  1
