# generated using pymatgen
data_Ag2IO6
_symmetry_space_group_name_H-M   'P 1'
_cell_length_a   5.78690247
_cell_length_b   5.78690253
_cell_length_c   5.78690272
_cell_angle_alpha   59.84996325
_cell_angle_beta   59.84996310
_cell_angle_gamma   59.84996212
_symmetry_Int_Tables_number   1
_chemical_formula_structural   Ag2IO6
_chemical_formula_sum   'Ag2 I1 O6'
_cell_volume   136.56589519
_cell_formula_units_Z   1
loop_
 _symmetry_equiv_pos_site_id
 _symmetry_equiv_pos_as_xyz
  1  'x, y, z'
loop_
 _atom_site_type_symbol
 _atom_site_label
 _atom_site_symmetry_multiplicity
 _atom_site_fract_x
 _atom_site_fract_y
 _atom_site_fract_z
 _atom_site_occupancy
  Ag  Ag0  1  0.75728148  0.75728148  0.75728148  1
  Ag  Ag1  1  0.24271852  0.24271852  0.24271852  1
  I  I2  1  0.00000000  -0.00000000  -0.00000000  1
  O  O3  1  0.91482785  0.18935235  0.66007297  1
  O  O4  1  0.66007297  0.91482785  0.18935235  1
  O  O5  1  0.18935235  0.66007297  0.91482785  1
  O  O6  1  0.08517215  0.81064765  0.33992703  1
  O  O7  1  0.33992703  0.08517215  0.81064765  1
  O  O8  1  0.81064765  0.33992703  0.08517215  1
