# generated using pymatgen
data_HfH3
_symmetry_space_group_name_H-M   'P 1'
_cell_length_a   4.74928092
_cell_length_b   4.74925647
_cell_length_c   3.20326975
_cell_angle_alpha   89.94060478
_cell_angle_beta   90.05939351
_cell_angle_gamma   119.99500345
_symmetry_Int_Tables_number   1
_chemical_formula_structural   HfH3
_chemical_formula_sum   'Hf2 H6'
_cell_volume   62.57475803
_cell_formula_units_Z   2
loop_
 _symmetry_equiv_pos_site_id
 _symmetry_equiv_pos_as_xyz
  1  'x, y, z'
loop_
 _atom_site_type_symbol
 _atom_site_label
 _atom_site_symmetry_multiplicity
 _atom_site_fract_x
 _atom_site_fract_y
 _atom_site_fract_z
 _atom_site_occupancy
  Hf  Hf0  1  0.33342861  0.66657611  0.75365697  1
  Hf  Hf1  1  0.66657535  0.33342505  0.24633988  1
  H  H2  1  0.18091284  0.36176017  0.24965581  1
  H  H3  1  0.63823948  0.81908883  0.24965529  1
  H  H4  1  0.18086449  0.81913442  0.25000471  1
  H  H5  1  0.81908658  0.63824071  0.75034366  1
  H  H6  1  0.36176125  0.18091337  0.75034440  1
  H  H7  1  0.81913640  0.18086734  0.74999529  1
