# generated using pymatgen
data_Cu3P
_symmetry_space_group_name_H-M   'P 1'
_cell_length_a   6.95817129
_cell_length_b   6.95817129
_cell_length_c   7.17811376
_cell_angle_alpha   90.00000000
_cell_angle_beta   90.00000000
_cell_angle_gamma   119.99999997
_symmetry_Int_Tables_number   1
_chemical_formula_structural   Cu3P
_chemical_formula_sum   'Cu18 P6'
_cell_volume   300.97553817
_cell_formula_units_Z   6
loop_
 _symmetry_equiv_pos_site_id
 _symmetry_equiv_pos_as_xyz
  1  'x, y, z'
loop_
 _atom_site_type_symbol
 _atom_site_label
 _atom_site_symmetry_multiplicity
 _atom_site_fract_x
 _atom_site_fract_y
 _atom_site_fract_z
 _atom_site_occupancy
  P  P0  1  0.66924659  0.00000000  0.25142838  1
  P  P1  1  0.66924659  0.66924659  0.75142838  1
  P  P2  1  0.00000000  0.33075341  0.75142838  1
  P  P3  1  0.00000000  0.66924659  0.25142838  1
  P  P4  1  0.33075341  0.33075341  0.25142838  1
  P  P5  1  0.33075341  0.00000000  0.75142838  1
  Cu  Cu6  1  0.38418750  0.00000000  0.42678231  1
  Cu  Cu7  1  0.38418750  0.38418750  0.92678231  1
  Cu  Cu8  1  0.00000000  0.61581250  0.92678231  1
  Cu  Cu9  1  0.00000000  0.38418750  0.42678231  1
  Cu  Cu10  1  0.61581250  0.61581250  0.42678231  1
  Cu  Cu11  1  0.61581250  0.00000000  0.92678231  1
  Cu  Cu12  1  0.33333333  0.66666667  0.18828966  1
  Cu  Cu13  1  0.66666667  0.33333333  0.68828966  1
  Cu  Cu14  1  0.33333333  0.66666667  0.68828966  1
  Cu  Cu15  1  0.66666667  0.33333333  0.18828966  1
  Cu  Cu16  1  0.00000000  0.00000000  0.32833581  1
  Cu  Cu17  1  0.00000000  0.00000000  0.82833581  1
  Cu  Cu18  1  0.72822411  0.00000000  0.57821759  1
  Cu  Cu19  1  0.72822411  0.72822411  0.07821759  1
  Cu  Cu20  1  0.00000000  0.27177589  0.07821759  1
  Cu  Cu21  1  0.00000000  0.72822411  0.57821759  1
  Cu  Cu22  1  0.27177589  0.27177589  0.57821759  1
  Cu  Cu23  1  0.27177589  0.00000000  0.07821759  1
