# generated using pymatgen
data_Ta2TiO6
_symmetry_space_group_name_H-M   'P 1'
_cell_length_a   7.47159987
_cell_length_b   5.71217220
_cell_length_c   5.71217220
_cell_angle_alpha   73.65318187
_cell_angle_beta   70.73226430
_cell_angle_gamma   70.73226430
_symmetry_Int_Tables_number   1
_chemical_formula_structural   Ta2TiO6
_chemical_formula_sum   'Ta4 Ti2 O12'
_cell_volume   213.13196316
_cell_formula_units_Z   2
loop_
 _symmetry_equiv_pos_site_id
 _symmetry_equiv_pos_as_xyz
  1  'x, y, z'
loop_
 _atom_site_type_symbol
 _atom_site_label
 _atom_site_symmetry_multiplicity
 _atom_site_fract_x
 _atom_site_fract_y
 _atom_site_fract_z
 _atom_site_occupancy
  Ta  Ta0  1  0.83812393  0.66213775  0.66213775  1
  Ta  Ta1  1  0.33985912  0.65475109  0.65475109  1
  Ta  Ta2  1  0.49521007  0.00452925  0.00452925  1
  Ta  Ta3  1  0.99347388  0.01191491  0.01191491  1
  Ti  Ti4  1  0.66666700  0.33333300  0.33333300  1
  Ti  Ti5  1  0.16666700  0.33333300  0.33333300  1
  O  O6  1  0.33819822  0.36547389  0.95810257  1
  O  O7  1  0.66666700  0.02689855  0.63976845  1
  O  O8  1  0.97176873  0.23159448  0.23159448  1
  O  O9  1  0.63311203  0.57216985  0.57216985  1
  O  O10  1  0.29588854  0.89899236  0.89899236  1
  O  O11  1  0.70022097  0.09449715  0.09449715  1
  O  O12  1  0.36156527  0.43507252  0.43507252  1
  O  O13  1  0.03744546  0.76767464  0.76767464  1
  O  O14  1  0.99513578  0.30119211  0.70856443  1
  O  O15  1  0.66666700  0.63976845  0.02689855  1
  O  O16  1  0.33819822  0.95810257  0.36547389  1
  O  O17  1  0.99513578  0.70856443  0.30119211  1
