# generated using pymatgen
data_NaLi3Ti2Fe2(PO4)6
_symmetry_space_group_name_H-M   'P 1'
_cell_length_a   8.95553199
_cell_length_b   8.95762333
_cell_length_c   26.87349516
_cell_angle_alpha   56.62822240
_cell_angle_beta   56.66623730
_cell_angle_gamma   56.66515721
_symmetry_Int_Tables_number   1
_chemical_formula_structural   NaLi3Ti2Fe2(PO4)6
_chemical_formula_sum   'Na3 Li9 Ti6 Fe6 P18 O72'
_cell_volume   1406.54543993
_cell_formula_units_Z   3
loop_
 _symmetry_equiv_pos_site_id
 _symmetry_equiv_pos_as_xyz
  1  'x, y, z'
loop_
 _atom_site_type_symbol
 _atom_site_label
 _atom_site_symmetry_multiplicity
 _atom_site_fract_x
 _atom_site_fract_y
 _atom_site_fract_z
 _atom_site_occupancy
  Na  Na0  1  0.00564622  0.00885681  0.33700047  1
  Na  Na1  1  0.49780127  0.49843210  0.83606349  1
  Na  Na2  1  0.00909096  0.00945215  0.66631904  1
  Li  Li3  1  0.27643035  0.91027163  0.21748407  1
  Li  Li4  1  0.65083717  0.27925983  0.30364997  1
  Li  Li5  1  0.91815140  0.67475178  0.08702064  1
  Li  Li6  1  0.27983986  0.91002303  0.55040375  1
  Li  Li7  1  0.65599860  0.28091436  0.63256681  1
  Li  Li8  1  0.91125907  0.65264248  0.42735782  1
  Li  Li9  1  0.26117396  0.91850958  0.89415340  1
  Li  Li10  1  0.68012109  0.25967066  0.97494139  1
  Li  Li11  1  0.91121115  0.65804269  0.75855848  1
  Ti  Ti12  1  0.14449580  0.14188073  0.04783857  1
  Ti  Ti13  1  0.36142300  0.35526950  0.11859519  1
  Ti  Ti14  1  0.14232863  0.14480678  0.38503634  1
  Ti  Ti15  1  0.14988165  0.14780986  0.71260082  1
  Ti  Ti16  1  0.85302227  0.84825630  0.28355882  1
  Ti  Ti17  1  0.35387806  0.35704777  0.78521941  1
  Fe  Fe18  1  0.35523888  0.35746806  0.45270611  1
  Fe  Fe19  1  0.65166693  0.64992585  0.21639253  1
  Fe  Fe20  1  0.65277580  0.65857096  0.55007913  1
  Fe  Fe21  1  0.85193842  0.85407218  0.61771367  1
  Fe  Fe22  1  0.65333548  0.65056604  0.88591195  1
  Fe  Fe23  1  0.85594782  0.85544563  0.95201089  1
  P  P24  1  0.03838826  0.75193742  0.15228272  1
  P  P25  1  0.45610322  0.03667751  0.25191916  1
  P  P26  1  0.75671559  0.46054885  0.01272294  1
  P  P27  1  0.24365463  0.54009606  0.32382287  1
  P  P28  1  0.53721309  0.96980086  0.08222510  1
  P  P29  1  0.03908350  0.75251618  0.48737938  1
  P  P30  1  0.97064237  0.24790756  0.17867481  1
  P  P31  1  0.46212536  0.03874240  0.58378693  1
  P  P32  1  0.74942680  0.45814617  0.34628367  1
  P  P33  1  0.24796402  0.54084535  0.65566460  1
  P  P34  1  0.54117307  0.97136520  0.41461443  1
  P  P35  1  0.03900920  0.75709785  0.81928674  1
  P  P36  1  0.97091834  0.24450949  0.51478643  1
  P  P37  1  0.46080722  0.03987079  0.91815875  1
  P  P38  1  0.75597071  0.45858576  0.67973390  1
  P  P39  1  0.24998279  0.53267346  0.98983096  1
  P  P40  1  0.53556097  0.96626682  0.75075301  1
  P  P41  1  0.96643220  0.24949978  0.84476572  1
  O  O42  1  0.16828241  0.20914989  0.17553397  1
  O  O43  1  0.21934296  0.51658441  0.05549138  1
  O  O44  1  0.52109946  0.16712208  0.07229175  1
  O  O45  1  0.11391059  0.89808740  0.08910238  1
  O  O46  1  0.18857384  0.54823781  0.15663595  1
  O  O47  1  0.99884026  0.79680062  0.20759082  1
  O  O48  1  0.26474474  0.10838153  0.30136429  1
  O  O49  1  0.46918008  0.18929657  0.18418264  1
  O  O50  1  0.55171577  0.46420409  0.06263059  1
  O  O51  1  0.19096935  0.38394308  0.33526518  1
  O  O52  1  0.11117964  0.74613592  0.29276292  1
  O  O53  1  0.38314508  0.00500956  0.06385191  1
  O  O54  1  0.62336264  0.99630967  0.26639461  1
  O  O55  1  0.90267545  0.26710302  0.03685530  1
  O  O56  1  0.16997898  0.20214668  0.51015442  1
  O  O57  1  0.79030062  0.62571069  0.00237227  1
  O  O58  1  0.20272196  0.53365938  0.38882048  1
  O  O59  1  0.45150152  0.51719103  0.27671073  1
  O  O60  1  0.51324882  0.82866283  0.15173224  1
  O  O61  1  0.53375208  0.16773435  0.40024321  1
  O  O62  1  0.10816356  0.90404302  0.42146815  1
  O  O63  1  0.74109829  0.88696627  0.03765949  1
  O  O64  1  0.18339137  0.55053625  0.49210952  1
  O  O65  1  0.00397607  0.19229500  0.12781244  1
  O  O66  1  0.00338342  0.80196742  0.53992906  1
  O  O67  1  0.83256077  0.45730158  0.17001189  1
  O  O68  1  0.26307223  0.10945560  0.63382450  1
  O  O69  1  0.88115963  0.11464961  0.24763930  1
  O  O70  1  0.46583173  0.85415000  0.25494475  1
  O  O71  1  0.47703689  0.18364814  0.51657408  1
  O  O72  1  0.54920000  0.48176892  0.39538370  1
  O  O73  1  0.76627034  0.46515290  0.28425871  1
  O  O74  1  0.19470369  0.38502236  0.66706010  1
  O  O75  1  0.85309911  0.76607414  0.15597380  1
  O  O76  1  0.11381094  0.74626135  0.62878083  1
  O  O77  1  0.38266200  0.00320123  0.39856085  1
  O  O78  1  0.61546854  0.00283761  0.60223837  1
  O  O79  1  0.90143588  0.26624759  0.36950934  1
  O  O80  1  0.16101154  0.22561539  0.83948196  1
  O  O81  1  0.80495351  0.62253324  0.33012303  1
  O  O82  1  0.21461099  0.52338639  0.72229614  1
  O  O83  1  0.45541874  0.51586732  0.60875105  1
  O  O84  1  0.51876202  0.83059043  0.48400788  1
  O  O85  1  0.51795602  0.16393498  0.74084177  1
  O  O86  1  0.10662516  0.90479011  0.75354807  1
  O  O87  1  0.74565424  0.87827583  0.37018813  1
  O  O88  1  0.19955183  0.55554947  0.82072451  1
  O  O89  1  0.00113676  0.19202330  0.46293113  1
  O  O90  1  0.00946547  0.79528497  0.87310357  1
  O  O91  1  0.83162002  0.45329943  0.50632603  1
  O  O92  1  0.26651517  0.10940748  0.96697749  1
  O  O93  1  0.88087452  0.11417415  0.58339831  1
  O  O94  1  0.46348673  0.85215147  0.59067974  1
  O  O95  1  0.46242341  0.19862768  0.85064807  1
  O  O96  1  0.55393851  0.46166449  0.73278807  1
  O  O97  1  0.76088637  0.46815598  0.61952107  1
  O  O98  1  0.19547874  0.38140602  0.99949096  1
  O  O99  1  0.85251621  0.77165170  0.48822193  1
  O  O100  1  0.11849647  0.73768036  0.96124163  1
  O  O101  1  0.38429387  0.00054977  0.73097660  1
  O  O102  1  0.62544920  0.01233928  0.92885903  1
  O  O103  1  0.90375956  0.26083622  0.70252986  1
  O  O104  1  0.79504022  0.61661165  0.67179978  1
  O  O105  1  0.46055467  0.50566393  0.94156678  1
  O  O106  1  0.50466971  0.82107550  0.82052452  1
  O  O107  1  0.74274419  0.88250074  0.70742425  1
  O  O108  1  0.00306966  0.19625386  0.79272113  1
  O  O109  1  0.81727043  0.45763800  0.83619461  1
  O  O110  1  0.88508173  0.11618298  0.91267085  1
  O  O111  1  0.47146264  0.85847539  0.91959227  1
  O  O112  1  0.76780018  0.46720482  0.95151661  1
  O  O113  1  0.85990568  0.75851379  0.82206537  1
