# generated using pymatgen
data_Dy2SiO5
_symmetry_space_group_name_H-M   'P 1'
_cell_length_a   9.74798251
_cell_length_b   6.91290094
_cell_length_c   6.74097327
_cell_angle_alpha   90.00000000
_cell_angle_beta   115.80745947
_cell_angle_gamma   90.00000000
_symmetry_Int_Tables_number   1
_chemical_formula_structural   Dy2SiO5
_chemical_formula_sum   'Dy8 Si4 O20'
_cell_volume   408.94664309
_cell_formula_units_Z   4
loop_
 _symmetry_equiv_pos_site_id
 _symmetry_equiv_pos_as_xyz
  1  'x, y, z'
loop_
 _atom_site_type_symbol
 _atom_site_label
 _atom_site_symmetry_multiplicity
 _atom_site_fract_x
 _atom_site_fract_y
 _atom_site_fract_z
 _atom_site_occupancy
  Dy  Dy0  1  0.12748995  0.36293889  0.68069687  1
  Dy  Dy1  1  0.12748995  0.13706111  0.18069687  1
  Dy  Dy2  1  0.47415243  0.12716980  0.70505730  1
  Dy  Dy3  1  0.52584757  0.62716980  0.79494270  1
  Dy  Dy4  1  0.47415243  0.37283020  0.20505730  1
  Dy  Dy5  1  0.52584757  0.87283020  0.29494270  1
  Dy  Dy6  1  0.87251005  0.86293889  0.81930313  1
  Dy  Dy7  1  0.87251005  0.63706111  0.31930313  1
  Si  Si8  1  0.19930414  0.91298847  0.72199645  1
  Si  Si9  1  0.19930414  0.58701153  0.22199645  1
  Si  Si10  1  0.80069586  0.41298847  0.77800355  1
  Si  Si11  1  0.80069586  0.08701153  0.27800355  1
  O  O12  1  0.11745568  0.05136085  0.83849761  1
  O  O13  1  0.10813688  0.71650715  0.61418040  1
  O  O14  1  0.11745568  0.44863915  0.33849761  1
  O  O15  1  0.21113675  0.07514163  0.54544587  1
  O  O16  1  0.10813688  0.78349285  0.11418040  1
  O  O17  1  0.38340048  0.86837043  0.87762423  1
  O  O18  1  0.38765343  0.38161257  0.82561913  1
  O  O19  1  0.21113675  0.42485837  0.04544587  1
  O  O20  1  0.38340048  0.63162957  0.37762423  1
  O  O21  1  0.38765343  0.11838743  0.32561913  1
  O  O22  1  0.61234657  0.88161257  0.67438087  1
  O  O23  1  0.61659952  0.36837043  0.62237577  1
  O  O24  1  0.78886325  0.57514163  0.95455413  1
  O  O25  1  0.61234657  0.61838743  0.17438087  1
  O  O26  1  0.61659952  0.13162957  0.12237577  1
  O  O27  1  0.89186312  0.21650715  0.88581960  1
  O  O28  1  0.78886325  0.92485837  0.45455413  1
  O  O29  1  0.88254432  0.55136085  0.66150239  1
  O  O30  1  0.89186312  0.28349285  0.38581960  1
  O  O31  1  0.88254432  0.94863915  0.16150239  1
