# generated using pymatgen
data_Ca3Y9Al18CrSiO48
_symmetry_space_group_name_H-M   'P 1'
_cell_length_a   10.49719240
_cell_length_b   10.53780318
_cell_length_c   10.49948465
_cell_angle_alpha   109.46757851
_cell_angle_beta   109.54480700
_cell_angle_gamma   109.46409028
_symmetry_Int_Tables_number   1
_chemical_formula_structural   Ca3Y9Al18CrSiO48
_chemical_formula_sum   'Ca3 Y9 Al18 Cr1 Si1 O48'
_cell_volume   893.37130656
_cell_formula_units_Z   1
loop_
 _symmetry_equiv_pos_site_id
 _symmetry_equiv_pos_as_xyz
  1  'x, y, z'
loop_
 _atom_site_type_symbol
 _atom_site_label
 _atom_site_symmetry_multiplicity
 _atom_site_fract_x
 _atom_site_fract_y
 _atom_site_fract_z
 _atom_site_occupancy
  Ca  Ca0  1  0.87568368  0.75656154  0.62880105  1
  Ca  Ca1  1  0.74939683  0.12175493  0.37406798  1
  Ca  Ca2  1  0.87238594  0.62670443  0.24484290  1
  Y  Y3  1  0.25000560  0.88032051  0.62382897  1
  Y  Y4  1  0.12600949  0.37216757  0.75198298  1
  Y  Y5  1  0.12303214  0.24260598  0.37234837  1
  Y  Y6  1  0.62704060  0.87807819  0.75338871  1
  Y  Y7  1  0.37674696  0.75233562  0.12417167  1
  Y  Y8  1  0.24583725  0.37135383  0.12450301  1
  Y  Y9  1  0.75490980  0.62812205  0.87774206  1
  Y  Y10  1  0.62626393  0.25252734  0.87747503  1
  Y  Y11  1  0.37701392  0.12417015  0.25114008  1
  Al  Al12  1  0.12297832  0.74942037  0.87726038  1
  Al  Al13  1  0.12415933  0.87356940  0.25050988  1
  Al  Al14  1  0.99967599  0.50108303  0.00067983  1
  Al  Al15  1  0.24998403  0.12615145  0.87485443  1
  Al  Al16  1  0.37842728  0.62776458  0.75332863  1
  Al  Al17  1  0.25453632  0.62554618  0.37575394  1
  Al  Al18  1  0.99927633  0.99776169  0.99841851  1
  Al  Al19  1  0.37550536  0.24995178  0.62505418  1
  Al  Al20  1  0.49902602  0.49754257  0.49876819  1
  Al  Al21  1  0.50039869  0.00126883  0.50231614  1
  Al  Al22  1  0.50465684  0.50071318  0.99957096  1
  Al  Al23  1  0.74395227  0.37241655  0.62248665  1
  Al  Al24  1  0.74900045  0.87568375  0.12610332  1
  Al  Al25  1  0.61917879  0.37045904  0.24300944  1
  Al  Al26  1  0.50039718  0.99985123  0.00135594  1
  Al  Al27  1  0.87526320  0.12484986  0.75028341  1
  Al  Al28  1  0.87577484  0.25013069  0.12124765  1
  Al  Al29  1  0.99932290  0.00119570  0.49944728  1
  Cr  Cr30  1  0.99597843  0.50066718  0.49904349  1
  Si  Si31  1  0.62491131  0.75012158  0.37644406  1
  O  O32  1  0.10067333  0.98307499  0.67850769  1
  O  O33  1  0.11957326  0.59762084  0.91814944  1
  O  O34  1  0.02057938  0.32098542  0.90179519  1
  O  O35  1  0.08484270  0.69555058  0.67949402  1
  O  O36  1  0.08316752  0.88391616  0.40461776  1
  O  O37  1  0.10338019  0.61598332  0.42509245  1
  O  O38  1  0.17911407  0.48129925  0.59948976  1
  O  O39  1  0.41811399  0.82019547  0.80043026  1
  O  O40  1  0.30350063  0.32442129  0.92431481  1
  O  O41  1  0.38062061  0.57872569  0.90128414  1
  O  O42  1  0.02073671  0.19918014  0.12045475  1
  O  O43  1  0.32217539  0.91834120  0.30093669  1
  O  O44  1  0.18139886  0.20287098  0.58323025  1
  O  O45  1  0.20098306  0.58080010  0.18008439  1
  O  O46  1  0.39919064  0.82144262  0.51972214  1
  O  O47  1  0.31871419  0.90042859  0.01893892  1
  O  O48  1  0.30042848  0.47910240  0.38171677  1
  O  O49  1  0.12046937  0.01983385  0.20004691  1
  O  O50  1  0.51941350  0.62024309  0.69654053  1
  O  O51  1  0.40031605  0.07989992  0.88019303  1
  O  O52  1  0.52009457  0.40064971  0.81962665  1
  O  O53  1  0.37955652  0.29921387  0.47898642  1
  O  O54  1  0.58043338  0.88865584  0.38513927  1
  O  O55  1  0.19911098  0.11909148  0.01953836  1
  O  O56  1  0.80097127  0.88240234  0.98113711  1
  O  O57  1  0.41957829  0.09942667  0.61955684  1
  O  O58  1  0.61017413  0.69941169  0.50676128  1
  O  O59  1  0.49237863  0.60733802  0.19263476  1
  O  O60  1  0.59367168  0.91413081  0.11510634  1
  O  O61  1  0.48056755  0.38220964  0.30103069  1
  O  O62  1  0.88040251  0.98395198  0.80541463  1
  O  O63  1  0.69397655  0.51624284  0.61570890  1
  O  O64  1  0.68004062  0.09837352  0.98106417  1
  O  O65  1  0.59726337  0.17694434  0.48035719  1
  O  O66  1  0.80083038  0.41832416  0.81895169  1
  O  O67  1  0.80608482  0.80233113  0.41393535  1
  O  O68  1  0.67881935  0.07991562  0.69862382  1
  O  O69  1  0.98108511  0.80088453  0.88346641  1
  O  O70  1  0.61557089  0.41721301  0.09644507  1
  O  O71  1  0.69409800  0.67910996  0.07463948  1
  O  O72  1  0.57720211  0.17875902  0.19446718  1
  O  O73  1  0.81995440  0.50887667  0.40066032  1
  O  O74  1  0.90453767  0.39050084  0.58473990  1
  O  O75  1  0.92400154  0.12020507  0.60305767  1
  O  O76  1  0.92456116  0.30942095  0.32172446  1
  O  O77  1  0.98229135  0.68051243  0.09540535  1
  O  O78  1  0.88271907  0.39863229  0.07727339  1
  O  O79  1  0.90590213  0.02050485  0.31927826  1
