# generated using pymatgen
data_LiCuF3
_symmetry_space_group_name_H-M   'P 1'
_cell_length_a   5.17456380
_cell_length_b   5.28325357
_cell_length_c   7.91884289
_cell_angle_alpha   91.40035973
_cell_angle_beta   92.93511170
_cell_angle_gamma   85.81429710
_symmetry_Int_Tables_number   1
_chemical_formula_structural   LiCuF3
_chemical_formula_sum   'Li4 Cu4 F12'
_cell_volume   215.58228990
_cell_formula_units_Z   4
loop_
 _symmetry_equiv_pos_site_id
 _symmetry_equiv_pos_as_xyz
  1  'x, y, z'
loop_
 _atom_site_type_symbol
 _atom_site_label
 _atom_site_symmetry_multiplicity
 _atom_site_fract_x
 _atom_site_fract_y
 _atom_site_fract_z
 _atom_site_occupancy
  Li  Li0  1  0.00696984  0.95247814  0.73459513  1
  Li  Li1  1  0.51100083  0.46589674  0.76559599  1
  Li  Li2  1  0.48899917  0.53410326  0.23440401  1
  Li  Li3  1  0.99303016  0.04752186  0.26540487  1
  Cu  Cu4  1  0.00000000  0.50000000  0.50000000  1
  Cu  Cu5  1  0.00000000  0.50000000  0.00000000  1
  Cu  Cu6  1  0.50000000  0.00000000  0.50000000  1
  Cu  Cu7  1  0.50000000  0.00000000  0.00000000  1
  F  F8  1  0.17212005  0.17723268  0.91134753  1
  F  F9  1  0.16483071  0.16857207  0.55793002  1
  F  F10  1  0.13966194  0.40870622  0.22417989  1
  F  F11  1  0.30234155  0.65779592  0.59118678  1
  F  F12  1  0.34535554  0.69257918  0.93816979  1
  F  F13  1  0.36049247  0.90240059  0.27748238  1
  F  F14  1  0.63950753  0.09759941  0.72251762  1
  F  F15  1  0.65464446  0.30742082  0.06183021  1
  F  F16  1  0.69765845  0.34220408  0.40881322  1
  F  F17  1  0.86033806  0.59129378  0.77582011  1
  F  F18  1  0.83516929  0.83142793  0.44206998  1
  F  F19  1  0.82787995  0.82276732  0.08865247  1
