# generated using pymatgen
data_Mg(GaO2)2
_symmetry_space_group_name_H-M   'P 1'
_cell_length_a   5.96041989
_cell_length_b   5.96041989
_cell_length_c   5.94650229
_cell_angle_alpha   59.92254772
_cell_angle_beta   59.92254772
_cell_angle_gamma   60.00000000
_symmetry_Int_Tables_number   1
_chemical_formula_structural   Mg(GaO2)2
_chemical_formula_sum   'Mg2 Ga4 O8'
_cell_volume   149.20757943
_cell_formula_units_Z   2
loop_
 _symmetry_equiv_pos_site_id
 _symmetry_equiv_pos_as_xyz
  1  'x, y, z'
loop_
 _atom_site_type_symbol
 _atom_site_label
 _atom_site_symmetry_multiplicity
 _atom_site_fract_x
 _atom_site_fract_y
 _atom_site_fract_z
 _atom_site_occupancy
  Mg  Mg0  1  0.12130096  0.12130096  0.13609812  1
  Mg  Mg1  1  0.49808625  0.49808625  0.00574225  1
  Ga  Ga2  1  0.49706270  0.01023509  0.49563850  1
  Ga  Ga3  1  0.01023509  0.49706270  0.49563850  1
  Ga  Ga4  1  0.49706270  0.49706270  0.49563850  1
  Ga  Ga5  1  0.88012314  0.88012314  0.85963158  1
  O  O6  1  0.71835368  0.25491988  0.27180556  1
  O  O7  1  0.25491988  0.25491988  0.27180556  1
  O  O8  1  0.25491988  0.71835368  0.27180556  1
  O  O9  1  0.25806322  0.25806322  0.72581034  1
  O  O10  1  0.74493031  0.74493031  0.26520906  1
  O  O11  1  0.74608348  0.27277321  0.73505882  1
  O  O12  1  0.74608348  0.74608348  0.73505882  1
  O  O13  1  0.27277321  0.74608348  0.73505882  1
