# generated using pymatgen
data_CrP2H15N2O11
_symmetry_space_group_name_H-M   'P 1'
_cell_length_a   9.04120519
_cell_length_b   9.04120519
_cell_length_c   7.53413413
_cell_angle_alpha   78.55017985
_cell_angle_beta   101.44982015
_cell_angle_gamma   94.74163923
_symmetry_Int_Tables_number   1
_chemical_formula_structural   CrP2H15N2O11
_chemical_formula_sum   'Cr2 P4 H30 N4 O22'
_cell_volume   590.99669718
_cell_formula_units_Z   2
loop_
 _symmetry_equiv_pos_site_id
 _symmetry_equiv_pos_as_xyz
  1  'x, y, z'
loop_
 _atom_site_type_symbol
 _atom_site_label
 _atom_site_symmetry_multiplicity
 _atom_site_fract_x
 _atom_site_fract_y
 _atom_site_fract_z
 _atom_site_occupancy
  Cr  Cr0  1  0.77956644  0.22043356  0.21671950  1
  Cr  Cr1  1  0.22043356  0.77956644  0.78328050  1
  P  P2  1  0.75285368  0.49254242  0.85406431  1
  P  P3  1  0.50745758  0.24714632  0.85406431  1
  P  P4  1  0.24714632  0.50745758  0.14593569  1
  P  P5  1  0.49254242  0.75285368  0.14593569  1
  H  H6  1  0.67355408  0.67355408  0.00000000  1
  H  H7  1  0.32644592  0.32644592  0.00000000  1
  H  H8  1  0.03905484  0.35729275  0.33083382  1
  H  H9  1  0.64270725  0.96094516  0.33083382  1
  H  H10  1  0.96094516  0.64270725  0.66916618  1
  H  H11  1  0.35729275  0.03905484  0.66916618  1
  H  H12  1  0.99750574  0.24918125  0.51471725  1
  H  H13  1  0.75081875  0.00249426  0.51471725  1
  H  H14  1  0.00249426  0.75081875  0.48528275  1
  H  H15  1  0.24918125  0.99750574  0.48528275  1
  H  H16  1  0.59498298  0.40501702  0.29085292  1
  H  H17  1  0.40501702  0.59498298  0.70914708  1
  H  H18  1  0.74477342  0.38952780  0.45666542  1
  H  H19  1  0.61047220  0.25522658  0.45666542  1
  H  H20  1  0.25522658  0.61047220  0.54333458  1
  H  H21  1  0.38952780  0.74477342  0.54333458  1
  H  H22  1  0.96812742  0.03187258  0.18694112  1
  H  H23  1  0.03187258  0.96812742  0.81305888  1
  H  H24  1  0.96490969  0.16865054  0.00337198  1
  H  H25  1  0.83134946  0.03509031  0.00337198  1
  H  H26  1  0.03509031  0.83134946  0.99662802  1
  H  H27  1  0.16865054  0.96490969  0.99662802  1
  H  H28  1  0.14119833  0.27933463  0.76771835  1
  H  H29  1  0.72066537  0.85880167  0.76771835  1
  H  H30  1  0.85880167  0.72066537  0.23228165  1
  H  H31  1  0.27933463  0.14119833  0.23228165  1
  H  H32  1  0.97755609  0.34638031  0.73962700  1
  H  H33  1  0.65361969  0.02244391  0.73962700  1
  H  H34  1  0.02244391  0.65361969  0.26037300  1
  H  H35  1  0.34638031  0.97755609  0.26037300  1
  N  N36  1  0.67007883  0.32992117  0.37257490  1
  N  N37  1  0.32992117  0.67007883  0.62742510  1
  N  N38  1  0.89896518  0.10103482  0.08555892  1
  N  N39  1  0.10103482  0.89896518  0.91444108  1
  O  O40  1  0.81641283  0.41106360  0.04945511  1
  O  O41  1  0.58893640  0.18358717  0.04945511  1
  O  O42  1  0.18358717  0.58893640  0.95054489  1
  O  O43  1  0.41106360  0.81641283  0.95054489  1
  O  O44  1  0.70761774  0.65303462  0.85956006  1
  O  O45  1  0.34696538  0.29238226  0.85956006  1
  O  O46  1  0.29238226  0.34696538  0.14043994  1
  O  O47  1  0.65303462  0.70761774  0.14043994  1
  O  O48  1  0.85303914  0.49378608  0.71445311  1
  O  O49  1  0.50621392  0.14696086  0.71445311  1
  O  O50  1  0.14696086  0.50621392  0.28554689  1
  O  O51  1  0.49378608  0.85303914  0.28554689  1
  O  O52  1  0.59348593  0.40651407  0.77921438  1
  O  O53  1  0.40651407  0.59348593  0.22078562  1
  O  O54  1  0.98035425  0.26125040  0.37600516  1
  O  O55  1  0.73874960  0.01964575  0.37600516  1
  O  O56  1  0.01964575  0.73874960  0.62399484  1
  O  O57  1  0.26125040  0.98035425  0.62399484  1
  O  O58  1  0.03173175  0.25626175  0.73354499  1
  O  O59  1  0.74373825  0.96826825  0.73354499  1
  O  O60  1  0.96826825  0.74373825  0.26645501  1
  O  O61  1  0.25626175  0.03173175  0.26645501  1
