# generated using pymatgen
data_LiCuF3
_symmetry_space_group_name_H-M   'P 1'
_cell_length_a   3.27909635
_cell_length_b   9.81222043
_cell_length_c   7.51412565
_cell_angle_alpha   90.00000000
_cell_angle_beta   81.53903791
_cell_angle_gamma   90.00000000
_symmetry_Int_Tables_number   1
_chemical_formula_structural   LiCuF3
_chemical_formula_sum   'Li4 Cu4 F12'
_cell_volume   239.13729013
_cell_formula_units_Z   4
loop_
 _symmetry_equiv_pos_site_id
 _symmetry_equiv_pos_as_xyz
  1  'x, y, z'
loop_
 _atom_site_type_symbol
 _atom_site_label
 _atom_site_symmetry_multiplicity
 _atom_site_fract_x
 _atom_site_fract_y
 _atom_site_fract_z
 _atom_site_occupancy
  Li  Li0  1  0.02323942  0.68349514  0.01847084  1
  Li  Li1  1  0.47676058  0.18349514  0.48152916  1
  Li  Li2  1  0.52323942  0.81650486  0.51847084  1
  Li  Li3  1  0.97676058  0.31650486  0.98152916  1
  Cu  Cu4  1  0.10830453  0.01174195  0.18780818  1
  Cu  Cu5  1  0.39169547  0.51174195  0.31219182  1
  Cu  Cu6  1  0.60830453  0.48825805  0.68780818  1
  Cu  Cu7  1  0.89169547  0.98825805  0.81219182  1
  F  F8  1  0.99328013  0.42573113  0.18903049  1
  F  F9  1  0.97736772  0.84517483  0.64219520  1
  F  F10  1  0.32015284  0.38289913  0.51607265  1
  F  F11  1  0.17984716  0.88289913  0.98392735  1
  F  F12  1  0.50671987  0.92573113  0.31096951  1
  F  F13  1  0.47736772  0.65482517  0.14219520  1
  F  F14  1  0.52263228  0.34517483  0.85780480  1
  F  F15  1  0.49328013  0.07426887  0.68903049  1
  F  F16  1  0.82015284  0.11710087  0.01607265  1
  F  F17  1  0.67984716  0.61710087  0.48392735  1
  F  F18  1  0.02263228  0.15482517  0.35780480  1
  F  F19  1  0.00671987  0.57426887  0.81096951  1
