# generated using pymatgen
data_Cu3OF5
_symmetry_space_group_name_H-M   'P 1'
_cell_length_a   9.60846078
_cell_length_b   4.59601983
_cell_length_c   4.59164136
_cell_angle_alpha   90.00000000
_cell_angle_beta   85.40398455
_cell_angle_gamma   90.00000000
_symmetry_Int_Tables_number   1
_chemical_formula_structural   Cu3OF5
_chemical_formula_sum   'Cu6 O2 F10'
_cell_volume   202.11797121
_cell_formula_units_Z   2
loop_
 _symmetry_equiv_pos_site_id
 _symmetry_equiv_pos_as_xyz
  1  'x, y, z'
loop_
 _atom_site_type_symbol
 _atom_site_label
 _atom_site_symmetry_multiplicity
 _atom_site_fract_x
 _atom_site_fract_y
 _atom_site_fract_z
 _atom_site_occupancy
  Cu  Cu0  1  0.01001745  -0.00100821  0.01404321  1
  Cu  Cu1  1  0.16856007  0.53296315  0.47425327  1
  Cu  Cu2  1  0.32651477  0.99594593  0.02117585  1
  Cu  Cu3  1  0.51001745  0.50100821  0.51404321  1
  Cu  Cu4  1  0.66856007  0.96703685  0.97425327  1
  Cu  Cu5  1  0.82651477  0.50405407  0.52117585  1
  O  O6  1  0.16768148  0.82409192  0.19140427  1
  O  O7  1  0.66768148  0.67590808  0.69140427  1
  F  F8  1  0.01296290  0.71650061  0.69798301  1
  F  F9  1  0.15426983  0.23551561  0.77540065  1
  F  F10  1  0.33247127  0.32012647  0.30235064  1
  F  F11  1  0.34714945  0.70985703  0.71811908  1
  F  F12  1  0.51296290  0.78349939  0.19798301  1
  F  F13  1  0.48037278  0.19343599  0.80527203  1
  F  F14  1  0.65426983  0.26448439  0.27540065  1
  F  F15  1  0.84714945  0.79014297  0.21811908  1
  F  F16  1  0.83247127  0.17987353  0.80235064  1
  F  F17  1  0.98037278  0.30656401  0.30527203  1
