# generated using pymatgen
data_LiNd6(CuO6)2
_symmetry_space_group_name_H-M   'P 1'
_cell_length_a   6.76235206
_cell_length_b   20.30490990
_cell_length_c   8.81471587
_cell_angle_alpha   25.61091700
_cell_angle_beta   68.37315737
_cell_angle_gamma   49.22410750
_symmetry_Int_Tables_number   1
_chemical_formula_structural   LiNd6(CuO6)2
_chemical_formula_sum   'Li1 Nd6 Cu2 O12'
_cell_volume   292.95111722
_cell_formula_units_Z   1
loop_
 _symmetry_equiv_pos_site_id
 _symmetry_equiv_pos_as_xyz
  1  'x, y, z'
loop_
 _atom_site_type_symbol
 _atom_site_label
 _atom_site_symmetry_multiplicity
 _atom_site_fract_x
 _atom_site_fract_y
 _atom_site_fract_z
 _atom_site_occupancy
  Li  Li0  1  0.00040168  0.99879718  0.00591238  1
  Nd  Nd1  1  0.65483139  0.21360242  0.00625460  1
  Nd  Nd2  1  0.35366542  0.11647955  0.00033031  1
  Nd  Nd3  1  0.65145477  0.54854236  0.00164767  1
  Nd  Nd4  1  0.35343269  0.44945585  0.00199193  1
  Nd  Nd5  1  0.35321047  0.78099325  0.00528191  1
  Nd  Nd6  1  0.64920464  0.88301235  0.00162912  1
  Cu  Cu7  1  0.00342814  0.33279144  0.00259175  1
  Cu  Cu8  1  -0.00183716  0.66782687  0.00069998  1
  O  O9  1  0.75178727  0.08270204  0.50233777  1
  O  O10  1  0.49992374  0.00362128  0.49267340  1
  O  O11  1  0.25240040  0.24933952  0.50122403  1
  O  O12  1  0.00873186  0.16920549  0.48655936  1
  O  O13  1  0.75506111  0.41204339  0.50782740  1
  O  O14  1  0.47555938  0.34733168  0.48085814  1
  O  O15  1  0.99178853  0.50535691  0.49273584  1
  O  O16  1  0.52373364  0.65150013  0.52557995  1
  O  O17  1  0.25139652  0.58320199  0.50118430  1
  O  O18  1  0.75048716  0.75110364  0.49762135  1
  O  O19  1  0.25537712  0.91352762  0.50635306  1
  O  O20  1  0.99787622  0.82802804  0.52189375  1
