# generated using pymatgen
data_K3SnPCO7
_symmetry_space_group_name_H-M   'P 1'
_cell_length_a   10.14945530
_cell_length_b   7.55177196
_cell_length_c   5.68874653
_cell_angle_alpha   90.00000000
_cell_angle_beta   91.87719737
_cell_angle_gamma   90.00000000
_symmetry_Int_Tables_number   1
_chemical_formula_structural   K3SnPCO7
_chemical_formula_sum   'K6 Sn2 P2 C2 O14'
_cell_volume   435.78778328
_cell_formula_units_Z   2
loop_
 _symmetry_equiv_pos_site_id
 _symmetry_equiv_pos_as_xyz
  1  'x, y, z'
loop_
 _atom_site_type_symbol
 _atom_site_label
 _atom_site_symmetry_multiplicity
 _atom_site_fract_x
 _atom_site_fract_y
 _atom_site_fract_z
 _atom_site_occupancy
  K  K0  1  0.08368228  0.25000000  0.76361766  1
  K  K1  1  0.25747060  0.00227665  0.25653964  1
  K  K2  1  0.25747060  0.49772335  0.25653964  1
  K  K3  1  0.74252940  0.50227665  0.74346036  1
  K  K4  1  0.74252940  0.99772335  0.74346036  1
  K  K5  1  0.91631772  0.75000000  0.23638234  1
  Sn  Sn6  1  0.37265649  0.75000000  0.77355591  1
  Sn  Sn7  1  0.62734351  0.25000000  0.22644409  1
  P  P8  1  0.41114618  0.25000000  0.70828399  1
  P  P9  1  0.58885382  0.75000000  0.29171601  1
  C  C10  1  0.06663686  0.75000000  0.73794105  1
  C  C11  1  0.93336314  0.25000000  0.26205895  1
  O  O12  1  0.06180979  0.25000000  0.26932901  1
  O  O13  1  0.13107625  0.75000000  0.94111048  1
  O  O14  1  0.13129856  0.75000000  0.54333768  1
  O  O15  1  0.33204489  0.08227454  0.78096148  1
  O  O16  1  0.33204489  0.41772546  0.78096148  1
  O  O17  1  0.42425832  0.25000000  0.43469322  1
  O  O18  1  0.44666515  0.75000000  0.17310261  1
  O  O19  1  0.55333485  0.25000000  0.82689739  1
  O  O20  1  0.57574168  0.75000000  0.56530678  1
  O  O21  1  0.66795511  0.58227454  0.21903852  1
  O  O22  1  0.66795511  0.91772546  0.21903852  1
  O  O23  1  0.86870144  0.25000000  0.45666232  1
  O  O24  1  0.86892375  0.25000000  0.05888952  1
  O  O25  1  0.93819021  0.75000000  0.73067099  1
