# generated using pymatgen
data_BaSrI4
_symmetry_space_group_name_H-M   'P 1'
_cell_length_a   5.87002250
_cell_length_b   9.95825355
_cell_length_c   5.87002168
_cell_angle_alpha   107.14143641
_cell_angle_beta   60.00000275
_cell_angle_gamma   107.14143718
_symmetry_Int_Tables_number   1
_chemical_formula_structural   BaSrI4
_chemical_formula_sum   'Ba1 Sr1 I4'
_cell_volume   279.42360926
_cell_formula_units_Z   1
loop_
 _symmetry_equiv_pos_site_id
 _symmetry_equiv_pos_as_xyz
  1  'x, y, z'
loop_
 _atom_site_type_symbol
 _atom_site_label
 _atom_site_symmetry_multiplicity
 _atom_site_fract_x
 _atom_site_fract_y
 _atom_site_fract_z
 _atom_site_occupancy
  Ba  Ba0  1  0.00000000  0.00000000  0.00000000  1
  Sr  Sr1  1  0.50000000  0.50000000  0.50000000  1
  I  I2  1  0.37719868  0.13159703  0.37719868  1
  I  I3  1  0.12909655  0.38728965  0.12909655  1
  I  I4  1  0.87090345  0.61271035  0.87090345  1
  I  I5  1  0.62280132  0.86840297  0.62280132  1
