# generated using pymatgen
data_Sr2CaI6
_symmetry_space_group_name_H-M   'P 1'
_cell_length_a   13.88191407
_cell_length_b   13.88185425
_cell_length_c   7.48515927
_cell_angle_alpha   90.00200360
_cell_angle_beta   90.00000000
_cell_angle_gamma   120.00014490
_symmetry_Int_Tables_number   1
_chemical_formula_structural   Sr2CaI6
_chemical_formula_sum   'Sr6 Ca3 I18'
_cell_volume   1249.18820597
_cell_formula_units_Z   3
loop_
 _symmetry_equiv_pos_site_id
 _symmetry_equiv_pos_as_xyz
  1  'x, y, z'
loop_
 _atom_site_type_symbol
 _atom_site_label
 _atom_site_symmetry_multiplicity
 _atom_site_fract_x
 _atom_site_fract_y
 _atom_site_fract_z
 _atom_site_occupancy
  Sr  Sr0  1  0.00003174  0.64273158  0.99995415  1
  Sr  Sr1  1  -0.00000066  0.31014677  0.49990796  1
  Sr  Sr2  1  0.35730116  0.35726842  0.00004585  1
  Sr  Sr3  1  0.31016616  0.00000000  0.50000000  1
  Sr  Sr4  1  0.68985258  0.68985323  0.50009204  1
  Sr  Sr5  1  0.64276335  0.00000000  0.00000000  1
  Ca  Ca6  1  0.33331322  0.66662899  0.49573488  1
  Ca  Ca7  1  0.00001843  0.00000000  0.00000000  1
  Ca  Ca8  1  0.66668424  0.33337101  0.50426512  1
  I  I9  1  0.09013721  0.87459098  0.76215751  1
  I  I10  1  0.22783795  0.77489717  0.25285587  1
  I  I11  1  0.12162651  0.54045581  0.74225792  1
  I  I12  1  0.41885424  0.87834660  0.74229384  1
  I  I13  1  0.22504566  0.45299716  0.25259413  1
  I  I14  1  0.12537231  0.21568911  0.76238186  1
  I  I15  1  0.54704671  0.77216256  0.25286543  1
  I  I16  1  0.21554523  0.12540902  0.23784249  1
  I  I17  1  0.45948535  0.58105154  0.74216078  1
  I  I18  1  0.78457050  0.90998917  0.76204448  1
  I  I19  1  0.45294177  0.22510283  0.74714413  1
  I  I20  1  0.58117070  0.45954419  0.25774208  1
  I  I21  1  0.54050664  0.12165340  0.25770616  1
  I  I22  1  0.77204850  0.54700284  0.74740587  1
  I  I23  1  0.90968420  0.78431089  0.23761814  1
  I  I24  1  0.77488416  0.22783744  0.74713457  1
  I  I25  1  0.87843282  0.41894846  0.25783922  1
  I  I26  1  0.87458033  0.09001083  0.23795552  1
