# generated using pymatgen
data_Li5Ti3O8
_symmetry_space_group_name_H-M   'P 1'
_cell_length_a   5.94514492
_cell_length_b   5.94514492
_cell_length_c   5.94514492
_cell_angle_alpha   59.61130618
_cell_angle_beta   59.61130618
_cell_angle_gamma   59.61130618
_symmetry_Int_Tables_number   1
_chemical_formula_structural   Li5Ti3O8
_chemical_formula_sum   'Li5 Ti3 O8'
_cell_volume   147.27151633
_cell_formula_units_Z   1
loop_
 _symmetry_equiv_pos_site_id
 _symmetry_equiv_pos_as_xyz
  1  'x, y, z'
loop_
 _atom_site_type_symbol
 _atom_site_label
 _atom_site_symmetry_multiplicity
 _atom_site_fract_x
 _atom_site_fract_y
 _atom_site_fract_z
 _atom_site_occupancy
  Li  Li0  1  0.62500000  0.12500000  0.12500000  1
  Li  Li1  1  0.12500000  0.12500000  0.12500000  1
  Li  Li2  1  0.12500000  0.12500000  0.62500000  1
  Li  Li3  1  0.12500000  0.62500000  0.12500000  1
  Li  Li4  1  0.62500000  0.62500000  0.62500000  1
  Ti  Ti5  1  0.62500000  0.12500000  0.62500000  1
  Ti  Ti6  1  0.62500000  0.62500000  0.12500000  1
  Ti  Ti7  1  0.12500000  0.62500000  0.62500000  1
  O  O8  1  0.38010255  0.38010255  0.38010255  1
  O  O9  1  0.85050179  0.37538288  0.37538288  1
  O  O10  1  0.37538288  0.85050179  0.37538288  1
  O  O11  1  0.87461712  0.87461712  0.39949821  1
  O  O12  1  0.87461712  0.39949821  0.87461712  1
  O  O13  1  0.37538288  0.37538288  0.85050179  1
  O  O14  1  0.39949821  0.87461712  0.87461712  1
  O  O15  1  0.86989745  0.86989745  0.86989745  1
