# generated using pymatgen
data_H3SNO3
_symmetry_space_group_name_H-M   'P 1'
_cell_length_a   8.69453709
_cell_length_b   8.29347272
_cell_length_c   9.44622937
_cell_angle_alpha   90.00000000
_cell_angle_beta   90.00000000
_cell_angle_gamma   90.00000000
_symmetry_Int_Tables_number   1
_chemical_formula_structural   H3SNO3
_chemical_formula_sum   'H24 S8 N8 O24'
_cell_volume   681.14782106
_cell_formula_units_Z   8
loop_
 _symmetry_equiv_pos_site_id
 _symmetry_equiv_pos_as_xyz
  1  'x, y, z'
loop_
 _atom_site_type_symbol
 _atom_site_label
 _atom_site_symmetry_multiplicity
 _atom_site_fract_x
 _atom_site_fract_y
 _atom_site_fract_z
 _atom_site_occupancy
  H  H0  1  0.68356957  0.42184597  0.53910658  1
  H  H1  1  0.81643043  0.92184597  0.46089342  1
  H  H2  1  0.18356957  0.57815403  0.96089342  1
  H  H3  1  0.31643043  0.07815403  0.03910658  1
  H  H4  1  0.31643043  0.57815403  0.46089342  1
  H  H5  1  0.18356957  0.07815403  0.53910658  1
  H  H6  1  0.81643043  0.42184597  0.03910658  1
  H  H7  1  0.68356957  0.92184597  0.96089342  1
  H  H8  1  0.77013934  0.58106436  0.61690502  1
  H  H9  1  0.72986066  0.08106436  0.38309498  1
  H  H10  1  0.27013934  0.41893564  0.88309498  1
  H  H11  1  0.22986066  0.91893564  0.11690502  1
  H  H12  1  0.22986066  0.41893564  0.38309498  1
  H  H13  1  0.27013934  0.91893564  0.61690502  1
  H  H14  1  0.72986066  0.58106436  0.11690502  1
  H  H15  1  0.77013934  0.08106436  0.88309498  1
  H  H16  1  0.84207999  0.50393298  0.46367743  1
  H  H17  1  0.65792001  0.00393298  0.53632257  1
  H  H18  1  0.34207999  0.49606702  0.03632257  1
  H  H19  1  0.15792001  0.99606702  0.96367743  1
  H  H20  1  0.15792001  0.49606702  0.53632257  1
  H  H21  1  0.34207999  0.99606702  0.46367743  1
  H  H22  1  0.65792001  0.50393298  0.96367743  1
  H  H23  1  0.84207999  0.00393298  0.03632257  1
  S  S24  1  0.91595493  0.34102335  0.66061666  1
  S  S25  1  0.58404507  0.84102335  0.33938334  1
  S  S26  1  0.41595493  0.65897665  0.83938334  1
  S  S27  1  0.08404507  0.15897665  0.16061666  1
  S  S28  1  0.08404507  0.65897665  0.33938334  1
  S  S29  1  0.41595493  0.15897665  0.66061666  1
  S  S30  1  0.58404507  0.34102335  0.16061666  1
  S  S31  1  0.91595493  0.84102335  0.83938334  1
  N  N32  1  0.78773897  0.47611044  0.55999176  1
  N  N33  1  0.71226103  0.97611044  0.44000824  1
  N  N34  1  0.28773897  0.52388956  0.94000824  1
  N  N35  1  0.21226103  0.02388956  0.05999176  1
  N  N36  1  0.21226103  0.52388956  0.44000824  1
  N  N37  1  0.28773897  0.02388956  0.55999176  1
  N  N38  1  0.71226103  0.47611044  0.05999176  1
  N  N39  1  0.78773897  0.97611044  0.94000824  1
  O  O40  1  0.04599276  0.44904480  0.68421429  1
  O  O41  1  0.45400724  0.94904480  0.31578571  1
  O  O42  1  0.54599276  0.55095520  0.81578571  1
  O  O43  1  0.95400724  0.05095520  0.18421429  1
  O  O44  1  0.95400724  0.55095520  0.31578571  1
  O  O45  1  0.54599276  0.05095520  0.68421429  1
  O  O46  1  0.45400724  0.44904480  0.18421429  1
  O  O47  1  0.04599276  0.94904480  0.81578571  1
  O  O48  1  0.94251849  0.21285432  0.55942661  1
  O  O49  1  0.55748151  0.71285432  0.44057339  1
  O  O50  1  0.44251849  0.78714568  0.94057339  1
  O  O51  1  0.05748151  0.28714568  0.05942661  1
  O  O52  1  0.05748151  0.78714568  0.44057339  1
  O  O53  1  0.44251849  0.28714568  0.55942661  1
  O  O54  1  0.55748151  0.21285432  0.05942661  1
  O  O55  1  0.94251849  0.71285432  0.94057339  1
  O  O56  1  0.82514722  0.30311197  0.78426320  1
  O  O57  1  0.67485278  0.80311197  0.21573680  1
  O  O58  1  0.32514722  0.69688803  0.71573680  1
  O  O59  1  0.17485278  0.19688803  0.28426320  1
  O  O60  1  0.17485278  0.69688803  0.21573680  1
  O  O61  1  0.32514722  0.19688803  0.78426320  1
  O  O62  1  0.67485278  0.30311197  0.28426320  1
  O  O63  1  0.82514722  0.80311197  0.71573680  1
