# generated using pymatgen
data_Li2CuF5
_symmetry_space_group_name_H-M   'P 1'
_cell_length_a   3.88330303
_cell_length_b   5.34199137
_cell_length_c   9.79763016
_cell_angle_alpha   89.99935224
_cell_angle_beta   89.99975272
_cell_angle_gamma   68.66645476
_symmetry_Int_Tables_number   1
_chemical_formula_structural   Li2CuF5
_chemical_formula_sum   'Li4 Cu2 F10'
_cell_volume   189.32078234
_cell_formula_units_Z   2
loop_
 _symmetry_equiv_pos_site_id
 _symmetry_equiv_pos_as_xyz
  1  'x, y, z'
loop_
 _atom_site_type_symbol
 _atom_site_label
 _atom_site_symmetry_multiplicity
 _atom_site_fract_x
 _atom_site_fract_y
 _atom_site_fract_z
 _atom_site_occupancy
  Li  Li0  1  0.13129232  0.73756590  0.06964533  1
  Li  Li1  1  0.13129391  0.73755843  0.43036075  1
  Li  Li2  1  0.86869223  0.26253895  0.57005317  1
  Li  Li3  1  0.86869257  0.26253130  0.92994432  1
  Cu  Cu4  1  0.19236352  0.61463310  0.75000130  1
  Cu  Cu5  1  0.80738868  0.38591938  0.25000025  1
  F  F6  1  0.05851016  0.88161289  0.61457160  1
  F  F7  1  0.05851546  0.88159732  0.88542838  1
  F  F8  1  0.27749984  0.44563786  0.24999777  1
  F  F9  1  0.31869746  0.36223173  0.60212458  1
  F  F10  1  0.31870577  0.36221323  0.89786624  1
  F  F11  1  0.68118713  0.63804881  0.10239986  1
  F  F12  1  0.68119472  0.63803655  0.39760621  1
  F  F13  1  0.72347314  0.55245396  0.75000068  1
  F  F14  1  0.94123682  0.11871432  0.11469103  1
  F  F15  1  0.94125627  0.11870526  0.38530854  1
