# generated using pymatgen
data_Li5(CuO2)3
_symmetry_space_group_name_H-M   'P 1'
_cell_length_a   5.27823013
_cell_length_b   6.59584690
_cell_length_c   4.77966524
_cell_angle_alpha   80.01809027
_cell_angle_beta   96.82984935
_cell_angle_gamma   112.19491268
_symmetry_Int_Tables_number   1
_chemical_formula_structural   Li5(CuO2)3
_chemical_formula_sum   'Li5 Cu3 O6'
_cell_volume   151.47846874
_cell_formula_units_Z   1
loop_
 _symmetry_equiv_pos_site_id
 _symmetry_equiv_pos_as_xyz
  1  'x, y, z'
loop_
 _atom_site_type_symbol
 _atom_site_label
 _atom_site_symmetry_multiplicity
 _atom_site_fract_x
 _atom_site_fract_y
 _atom_site_fract_z
 _atom_site_occupancy
  Li  Li0  1  0.87865074  0.31065100  0.09835671  1
  Li  Li1  1  0.44933206  0.02696039  0.25632631  1
  Li  Li2  1  0.57339869  0.00257374  0.75836633  1
  Li  Li3  1  0.18999498  0.61695239  0.43064393  1
  Li  Li4  1  0.11610419  0.69522899  0.88590193  1
  Cu  Cu5  1  0.84039758  0.83485568  0.32349962  1
  Cu  Cu6  1  0.50193076  0.49918696  0.00156596  1
  Cu  Cu7  1  0.16123184  0.16222140  0.67468709  1
  O  O8  1  0.82042481  0.08708142  0.44698707  1
  O  O9  1  0.86124819  0.59084012  0.17387148  1
  O  O10  1  0.49835375  0.22871355  0.91575967  1
  O  O11  1  0.47994870  0.75732049  0.11476393  1
  O  O12  1  0.15568833  0.42376935  0.80296960  1
  O  O13  1  0.19283936  0.90387253  0.54618736  1
