# generated using pymatgen
data_Ti11O18
_symmetry_space_group_name_H-M   'P 1'
_cell_length_a   5.52417654
_cell_length_b   8.80694120
_cell_length_c   7.50849095
_cell_angle_alpha   66.92172968
_cell_angle_beta   96.34025774
_cell_angle_gamma   74.47551467
_symmetry_Int_Tables_number   1
_chemical_formula_structural   Ti11O18
_chemical_formula_sum   'Ti11 O18'
_cell_volume   314.09982898
_cell_formula_units_Z   1
loop_
 _symmetry_equiv_pos_site_id
 _symmetry_equiv_pos_as_xyz
  1  'x, y, z'
loop_
 _atom_site_type_symbol
 _atom_site_label
 _atom_site_symmetry_multiplicity
 _atom_site_fract_x
 _atom_site_fract_y
 _atom_site_fract_z
 _atom_site_occupancy
  Ti  Ti0  1  0.30257941  0.00218833  0.34468321  1
  Ti  Ti1  1  0.67897823  0.99916828  0.13963511  1
  Ti  Ti2  1  0.04352673  0.31760272  0.50316149  1
  Ti  Ti3  1  0.64150027  0.33315702  0.18104640  1
  Ti  Ti4  1  0.68940479  0.99606906  0.66681545  1
  Ti  Ti5  1  0.35841847  0.67367412  0.31511186  1
  Ti  Ti6  1  0.97220513  0.66297205  0.01614231  1
  Ti  Ti7  1  0.02715880  0.32931323  0.98200811  1
  Ti  Ti8  1  0.63905366  0.33610439  0.68135751  1
  Ti  Ti9  1  0.96718441  0.66752213  0.51542766  1
  Ti  Ti10  1  0.35340600  0.68333835  0.81867473  1
  O  O11  1  0.39679605  0.20874738  0.14129156  1
  O  O12  1  0.93347305  0.12381991  0.18733110  1
  O  O13  1  0.29805724  0.10952971  0.52594537  1
  O  O14  1  0.37601342  0.56332374  0.12581467  1
  O  O15  1  0.03286204  0.25116075  0.78092058  1
  O  O16  1  0.72942436  0.22683886  0.48329680  1
  O  O17  1  0.93751182  0.43389177  0.19184957  1
  O  O18  1  0.62201374  0.10833948  0.85262187  1
  O  O19  1  0.26873437  0.46025797  0.51885615  1
  O  O20  1  0.72651905  0.54238202  0.47649472  1
  O  O21  1  0.41493967  0.88638250  0.16607874  1
  O  O22  1  0.06924483  0.55890971  0.81601812  1
  O  O23  1  0.26666005  0.77083836  0.52042928  1
  O  O24  1  0.95926410  0.77008379  0.21068781  1
  O  O25  1  0.62187268  0.44012787  0.87549284  1
  O  O26  1  0.70450728  0.89708804  0.46204583  1
  O  O27  1  0.04237249  0.86498566  0.80289460  1
  O  O28  1  0.61730988  0.78218182  0.85237057  1
