# generated using pymatgen
data_Li2CuF4
_symmetry_space_group_name_H-M   'P 1'
_cell_length_a   3.17777416
_cell_length_b   9.18157485
_cell_length_c   5.28409874
_cell_angle_alpha   90.00000000
_cell_angle_beta   105.58262161
_cell_angle_gamma   90.00000000
_symmetry_Int_Tables_number   1
_chemical_formula_structural   Li2CuF4
_chemical_formula_sum   'Li4 Cu2 F8'
_cell_volume   148.50719165
_cell_formula_units_Z   2
loop_
 _symmetry_equiv_pos_site_id
 _symmetry_equiv_pos_as_xyz
  1  'x, y, z'
loop_
 _atom_site_type_symbol
 _atom_site_label
 _atom_site_symmetry_multiplicity
 _atom_site_fract_x
 _atom_site_fract_y
 _atom_site_fract_z
 _atom_site_occupancy
  Li  Li0  1  0.60322813  0.33170711  0.93372168  1
  Li  Li1  1  0.39677187  0.83170711  0.56627832  1
  Li  Li2  1  0.60322813  0.16829289  0.43372168  1
  Li  Li3  1  0.39677187  0.66829289  0.06627832  1
  Cu  Cu4  1  0.00000000  0.50000000  0.50000000  1
  Cu  Cu5  1  0.00000000  0.00000000  0.00000000  1
  F  F6  1  0.99004710  0.31828884  0.69103031  1
  F  F7  1  0.99004710  0.18171116  0.19103031  1
  F  F8  1  0.49973871  0.56230403  0.76762995  1
  F  F9  1  0.50026129  0.06230403  0.73237005  1
  F  F10  1  0.49973871  0.93769597  0.26762995  1
  F  F11  1  0.50026129  0.43769597  0.23237005  1
  F  F12  1  0.00995290  0.81828884  0.80896969  1
  F  F13  1  0.00995290  0.68171116  0.30896969  1
