# generated using pymatgen
data_Li7(CuO2)6
_symmetry_space_group_name_H-M   'P 1'
_cell_length_a   5.21292085
_cell_length_b   6.85672228
_cell_length_c   8.25649875
_cell_angle_alpha   101.46287259
_cell_angle_beta   74.58347256
_cell_angle_gamma   80.19950970
_symmetry_Int_Tables_number   1
_chemical_formula_structural   Li7(CuO2)6
_chemical_formula_sum   'Li7 Cu6 O12'
_cell_volume   270.94177887
_cell_formula_units_Z   1
loop_
 _symmetry_equiv_pos_site_id
 _symmetry_equiv_pos_as_xyz
  1  'x, y, z'
loop_
 _atom_site_type_symbol
 _atom_site_label
 _atom_site_symmetry_multiplicity
 _atom_site_fract_x
 _atom_site_fract_y
 _atom_site_fract_z
 _atom_site_occupancy
  Li  Li0  1  0.59086117  0.11960161  0.92045859  1
  Li  Li1  1  0.50000000  0.50000000  0.83333300  1
  Li  Li2  1  0.40913883  0.88039839  0.74620841  1
  Li  Li3  1  0.50093675  0.48803246  0.50179273  1
  Li  Li4  1  0.40879893  0.88195894  0.41322081  1
  Li  Li5  1  0.59120107  0.11804106  0.25344519  1
  Li  Li6  1  0.49906325  0.51196754  0.16487427  1
  Cu  Cu7  1  0.95066790  0.73408141  0.96408348  1
  Cu  Cu8  1  0.95884910  0.72943112  0.62659962  1
  Cu  Cu9  1  0.95912052  0.72891214  0.29597890  1
  Cu  Cu10  1  0.04933210  0.26591859  0.70258352  1
  Cu  Cu11  1  0.04087948  0.27108786  0.37068810  1
  Cu  Cu12  1  0.04115090  0.27056888  0.04006738  1
  O  O13  1  0.78583038  0.33665978  0.92488773  1
  O  O14  1  0.70456493  0.81893883  0.84792798  1
  O  O15  1  0.79648579  0.35507346  0.59445776  1
  O  O16  1  0.69967407  0.79401242  0.51558486  1
  O  O17  1  0.77985274  0.33875394  0.26002577  1
  O  O18  1  0.70272143  0.81529306  0.19020162  1
  O  O19  1  0.29543507  0.18106117  0.81873802  1
  O  O20  1  0.21416962  0.66334022  0.74177827  1
  O  O21  1  0.29727857  0.18470694  0.47646438  1
  O  O22  1  0.22014726  0.66124606  0.40664123  1
  O  O23  1  0.30032593  0.20598758  0.15108214  1
  O  O24  1  0.20351421  0.64492654  0.07220824  1
