# generated using pymatgen
data_Cd3(Pt3O4)10
_symmetry_space_group_name_H-M   'P 1'
_cell_length_a   5.71540231
_cell_length_b   20.70395406
_cell_length_c   8.11311789
_cell_angle_alpha   78.62606473
_cell_angle_beta   90.00000000
_cell_angle_gamma   90.00000000
_symmetry_Int_Tables_number   1
_chemical_formula_structural   Cd3(Pt3O4)10
_chemical_formula_sum   'Cd3 Pt30 O40'
_cell_volume   941.18264424
_cell_formula_units_Z   1
loop_
 _symmetry_equiv_pos_site_id
 _symmetry_equiv_pos_as_xyz
  1  'x, y, z'
loop_
 _atom_site_type_symbol
 _atom_site_label
 _atom_site_symmetry_multiplicity
 _atom_site_fract_x
 _atom_site_fract_y
 _atom_site_fract_z
 _atom_site_occupancy
  Cd  Cd0  1  0.50000000  0.20000000  0.90000000  1
  Cd  Cd1  1  0.50000000  0.59876392  0.70017476  1
  Cd  Cd2  1  0.50000000  0.80123608  0.09982524  1
  Pt  Pt3  1  0.75357777  0.90245214  0.79536002  1
  Pt  Pt4  1  0.75347796  0.30124459  0.59593153  1
  Pt  Pt5  1  0.75347796  0.09875541  0.20406847  1
  Pt  Pt6  1  0.75742804  0.70000000  0.40000000  1
  Pt  Pt7  1  0.75357777  0.49754786  0.00463998  1
  Pt  Pt8  1  0.50000000  0.85144073  0.45473909  1
  Pt  Pt9  1  0.50000000  0.35207401  0.94975582  1
  Pt  Pt10  1  0.50000000  0.54855927  0.34526091  1
  Pt  Pt11  1  0.50000000  0.04792599  0.85024418  1
  Pt  Pt12  1  0.50000000  0.14950016  0.54452108  1
  Pt  Pt13  1  0.50000000  0.75215567  0.74456772  1
  Pt  Pt14  1  0.50000000  0.25049984  0.25547892  1
  Pt  Pt15  1  0.50000000  0.64784433  0.05543228  1
  Pt  Pt16  1  0.50000000  0.95287312  0.15001819  1
  Pt  Pt17  1  0.50000000  0.44712688  0.64998181  1
  Pt  Pt18  1  0.24652204  0.09875541  0.20406847  1
  Pt  Pt19  1  0.24642223  0.49754786  0.00463998  1
  Pt  Pt20  1  0.24642223  0.90245214  0.79536002  1
  Pt  Pt21  1  0.24652204  0.30124459  0.59593153  1
  Pt  Pt22  1  0.24257196  0.70000000  0.40000000  1
  Pt  Pt23  1  0.00000000  0.65041527  0.80439809  1
  Pt  Pt24  1  0.00000000  0.54726581  0.59785740  1
  Pt  Pt25  1  0.00000000  0.14842496  0.79659055  1
  Pt  Pt26  1  0.00000000  0.95067241  0.40000205  1
  Pt  Pt27  1  0.00000000  0.44932759  0.39999795  1
  Pt  Pt28  1  0.00000000  0.85273419  0.20214260  1
  Pt  Pt29  1  0.00000000  0.05011411  0.59899395  1
  Pt  Pt30  1  0.00000000  0.74958473  0.99560191  1
  Pt  Pt31  1  0.00000000  0.34988589  0.20100605  1
  Pt  Pt32  1  0.00000000  0.25157504  0.00340945  1
  O  O33  1  0.74065885  0.10261504  0.94875800  1
  O  O34  1  0.75244367  0.00065982  0.74882035  1
  O  O35  1  0.74065885  0.29738496  0.85124200  1
  O  O36  1  0.74052389  0.19999511  0.65632839  1
  O  O37  1  0.74018965  0.50177277  0.74923643  1
  O  O38  1  0.74081004  0.59850366  0.94356765  1
  O  O39  1  0.74081004  0.80149634  0.85643235  1
  O  O40  1  0.74159177  0.69635709  0.65213501  1
  O  O41  1  0.75401554  0.90028748  0.54970370  1
  O  O42  1  0.75257449  0.00025187  0.25052569  1
  O  O43  1  0.75237004  0.09977831  0.45010104  1
  O  O44  1  0.75257449  0.39974813  0.54947431  1
  O  O45  1  0.75237004  0.30022169  0.34989896  1
  O  O46  1  0.74052389  0.20000489  0.14367161  1
  O  O47  1  0.74152777  0.59902247  0.45723727  1
  O  O48  1  0.75401554  0.49971252  0.25029630  1
  O  O49  1  0.75244367  0.39934018  0.05117965  1
  O  O50  1  0.74159177  0.70364291  0.14786499  1
  O  O51  1  0.74152777  0.80097753  0.34276273  1
  O  O52  1  0.74018965  0.89822723  0.05076357  1
  O  O53  1  0.25918996  0.59850366  0.94356765  1
  O  O54  1  0.25840823  0.69635709  0.65213501  1
  O  O55  1  0.24598446  0.49971252  0.25029630  1
  O  O56  1  0.25934115  0.10261504  0.94875800  1
  O  O57  1  0.25934115  0.29738496  0.85124200  1
  O  O58  1  0.24742551  0.39974813  0.54947431  1
  O  O59  1  0.25947611  0.20000489  0.14367161  1
  O  O60  1  0.24755633  0.00065982  0.74882035  1
  O  O61  1  0.25947611  0.19999511  0.65632839  1
  O  O62  1  0.24762996  0.09977831  0.45010104  1
  O  O63  1  0.25981035  0.89822723  0.05076357  1
  O  O64  1  0.25918996  0.80149634  0.85643235  1
  O  O65  1  0.25981035  0.50177277  0.74923643  1
  O  O66  1  0.24598446  0.90028748  0.54970370  1
  O  O67  1  0.25847223  0.59902247  0.45723727  1
  O  O68  1  0.24755633  0.39934018  0.05117965  1
  O  O69  1  0.25847223  0.80097753  0.34276273  1
  O  O70  1  0.25840823  0.70364291  0.14786499  1
  O  O71  1  0.24742551  0.00025187  0.25052569  1
  O  O72  1  0.24762996  0.30022169  0.34989896  1
