# generated using pymatgen
data_Na5Ti16O32
_symmetry_space_group_name_H-M   'P 1'
_cell_length_a   9.63012256
_cell_length_b   11.38866649
_cell_length_c   5.94886068
_cell_angle_alpha   90.04021193
_cell_angle_beta   89.93628597
_cell_angle_gamma   89.44412118
_symmetry_Int_Tables_number   1
_chemical_formula_structural   Na5Ti16O32
_chemical_formula_sum   'Na5 Ti16 O32'
_cell_volume   652.40558309
_cell_formula_units_Z   1
loop_
 _symmetry_equiv_pos_site_id
 _symmetry_equiv_pos_as_xyz
  1  'x, y, z'
loop_
 _atom_site_type_symbol
 _atom_site_label
 _atom_site_symmetry_multiplicity
 _atom_site_fract_x
 _atom_site_fract_y
 _atom_site_fract_z
 _atom_site_occupancy
  Na  Na0  1  0.11666028  0.58080185  0.37349530  1
  Na  Na1  1  0.39497761  0.07581591  0.60970777  1
  Na  Na2  1  0.60391084  0.92396610  0.89149394  1
  Na  Na3  1  0.89437633  0.42459998  0.11890505  1
  Na  Na4  1  0.89494277  0.42470018  0.63089627  1
  Ti  Ti5  1  0.01967846  0.12281101  0.12136686  1
  Ti  Ti6  1  0.01648250  0.12149835  0.62826057  1
  Ti  Ti7  1  0.23887504  0.32961986  0.37363905  1
  Ti  Ti8  1  0.23101835  0.34501816  0.87553847  1
  Ti  Ti9  1  0.27023484  0.84612537  0.12516420  1
  Ti  Ti10  1  0.26166519  0.82958108  0.62536193  1
  Ti  Ti11  1  0.48092483  0.62029010  0.88010858  1
  Ti  Ti12  1  0.48608229  0.62148101  0.37008108  1
  Ti  Ti13  1  0.51474299  0.37645781  0.12899499  1
  Ti  Ti14  1  0.51666409  0.37925028  0.62098688  1
  Ti  Ti15  1  0.73853377  0.16855691  0.87623465  1
  Ti  Ti16  1  0.73115860  0.15452423  0.37459299  1
  Ti  Ti17  1  0.76336425  0.66495501  0.12472822  1
  Ti  Ti18  1  0.76255878  0.66547170  0.62476488  1
  Ti  Ti19  1  0.98031605  0.87852824  0.37484324  1
  Ti  Ti20  1  0.98622451  0.87663482  0.87534948  1
  O  O21  1  0.10037043  0.95947252  0.12521591  1
  O  O22  1  0.09975308  0.95960313  0.62479930  1
  O  O23  1  0.12665390  0.18863632  0.37727897  1
  O  O24  1  0.12498121  0.19408967  0.87269265  1
  O  O25  1  0.13628358  0.77242638  0.37423040  1
  O  O26  1  0.13967912  0.77228148  0.87606471  1
  O  O27  1  0.13843160  0.40740307  0.13150460  1
  O  O28  1  0.14019850  0.40792022  0.61938473  1
  O  O29  1  0.35064376  0.90887757  0.38096030  1
  O  O30  1  0.35835284  0.90779312  0.86752191  1
  O  O31  1  0.36116344  0.27283529  0.12303741  1
  O  O32  1  0.36293182  0.27184290  0.62611661  1
  O  O33  1  0.37379607  0.69318197  0.12815666  1
  O  O34  1  0.37391797  0.68827630  0.62229736  1
  O  O35  1  0.39687358  0.46136771  0.37536309  1
  O  O36  1  0.39762448  0.46059971  0.87487019  1
  O  O37  1  0.60226707  0.53824767  0.12435011  1
  O  O38  1  0.60162808  0.53901651  0.62489577  1
  O  O39  1  0.63051971  0.31408362  0.87508858  1
  O  O40  1  0.62934453  0.30852917  0.37428290  1
  O  O41  1  0.63995430  0.72735567  0.37541502  1
  O  O42  1  0.63618178  0.72878789  0.87482991  1
  O  O43  1  0.64848700  0.09240133  0.11903277  1
  O  O44  1  0.64300976  0.09299360  0.63215348  1
  O  O45  1  0.85854065  0.58643400  0.37456003  1
  O  O46  1  0.84928810  0.58529472  0.87494860  1
  O  O47  1  0.86390844  0.23066119  0.12636170  1
  O  O48  1  0.86204241  0.23053349  0.62426062  1
  O  O49  1  0.87366206  0.80874435  0.12254631  1
  O  O50  1  0.87420792  0.80845715  0.62770643  1
  O  O51  1  0.89868713  0.04217847  0.37496503  1
  O  O52  1  0.89903329  0.04177186  0.87559153  1
