# generated using pymatgen
data_Bi7(O2F3)3
_symmetry_space_group_name_H-M   'P 1'
_cell_length_a   11.78279844
_cell_length_b   20.27979853
_cell_length_c   5.76017141
_cell_angle_alpha   81.83539309
_cell_angle_beta   90.00000000
_cell_angle_gamma   90.00000000
_symmetry_Int_Tables_number   1
_chemical_formula_structural   Bi7(O2F3)3
_chemical_formula_sum   'Bi28 O24 F36'
_cell_volume   1362.45788518
_cell_formula_units_Z   4
loop_
 _symmetry_equiv_pos_site_id
 _symmetry_equiv_pos_as_xyz
  1  'x, y, z'
loop_
 _atom_site_type_symbol
 _atom_site_label
 _atom_site_symmetry_multiplicity
 _atom_site_fract_x
 _atom_site_fract_y
 _atom_site_fract_z
 _atom_site_occupancy
  Bi  Bi0  1  0.14265466  0.07043010  0.70435390  1
  Bi  Bi1  1  0.14320201  0.92923407  0.27389298  1
  Bi  Bi2  1  0.14733383  0.64468519  0.38631826  1
  Bi  Bi3  1  0.14202464  0.35371019  0.56295341  1
  Bi  Bi4  1  0.13633912  0.50085868  0.05361693  1
  Bi  Bi5  1  0.14821216  0.21327889  0.17856851  1
  Bi  Bi6  1  0.14657428  0.78706000  0.88459245  1
  Bi  Bi7  1  0.35178784  0.78672111  0.39184739  1
  Bi  Bi8  1  0.35342572  0.21294000  0.67165244  1
  Bi  Bi9  1  0.36366088  0.49914132  0.55447561  1
  Bi  Bi10  1  0.35266617  0.35531481  0.03100345  1
  Bi  Bi11  1  0.35797536  0.64628981  0.91666360  1
  Bi  Bi12  1  0.35734534  0.92956990  0.77478400  1
  Bi  Bi13  1  0.35679799  0.07076593  0.20312705  1
  Bi  Bi14  1  0.64320201  0.07076593  0.70312705  1
  Bi  Bi15  1  0.64265466  0.92956990  0.27478400  1
  Bi  Bi16  1  0.64202464  0.64628981  0.41666360  1
  Bi  Bi17  1  0.64733383  0.35531481  0.53100345  1
  Bi  Bi18  1  0.63633912  0.49914132  0.05447561  1
  Bi  Bi19  1  0.64821216  0.78672111  0.89184739  1
  Bi  Bi20  1  0.64657428  0.21294000  0.17165244  1
  Bi  Bi21  1  0.85342572  0.78706000  0.38459245  1
  Bi  Bi22  1  0.85178784  0.21327889  0.67856851  1
  Bi  Bi23  1  0.86366088  0.50085868  0.55361693  1
  Bi  Bi24  1  0.85797536  0.35371019  0.06295341  1
  Bi  Bi25  1  0.85266617  0.64468519  0.88631826  1
  Bi  Bi26  1  0.85734534  0.07043010  0.20435390  1
  Bi  Bi27  1  0.85679799  0.92923407  0.77389298  1
  O  O28  1  0.23899164  0.43188942  0.80034799  1
  O  O29  1  0.24566964  0.14504032  0.94715885  1
  O  O30  1  0.24414465  0.85594169  0.59212688  1
  O  O31  1  0.23882286  0.28732644  0.85133362  1
  O  O32  1  0.24401730  0.70932623  0.64321446  1
  O  O33  1  0.25000000  0.00000000  0.49168607  1
  O  O34  1  0.25000000  0.00000000  0.99106072  1
  O  O35  1  0.25598270  0.29067377  0.35254069  1
  O  O36  1  0.26117714  0.71267356  0.13866006  1
  O  O37  1  0.25433036  0.85495968  0.09219917  1
  O  O38  1  0.25585535  0.14405831  0.44806757  1
  O  O39  1  0.26100836  0.56811058  0.23223741  1
  O  O40  1  0.73899164  0.56811058  0.73223741  1
  O  O41  1  0.74414465  0.14405831  0.94806857  1
  O  O42  1  0.74566964  0.85495968  0.59219917  1
  O  O43  1  0.74401730  0.29067377  0.85254069  1
  O  O44  1  0.73882286  0.71267356  0.63866006  1
  O  O45  1  0.75000000  0.00000000  0.49106072  1
  O  O46  1  0.75000000  0.00000000  0.99168607  1
  O  O47  1  0.76117714  0.28732644  0.35133362  1
  O  O48  1  0.75598270  0.70932623  0.14321446  1
  O  O49  1  0.75433036  0.14504032  0.44715885  1
  O  O50  1  0.75585535  0.85594169  0.09212688  1
  O  O51  1  0.76100836  0.43188942  0.30034799  1
  F  F52  1  0.00044596  0.00020360  0.06460352  1
  F  F53  1  0.99955404  0.00020360  0.56460352  1
  F  F54  1  0.02318438  0.12861470  0.36475796  1
  F  F55  1  0.02229390  0.87130968  0.98856611  1
  F  F56  1  0.03694625  0.26032385  0.50787909  1
  F  F57  1  0.04140747  0.74090844  0.24610993  1
  F  F58  1  0.06042874  0.38668023  0.17337496  1
  F  F59  1  0.05715844  0.61374666  0.04111537  1
  F  F60  1  0.06123235  0.49898461  0.42544154  1
  F  F61  1  0.23277002  0.57021791  0.73247595  1
  F  F62  1  0.26722998  0.42978209  0.30269386  1
  F  F63  1  0.43876765  0.50101539  0.92442515  1
  F  F64  1  0.44284156  0.38625334  0.65486204  1
  F  F65  1  0.43957126  0.61331977  0.56005419  1
  F  F66  1  0.45859253  0.25909156  0.98701837  1
  F  F67  1  0.46305375  0.73967615  0.76820294  1
  F  F68  1  0.47770610  0.12869032  0.85987579  1
  F  F69  1  0.47681562  0.87138530  0.49337266  1
  F  F70  1  0.49955404  0.99979640  0.06480711  1
  F  F71  1  0.50044596  0.99979640  0.56480711  1
  F  F72  1  0.52318438  0.87138530  0.99337266  1
  F  F73  1  0.52229390  0.12869032  0.35987579  1
  F  F74  1  0.54140747  0.25909156  0.48701837  1
  F  F75  1  0.53694625  0.73967615  0.26820294  1
  F  F76  1  0.56042874  0.61331977  0.06005419  1
  F  F77  1  0.55715844  0.38625334  0.15486204  1
  F  F78  1  0.56123235  0.50101539  0.42442515  1
  F  F79  1  0.73277002  0.42978209  0.80269386  1
  F  F80  1  0.76722998  0.57021791  0.23247595  1
  F  F81  1  0.93876765  0.49898461  0.92544154  1
  F  F82  1  0.94284156  0.61374666  0.54111537  1
  F  F83  1  0.93957126  0.38668023  0.67337496  1
  F  F84  1  0.96305375  0.26032385  0.00787909  1
  F  F85  1  0.95859253  0.74090844  0.74610993  1
  F  F86  1  0.97770610  0.87130968  0.48856611  1
  F  F87  1  0.97681562  0.12861470  0.86475796  1
