# generated using pymatgen
data_Na7Ti16O32
_symmetry_space_group_name_H-M   'P 1'
_cell_length_a   8.68550276
_cell_length_b   10.63392445
_cell_length_c   8.67024796
_cell_angle_alpha   65.93215262
_cell_angle_beta   90.00997032
_cell_angle_gamma   114.11358986
_symmetry_Int_Tables_number   1
_chemical_formula_structural   Na7Ti16O32
_chemical_formula_sum   'Na7 Ti16 O32'
_cell_volume   653.92534365
_cell_formula_units_Z   1
loop_
 _symmetry_equiv_pos_site_id
 _symmetry_equiv_pos_as_xyz
  1  'x, y, z'
loop_
 _atom_site_type_symbol
 _atom_site_label
 _atom_site_symmetry_multiplicity
 _atom_site_fract_x
 _atom_site_fract_y
 _atom_site_fract_z
 _atom_site_occupancy
  Na  Na0  1  0.43865573  0.12562448  0.31073761  1
  Na  Na1  1  0.81156801  0.37391435  0.93583162  1
  Na  Na2  1  0.30964809  0.37379931  0.44178187  1
  Na  Na3  1  0.68756264  0.62559101  0.56511284  1
  Na  Na4  1  0.18743669  0.62445493  0.06376617  1
  Na  Na5  1  0.56739848  0.87800307  0.68721213  1
  Na  Na6  1  0.06190414  0.87648553  0.18615190  1
  Ti  Ti7  1  0.75396676  0.00246332  0.24156763  1
  Ti  Ti8  1  0.24547499  0.00274418  0.75089701  1
  Ti  Ti9  1  0.99871967  0.00283023  0.50409697  1
  Ti  Ti10  1  0.50456026  0.00024245  0.99661077  1
  Ti  Ti11  1  0.12064325  0.24819326  0.12115205  1
  Ti  Ti12  1  0.87563271  0.24938740  0.37965908  1
  Ti  Ti13  1  0.63060817  0.24805208  0.62928182  1
  Ti  Ti14  1  0.36876453  0.24920048  0.87239623  1
  Ti  Ti15  1  0.99926310  0.49793522  0.50193417  1
  Ti  Ti16  1  0.74750349  0.49910241  0.25095818  1
  Ti  Ti17  1  0.49873584  0.49752378  0.00183773  1
  Ti  Ti18  1  0.24414928  0.49551416  0.75299399  1
  Ti  Ti19  1  0.87647041  0.75369808  0.87391837  1
  Ti  Ti20  1  0.37693355  0.75158040  0.37581921  1
  Ti  Ti21  1  0.62757355  0.75358437  0.12140607  1
  Ti  Ti22  1  0.12876453  0.75409957  0.62305765  1
  O  O23  1  0.27885397  0.01878516  0.97246231  1
  O  O24  1  0.77834729  0.01930514  0.46948246  1
  O  O25  1  0.99125894  0.01938664  0.25887984  1
  O  O26  1  0.48898675  0.01818383  0.75819023  1
  O  O27  1  0.59566020  0.23094745  0.86644918  1
  O  O28  1  0.09727913  0.23248782  0.36434669  1
  O  O29  1  0.38588593  0.23225811  0.65263676  1
  O  O30  1  0.88416357  0.23312030  0.15211198  1
  O  O31  1  0.36365212  0.26797024  0.09702146  1
  O  O32  1  0.15017759  0.26708584  0.88304143  1
  O  O33  1  0.86714588  0.26865612  0.59889973  1
  O  O34  1  0.65349198  0.26818353  0.38484269  1
  O  O35  1  0.25749268  0.48040890  0.99182159  1
  O  O36  1  0.46985477  0.48119305  0.77772037  1
  O  O37  1  0.97201290  0.48253267  0.27850044  1
  O  O38  1  0.75842487  0.48074475  0.49273456  1
  O  O39  1  0.02787121  0.52207415  0.72216094  1
  O  O40  1  0.24072191  0.51983745  0.50980025  1
  O  O41  1  0.52658192  0.51883398  0.22312576  1
  O  O42  1  0.73931874  0.51785379  0.00940157  1
  O  O43  1  0.63290044  0.72950876  0.90283320  1
  O  O44  1  0.13611721  0.73308766  0.40214332  1
  O  O45  1  0.84706838  0.73071040  0.11634394  1
  O  O46  1  0.34882264  0.73247412  0.61625905  1
  O  O47  1  0.11593997  0.76983976  0.84781300  1
  O  O48  1  0.40366032  0.76852938  0.13345286  1
  O  O49  1  0.90430491  0.77081917  0.63314178  1
  O  O50  1  0.61810515  0.76963425  0.34601523  1
  O  O51  1  0.00848236  0.98332120  0.74079633  1
  O  O52  1  0.72356058  0.98266481  0.02403169  1
  O  O53  1  0.22292557  0.98386282  0.52702026  1
  O  O54  1  0.51098424  0.98174269  0.23939103  1
