# generated using pymatgen
data_Mn3(Ni17O20)2
_symmetry_space_group_name_H-M   'P 1'
_cell_length_a   5.96249868
_cell_length_b   5.96249868
_cell_length_c   21.47797550
_cell_angle_alpha   97.97869983
_cell_angle_beta   97.97869983
_cell_angle_gamma   90.00000000
_symmetry_Int_Tables_number   1
_chemical_formula_structural   Mn3(Ni17O20)2
_chemical_formula_sum   'Mn3 Ni34 O40'
_cell_volume   748.71577546
_cell_formula_units_Z   1
loop_
 _symmetry_equiv_pos_site_id
 _symmetry_equiv_pos_as_xyz
  1  'x, y, z'
loop_
 _atom_site_type_symbol
 _atom_site_label
 _atom_site_symmetry_multiplicity
 _atom_site_fract_x
 _atom_site_fract_y
 _atom_site_fract_z
 _atom_site_occupancy
  Mn  Mn0  1  0.59966508  0.59966508  0.19932916  1
  Mn  Mn1  1  0.20000000  0.20000000  0.40000000  1
  Mn  Mn2  1  0.80033492  0.80033492  0.60067084  1
  Ni  Ni3  1  0.50017705  0.00017705  0.00035409  1
  Ni  Ni4  1  0.99932387  0.99932387  0.99864774  1
  Ni  Ni5  1  0.00017705  0.50017705  0.00035409  1
  Ni  Ni6  1  0.49993610  0.49993610  0.99987120  1
  Ni  Ni7  1  0.80718298  0.80718298  0.10106594  1
  Ni  Ni8  1  0.29388396  0.80718298  0.10106594  1
  Ni  Ni9  1  0.80718298  0.29388396  0.10106594  1
  Ni  Ni10  1  0.29388396  0.29388396  0.10106594  1
  Ni  Ni11  1  0.10020694  0.60020694  0.20041387  1
  Ni  Ni12  1  0.60020694  0.10020694  0.20041387  1
  Ni  Ni13  1  0.39976857  0.39976857  0.29993341  1
  Ni  Ni14  1  0.90016484  0.39976857  0.29993341  1
  Ni  Ni15  1  0.90016484  0.90016484  0.29993341  1
  Ni  Ni16  1  0.39976857  0.90016484  0.29993341  1
  Ni  Ni17  1  0.70000000  0.20000000  0.40000000  1
  Ni  Ni18  1  0.20000000  0.70000000  0.40000000  1
  Ni  Ni19  1  0.49983516  0.49983516  0.50006659  1
  Ni  Ni20  1  0.00023143  0.00023143  0.50006659  1
  Ni  Ni21  1  0.00023143  0.49983516  0.50006659  1
  Ni  Ni22  1  0.49983516  0.00023143  0.50006659  1
  Ni  Ni23  1  0.29979306  0.79979306  0.59958613  1
  Ni  Ni24  1  0.79979306  0.29979306  0.59958613  1
  Ni  Ni25  1  0.59281702  0.10611604  0.69893406  1
  Ni  Ni26  1  0.59281702  0.59281702  0.69893406  1
  Ni  Ni27  1  0.10611604  0.10611604  0.69893406  1
  Ni  Ni28  1  0.10611604  0.59281702  0.69893406  1
  Ni  Ni29  1  0.39982295  0.89982295  0.79964591  1
  Ni  Ni30  1  0.90006390  0.90006390  0.80012880  1
  Ni  Ni31  1  0.40067613  0.40067613  0.80135226  1
  Ni  Ni32  1  0.89982295  0.39982295  0.79964591  1
  Ni  Ni33  1  0.70000000  0.20000000  0.90000000  1
  Ni  Ni34  1  0.70000000  0.70000000  0.90000000  1
  Ni  Ni35  1  0.20000000  0.20000000  0.90000000  1
  Ni  Ni36  1  0.20000000  0.70000000  0.90000000  1
  O  O37  1  0.74755494  0.25270799  0.00026293  1
  O  O38  1  0.25270799  0.25270799  0.00026293  1
  O  O39  1  0.25270799  0.74755494  0.00026293  1
  O  O40  1  0.74755494  0.74755494  0.00026293  1
  O  O41  1  0.04684078  0.04684078  0.09368256  1
  O  O42  1  0.55044924  0.05044924  0.10089849  1
  O  O43  1  0.05044924  0.55044924  0.10089849  1
  O  O44  1  0.55261967  0.55261967  0.10523934  1
  O  O45  1  0.37095271  0.82961524  0.20056795  1
  O  O46  1  0.82961524  0.82961524  0.20056795  1
  O  O47  1  0.82961524  0.37095271  0.20056795  1
  O  O48  1  0.37095271  0.37095271  0.20056795  1
  O  O49  1  0.64520300  0.64520300  0.29040601  1
  O  O50  1  0.15020495  0.65020495  0.30040989  1
  O  O51  1  0.65020495  0.15020495  0.30040989  1
  O  O52  1  0.15415994  0.15415994  0.30832089  1
  O  O53  1  0.97045104  0.42954896  0.40000000  1
  O  O54  1  0.42954896  0.42954896  0.40000000  1
  O  O55  1  0.42954896  0.97045104  0.40000000  1
  O  O56  1  0.97045104  0.97045104  0.40000000  1
  O  O57  1  0.24584006  0.24584006  0.49167911  1
  O  O58  1  0.74979505  0.24979505  0.49959011  1
  O  O59  1  0.24979505  0.74979505  0.49959011  1
  O  O60  1  0.75479700  0.75479700  0.50959399  1
  O  O61  1  0.57038476  0.02904729  0.59943205  1
  O  O62  1  0.02904729  0.02904729  0.59943205  1
  O  O63  1  0.57038476  0.57038476  0.59943205  1
  O  O64  1  0.02904729  0.57038476  0.59943205  1
  O  O65  1  0.84738033  0.84738033  0.69476066  1
  O  O66  1  0.34955076  0.84955076  0.69910151  1
  O  O67  1  0.84955076  0.34955076  0.69910151  1
  O  O68  1  0.35315922  0.35315922  0.70631744  1
  O  O69  1  0.14729201  0.65244506  0.79973707  1
  O  O70  1  0.65244506  0.14729201  0.79973707  1
  O  O71  1  0.14729201  0.14729201  0.79973707  1
  O  O72  1  0.65244506  0.65244506  0.79973707  1
  O  O73  1  0.45008034  0.45008034  0.90016067  1
  O  O74  1  0.95000000  0.45000000  0.90000000  1
  O  O75  1  0.45000000  0.95000000  0.90000000  1
  O  O76  1  0.94991966  0.94991966  0.89983933  1
