# generated using pymatgen
data_LiMn3Al2(HO2)6
_symmetry_space_group_name_H-M   'P 1'
_cell_length_a   10.56394235
_cell_length_b   7.85043188
_cell_length_c   5.99564352
_cell_angle_alpha   101.19591391
_cell_angle_beta   106.90808240
_cell_angle_gamma   67.87995566
_symmetry_Int_Tables_number   1
_chemical_formula_structural   LiMn3Al2(HO2)6
_chemical_formula_sum   'Li2 Mn6 Al4 H12 O24'
_cell_volume   438.70392038
_cell_formula_units_Z   2
loop_
 _symmetry_equiv_pos_site_id
 _symmetry_equiv_pos_as_xyz
  1  'x, y, z'
loop_
 _atom_site_type_symbol
 _atom_site_label
 _atom_site_symmetry_multiplicity
 _atom_site_fract_x
 _atom_site_fract_y
 _atom_site_fract_z
 _atom_site_occupancy
  Li  Li0  1  0.50131109  0.01077808  0.74757671  1
  Li  Li1  1  0.49856660  0.32260900  0.58578679  1
  Mn  Mn2  1  0.00360531  0.99879506  0.99673871  1
  Mn  Mn3  1  0.00116502  0.99810170  0.49663922  1
  Mn  Mn4  1  0.99646567  0.33444739  0.33660491  1
  Mn  Mn5  1  -0.00001723  0.66669164  0.16645617  1
  Mn  Mn6  1  0.99890898  0.33515149  0.83667112  1
  Mn  Mn7  1  -0.00002052  0.66677630  0.66651159  1
  Al  Al8  1  0.50277766  0.00508672  0.25698465  1
  Al  Al9  1  0.49714550  0.32829260  0.07637142  1
  Al  Al10  1  0.49876766  0.66800018  0.42238590  1
  Al  Al11  1  0.50119360  0.66538282  0.91096095  1
  H  H12  1  0.70870543  0.02729142  0.12550595  1
  H  H13  1  0.29118077  0.30610525  0.20771490  1
  H  H14  1  0.70963437  0.01007404  0.58618500  1
  H  H15  1  0.29191916  0.65406778  0.05008852  1
  H  H16  1  0.29025112  0.32322834  0.74718773  1
  H  H17  1  0.69852578  0.36109853  0.42907365  1
  H  H18  1  0.29059134  0.65962028  0.56109026  1
  H  H19  1  0.70806676  0.67940141  0.28328066  1
  H  H20  1  0.70322735  0.36095568  0.95504084  1
  H  H21  1  0.29666636  0.97236680  0.37822958  1
  H  H22  1  0.70935880  0.67379824  0.77219190  1
  H  H23  1  0.30143091  0.97213292  0.90434781  1
  O  O24  1  0.10272808  0.06567338  0.31879207  1
  O  O25  1  0.60537269  0.07374013  0.09075390  1
  O  O26  1  0.39461972  0.25962730  0.24262976  1
  O  O27  1  0.10122070  0.39828180  0.15997942  1
  O  O28  1  0.10369150  0.06899722  0.82061163  1
  O  O29  1  0.60718926  0.04938222  0.54795688  1
  O  O30  1  0.89735414  0.26758204  0.01460632  1
  O  O31  1  0.39659089  0.60371252  0.09968191  1
  O  O32  1  0.09917852  0.39926226  0.65543879  1
  O  O33  1  0.39275381  0.28398663  0.78544637  1
  O  O34  1  0.89638594  0.26419937  0.51269431  1
  O  O35  1  0.59570586  0.41259108  0.37961321  1
  O  O36  1  0.39357236  0.62762276  0.60249093  1
  O  O37  1  0.10212887  0.72741354  0.48520903  1
  O  O38  1  0.88964683  0.59339350  0.36756819  1
  O  O39  1  0.60027866  0.40928891  0.92369903  1
  O  O40  1  0.60336270  0.72970729  0.23367798  1
  O  O41  1  0.39965974  0.92406671  0.40961816  1
  O  O42  1  0.11040662  0.73989250  0.96570121  1
  O  O43  1  0.89880463  0.93504907  0.17334313  1
  O  O44  1  0.89786182  0.60597737  0.84806621  1
  O  O45  1  0.60639661  0.70574749  0.73084762  1
  O  O46  1  0.40420921  0.92078526  0.95371083  1
  O  O47  1  0.90085436  0.93396495  0.67783620  1
