# generated using pymatgen
data_Ti3Fe2Co(PO4)6
_symmetry_space_group_name_H-M   'P 1'
_cell_length_a   8.53510587
_cell_length_b   8.67301096
_cell_length_c   8.67301090
_cell_angle_alpha   60.00000067
_cell_angle_beta   59.46407086
_cell_angle_gamma   59.46407012
_symmetry_Int_Tables_number   1
_chemical_formula_structural   Ti3Fe2Co(PO4)6
_chemical_formula_sum   'Ti3 Fe2 Co1 P6 O24'
_cell_volume   450.26455188
_cell_formula_units_Z   1
loop_
 _symmetry_equiv_pos_site_id
 _symmetry_equiv_pos_as_xyz
  1  'x, y, z'
loop_
 _atom_site_type_symbol
 _atom_site_label
 _atom_site_symmetry_multiplicity
 _atom_site_fract_x
 _atom_site_fract_y
 _atom_site_fract_z
 _atom_site_occupancy
  Ti  Ti0  1  0.06736942  0.64421019  0.64421019  1
  Ti  Ti1  1  0.42633572  0.85788843  0.85788843  1
  Ti  Ti2  1  0.93499738  0.35500054  0.35500054  1
  Fe  Fe3  1  0.98959733  0.00346722  0.00346722  1
  Fe  Fe4  1  0.49683826  0.50105425  0.50105425  1
  Co  Co5  1  0.57122271  0.14292576  0.14292576  1
  P  P6  1  0.25544456  0.24777431  0.54179641  1
  P  P7  1  0.25544456  0.95498472  0.24777431  1
  P  P8  1  0.25544456  0.54179641  0.95498472  1
  P  P9  1  0.74981409  0.45655629  0.04429603  1
  P  P10  1  0.74981409  0.04429603  0.74933360  1
  P  P11  1  0.74981409  0.74933360  0.45655629  1
  O  O12  1  0.07064745  0.11916251  0.31458623  1
  O  O13  1  0.07064745  0.49560482  0.11916251  1
  O  O14  1  0.07064745  0.31458623  0.49560482  1
  O  O15  1  0.22565170  0.09027490  0.74189342  1
  O  O16  1  0.43717374  0.18504221  0.39106600  1
  O  O17  1  0.26286166  0.41131831  0.56635387  1
  O  O18  1  0.22565170  0.94217998  0.09027490  1
  O  O19  1  0.26286166  0.75946616  0.41131831  1
  O  O20  1  0.56742837  0.62000090  0.99713424  1
  O  O21  1  0.26286166  0.56635387  0.75946616  1
  O  O22  1  0.77981237  0.26406210  0.05271924  1
  O  O23  1  0.56742837  0.99713424  0.81543649  1
  O  O24  1  0.43717374  0.98671705  0.18504221  1
  O  O25  1  0.22565170  0.74189342  0.94217998  1
  O  O26  1  0.72738925  0.44724733  0.23875551  1
  O  O27  1  0.43717374  0.39106600  0.98671705  1
  O  O28  1  0.72738925  0.23875551  0.58660791  1
  O  O29  1  0.77981237  0.05271924  0.90340629  1
  O  O30  1  0.72738925  0.58660791  0.44724733  1
  O  O31  1  0.56742837  0.81543649  0.62000090  1
  O  O32  1  0.77981237  0.90340629  0.26406210  1
  O  O33  1  0.92832221  0.67418622  0.51217217  1
  O  O34  1  0.92832221  0.51217217  0.88531941  1
  O  O35  1  0.92832221  0.88531941  0.67418622  1
