# generated using pymatgen
data_Cu3OF5
_symmetry_space_group_name_H-M   'P 1'
_cell_length_a   7.51255873
_cell_length_b   4.59455399
_cell_length_c   5.91396887
_cell_angle_alpha   93.73918895
_cell_angle_beta   89.23723867
_cell_angle_gamma   89.29177704
_symmetry_Int_Tables_number   1
_chemical_formula_structural   Cu3OF5
_chemical_formula_sum   'Cu6 O2 F10'
_cell_volume   203.66111840
_cell_formula_units_Z   2
loop_
 _symmetry_equiv_pos_site_id
 _symmetry_equiv_pos_as_xyz
  1  'x, y, z'
loop_
 _atom_site_type_symbol
 _atom_site_label
 _atom_site_symmetry_multiplicity
 _atom_site_fract_x
 _atom_site_fract_y
 _atom_site_fract_z
 _atom_site_occupancy
  Cu  Cu0  1  0.00742315  0.98164175  0.99043210  1
  Cu  Cu1  1  0.99285261  0.53030971  0.52435771  1
  Cu  Cu2  1  0.33068789  0.00492854  0.33199647  1
  Cu  Cu3  1  0.67687880  0.51303167  0.19162515  1
  Cu  Cu4  1  0.32449178  0.51095560  0.83584086  1
  Cu  Cu5  1  0.66871473  0.98673296  0.65880191  1
  O  O6  1  0.10651179  0.69616993  0.79949025  1
  O  O7  1  0.77239418  0.69894139  0.47196772  1
  F  F8  1  0.22311150  0.20029983  0.01154443  1
  F  F9  1  0.11374784  0.79888047  0.31417064  1
  F  F10  1  0.44436157  0.70212366  0.14678571  1
  F  F11  1  0.21950172  0.30353319  0.51879729  1
  F  F12  1  0.55113247  0.20801986  0.34697435  1
  F  F13  1  0.44518348  0.79541809  0.65030085  1
  F  F14  1  0.90181539  0.28629540  0.18790662  1
  F  F15  1  0.55599738  0.29716236  0.85343029  1
  F  F16  1  0.88279377  0.19481388  0.68077864  1
  F  F17  1  0.78239995  0.79074170  0.98479902  1
