# generated using pymatgen
data_LiNiPO4
_symmetry_space_group_name_H-M   'P 1'
_cell_length_a   8.99687362
_cell_length_b   6.34020192
_cell_length_c   4.90148631
_cell_angle_alpha   90.00011771
_cell_angle_beta   90.00005565
_cell_angle_gamma   90.00008924
_symmetry_Int_Tables_number   1
_chemical_formula_structural   LiNiPO4
_chemical_formula_sum   'Li4 Ni4 P4 O16'
_cell_volume   279.59055955
_cell_formula_units_Z   4
loop_
 _symmetry_equiv_pos_site_id
 _symmetry_equiv_pos_as_xyz
  1  'x, y, z'
loop_
 _atom_site_type_symbol
 _atom_site_label
 _atom_site_symmetry_multiplicity
 _atom_site_fract_x
 _atom_site_fract_y
 _atom_site_fract_z
 _atom_site_occupancy
  Li  Li0  1  0.15986509  0.75000069  0.45902922  1
  Li  Li1  1  0.34013551  0.25000154  0.95903054  1
  Li  Li2  1  0.65986402  0.75000117  0.04096998  1
  Li  Li3  1  0.84013586  0.25000102  0.54096851  1
  Ni  Ni4  1  0.99999852  0.99999263  0.00000823  1
  Ni  Ni5  1  0.99999007  0.49999800  0.00000671  1
  Ni  Ni6  1  0.49999989  0.99999825  0.50000172  1
  Ni  Ni7  1  0.50000826  0.49999583  0.49999974  1
  P  P8  1  0.17901741  0.24999968  0.47220538  1
  P  P9  1  0.32099236  0.74999948  0.97221038  1
  P  P10  1  0.67901191  0.24999766  0.02779000  1
  P  P11  1  0.82098916  0.75000389  0.52779175  1
  O  O12  1  0.13308081  0.24999996  0.78019923  1
  O  O13  1  0.12029474  0.04841670  0.33578491  1
  O  O14  1  0.12029321  0.45158491  0.33578279  1
  O  O15  1  0.14645802  0.75000068  0.92592002  1
  O  O16  1  0.35353637  0.24999929  0.42591902  1
  O  O17  1  0.37970486  0.95158310  0.83578621  1
  O  O18  1  0.37970554  0.54841797  0.83578394  1
  O  O19  1  0.36691823  0.75000118  0.28019508  1
  O  O20  1  0.63308201  0.25000149  0.71980163  1
  O  O21  1  0.62029519  0.04841643  0.16421385  1
  O  O22  1  0.62029532  0.45158436  0.16421413  1
  O  O23  1  0.64646143  0.74999964  0.57407850  1
  O  O24  1  0.85353876  0.25000072  0.07407975  1
  O  O25  1  0.87970467  0.54841818  0.66421288  1
  O  O26  1  0.87970424  0.95158505  0.66421485  1
  O  O27  1  0.86691851  0.75000051  0.21980106  1
