# generated using pymatgen
data_Li7V3P8O29
_symmetry_space_group_name_H-M   'P 1'
_cell_length_a   9.85577362
_cell_length_b   9.83984081
_cell_length_c   13.90191754
_cell_angle_alpha   90.01699325
_cell_angle_beta   90.60583403
_cell_angle_gamma   60.06650250
_symmetry_Int_Tables_number   1
_chemical_formula_structural   Li7V3P8O29
_chemical_formula_sum   'Li14 V6 P16 O58'
_cell_volume   1168.27026715
_cell_formula_units_Z   2
loop_
 _symmetry_equiv_pos_site_id
 _symmetry_equiv_pos_as_xyz
  1  'x, y, z'
loop_
 _atom_site_type_symbol
 _atom_site_label
 _atom_site_symmetry_multiplicity
 _atom_site_fract_x
 _atom_site_fract_y
 _atom_site_fract_z
 _atom_site_occupancy
  Li  Li0  1  0.76804610  0.91099711  0.56262314  1
  Li  Li1  1  0.68162753  0.65241378  0.38824757  1
  Li  Li2  1  0.68127270  0.66582370  0.88820615  1
  Li  Li3  1  0.76804776  0.32083432  0.06257587  1
  Li  Li4  1  0.32611960  0.90781890  0.06229758  1
  Li  Li5  1  0.65974646  0.23661396  0.44035746  1
  Li  Li6  1  0.32642069  0.76592988  0.56226532  1
  Li  Li7  1  0.65988226  0.10352045  0.94024164  1
  Li  Li8  1  0.23458365  0.66409982  0.94271218  1
  Li  Li9  1  0.09832754  0.67003327  0.43647422  1
  Li  Li10  1  0.23452460  0.10117767  0.44279260  1
  Li  Li11  1  0.09841758  0.23171189  0.93658099  1
  Li  Li12  1  0.98388948  0.95754634  0.01031951  1
  Li  Li13  1  0.98363262  0.05863006  0.51032958  1
  V  V14  1  0.56453574  0.43574564  0.24926913  1
  V  V15  1  0.43540130  0.56245950  0.74834432  1
  V  V16  1  0.56468428  0.99963507  0.74944722  1
  V  V17  1  0.43542205  0.00211183  0.24836695  1
  V  V18  1  0.99968231  0.56295040  0.24757945  1
  V  V19  1  0.99965288  0.43747200  0.74739172  1
  P  P20  1  0.91272504  0.78177155  0.84044035  1
  P  P21  1  0.77494422  0.90983222  0.34164441  1
  P  P22  1  0.91262261  0.30554726  0.34047364  1
  P  P23  1  0.66117443  0.66900700  0.12907230  1
  P  P24  1  0.66121085  0.66962189  0.62898229  1
  P  P25  1  0.77503844  0.31535793  0.84165510  1
  P  P26  1  0.68818367  0.22569589  0.65580766  1
  P  P27  1  0.31962405  0.90513877  0.84421717  1
  P  P28  1  0.68827509  0.08610607  0.15579936  1
  P  P29  1  0.31971715  0.77518985  0.34421557  1
  P  P30  1  0.22474998  0.68975287  0.15902283  1
  P  P31  1  0.33812808  0.32981239  0.37243856  1
  P  P32  1  0.33829207  0.33205992  0.87241761  1
  P  P33  1  0.08282405  0.69028483  0.65314088  1
  P  P34  1  0.22502354  0.08529822  0.65909754  1
  P  P35  1  0.08290601  0.22684664  0.15316392  1
  O  O36  1  0.99921501  0.77901258  0.56183570  1
  O  O37  1  0.92038559  0.74644508  0.34529681  1
  O  O38  1  0.77750034  0.01221222  0.06539706  1
  O  O39  1  0.74178089  0.92342805  0.84297381  1
  O  O40  1  0.90209626  0.63107740  0.83751039  1
  O  O41  1  0.80241789  0.67555657  0.17041416  1
  O  O42  1  0.90205086  0.46675294  0.33770644  1
  O  O43  1  0.99914695  0.22209871  0.06188386  1
  O  O44  1  0.92038355  0.33342947  0.84523667  1
  O  O45  1  0.67113994  0.81656451  0.66681520  1
  O  O46  1  0.62813535  0.89139127  0.32693097  1
  O  O47  1  0.80243147  0.52186234  0.67013968  1
  O  O48  1  0.64584171  0.67348671  0.02101598  1
  O  O49  1  0.64545096  0.68052532  0.52094636  1
  O  O50  1  0.67116799  0.51225819  0.16704103  1
  O  O51  1  0.48400972  0.88703001  0.83006670  1
  O  O52  1  0.50672438  0.81468792  0.17043814  1
  O  O53  1  0.74155290  0.33480130  0.34299328  1
  O  O54  1  0.79534219  0.20841233  0.74896787  1
  O  O55  1  0.77732010  0.21053142  0.56539346  1
  O  O56  1  0.76211599  0.23277834  0.92998497  1
  O  O57  1  0.62804083  0.48052966  0.82708454  1
  O  O58  1  0.50672388  0.67852433  0.67050892  1
  O  O59  1  0.66315490  0.25468848  0.16213824  1
  O  O60  1  0.48388313  0.62890261  0.33005204  1
  O  O61  1  0.33722408  0.92209475  0.34719085  1
  O  O62  1  0.79536988  0.99644922  0.24900603  1
  O  O63  1  0.76190641  0.00523433  0.43002123  1
  O  O64  1  0.22467782  0.99798792  0.56866248  1
  O  O65  1  0.66340493  0.08199121  0.66215317  1
  O  O66  1  0.53369048  0.38175032  0.66437588  1
  O  O67  1  0.33699896  0.74081187  0.84711153  1
  O  O68  1  0.48686043  0.32816308  0.33173876  1
  O  O69  1  0.38344180  0.53469757  0.17312046  1
  O  O70  1  0.22436866  0.77750757  0.06860163  1
  O  O71  1  0.23622521  0.76377469  0.43182927  1
  O  O72  1  0.21295598  0.79747209  0.25035574  1
  O  O73  1  0.24720805  0.67335902  0.65915729  1
  O  O74  1  0.48719494  0.18476643  0.83187606  1
  O  O75  1  0.53386399  0.08429638  0.16428621  1
  O  O76  1  0.33459230  0.48204430  0.82272090  1
  O  O77  1  0.35346392  0.34409733  0.97870711  1
  O  O78  1  0.35350144  0.30294018  0.47875234  1
  O  O79  1  0.18962389  0.48107977  0.33799151  1
  O  O80  1  0.38361186  0.08174213  0.67326878  1
  O  O81  1  0.33456562  0.18334581  0.32279058  1
  O  O82  1  0.08698027  0.66378643  0.16080495  1
  O  O83  1  0.98246783  0.80370640  0.74100038  1
  O  O84  1  0.00984509  0.79439947  0.92040266  1
  O  O85  1  0.09207960  0.53289745  0.66571013  1
  O  O86  1  0.18996695  0.32893213  0.83798336  1
  O  O87  1  0.09221577  0.37523342  0.16568928  1
  O  O88  1  0.24717780  0.07952883  0.15924274  1
  O  O89  1  0.23622393  -0.00000046  0.93187640  1
  O  O90  1  0.21286529  0.98964093  0.75045206  1
  O  O91  1  0.08719104  0.24912914  0.66082461  1
  O  O92  1  0.00981776  0.19567011  0.42042871  1
  O  O93  1  0.98233683  0.21387453  0.24096886  1
