# generated using pymatgen
data_Li6V3P8O29
_symmetry_space_group_name_H-M   'P 1'
_cell_length_a   9.81214656
_cell_length_b   9.83643828
_cell_length_c   13.97534105
_cell_angle_alpha   90.02021943
_cell_angle_beta   89.76570763
_cell_angle_gamma   59.79260235
_symmetry_Int_Tables_number   1
_chemical_formula_structural   Li6V3P8O29
_chemical_formula_sum   'Li12 V6 P16 O58'
_cell_volume   1165.67693632
_cell_formula_units_Z   2
loop_
 _symmetry_equiv_pos_site_id
 _symmetry_equiv_pos_as_xyz
  1  'x, y, z'
loop_
 _atom_site_type_symbol
 _atom_site_label
 _atom_site_symmetry_multiplicity
 _atom_site_fract_x
 _atom_site_fract_y
 _atom_site_fract_z
 _atom_site_occupancy
  Li  Li0  1  0.89624320  0.76790540  0.06051293  1
  Li  Li1  1  0.77077120  0.90626299  0.56088336  1
  Li  Li2  1  0.90713450  0.32153498  0.56145477  1
  Li  Li3  1  0.76289135  0.33749417  0.05839658  1
  Li  Li4  1  0.33090975  0.90200576  0.05640031  1
  Li  Li5  1  0.68350557  0.22346661  0.44349023  1
  Li  Li6  1  0.30917333  0.77210592  0.55947406  1
  Li  Li7  1  0.22960126  0.67434352  0.93622667  1
  Li  Li8  1  0.33615770  0.33221428  0.11184427  1
  Li  Li9  1  0.22797904  0.08570773  0.44240128  1
  Li  Li10  1  0.09228795  0.23621061  0.93427477  1
  Li  Li11  1  0.94767515  0.01410603  0.98878706  1
  V  V12  1  0.56904691  0.43341546  0.25268248  1
  V  V13  1  0.43576282  0.56387970  0.75166912  1
  V  V14  1  0.56835597  0.00165726  0.75470060  1
  V  V15  1  0.43939301  0.99602916  0.24682098  1
  V  V16  1  0.00141941  0.56736521  0.25303029  1
  V  V17  1  0.00278914  0.43541198  0.74697957  1
  P  P18  1  0.91378007  0.77228148  0.84323890  1
  P  P19  1  0.76889588  0.91209438  0.34504591  1
  P  P20  1  0.91321995  0.32018510  0.34135112  1
  P  P21  1  0.67191776  0.66446306  0.12710703  1
  P  P22  1  0.66500669  0.66616061  0.63045749  1
  P  P23  1  0.77697253  0.31231659  0.84231577  1
  P  P24  1  0.68169476  0.22865423  0.66083406  1
  P  P25  1  0.31187081  0.91490421  0.84339295  1
  P  P26  1  0.69340859  0.08833732  0.16072648  1
  P  P27  1  0.31638893  0.77070314  0.34211179  1
  P  P28  1  0.22678795  0.68420062  0.15713515  1
  P  P29  1  0.33419176  0.32804840  0.36976759  1
  P  P30  1  0.33286205  0.33537545  0.87229426  1
  P  P31  1  0.08717552  0.68611099  0.65828298  1
  P  P32  1  0.23480874  0.08671240  0.65905888  1
  P  P33  1  0.08908198  0.22683297  0.15559258  1
  O  O34  1  0.98831132  0.77044277  0.57474261  1
  O  O35  1  0.91431773  0.74929825  0.33850605  1
  O  O36  1  0.79825434  0.99505322  0.07909443  1
  O  O37  1  0.74524814  0.91469356  0.83623739  1
  O  O38  1  0.91378718  0.61812898  0.83310663  1
  O  O39  1  0.81842591  0.67060169  0.16834725  1
  O  O40  1  0.89346546  0.48285513  0.32335804  1
  O  O41  1  0.99480753  0.23260812  0.06868434  1
  O  O42  1  0.91963259  0.33984157  0.83412479  1
  O  O43  1  0.67061648  0.81198985  0.66947419  1
  O  O44  1  0.61945892  0.90213995  0.32485807  1
  O  O45  1  0.81487271  0.51094189  0.66703431  1
  O  O46  1  0.66872660  0.67538684  0.02062678  1
  O  O47  1  0.65235574  0.66425913  0.52401083  1
  O  O48  1  0.67734370  0.51255272  0.16466608  1
  O  O49  1  0.46876264  0.91001374  0.83261138  1
  O  O50  1  0.51689824  0.81320049  0.16933234  1
  O  O51  1  0.75029964  0.33000116  0.34165078  1
  O  O52  1  0.79532953  0.20507016  0.75063587  1
  O  O53  1  0.75812345  0.24427464  0.57073953  1
  O  O54  1  0.79658067  0.22148474  0.93291183  1
  O  O55  1  0.61962685  0.46700295  0.83548919  1
  O  O56  1  0.51523891  0.66769393  0.67813508  1
  O  O57  1  0.66418624  0.25958245  0.15930282  1
  O  O58  1  0.47838707  0.61908733  0.31756227  1
  O  O59  1  0.33486357  0.91699358  0.33837870  1
  O  O60  1  0.78408495  0.01563041  0.25901534  1
  O  O61  1  0.75218326  0.00105369  0.43607707  1
  O  O62  1  0.24978577  0.99380489  0.56980600  1
  O  O63  1  0.66884349  0.07892499  0.66005413  1
  O  O64  1  0.51931747  0.37481941  0.67941045  1
  O  O65  1  0.33029365  0.75016600  0.84310007  1
  O  O66  1  0.48740425  0.32617347  0.33336070  1
  O  O67  1  0.37384964  0.51892058  0.17033454  1
  O  O68  1  0.23438530  0.76963531  0.06888528  1
  O  O69  1  0.24909850  0.75333686  0.43308835  1
  O  O70  1  0.20779591  0.78817588  0.25073524  1
  O  O71  1  0.25443470  0.66148693  0.65671078  1
  O  O72  1  0.48448547  0.19446447  0.83087966  1
  O  O73  1  0.52950673  0.10026806  0.16483274  1
  O  O74  1  0.32081888  0.49286898  0.83338982  1
  O  O75  1  0.32820563  0.34425189  0.98036505  1
  O  O76  1  0.32574934  0.32167931  0.47544453  1
  O  O77  1  0.18769225  0.47448465  0.32177626  1
  O  O78  1  0.38334984  0.09677355  0.67918884  1
  O  O79  1  0.33377706  0.18118640  0.32175367  1
  O  O80  1  0.07868081  0.66848924  0.15529061  1
  O  O81  1  0.01098625  0.78788074  0.75582447  1
  O  O82  1  0.99193033  0.78521162  0.93436314  1
  O  O83  1  0.09712845  0.52424721  0.67719879  1
  O  O84  1  0.18749778  0.32555575  0.83550324  1
  O  O85  1  0.10487423  0.37466590  0.16641796  1
  O  O86  1  0.25459149  0.07884144  0.15270111  1
  O  O87  1  0.21756363  0.00501014  0.93139226  1
  O  O88  1  0.20667459  0.00188289  0.74959756  1
  O  O89  1  0.08698761  0.25257561  0.65568996  1
  O  O90  1  0.00391725  0.24343311  0.43107993  1
  O  O91  1  0.00478111  0.20838512  0.25032262  1
