# generated using pymatgen
data_Li4Mn3Fe3(TeO8)2
_symmetry_space_group_name_H-M   'P 1'
_cell_length_a   6.06109105
_cell_length_b   6.04781010
_cell_length_c   9.89094989
_cell_angle_alpha   90.00827980
_cell_angle_beta   91.07325991
_cell_angle_gamma   119.91777336
_symmetry_Int_Tables_number   1
_chemical_formula_structural   Li4Mn3Fe3(TeO8)2
_chemical_formula_sum   'Li4 Mn3 Fe3 Te2 O16'
_cell_volume   314.17716213
_cell_formula_units_Z   1
loop_
 _symmetry_equiv_pos_site_id
 _symmetry_equiv_pos_as_xyz
  1  'x, y, z'
loop_
 _atom_site_type_symbol
 _atom_site_label
 _atom_site_symmetry_multiplicity
 _atom_site_fract_x
 _atom_site_fract_y
 _atom_site_fract_z
 _atom_site_occupancy
  Li  Li0  1  0.32905686  0.66454930  0.90927534  1
  Li  Li1  1  0.99884900  0.99947818  0.98397839  1
  Li  Li2  1  0.00248214  0.00122498  0.48826983  1
  Li  Li3  1  0.66748840  0.33368995  0.41089239  1
  Mn  Mn4  1  0.66456225  0.83227290  0.21112586  1
  Mn  Mn5  1  0.83421749  0.65935473  0.70964618  1
  Mn  Mn6  1  0.83416948  0.17487062  0.70963631  1
  Fe  Fe7  1  0.16770870  0.83396342  0.21209312  1
  Fe  Fe8  1  0.16758067  0.33377684  0.21208753  1
  Fe  Fe9  1  0.34664396  0.17334580  0.71545669  1
  Te  Te10  1  0.33766618  0.66886739  0.48162403  1
  Te  Te11  1  0.66550287  0.33273467  0.98339638  1
  O  O12  1  0.18136445  0.83150506  0.58681911  1
  O  O13  1  0.04111879  0.52062637  0.34992401  1
  O  O14  1  0.33881914  0.66938283  0.11395281  1
  O  O15  1  0.99110246  0.99560690  0.30367497  1
  O  O16  1  0.00245337  0.00126437  0.79270335  1
  O  O17  1  0.18128229  0.34982874  0.58686541  1
  O  O18  1  0.47494649  0.95874787  0.35164491  1
  O  O19  1  0.47471725  0.51576895  0.35172687  1
  O  O20  1  0.32213591  0.16107372  0.10438802  1
  O  O21  1  0.66036423  0.83014913  0.58552319  1
  O  O22  1  0.50489112  0.47236929  0.84841620  1
  O  O23  1  0.50493527  0.03263120  0.84843544  1
  O  O24  1  0.66170040  0.33081190  0.61044037  1
  O  O25  1  0.84287570  0.67514653  0.09572510  1
  O  O26  1  0.95846077  0.47924700  0.85444883  1
  O  O27  1  0.84290536  0.16801037  0.09566739  1
