# generated using pymatgen
data_Li8V3P8O29
_symmetry_space_group_name_H-M   'P 1'
_cell_length_a   9.86809053
_cell_length_b   9.87148410
_cell_length_c   13.79625614
_cell_angle_alpha   90.04962238
_cell_angle_beta   90.27000022
_cell_angle_gamma   59.91261331
_symmetry_Int_Tables_number   1
_chemical_formula_structural   Li8V3P8O29
_chemical_formula_sum   'Li16 V6 P16 O58'
_cell_volume   1162.83711714
_cell_formula_units_Z   2
loop_
 _symmetry_equiv_pos_site_id
 _symmetry_equiv_pos_as_xyz
  1  'x, y, z'
loop_
 _atom_site_type_symbol
 _atom_site_label
 _atom_site_symmetry_multiplicity
 _atom_site_fract_x
 _atom_site_fract_y
 _atom_site_fract_z
 _atom_site_occupancy
  Li  Li0  1  0.90119188  0.76663144  0.06283710  1
  Li  Li1  1  0.76301084  0.90134229  0.56203660  1
  Li  Li2  1  0.90043805  0.33522917  0.56099138  1
  Li  Li3  1  0.66381822  0.66723402  0.88051978  1
  Li  Li4  1  0.76505590  0.33300118  0.06381958  1
  Li  Li5  1  0.33198080  0.90185104  0.06391997  1
  Li  Li6  1  0.66515239  0.23660618  0.43803545  1
  Li  Li7  1  0.33463018  0.76367112  0.56216154  1
  Li  Li8  1  0.66807082  0.09841730  0.93612424  1
  Li  Li9  1  0.23474094  0.66712906  0.93609352  1
  Li  Li10  1  0.33591889  0.33246701  0.11945558  1
  Li  Li11  1  0.09955340  0.66475234  0.43908143  1
  Li  Li12  1  0.23711206  0.09855584  0.43786630  1
  Li  Li13  1  0.09886334  0.23346645  0.93697533  1
  Li  Li14  1  0.99995181  0.00026001  -0.00004633  1
  Li  Li15  1  0.99980859  0.00028386  0.50008919  1
  V  V16  1  0.56523825  0.43554434  0.25102580  1
  V  V17  1  0.43523014  0.56423297  0.74862668  1
  V  V18  1  0.56405143  0.00130213  0.74840078  1
  V  V19  1  0.43581750  0.99877895  0.25161697  1
  V  V20  1  0.99895963  0.56452049  0.25127873  1
  V  V21  1  0.00094956  0.43552825  0.74864163  1
  P  P22  1  0.91135629  0.77469124  0.84359791  1
  P  P23  1  0.77344027  0.91211960  0.34371632  1
  P  P24  1  0.91316634  0.31417093  0.34400106  1
  P  P25  1  0.66780416  0.66480855  0.12523436  1
  P  P26  1  0.66739584  0.66748486  0.62521587  1
  P  P27  1  0.77636590  0.31430655  0.84385486  1
  P  P28  1  0.68561199  0.22682533  0.65533635  1
  P  P29  1  0.31484936  0.91012368  0.84455047  1
  P  P30  1  0.68505117  0.08995938  0.15558324  1
  P  P31  1  0.31479494  0.77297694  0.34460127  1
  P  P32  1  0.22372552  0.68564731  0.15619495  1
  P  P33  1  0.33297065  0.33248737  0.37449025  1
  P  P34  1  0.33215387  0.33495031  0.87502414  1
  P  P35  1  0.08674863  0.68604400  0.65593135  1
  P  P36  1  0.22643020  0.08794131  0.65624225  1
  P  P37  1  0.08871312  0.22534112  0.15640393  1
  O  O38  1  0.99393299  0.77446899  0.56665005  1
  O  O39  1  0.92178775  0.74795055  0.34240071  1
  O  O40  1  0.77564891  0.99694151  0.06636888  1
  O  O41  1  0.74898570  0.92067365  0.84557528  1
  O  O42  1  0.89520515  0.62644327  0.83173067  1
  O  O43  1  0.81763098  0.66799379  0.16713267  1
  O  O44  1  0.90661258  0.47225126  0.33040211  1
  O  O45  1  0.99603053  0.23087053  0.06644622  1
  O  O46  1  0.92478124  0.32966531  0.84391835  1
  O  O47  1  0.67898496  0.80930167  0.66569961  1
  O  O48  1  0.62557293  0.90257795  0.33336080  1
  O  O49  1  0.81673650  0.51294173  0.67169647  1
  O  O50  1  0.67527492  0.66565194  0.01563773  1
  O  O51  1  0.67654998  0.65657871  0.51738047  1
  O  O52  1  0.67570571  0.51311795  0.16201842  1
  O  O53  1  0.47880257  0.89068580  0.83506923  1
  O  O54  1  0.51726659  0.81098096  0.16195281  1
  O  O55  1  0.75150317  0.32979922  0.34504915  1
  O  O56  1  0.79164057  0.21011940  0.75085374  1
  O  O57  1  0.77783118  0.22734153  0.56680102  1
  O  O58  1  0.77680924  0.22306436  0.93327487  1
  O  O59  1  0.63178653  0.47849748  0.83571988  1
  O  O60  1  0.51592290  0.67521399  0.66572944  1
  O  O61  1  0.67171820  0.25173634  0.15506205  1
  O  O62  1  0.47184025  0.62470811  0.33254045  1
  O  O63  1  0.32703216  0.92143062  0.34483456  1
  O  O64  1  0.79040725  0.00007860  0.24900606  1
  O  O65  1  0.77727832  0.00178652  0.43274496  1
  O  O66  1  0.22235946  0.99848674  0.56721289  1
  O  O67  1  0.67322429  0.07850325  0.65523166  1
  O  O68  1  0.52778068  0.37533816  0.66722682  1
  O  O69  1  0.32787982  0.74864247  0.84510611  1
  O  O70  1  0.48368250  0.32477483  0.33432795  1
  O  O71  1  0.36855494  0.52145471  0.16458893  1
  O  O72  1  0.22349469  0.77690618  0.06670538  1
  O  O73  1  0.22233522  0.77233230  0.43320763  1
  O  O74  1  0.20838145  0.78984498  0.24915996  1
  O  O75  1  0.24812949  0.67067820  0.65470595  1
  O  O76  1  0.48313701  0.18913578  0.83813597  1
  O  O77  1  0.52128086  0.10931378  0.16484515  1
  O  O78  1  0.32347256  0.48739431  0.83811711  1
  O  O79  1  0.32385134  0.33419035  0.98429057  1
  O  O80  1  0.32465389  0.34240249  0.48264675  1
  O  O81  1  0.18373687  0.48679404  0.32870357  1
  O  O82  1  0.37458703  0.09736456  0.66659754  1
  O  O83  1  0.32120027  0.19074547  0.33434037  1
  O  O84  1  0.07549521  0.67013288  0.15609582  1
  O  O85  1  0.99930806  0.79127412  0.75068651  1
  O  O86  1  0.00381311  0.76907130  0.93356404  1
  O  O87  1  0.09374627  0.52755237  0.66967318  1
  O  O88  1  0.18206139  0.33179789  0.83255484  1
  O  O89  1  0.10481367  0.37338755  0.16828273  1
  O  O90  1  0.25096744  0.07935381  0.15466286  1
  O  O91  1  0.22443353  0.00316891  0.93363695  1
  O  O92  1  0.20935662  0.00010576  0.75103871  1
  O  O93  1  0.07817772  0.25221426  0.65744320  1
  O  O94  1  0.00591541  0.22518351  0.43332211  1
  O  O95  1  0.00047351  0.20890635  0.24930029  1
