# generated using pymatgen
data_LiMn3Al2(HO2)6
_symmetry_space_group_name_H-M   'P 1'
_cell_length_a   9.67442863
_cell_length_b   5.96669729
_cell_length_c   7.85626984
_cell_angle_alpha   77.89991325
_cell_angle_beta   82.89004603
_cell_angle_gamma   80.69887866
_symmetry_Int_Tables_number   1
_chemical_formula_structural   LiMn3Al2(HO2)6
_chemical_formula_sum   'Li2 Mn6 Al4 H12 O24'
_cell_volume   435.68997068
_cell_formula_units_Z   2
loop_
 _symmetry_equiv_pos_site_id
 _symmetry_equiv_pos_as_xyz
  1  'x, y, z'
loop_
 _atom_site_type_symbol
 _atom_site_label
 _atom_site_symmetry_multiplicity
 _atom_site_fract_x
 _atom_site_fract_y
 _atom_site_fract_z
 _atom_site_occupancy
  Li  Li0  1  0.49954442  0.17619572  0.82155107  1
  Li  Li1  1  0.50031872  0.49053574  0.51174878  1
  Mn  Mn2  1  0.99757078  0.99735515  0.00033091  1
  Mn  Mn3  1  0.00102216  0.16912765  0.33278890  1
  Mn  Mn4  1  0.99875473  0.49775759  0.00085149  1
  Mn  Mn5  1  0.00019399  0.33313976  0.66650211  1
  Mn  Mn6  1  0.00226330  0.66941169  0.33305962  1
  Mn  Mn7  1  0.00010551  0.83299621  0.66653854  1
  Al  Al8  1  0.50230270  0.00220910  0.50553292  1
  Al  Al9  1  0.50010215  0.33336500  0.16667277  1
  Al  Al10  1  0.50002338  0.83339822  0.16661566  1
  Al  Al11  1  0.49758647  0.66450661  0.82774226  1
  H  H12  1  0.29618948  0.15593063  0.08855993  1
  H  H13  1  0.71296089  0.00433293  0.24905301  1
  H  H14  1  0.29480965  0.31592982  0.40570266  1
  H  H15  1  0.70926587  0.15510739  0.58074621  1
  H  H16  1  0.28710793  0.66213017  0.08455632  1
  H  H17  1  0.29063501  0.51164767  0.75242622  1
  H  H18  1  0.70385657  0.51122034  0.24560366  1
  H  H19  1  0.70523581  0.35106380  0.92770460  1
  H  H20  1  0.30070123  0.83669478  0.40765278  1
  H  H21  1  0.70953082  0.68795008  0.59525837  1
  H  H22  1  0.29031391  0.97851121  0.73768254  1
  H  H23  1  0.69924238  0.82933561  0.92552376  1
  O  O24  1  0.10322969  0.02930688  0.76469180  1
  O  O25  1  0.09902774  0.19347978  0.09416466  1
  O  O26  1  0.39963873  0.13103322  0.08325670  1
  O  O27  1  0.60734579  0.02969076  0.25999907  1
  O  O28  1  0.10932908  0.38602296  0.44242968  1
  O  O29  1  0.39877793  0.28413757  0.38990360  1
  O  O30  1  0.90150032  0.13527193  0.56997697  1
  O  O31  1  0.60696247  0.18173887  0.58276079  1
  O  O32  1  0.39269668  0.63694924  0.07336979  1
  O  O33  1  0.39297731  0.48498079  0.75056846  1
  O  O34  1  0.09868608  0.53093946  0.76299421  1
  O  O35  1  0.11003099  0.71509358  0.10957961  1
  O  O36  1  0.89106008  0.28085696  0.89060462  1
  O  O37  1  0.60126348  0.38251053  0.94333843  1
  O  O38  1  0.60042140  0.53589162  0.24992606  1
  O  O39  1  0.90032268  0.47398998  0.24001179  1
  O  O40  1  0.40405288  0.81879475  0.39218296  1
  O  O41  1  0.10115516  0.86557977  0.43323939  1
  O  O42  1  0.60593642  0.71391969  0.60887070  1
  O  O43  1  0.89680990  0.63668875  0.56852268  1
  O  O44  1  0.39392225  0.95283034  0.72435670  1
  O  O45  1  0.88977721  0.95184459  0.22386497  1
  O  O46  1  0.59589224  0.84792786  0.94093988  1
  O  O47  1  0.89894862  0.80066526  0.90004140  1
