# generated using pymatgen
data_LiMn2F7
_symmetry_space_group_name_H-M   'P 1'
_cell_length_a   13.14878250
_cell_length_b   5.03414212
_cell_length_c   7.50026184
_cell_angle_alpha   90.00000000
_cell_angle_beta   96.40236477
_cell_angle_gamma   90.00000000
_symmetry_Int_Tables_number   1
_chemical_formula_structural   LiMn2F7
_chemical_formula_sum   'Li4 Mn8 F28'
_cell_volume   493.36734500
_cell_formula_units_Z   4
loop_
 _symmetry_equiv_pos_site_id
 _symmetry_equiv_pos_as_xyz
  1  'x, y, z'
loop_
 _atom_site_type_symbol
 _atom_site_label
 _atom_site_symmetry_multiplicity
 _atom_site_fract_x
 _atom_site_fract_y
 _atom_site_fract_z
 _atom_site_occupancy
  Li  Li0  1  0.07946702  0.75918871  0.83726960  1
  Li  Li1  1  0.07946702  0.74081129  0.33726960  1
  Li  Li2  1  0.92053298  0.25918871  0.66273040  1
  Li  Li3  1  0.92053298  0.24081129  0.16273040  1
  Mn  Mn4  1  0.17898803  0.24819007  0.65144369  1
  Mn  Mn5  1  0.17898803  0.25180993  0.15144369  1
  Mn  Mn6  1  0.39106365  0.75365154  0.72199754  1
  Mn  Mn7  1  0.39106365  0.74634846  0.22199754  1
  Mn  Mn8  1  0.60893635  0.25365154  0.77800246  1
  Mn  Mn9  1  0.60893635  0.24634846  0.27800246  1
  Mn  Mn10  1  0.82101197  0.74819007  0.84855631  1
  Mn  Mn11  1  0.82101197  0.75180993  0.34855631  1
  F  F12  1  0.10795330  0.94867650  0.56904468  1
  F  F13  1  0.05382285  0.43564880  0.68559723  1
  F  F14  1  0.17340264  0.08775467  0.90272290  1
  F  F15  1  0.10795330  0.55132350  0.06904468  1
  F  F16  1  0.05382285  0.06435120  0.18559723  1
  F  F17  1  0.17340264  0.41224533  0.40272290  1
  F  F18  1  0.31175277  0.05444227  0.64149993  1
  F  F19  1  0.25375327  0.54298479  0.74523894  1
  F  F20  1  0.31175277  0.44555773  0.14149993  1
  F  F21  1  0.25375327  0.95701521  0.24523894  1
  F  F22  1  0.38937378  0.63865504  0.47237701  1
  F  F23  1  0.38937378  0.86134496  0.97237701  1
  F  F24  1  0.47302468  0.46337084  0.79672339  1
  F  F25  1  0.52697532  0.96337084  0.70327661  1
  F  F26  1  0.47302468  0.03662916  0.29672339  1
  F  F27  1  0.52697532  0.53662916  0.20327661  1
  F  F28  1  0.61062622  0.13865504  0.02762299  1
  F  F29  1  0.61062622  0.36134496  0.52762299  1
  F  F30  1  0.74624673  0.04298479  0.75476106  1
  F  F31  1  0.68824723  0.55444227  0.85850007  1
  F  F32  1  0.74624673  0.45701521  0.25476106  1
  F  F33  1  0.68824723  0.94555773  0.35850007  1
  F  F34  1  0.82659736  0.58775467  0.59727710  1
  F  F35  1  0.94617715  0.93564880  0.81440277  1
  F  F36  1  0.89204670  0.44867650  0.93095532  1
  F  F37  1  0.82659736  0.91224533  0.09727710  1
  F  F38  1  0.94617715  0.56435120  0.31440277  1
  F  F39  1  0.89204670  0.05132350  0.43095532  1
