# generated using pymatgen
data_Li3Mn2P2(O4F)2
_symmetry_space_group_name_H-M   'P 1'
_cell_length_a   13.09264804
_cell_length_b   5.12094490
_cell_length_c   13.21546338
_cell_angle_alpha   90.00000000
_cell_angle_beta   60.31341209
_cell_angle_gamma   90.00000000
_symmetry_Int_Tables_number   1
_chemical_formula_structural   Li3Mn2P2(O4F)2
_chemical_formula_sum   'Li12 Mn8 P8 O32 F8'
_cell_volume   769.75681907
_cell_formula_units_Z   4
loop_
 _symmetry_equiv_pos_site_id
 _symmetry_equiv_pos_as_xyz
  1  'x, y, z'
loop_
 _atom_site_type_symbol
 _atom_site_label
 _atom_site_symmetry_multiplicity
 _atom_site_fract_x
 _atom_site_fract_y
 _atom_site_fract_z
 _atom_site_occupancy
  Li  Li0  1  0.15186193  0.22853628  0.17646999  1
  Li  Li1  1  0.07467398  0.76173198  0.34567725  1
  Li  Li2  1  0.15186193  0.27146372  0.67646999  1
  Li  Li3  1  0.07467398  0.73826802  0.84567725  1
  Li  Li4  1  0.41212421  0.27708638  0.40618668  1
  Li  Li5  1  0.57297221  0.76598981  0.09016231  1
  Li  Li6  1  0.65059645  0.27183515  0.16875726  1
  Li  Li7  1  0.41212421  0.22291362  0.90618668  1
  Li  Li8  1  0.57297221  0.73401019  0.59016231  1
  Li  Li9  1  0.65059645  0.22816485  0.66875726  1
  Li  Li10  1  0.90406000  0.27170777  0.18196947  1
  Li  Li11  1  0.90406000  0.22829223  0.68196947  1
  Mn  Mn12  1  0.07095172  0.72906097  0.10844509  1
  Mn  Mn13  1  0.07095172  0.77093903  0.60844509  1
  Mn  Mn14  1  0.41573718  0.22589020  0.17625890  1
  Mn  Mn15  1  0.57374389  0.71751803  0.32114875  1
  Mn  Mn16  1  0.41573718  0.27410980  0.67625890  1
  Mn  Mn17  1  0.57374389  0.78248197  0.82114875  1
  Mn  Mn18  1  0.92081484  0.23146850  0.40321651  1
  Mn  Mn19  1  0.92081484  0.26853150  0.90321651  1
  P  P20  1  0.16113878  0.26710875  0.42287047  1
  P  P21  1  0.34010829  0.71593851  0.07330208  1
  P  P22  1  0.16113878  0.23289125  0.92287047  1
  P  P23  1  0.34010829  0.78406149  0.57330208  1
  P  P24  1  0.66012072  0.22432924  0.42020473  1
  P  P25  1  0.84142370  0.78111517  0.08223875  1
  P  P26  1  0.66012072  0.27567076  0.92020473  1
  P  P27  1  0.84142370  0.71888483  0.58223875  1
  O  O28  1  0.11733490  0.37601211  0.04324736  1
  O  O29  1  0.21165683  0.82088905  0.12164234  1
  O  O30  1  0.10611462  0.13717708  0.35510387  1
  O  O31  1  0.11930382  0.55546039  0.45046889  1
  O  O32  1  0.11733490  0.12398789  0.54324736  1
  O  O33  1  0.34035128  0.41226815  0.07982301  1
  O  O34  1  0.39165165  0.83536048  0.14471612  1
  O  O35  1  0.29575752  0.24659790  0.35405948  1
  O  O36  1  0.21165683  0.67911095  0.62164234  1
  O  O37  1  0.10611462  0.36282292  0.85510387  1
  O  O38  1  0.11930382  0.94453961  0.95046889  1
  O  O39  1  0.40985004  0.68383790  0.44494290  1
  O  O40  1  0.34035128  0.08773185  0.57982301  1
  O  O41  1  0.60703228  0.15605480  0.04368018  1
  O  O42  1  0.39165165  0.66463952  0.64471612  1
  O  O43  1  0.29575752  0.25340210  0.85405948  1
  O  O44  1  0.71139751  0.68665227  0.15897243  1
  O  O45  1  0.60345430  0.36257242  0.35279168  1
  O  O46  1  0.40985004  0.81616210  0.94494290  1
  O  O47  1  0.62619370  0.93121007  0.42822659  1
  O  O48  1  0.60703228  0.34394520  0.54368018  1
  O  O49  1  0.84517772  0.08551448  0.07915855  1
  O  O50  1  0.91045875  0.66356501  0.14064714  1
  O  O51  1  0.79349977  0.26759936  0.35163413  1
  O  O52  1  0.71139751  0.81334773  0.65897243  1
  O  O53  1  0.60345430  0.13742758  0.85279168  1
  O  O54  1  0.62619370  0.56878993  0.92822659  1
  O  O55  1  0.89060064  0.83223897  0.45952694  1
  O  O56  1  0.84517772  0.41448552  0.57915855  1
  O  O57  1  0.91045875  0.83643499  0.64064714  1
  O  O58  1  0.79349977  0.23240064  0.85163413  1
  O  O59  1  0.89060064  0.66776103  0.95952694  1
  F  F60  1  0.03028726  0.50790498  0.26767635  1
  F  F61  1  0.03028726  0.99209502  0.76767635  1
  F  F62  1  0.50945084  0.50149058  0.21736929  1
  F  F63  1  0.52445667  0.00972580  0.26478669  1
  F  F64  1  0.50945084  0.99850942  0.71736929  1
  F  F65  1  0.52445667  0.49027420  0.76478669  1
  F  F66  1  0.00437201  0.02364166  0.21485483  1
  F  F67  1  0.00437201  0.47635834  0.71485483  1
