# generated using pymatgen
data_LiMn3Al2(HO2)6
_symmetry_space_group_name_H-M   'P 1'
_cell_length_a   10.57108480
_cell_length_b   7.90475740
_cell_length_c   5.95405639
_cell_angle_alpha   101.92287982
_cell_angle_beta   107.04507347
_cell_angle_gamma   67.76700114
_symmetry_Int_Tables_number   1
_chemical_formula_structural   LiMn3Al2(HO2)6
_chemical_formula_sum   'Li2 Mn6 Al4 H12 O24'
_cell_volume   437.73124980
_cell_formula_units_Z   2
loop_
 _symmetry_equiv_pos_site_id
 _symmetry_equiv_pos_as_xyz
  1  'x, y, z'
loop_
 _atom_site_type_symbol
 _atom_site_label
 _atom_site_symmetry_multiplicity
 _atom_site_fract_x
 _atom_site_fract_y
 _atom_site_fract_z
 _atom_site_occupancy
  Li  Li0  1  0.50083019  0.01097847  0.25896389  1
  Li  Li1  1  0.49914209  0.32248864  0.57444188  1
  Mn  Mn2  1  0.00386873  0.99775814  0.99930824  1
  Mn  Mn3  1  0.00245728  0.99882515  0.49834996  1
  Mn  Mn4  1  0.99734895  0.33575307  0.33171095  1
  Mn  Mn5  1  0.99917969  0.66703388  0.16673892  1
  Mn  Mn6  1  0.99517910  0.33619524  0.83338491  1
  Mn  Mn7  1  0.00328213  0.66415927  0.66891418  1
  Al  Al8  1  0.50273126  0.00472317  0.74950925  1
  Al  Al9  1  0.49765828  0.32836602  0.08398043  1
  Al  Al10  1  0.49993426  0.66664166  0.41717417  1
  Al  Al11  1  0.49970711  0.66679706  0.91609184  1
  H  H12  1  0.71008682  0.02537777  0.09896959  1
  H  H13  1  0.29013952  0.32492536  0.20108513  1
  H  H14  1  0.71021037  0.00890645  0.63135415  1
  H  H15  1  0.28683246  0.65012740  0.05830847  1
  H  H16  1  0.28982285  0.30535872  0.73676725  1
  H  H17  1  0.70450627  0.36267615  0.42527184  1
  H  H18  1  0.29524265  0.66029976  0.55647888  1
  H  H19  1  0.70423788  0.67518353  0.27268367  1
  H  H20  1  0.69943934  0.36122239  0.95558616  1
  H  H21  1  0.29528238  0.97073960  0.40901119  1
  H  H22  1  0.71338869  0.67824559  0.78056618  1
  H  H23  1  0.30033859  0.97543871  0.87651422  1
  O  O24  1  0.10048849  0.06883368  0.31760936  1
  O  O25  1  0.60608881  0.07496219  0.05429768  1
  O  O26  1  0.39281944  0.28588926  0.24608047  1
  O  O27  1  0.09935207  0.39893555  0.15079554  1
  O  O28  1  0.10537054  0.07470927  0.80748488  1
  O  O29  1  0.60757720  0.04717701  0.58724078  1
  O  O30  1  0.89373979  0.28083144  0.01635157  1
  O  O31  1  0.39213937  0.60989361  0.09548218  1
  O  O32  1  0.09961108  0.39391975  0.65199741  1
  O  O33  1  0.39370071  0.25888650  0.77844207  1
  O  O34  1  0.89503292  0.26925225  0.51224912  1
  O  O35  1  0.60055837  0.41005936  0.38456126  1
  O  O36  1  0.39960190  0.61710854  0.60251339  1
  O  O37  1  0.10981797  0.74071953  0.46803437  1
  O  O38  1  0.89850702  0.60175826  0.34830858  1
  O  O39  1  0.59545348  0.40994068  0.91878406  1
  O  O40  1  0.60035938  0.71583167  0.23091068  1
  O  O41  1  0.39913620  0.92351942  0.44862136  1
  O  O42  1  0.10730522  0.71284971  0.98992275  1
  O  O43  1  0.89572154  0.92725791  0.19000098  1
  O  O44  1  0.88885620  0.59618464  0.86298062  1
  O  O45  1  0.60743230  0.72428704  0.73770013  1
  O  O46  1  0.40428974  0.92349868  0.91474629  1
  O  O47  1  0.90559436  0.93567183  0.68331611  1
