# generated using pymatgen
data_Li4Nb2Ni3Sn3O16
_symmetry_space_group_name_H-M   'P 1'
_cell_length_a   6.12200651
_cell_length_b   6.14309629
_cell_length_c   9.84518309
_cell_angle_alpha   90.00150682
_cell_angle_beta   89.29456782
_cell_angle_gamma   120.11376534
_symmetry_Int_Tables_number   1
_chemical_formula_structural   Li4Nb2Ni3Sn3O16
_chemical_formula_sum   'Li4 Nb2 Ni3 Sn3 O16'
_cell_volume   320.25257758
_cell_formula_units_Z   1
loop_
 _symmetry_equiv_pos_site_id
 _symmetry_equiv_pos_as_xyz
  1  'x, y, z'
loop_
 _atom_site_type_symbol
 _atom_site_label
 _atom_site_symmetry_multiplicity
 _atom_site_fract_x
 _atom_site_fract_y
 _atom_site_fract_z
 _atom_site_occupancy
  Li  Li0  1  0.34784974  0.67393815  0.89803224  1
  Li  Li1  1  0.97461259  0.98730827  0.98428246  1
  Li  Li2  1  0.98619222  0.99310153  0.49847005  1
  Li  Li3  1  0.66311282  0.33155762  0.40664404  1
  Nb  Nb4  1  0.35128890  0.67564474  0.49936234  1
  Nb  Nb5  1  0.70351663  0.35178017  0.97788547  1
  Ni  Ni6  1  0.65780432  0.82889637  0.21460951  1
  Ni  Ni7  1  0.83219302  0.66057536  0.71230450  1
  Ni  Ni8  1  0.83217199  0.17161800  0.71230480  1
  Sn  Sn9  1  0.17057338  0.83250123  0.21454335  1
  Sn  Sn10  1  0.17053689  0.33808556  0.21454602  1
  Sn  Sn11  1  0.34229613  0.17116302  0.71654711  1
  O  O12  1  0.17267530  0.83316482  0.58820114  1
  O  O13  1  0.02590065  0.51297849  0.34128552  1
  O  O14  1  0.33394407  0.66697198  0.10171299  1
  O  O15  1  0.99102718  0.99552915  0.31215538  1
  O  O16  1  0.99564909  0.99783311  0.80024872  1
  O  O17  1  0.17266878  0.33954715  0.58822345  1
  O  O18  1  0.47392090  0.95745383  0.34662898  1
  O  O19  1  0.47387172  0.51642096  0.34664387  1
  O  O20  1  0.32227702  0.16114596  0.09375847  1
  O  O21  1  0.65710040  0.82855011  0.59138601  1
  O  O22  1  0.51930182  0.47865173  0.85189426  1
  O  O23  1  0.51928936  0.04068118  0.85189225  1
  O  O24  1  0.66966363  0.33484363  0.60951152  1
  O  O25  1  0.83349798  0.66278058  0.09216045  1
  O  O26  1  0.97354977  0.48680782  0.85045985  1
  O  O27  1  0.83351469  0.17077151  0.09214623  1
