# generated using pymatgen
data_V6O5F19
_symmetry_space_group_name_H-M   'P 1'
_cell_length_a   5.50306520
_cell_length_b   5.36934097
_cell_length_c   15.13682988
_cell_angle_alpha   89.94513749
_cell_angle_beta   100.29694905
_cell_angle_gamma   90.68651327
_symmetry_Int_Tables_number   1
_chemical_formula_structural   V6O5F19
_chemical_formula_sum   'V6 O5 F19'
_cell_volume   440.02529295
_cell_formula_units_Z   1
loop_
 _symmetry_equiv_pos_site_id
 _symmetry_equiv_pos_as_xyz
  1  'x, y, z'
loop_
 _atom_site_type_symbol
 _atom_site_label
 _atom_site_symmetry_multiplicity
 _atom_site_fract_x
 _atom_site_fract_y
 _atom_site_fract_z
 _atom_site_occupancy
  V  V0  1  0.02072524  0.04884501  0.99583990  1
  V  V1  1  0.18710150  0.49279996  0.33285288  1
  V  V2  1  0.26750893  0.02486002  0.66375268  1
  V  V3  1  0.47709172  0.55062237  0.00429411  1
  V  V4  1  0.71752099  0.97186754  0.33565919  1
  V  V5  1  0.77039526  0.47930394  0.66471125  1
  O  O6  1  0.01498293  0.19310660  0.64035253  1
  O  O7  1  0.22920827  0.26537174  0.98263247  1
  O  O8  1  0.51612629  0.30651748  0.64208734  1
  O  O9  1  0.27323768  0.76634332  0.01722688  1
  O  O10  1  0.96285878  0.79402136  0.35490071  1
  F  F11  1  0.15044333  0.72481045  0.69284362  1
  F  F12  1  0.04189676  0.04735304  0.11389077  1
  F  F13  1  0.19443897  0.43272670  0.44829038  1
  F  F14  1  0.39389149  0.09693627  0.77657081  1
  F  F15  1  0.11343295  0.59285908  0.22005616  1
  F  F16  1  0.32175109  0.92514707  0.55749135  1
  F  F17  1  0.45930629  0.54632574  0.88640276  1
  F  F18  1  0.36117172  0.21540754  0.31017415  1
  F  F19  1  0.73792867  0.22721189  0.97996153  1
  F  F20  1  0.48522128  0.70139572  0.35781814  1
  F  F21  1  0.65318230  0.77397441  0.69421723  1
  F  F22  1  0.55863892  0.41999066  0.11321516  1
  F  F23  1  0.69385821  0.08335898  0.44341544  1
  F  F24  1  0.90107072  0.40269940  0.77650120  1
  F  F25  1  0.59729450  0.92267429  0.22105437  1
  F  F26  1  0.81911483  0.57641228  0.55739817  1
  F  F27  1  0.94037381  0.91624317  0.88710043  1
  F  F28  1  0.87347436  0.27352964  0.30899488  1
  F  F29  1  0.76675023  0.72728534  0.02029352  1
