# generated using pymatgen
data_Li2(NiO2)3
_symmetry_space_group_name_H-M   'P 1'
_cell_length_a   5.83294845
_cell_length_b   2.86555223
_cell_length_c   6.51014501
_cell_angle_alpha   77.95461306
_cell_angle_beta   106.22150649
_cell_angle_gamma   92.50474294
_symmetry_Int_Tables_number   1
_chemical_formula_structural   Li2(NiO2)3
_chemical_formula_sum   'Li2 Ni3 O6'
_cell_volume   102.16978427
_cell_formula_units_Z   1
loop_
 _symmetry_equiv_pos_site_id
 _symmetry_equiv_pos_as_xyz
  1  'x, y, z'
loop_
 _atom_site_type_symbol
 _atom_site_label
 _atom_site_symmetry_multiplicity
 _atom_site_fract_x
 _atom_site_fract_y
 _atom_site_fract_z
 _atom_site_occupancy
  Li  Li0  1  0.80771822  0.33836292  0.31060158  1
  Li  Li1  1  0.19225637  0.66168058  0.68934909  1
  Ni  Ni2  1  0.99998965  -0.00000205  0.00000195  1
  Ni  Ni3  1  0.33240910  0.34154512  0.33125231  1
  Ni  Ni4  1  0.66760422  0.65844125  0.66876196  1
  O  O5  1  0.21530607  0.50923471  0.01785893  1
  O  O6  1  0.08567750  0.88466299  0.30716994  1
  O  O7  1  0.42461759  0.20291335  0.64015367  1
  O  O8  1  0.57539922  0.79706187  0.35986214  1
  O  O9  1  0.91433013  0.11533900  0.69284101  1
  O  O10  1  0.78469192  0.49076126  0.98214742  1
