# generated using pymatgen
data_V6O11F
_symmetry_space_group_name_H-M   'P 1'
_cell_length_a   4.62051243
_cell_length_b   4.62051243
_cell_length_c   8.97768742
_cell_angle_alpha   90.00000000
_cell_angle_beta   90.00000000
_cell_angle_gamma   91.94097669
_symmetry_Int_Tables_number   1
_chemical_formula_structural   V6O11F
_chemical_formula_sum   'V6 O11 F1'
_cell_volume   191.55589351
_cell_formula_units_Z   1
loop_
 _symmetry_equiv_pos_site_id
 _symmetry_equiv_pos_as_xyz
  1  'x, y, z'
loop_
 _atom_site_type_symbol
 _atom_site_label
 _atom_site_symmetry_multiplicity
 _atom_site_fract_x
 _atom_site_fract_y
 _atom_site_fract_z
 _atom_site_occupancy
  V  V0  1  0.01674781  0.98325219  0.01418729  1
  V  V1  1  0.99147315  0.00852685  0.33333300  1
  V  V2  1  0.01674781  0.98325219  0.65247871  1
  V  V3  1  0.52090436  0.47909564  0.16525242  1
  V  V4  1  0.46623121  0.53376879  0.83333300  1
  V  V5  1  0.52090436  0.47909564  0.50141358  1
  O  O6  1  0.19896887  0.80103113  0.15729154  1
  O  O7  1  0.19896887  0.80103113  0.50937546  1
  O  O8  1  0.19349730  0.80650270  0.83333300  1
  O  O9  1  0.29948162  0.30754880  0.99776088  1
  O  O10  1  0.30298585  0.31043422  0.33333300  1
  O  O11  1  0.29948162  0.30754880  0.66890512  1
  O  O12  1  0.69245120  0.70051838  0.99776088  1
  O  O13  1  0.68956578  0.69701415  0.33333300  1
  O  O14  1  0.69245120  0.70051838  0.66890512  1
  O  O15  1  0.79748988  0.20251012  0.16019530  1
  O  O16  1  0.79748988  0.20251012  0.50647070  1
  F  F17  1  0.80416125  0.19583875  0.83333300  1
