# generated using pymatgen
data_V3O5F
_symmetry_space_group_name_H-M   'P 1'
_cell_length_a   7.27417947
_cell_length_b   5.50530778
_cell_length_c   5.50530778
_cell_angle_alpha   71.00727529
_cell_angle_beta   71.86061075
_cell_angle_gamma   71.86061075
_symmetry_Int_Tables_number   1
_chemical_formula_structural   V3O5F
_chemical_formula_sum   'V6 O10 F2'
_cell_volume   192.61962395
_cell_formula_units_Z   2
loop_
 _symmetry_equiv_pos_site_id
 _symmetry_equiv_pos_as_xyz
  1  'x, y, z'
loop_
 _atom_site_type_symbol
 _atom_site_label
 _atom_site_symmetry_multiplicity
 _atom_site_fract_x
 _atom_site_fract_y
 _atom_site_fract_z
 _atom_site_occupancy
  V  V0  1  0.83333300  0.66666700  0.66666700  1
  V  V1  1  0.67580145  0.33828435  0.33828435  1
  V  V2  1  0.33333300  0.66666700  0.66666700  1
  V  V3  1  0.14893406  0.32088376  0.32088376  1
  V  V4  1  0.51773294  0.01245024  0.01245024  1
  V  V5  1  0.99086555  0.99504865  0.99504865  1
  O  O6  1  0.66187880  0.03302258  0.63622280  1
  O  O7  1  0.33333300  0.35938867  0.97394433  1
  O  O8  1  0.96440241  0.23073557  0.23073557  1
  O  O9  1  0.63739484  0.56602135  0.56602135  1
  O  O10  1  0.70226459  0.10259743  0.10259743  1
  O  O11  1  0.02927216  0.76731265  0.76731265  1
  O  O12  1  0.00478720  0.30031042  0.69711020  1
  O  O13  1  0.66187880  0.63622280  0.03302258  1
  O  O14  1  0.33333300  0.97394433  0.35938867  1
  O  O15  1  0.00478720  0.69711020  0.30031042  1
  F  F16  1  0.29972014  0.90435954  0.90435954  1
  F  F17  1  0.36694686  0.42897346  0.42897346  1
