# generated using pymatgen
data_Mn3OF5
_symmetry_space_group_name_H-M   'P 1'
_cell_length_a   7.53947740
_cell_length_b   5.91220293
_cell_length_c   5.91220293
_cell_angle_alpha   74.27466023
_cell_angle_beta   73.06038285
_cell_angle_gamma   73.06038285
_symmetry_Int_Tables_number   1
_chemical_formula_structural   Mn3OF5
_chemical_formula_sum   'Mn6 O2 F10'
_cell_volume   236.12228240
_cell_formula_units_Z   2
loop_
 _symmetry_equiv_pos_site_id
 _symmetry_equiv_pos_as_xyz
  1  'x, y, z'
loop_
 _atom_site_type_symbol
 _atom_site_label
 _atom_site_symmetry_multiplicity
 _atom_site_fract_x
 _atom_site_fract_y
 _atom_site_fract_z
 _atom_site_occupancy
  Mn  Mn0  1  0.83333300  0.66666700  0.66666700  1
  Mn  Mn1  1  0.67758347  0.31757914  0.31757914  1
  Mn  Mn2  1  0.33333300  0.66666700  0.66666700  1
  Mn  Mn3  1  0.15411326  0.32447179  0.32447179  1
  Mn  Mn4  1  0.51255374  0.00886121  0.00886121  1
  Mn  Mn5  1  0.98908353  0.01575386  0.01575386  1
  O  O6  1  0.95374136  0.22854263  0.22854263  1
  O  O7  1  0.71292464  0.10479137  0.10479137  1
  F  F8  1  0.65878878  0.02381014  0.64233181  1
  F  F9  1  0.33333300  0.36854958  0.96478342  1
  F  F10  1  0.28170930  0.91539185  0.91539185  1
  F  F11  1  0.63975408  0.54429458  0.54429458  1
  F  F12  1  0.02691292  0.78903842  0.78903842  1
  F  F13  1  0.38495770  0.41794115  0.41794115  1
  F  F14  1  0.33333300  0.96478342  0.36854958  1
  F  F15  1  0.65878878  0.64233181  0.02381014  1
  F  F16  1  0.00787822  0.30952286  0.69100119  1
  F  F17  1  0.00787822  0.69100119  0.30952286  1
