# generated using pymatgen
data_CeCo5
_symmetry_space_group_name_H-M   'P 1'
_cell_length_a   4.02459852
_cell_length_b   4.87633561
_cell_length_c   4.88180690
_cell_angle_alpha   119.96293059
_cell_angle_beta   90.00000000
_cell_angle_gamma   90.00000000
_symmetry_Int_Tables_number   1
_chemical_formula_structural   CeCo5
_chemical_formula_sum   'Ce1 Co5'
_cell_volume   83.00217699
_cell_formula_units_Z   1
loop_
 _symmetry_equiv_pos_site_id
 _symmetry_equiv_pos_as_xyz
  1  'x, y, z'
loop_
 _atom_site_type_symbol
 _atom_site_label
 _atom_site_symmetry_multiplicity
 _atom_site_fract_x
 _atom_site_fract_y
 _atom_site_fract_z
 _atom_site_occupancy
  Ce  Ce0  1  0.00000000  0.00001495  0.00000000  1
  Co  Co1  1  -0.00000000  0.33336828  0.66687019  1
  Co  Co2  1  0.00000000  0.66649809  0.33312981  1
  Co  Co3  1  0.50000000  0.50002450  0.00000000  1
  Co  Co4  1  0.50000000  0.50000531  0.50001644  1
  Co  Co5  1  0.50000000  0.99998888  0.49998356  1
