# generated using pymatgen
data_Li2VOF5
_symmetry_space_group_name_H-M   'P 1'
_cell_length_a   5.09713957
_cell_length_b   5.29367231
_cell_length_c   7.58622692
_cell_angle_alpha   90.00000000
_cell_angle_beta   91.78614257
_cell_angle_gamma   90.00000000
_symmetry_Int_Tables_number   1
_chemical_formula_structural   Li2VOF5
_chemical_formula_sum   'Li4 V2 O2 F10'
_cell_volume   204.59656876
_cell_formula_units_Z   2
loop_
 _symmetry_equiv_pos_site_id
 _symmetry_equiv_pos_as_xyz
  1  'x, y, z'
loop_
 _atom_site_type_symbol
 _atom_site_label
 _atom_site_symmetry_multiplicity
 _atom_site_fract_x
 _atom_site_fract_y
 _atom_site_fract_z
 _atom_site_occupancy
  Li  Li0  1  0.01082967  0.56347882  0.75283783  1
  Li  Li1  1  0.48955885  0.50445514  0.00215120  1
  Li  Li2  1  0.51082967  0.93652118  0.25283783  1
  Li  Li3  1  0.98955885  0.99554486  0.50215120  1
  V  V4  1  0.47605205  0.48597218  0.50269887  1
  V  V5  1  0.97605205  0.01402782  0.00269887  1
  O  O6  1  0.20905958  0.33319064  0.55385061  1
  O  O7  1  0.70905958  0.16680936  0.05385161  1
  F  F8  1  0.14481251  0.04587928  0.22547696  1
  F  F9  1  0.16007730  0.29678625  0.92097751  1
  F  F10  1  0.29406021  0.80516553  0.95128096  1
  F  F11  1  0.33420507  0.79824386  0.56197779  1
  F  F12  1  0.39338375  0.56443609  0.26741528  1
  F  F13  1  0.64481251  0.45412072  0.72547696  1
  F  F14  1  0.66007730  0.20321375  0.42097751  1
  F  F15  1  0.79406021  0.69483447  0.45128096  1
  F  F16  1  0.83420507  0.70175614  0.06197779  1
  F  F17  1  0.89338375  0.93556391  0.76741528  1
