# generated using pymatgen
data_MnFeCo(PO4)3
_symmetry_space_group_name_H-M   'P 1'
_cell_length_a   9.83659644
_cell_length_b   5.98497977
_cell_length_c   14.59043747
_cell_angle_alpha   90.00000000
_cell_angle_beta   89.75250050
_cell_angle_gamma   90.00000000
_symmetry_Int_Tables_number   1
_chemical_formula_structural   MnFeCo(PO4)3
_chemical_formula_sum   'Mn4 Fe4 Co4 P12 O48'
_cell_volume   858.95775011
_cell_formula_units_Z   4
loop_
 _symmetry_equiv_pos_site_id
 _symmetry_equiv_pos_as_xyz
  1  'x, y, z'
loop_
 _atom_site_type_symbol
 _atom_site_label
 _atom_site_symmetry_multiplicity
 _atom_site_fract_x
 _atom_site_fract_y
 _atom_site_fract_z
 _atom_site_occupancy
  Mn  Mn0  1  0.21579451  0.75000000  0.48041893  1
  Mn  Mn1  1  0.21660776  0.75000000  0.81281070  1
  Mn  Mn2  1  0.28420826  0.25000000  0.64627667  1
  Mn  Mn3  1  0.28475730  0.25000000  0.97781101  1
  Fe  Fe4  1  0.22185304  0.75000000  0.15236700  1
  Fe  Fe5  1  0.27407605  0.25000000  0.31929437  1
  Fe  Fe6  1  0.72623477  0.75000000  0.01051522  1
  Fe  Fe7  1  0.72867059  0.75000000  0.34384901  1
  Co  Co8  1  0.72977822  0.75000000  0.67614905  1
  Co  Co9  1  0.77278160  0.25000000  0.84253930  1
  Co  Co10  1  0.77038624  0.25000000  0.51099783  1
  Co  Co11  1  0.77490014  0.25000000  0.17631606  1
  P  P12  1  0.09860451  0.25000000  0.80558994  1
  P  P13  1  0.09791566  0.25000000  0.13773826  1
  P  P14  1  0.09603785  0.25000000  0.47341435  1
  P  P15  1  0.39957784  0.75000000  0.30596882  1
  P  P16  1  0.40128897  0.75000000  0.97116663  1
  P  P17  1  0.40229407  0.75000000  0.63941694  1
  P  P18  1  0.60093344  0.25000000  0.36182733  1
  P  P19  1  0.59997007  0.25000000  0.02803912  1
  P  P20  1  0.60002070  0.25000000  0.69624525  1
  P  P21  1  0.90166517  0.75000000  0.52968601  1
  P  P22  1  0.90189206  0.75000000  0.19601703  1
  P  P23  1  0.90077289  0.75000000  0.86107984  1
  O  O24  1  0.05495680  0.75000000  0.55309919  1
  O  O25  1  0.05319504  0.75000000  0.21937005  1
  O  O26  1  0.05352857  0.75000000  0.88289685  1
  O  O27  1  0.11820730  0.25000000  0.24168929  1
  O  O28  1  0.11848301  0.25000000  0.57706705  1
  O  O29  1  0.11850170  0.25000000  0.90981438  1
  O  O30  1  0.16991202  0.04927930  0.75656080  1
  O  O31  1  0.16991202  0.45072070  0.75656080  1
  O  O32  1  0.16763512  0.04536940  0.09118912  1
  O  O33  1  0.16763512  0.45463060  0.09118912  1
  O  O34  1  0.17052589  0.05229608  0.42290245  1
  O  O35  1  0.17052589  0.44770392  0.42290245  1
  O  O36  1  0.32570108  0.54892293  0.25818113  1
  O  O37  1  0.32570108  0.95107707  0.25818113  1
  O  O38  1  0.32874790  0.54873734  0.92304352  1
  O  O39  1  0.32874790  0.95126266  0.92304352  1
  O  O40  1  0.33037689  0.54949255  0.59057231  1
  O  O41  1  0.33037689  0.95050745  0.59057231  1
  O  O42  1  0.37973042  0.75000000  0.07491743  1
  O  O43  1  0.37908302  0.75000000  0.41074050  1
  O  O44  1  0.38180027  0.75000000  0.74376432  1
  O  O45  1  0.44850010  0.25000000  0.38239010  1
  O  O46  1  0.44715434  0.25000000  0.05021568  1
  O  O47  1  0.44647510  0.25000000  0.71770622  1
  O  O48  1  0.55136965  0.75000000  0.28625608  1
  O  O49  1  0.55346758  0.75000000  0.94937435  1
  O  O50  1  0.55652453  0.75000000  0.62065636  1
  O  O51  1  0.62515575  0.25000000  0.25742868  1
  O  O52  1  0.62257038  0.25000000  0.59121895  1
  O  O53  1  0.62400637  0.25000000  0.92349229  1
  O  O54  1  0.67362859  0.04817250  0.41056777  1
  O  O55  1  0.67362859  0.45182750  0.41056777  1
  O  O56  1  0.67124024  0.04748423  0.07620208  1
  O  O57  1  0.67124024  0.45251577  0.07620208  1
  O  O58  1  0.67047079  0.04783140  0.74432192  1
  O  O59  1  0.67047079  0.45216860  0.74432192  1
  O  O60  1  0.83025626  0.54839144  0.57919447  1
  O  O61  1  0.83025626  0.95160856  0.57919447  1
  O  O62  1  0.82802424  0.54999405  0.24569274  1
  O  O63  1  0.82802424  0.95000595  0.24569274  1
  O  O64  1  0.83002435  0.54918661  0.91042230  1
  O  O65  1  0.83002435  0.95081339  0.91042230  1
  O  O66  1  0.87818317  0.75000000  0.75656119  1
  O  O67  1  0.88069160  0.75000000  0.09243432  1
  O  O68  1  0.88388478  0.75000000  0.42595897  1
  O  O69  1  0.94422056  0.25000000  0.78675174  1
  O  O70  1  0.94327777  0.25000000  0.45401678  1
  O  O71  1  0.94260274  0.25000000  0.11844436  1
