# generated using pymatgen
data_Li2Cu5F12
_symmetry_space_group_name_H-M   'P 1'
_cell_length_a   7.15198777
_cell_length_b   7.23774113
_cell_length_c   8.82290552
_cell_angle_alpha   90.00265250
_cell_angle_beta   89.99860765
_cell_angle_gamma   89.31647975
_symmetry_Int_Tables_number   1
_chemical_formula_structural   Li2Cu5F12
_chemical_formula_sum   'Li4 Cu10 F24'
_cell_volume   456.67846534
_cell_formula_units_Z   2
loop_
 _symmetry_equiv_pos_site_id
 _symmetry_equiv_pos_as_xyz
  1  'x, y, z'
loop_
 _atom_site_type_symbol
 _atom_site_label
 _atom_site_symmetry_multiplicity
 _atom_site_fract_x
 _atom_site_fract_y
 _atom_site_fract_z
 _atom_site_occupancy
  Li  Li0  1  0.00000530  0.00001359  0.00000919  1
  Li  Li1  1  0.24996228  0.75002533  0.91991735  1
  Li  Li2  1  0.50000563  0.50013973  0.00001298  1
  Li  Li3  1  0.74996197  0.24996184  0.07988922  1
  Cu  Cu4  1  0.00005782  0.50003283  0.50000866  1
  Cu  Cu5  1  0.00124024  0.00031575  0.67050833  1
  Cu  Cu6  1  0.01949134  0.50774698  0.16907120  1
  Cu  Cu7  1  0.48048964  0.99212722  0.16909210  1
  Cu  Cu8  1  0.49995741  0.00004081  0.50001030  1
  Cu  Cu9  1  0.49879344  0.49965879  0.67049085  1
  Cu  Cu10  1  0.50129000  0.50028228  0.32949407  1
  Cu  Cu11  1  0.51947531  0.00776462  0.83094504  1
  Cu  Cu12  1  0.98054382  0.49226895  0.83094479  1
  Cu  Cu13  1  0.99870659  0.99971655  0.32948559  1
  F  F14  1  0.00441502  0.32437104  0.33052436  1
  F  F15  1  0.00042212  0.31650524  0.66348718  1
  F  F16  1  0.01149411  0.68129749  0.99651572  1
  F  F17  1  0.17805844  0.98939427  0.16696649  1
  F  F18  1  0.17838693  0.99719234  0.50043206  1
  F  F19  1  0.18611207  0.97867323  0.83320171  1
  F  F20  1  0.31389108  0.52135740  0.83315737  1
  F  F21  1  0.32161629  0.50283079  0.50042907  1
  F  F22  1  0.32191606  0.51051963  0.16699194  1
  F  F23  1  0.48840449  0.81857664  0.99657065  1
  F  F24  1  0.49955594  0.18362919  0.66345357  1
  F  F25  1  0.49554067  0.17558117  0.33046734  1
  F  F26  1  0.50040839  0.81637534  0.33662030  1
  F  F27  1  0.50439493  0.82441918  0.66951788  1
  F  F28  1  0.51147322  0.18124661  0.00345460  1
  F  F29  1  0.67813560  0.48941702  0.83302351  1
  F  F30  1  0.67847164  0.49716603  0.49954972  1
  F  F31  1  0.68616555  0.47858016  0.16681121  1
  F  F32  1  0.81381877  0.02137944  0.16679829  1
  F  F33  1  0.82156520  0.00289773  0.49956008  1
  F  F34  1  0.82190523  0.01055823  0.83306057  1
  F  F35  1  0.98852748  0.31869701  0.00348367  1
  F  F36  1  0.99961086  0.68355456  0.33652363  1
  F  F37  1  0.99572811  0.67568500  0.66950841  1
