# generated using pymatgen
data_Li7Fe8(BO3)8
_symmetry_space_group_name_H-M   'P 1'
_cell_length_a   5.22932736
_cell_length_b   9.06649645
_cell_length_c   11.47295513
_cell_angle_alpha   113.00665274
_cell_angle_beta   78.02124978
_cell_angle_gamma   90.35857886
_symmetry_Int_Tables_number   1
_chemical_formula_structural   Li7Fe8(BO3)8
_chemical_formula_sum   'Li7 Fe8 B8 O24'
_cell_volume   488.08756463
_cell_formula_units_Z   1
loop_
 _symmetry_equiv_pos_site_id
 _symmetry_equiv_pos_as_xyz
  1  'x, y, z'
loop_
 _atom_site_type_symbol
 _atom_site_label
 _atom_site_symmetry_multiplicity
 _atom_site_fract_x
 _atom_site_fract_y
 _atom_site_fract_z
 _atom_site_occupancy
  Li  Li0  1  0.16912694  0.15356470  0.33514634  1
  Li  Li1  1  0.35179354  0.28893928  0.59125479  1
  Li  Li2  1  0.61496057  0.04897534  0.08692857  1
  Li  Li3  1  0.91869186  0.42351810  0.83083845  1
  Li  Li4  1  0.11457683  0.55193563  0.09076744  1
  Li  Li5  1  0.67046318  0.66740977  0.33734400  1
  Li  Li6  1  0.42698661  0.92600746  0.82992867  1
  Fe  Fe7  1  0.40674910  0.27664109  0.86970977  1
  Fe  Fe8  1  0.10557836  0.22072125  0.11322322  1
  Fe  Fe9  1  0.84102035  0.12482554  0.62034108  1
  Fe  Fe10  1  0.65568976  0.35250206  0.37225318  1
  Fe  Fe11  1  0.34743042  0.65167069  0.62120795  1
  Fe  Fe12  1  0.14637658  0.84438412  0.37341449  1
  Fe  Fe13  1  0.90210622  0.77064170  0.86241126  1
  Fe  Fe14  1  0.59381594  0.72818177  0.11848200  1
  B  B15  1  0.65379025  0.02000772  0.36824556  1
  B  B16  1  0.89729893  0.10601932  0.87696129  1
  B  B17  1  0.14800160  0.51058564  0.36753015  1
  B  B18  1  0.39837681  0.60570488  0.87391170  1
  B  B19  1  0.85681149  0.47029448  0.61871784  1
  B  B20  1  0.59922846  0.39966392  0.13025865  1
  B  B21  1  0.34689568  0.98480512  0.62460470  1
  B  B22  1  0.09853647  0.89567542  0.12320129  1
  O  O23  1  0.14568142  0.11497275  0.90686396  1
  O  O24  1  0.44390329  0.13917156  0.65957760  1
  O  O25  1  0.23562641  0.03200759  0.13983784  1
  O  O26  1  0.50942640  0.15703340  0.37736120  1
  O  O27  1  0.89724562  0.03900753  0.39814731  1
  O  O28  1  0.80434485  0.21923454  0.83924971  1
  O  O29  1  0.24289391  0.48447614  0.88550455  1
  O  O30  1  0.04072922  0.36074767  0.34069310  1
  O  O31  1  0.69299968  0.28353160  0.17004112  1
  O  O32  1  0.62322381  0.44906022  0.56888560  1
  O  O33  1  0.97338543  0.34510614  0.63358270  1
  O  O34  1  0.36590984  0.37898391  0.08756776  1
  O  O35  1  0.64605223  0.61143956  0.90331223  1
  O  O36  1  0.39595603  0.52691755  0.39959810  1
  O  O37  1  0.30786347  0.71922185  0.83569621  1
  O  O38  1  0.96034155  0.61707786  0.65397405  1
  O  O39  1  0.73773986  0.53118575  0.13867057  1
  O  O40  1  0.20010170  0.77398021  0.15072506  1
  O  O41  1  0.12814867  0.96053457  0.57196128  1
  O  O42  1  0.46968935  0.86719862  0.64383007  1
  O  O43  1  0.01662677  0.63313037  0.35909496  1
  O  O44  1  0.74233791  0.98777077  0.89221680  1
  O  O45  1  0.54744690  0.87286486  0.33262987  1
  O  O46  1  0.86381872  0.88303901  0.08378197  1
