# generated using pymatgen
data_Li2VF6
_symmetry_space_group_name_H-M   'P 1'
_cell_length_a   8.69196209
_cell_length_b   8.58034309
_cell_length_c   10.25787945
_cell_angle_alpha   84.81389127
_cell_angle_beta   94.14477949
_cell_angle_gamma   118.32104445
_symmetry_Int_Tables_number   1
_chemical_formula_structural   Li2VF6
_chemical_formula_sum   'Li12 V6 F36'
_cell_volume   670.32680234
_cell_formula_units_Z   6
loop_
 _symmetry_equiv_pos_site_id
 _symmetry_equiv_pos_as_xyz
  1  'x, y, z'
loop_
 _atom_site_type_symbol
 _atom_site_label
 _atom_site_symmetry_multiplicity
 _atom_site_fract_x
 _atom_site_fract_y
 _atom_site_fract_z
 _atom_site_occupancy
  Li  Li0  1  0.01507312  0.30480646  0.72530341  1
  Li  Li1  1  0.34508467  0.94541133  0.43401821  1
  Li  Li2  1  0.54273989  0.87412303  0.95819464  1
  Li  Li3  1  0.19690676  0.20188232  0.24738856  1
  Li  Li4  1  0.27200514  0.99775631  0.77342843  1
  Li  Li5  1  0.62017780  0.66826841  0.46914179  1
  Li  Li6  1  0.66310912  0.62360624  0.02498367  1
  Li  Li7  1  0.43736230  0.12242188  0.04540962  1
  Li  Li8  1  0.90176960  0.55097742  0.54867847  1
  Li  Li9  1  0.65681495  0.05329490  0.56988581  1
  Li  Li10  1  0.99619158  0.70716696  0.26965892  1
  Li  Li11  1  0.95467426  0.35651940  0.06135473  1
  V  V12  1  0.99794534  0.00231433  0.49894909  1
  V  V13  1  0.33858262  0.66224965  0.71153853  1
  V  V14  1  0.99269826  0.98929205  0.99551555  1
  V  V15  1  0.33517288  0.66534855  0.20671645  1
  V  V16  1  0.66697675  0.33647822  0.79385271  1
  V  V17  1  0.66448188  0.33842121  0.29401364  1
  F  F18  1  0.07822919  0.92507453  0.64970479  1
  F  F19  1  0.06751831  0.92785645  0.16187133  1
  F  F20  1  0.11073045  0.57263492  0.62824632  1
  F  F21  1  0.11518385  0.58223790  0.11971799  1
  F  F22  1  0.27307814  0.77425885  0.82745793  1
  F  F23  1  0.23549294  0.75100271  0.32946488  1
  F  F24  1  0.05966216  0.21247970  0.57510238  1
  F  F25  1  0.41791608  0.89260211  0.60550383  1
  F  F26  1  0.24673423  0.44631236  0.80676353  1
  F  F27  1  0.07032825  0.21386731  0.07233286  1
  F  F28  1  0.41608902  0.88964222  0.10948590  1
  F  F29  1  0.25377929  0.44189320  0.28926197  1
  F  F30  1  0.42510112  0.59499012  0.58388303  1
  F  F31  1  0.22476473  0.06013914  0.93729602  1
  F  F32  1  0.55240130  0.75364368  0.81008063  1
  F  F33  1  0.44021047  0.61024959  0.07544369  1
  F  F34  1  0.22242819  0.07872755  0.42404119  1
  F  F35  1  0.53779696  0.74992349  0.31074298  1
  F  F36  1  0.45767917  0.23458156  0.70372338  1
  F  F37  1  0.76140494  0.90821770  0.54940713  1
  F  F38  1  0.58826007  0.41417414  0.92673617  1
  F  F39  1  0.44044619  0.24201847  0.20021866  1
  F  F40  1  0.76118679  0.90815510  0.04952854  1
  F  F41  1  0.59114997  0.43439788  0.41260733  1
  F  F42  1  0.75157003  0.54689132  0.68832451  1
  F  F43  1  0.57093099  0.10870472  0.89744792  1
  F  F44  1  0.91345403  0.76166517  0.94956047  1
  F  F45  1  0.75477036  0.56025563  0.19208116  1
  F  F46  1  0.58434908  0.12034687  0.39898787  1
  F  F47  1  0.91764440  0.76178611  0.43782908  1
  F  F48  1  0.76917584  0.25834454  0.66490212  1
  F  F49  1  0.74086676  0.25471663  0.16720568  1
  F  F50  1  0.87671417  0.39251577  0.88526161  1
  F  F51  1  0.88340549  0.43451953  0.38443371  1
  F  F52  1  0.94533481  0.08876548  0.84336688  1
  F  F53  1  0.94348529  0.07616989  0.34053832  1
