# generated using pymatgen
data_V3(O2F)2
_symmetry_space_group_name_H-M   'P 1'
_cell_length_a   4.73163195
_cell_length_b   7.71405238
_cell_length_c   5.62311893
_cell_angle_alpha   95.16332629
_cell_angle_beta   93.78640006
_cell_angle_gamma   87.13339314
_symmetry_Int_Tables_number   1
_chemical_formula_structural   V3(O2F)2
_chemical_formula_sum   'V6 O8 F4'
_cell_volume   203.76448848
_cell_formula_units_Z   2
loop_
 _symmetry_equiv_pos_site_id
 _symmetry_equiv_pos_as_xyz
  1  'x, y, z'
loop_
 _atom_site_type_symbol
 _atom_site_label
 _atom_site_symmetry_multiplicity
 _atom_site_fract_x
 _atom_site_fract_y
 _atom_site_fract_z
 _atom_site_occupancy
  V  V0  1  0.50000000  0.66666700  0.16666700  1
  V  V1  1  0.45299205  0.98521411  0.53218753  1
  V  V2  1  0.54700795  0.34811889  0.80114547  1
  V  V3  1  0.00000000  0.66666700  0.66666700  1
  V  V4  1  0.99364809  0.32984677  0.33638157  1
  V  V5  1  0.00635191  0.00348623  0.99695143  1
  O  O6  1  0.80232416  0.43471112  0.62772049  1
  O  O7  1  0.69060873  0.10277942  0.79650643  1
  O  O8  1  0.69269142  0.77149185  0.46929358  1
  O  O9  1  0.70167721  0.43179960  0.12356438  1
  O  O10  1  0.30730858  0.56184215  0.86403942  1
  O  O11  1  0.30939127  0.23055458  0.53682657  1
  O  O12  1  0.29832279  0.90153440  0.20976862  1
  O  O13  1  0.19767584  0.89862188  0.70561351  1
  F  F14  1  0.80252914  0.09859543  0.29679644  1
  F  F15  1  0.80458078  0.77017872  0.96723889  1
  F  F16  1  0.19747086  0.23473857  0.03653756  1
  F  F17  1  0.19541922  0.56315528  0.36609411  1
