# generated using pymatgen
data_Li2VF4
_symmetry_space_group_name_H-M   'P 1'
_cell_length_a   6.00446788
_cell_length_b   6.09243558
_cell_length_c   6.09243614
_cell_angle_alpha   89.02846689
_cell_angle_beta   60.47445800
_cell_angle_gamma   60.47445545
_symmetry_Int_Tables_number   1
_chemical_formula_structural   Li2VF4
_chemical_formula_sum   'Li4 V2 F8'
_cell_volume   161.05862954
_cell_formula_units_Z   2
loop_
 _symmetry_equiv_pos_site_id
 _symmetry_equiv_pos_as_xyz
  1  'x, y, z'
loop_
 _atom_site_type_symbol
 _atom_site_label
 _atom_site_symmetry_multiplicity
 _atom_site_fract_x
 _atom_site_fract_y
 _atom_site_fract_z
 _atom_site_occupancy
  Li  Li0  1  0.75000000  0.11578883  0.88421117  1
  Li  Li1  1  0.50000000  0.50000000  0.50000000  1
  Li  Li2  1  0.25000000  0.88421117  0.11578883  1
  Li  Li3  1  0.00000000  0.50000000  0.50000000  1
  V  V4  1  0.50000000  0.00000000  0.50000000  1
  V  V5  1  0.00000000  0.50000000  0.00000000  1
  F  F6  1  0.98779501  0.74665359  0.25324759  1
  F  F7  1  0.51905322  0.73637011  0.72735237  1
  F  F8  1  0.98094678  0.27264763  0.26362989  1
  F  F9  1  0.51220499  0.74675241  0.25334641  1
  F  F10  1  0.48779501  0.25324759  0.74665359  1
  F  F11  1  0.01905322  0.72735237  0.73637011  1
  F  F12  1  0.48094678  0.26362989  0.27264763  1
  F  F13  1  0.01220499  0.25334641  0.74675241  1
