# generated using pymatgen
data_MnPH2CO6
_symmetry_space_group_name_H-M   'P 1'
_cell_length_a   6.11097429
_cell_length_b   8.29930102
_cell_length_c   5.46854182
_cell_angle_alpha   82.38549376
_cell_angle_beta   111.09504283
_cell_angle_gamma   111.60230310
_symmetry_Int_Tables_number   1
_chemical_formula_structural   MnPH2CO6
_chemical_formula_sum   'Mn2 P2 H4 C2 O12'
_cell_volume   240.58562183
_cell_formula_units_Z   2
loop_
 _symmetry_equiv_pos_site_id
 _symmetry_equiv_pos_as_xyz
  1  'x, y, z'
loop_
 _atom_site_type_symbol
 _atom_site_label
 _atom_site_symmetry_multiplicity
 _atom_site_fract_x
 _atom_site_fract_y
 _atom_site_fract_z
 _atom_site_occupancy
  Mn  Mn0  1  0.18958011  0.37916122  0.50000000  1
  Mn  Mn1  1  0.81041989  0.62083878  0.50000000  1
  P  P2  1  0.32924013  0.65847927  0.00000000  1
  P  P3  1  0.67075987  0.34152073  0.00000000  1
  H  H4  1  0.17594450  0.81202487  0.16609927  1
  H  H5  1  0.63608037  0.81202487  0.83390073  1
  H  H6  1  0.36391963  0.18797513  0.16609927  1
  H  H7  1  0.82405550  0.18797513  0.83390073  1
  C  C8  1  0.09884388  1.00000000  0.44186454  1
  C  C9  1  0.90115612  0.00000000  0.55813546  1
  O  O10  1  0.09846408  0.85369204  0.39950238  1
  O  O11  1  0.17547457  0.55506603  0.74495867  1
  O  O12  1  0.17932528  0.77850979  0.99706136  1
  O  O13  1  0.59918451  0.77850979  0.00293864  1
  O  O14  1  0.37959246  0.55506603  0.25504133  1
  O  O15  1  0.24477204  0.14630796  0.39950238  1
  O  O16  1  0.75522796  0.85369204  0.60049762  1
  O  O17  1  0.62040754  0.44493397  0.74495867  1
  O  O18  1  0.40081549  0.22149021  0.99706136  1
  O  O19  1  0.82067472  0.22149021  0.00293864  1
  O  O20  1  0.82452543  0.44493397  0.25504133  1
  O  O21  1  0.90153592  0.14630796  0.60049762  1
