# generated using pymatgen
data_Li8Mn9O18
_symmetry_space_group_name_H-M   'P 1'
_cell_length_a   6.54537945
_cell_length_b   6.54711208
_cell_length_c   16.38282494
_cell_angle_alpha   94.50465440
_cell_angle_beta   94.43333411
_cell_angle_gamma   82.53534379
_symmetry_Int_Tables_number   1
_chemical_formula_structural   Li8Mn9O18
_chemical_formula_sum   'Li16 Mn18 O36'
_cell_volume   692.35796430
_cell_formula_units_Z   2
loop_
 _symmetry_equiv_pos_site_id
 _symmetry_equiv_pos_as_xyz
  1  'x, y, z'
loop_
 _atom_site_type_symbol
 _atom_site_label
 _atom_site_symmetry_multiplicity
 _atom_site_fract_x
 _atom_site_fract_y
 _atom_site_fract_z
 _atom_site_occupancy
  Li  Li0  1  0.91217824  0.58404604  0.24786773  1
  Li  Li1  1  0.91561336  0.57570037  0.58067077  1
  Li  Li2  1  0.91946815  0.59104680  0.92215055  1
  Li  Li3  1  0.73476837  0.75339086  0.41375845  1
  Li  Li4  1  0.75217353  0.75226350  0.74736693  1
  Li  Li5  1  0.58158277  0.91844548  0.25313424  1
  Li  Li6  1  0.57202187  0.91245345  0.57468319  1
  Li  Li7  1  0.59213023  0.91955148  0.92346100  1
  Li  Li8  1  0.43206532  0.07095389  0.08637049  1
  Li  Li9  1  0.25432476  0.24782124  0.25146106  1
  Li  Li10  1  0.42345480  0.08941380  0.75767267  1
  Li  Li11  1  0.24300096  0.23726462  0.57155185  1
  Li  Li12  1  0.07199096  0.43191701  0.08638368  1
  Li  Li13  1  0.09104789  0.39712206  0.40839387  1
  Li  Li14  1  0.25408449  0.25433653  0.92404551  1
  Li  Li15  1  0.08933002  0.42022874  0.75584728  1
  Mn  Mn16  1  0.49245249  0.48812661  0.49898153  1
  Mn  Mn17  1  0.16931275  0.83783709  0.83479970  1
  Mn  Mn18  1  0.00107403  0.00008794  0.66544089  1
  Mn  Mn19  1  0.00318242  0.00324118  0.00303247  1
  Mn  Mn20  1  0.00145995  0.00012201  0.33329701  1
  Mn  Mn21  1  0.83073305  0.16349058  0.16775418  1
  Mn  Mn22  1  0.67229491  0.33965018  0.00091853  1
  Mn  Mn23  1  0.81671424  0.15572810  0.49603998  1
  Mn  Mn24  1  0.66195363  0.33120091  0.33327837  1
  Mn  Mn25  1  0.83787546  0.16980752  0.83466831  1
  Mn  Mn26  1  0.49912819  0.50021469  0.16565863  1
  Mn  Mn27  1  0.67230786  0.33360447  0.66765997  1
  Mn  Mn28  1  0.33887876  0.67224601  0.00092507  1
  Mn  Mn29  1  0.33554988  0.67219373  0.33338337  1
  Mn  Mn30  1  0.50351855  0.50392686  0.83393490  1
  Mn  Mn31  1  0.33531242  0.67026847  0.66757882  1
  Mn  Mn32  1  0.16403529  0.83145727  0.16803349  1
  Mn  Mn33  1  0.16040227  0.82184686  0.49638124  1
  O  O34  1  0.89740779  0.89962409  0.22316003  1
  O  O35  1  0.94932152  0.28053121  0.29959698  1
  O  O36  1  0.87930503  0.87727660  0.53439383  1
  O  O37  1  0.78144141  0.44110989  0.13104550  1
  O  O38  1  0.95563758  0.27932058  0.62890141  1
  O  O39  1  0.88752281  0.88817785  0.87022026  1
  O  O40  1  0.71889077  0.06011119  0.03547597  1
  O  O41  1  0.95285789  0.28681217  0.96491122  1
  O  O42  1  0.77492054  0.43882383  0.46362871  1
  O  O43  1  0.72376401  0.04648613  0.36673922  1
  O  O44  1  0.61731199  0.61490017  0.29683833  1
  O  O45  1  0.78420631  0.45301330  0.79896944  1
  O  O46  1  0.72247052  0.05570399  0.70535210  1
  O  O47  1  0.54878817  0.21568163  0.20246017  1
  O  O48  1  0.61699789  0.61569415  0.63349199  1
  O  O49  1  0.44068932  0.78050777  0.12964957  1
  O  O50  1  0.38967033  0.38932003  0.03455443  1
  O  O51  1  0.55060888  0.21982124  0.54674481  1
  O  O52  1  0.60352088  0.60412921  0.94415259  1
  O  O53  1  0.44344970  0.76783186  0.46548141  1
  O  O54  1  0.38070487  0.39325544  0.36753268  1
  O  O55  1  0.55225211  0.22358257  0.86790549  1
  O  O56  1  0.27557797  0.94675341  0.29286451  1
  O  O57  1  0.45194048  0.78404723  0.79821312  1
  O  O58  1  0.21420257  0.54792094  0.20089189  1
  O  O59  1  0.40209417  0.40242783  0.72202964  1
  O  O60  1  0.27903748  0.94803178  0.62584734  1
  O  O61  1  0.05844011  0.71893090  0.03443753  1
  O  O62  1  0.21401396  0.54175052  0.53876990  1
  O  O63  1  0.28677151  0.95267101  0.96467064  1
  O  O64  1  0.11076727  0.11184287  0.13095235  1
  O  O65  1  0.04982359  0.71989263  0.36831055  1
  O  O66  1  0.22264253  0.55237509  0.86751996  1
  O  O67  1  0.08949013  0.09757114  0.44858766  1
  O  O68  1  0.05515456  0.71939482  0.70321321  1
  O  O69  1  0.11962650  0.11821855  0.79794684  1
