# generated using pymatgen
data_LiVF5
_symmetry_space_group_name_H-M   'P 1'
_cell_length_a   5.77766124
_cell_length_b   7.71136520
_cell_length_c   17.28556681
_cell_angle_alpha   89.80014352
_cell_angle_beta   90.00008891
_cell_angle_gamma   89.88777935
_symmetry_Int_Tables_number   1
_chemical_formula_structural   LiVF5
_chemical_formula_sum   'Li8 V8 F40'
_cell_volume   770.12903206
_cell_formula_units_Z   8
loop_
 _symmetry_equiv_pos_site_id
 _symmetry_equiv_pos_as_xyz
  1  'x, y, z'
loop_
 _atom_site_type_symbol
 _atom_site_label
 _atom_site_symmetry_multiplicity
 _atom_site_fract_x
 _atom_site_fract_y
 _atom_site_fract_z
 _atom_site_occupancy
  Li  Li0  1  0.26510486  0.38151508  0.64591172  1
  Li  Li1  1  0.26556048  0.88119969  0.85429267  1
  Li  Li2  1  0.45928987  0.26484794  0.03061179  1
  Li  Li3  1  0.45886364  0.76375752  0.46938048  1
  Li  Li4  1  0.76337094  0.61869751  0.35406411  1
  Li  Li5  1  0.76442600  0.11896915  0.14572183  1
  Li  Li6  1  0.95847536  0.23637173  0.53050347  1
  Li  Li7  1  0.95995492  0.73529533  0.96955722  1
  V  V8  1  0.25583754  0.43879146  0.85590717  1
  V  V9  1  0.25249096  0.39095399  0.37440842  1
  V  V10  1  0.25582159  0.93842213  0.64390266  1
  V  V11  1  0.25307041  0.89103990  0.12548710  1
  V  V12  1  0.75339440  0.10904096  0.87450708  1
  V  V13  1  0.75706084  0.06155370  0.35613925  1
  V  V14  1  0.75321033  0.60911918  0.62559787  1
  V  V15  1  0.75704653  0.56133109  0.14412134  1
  F  F16  1  0.00174167  0.73615585  0.16361521  1
  F  F17  1  0.00177713  0.23663033  0.33636924  1
  F  F18  1  0.01750332  0.53608811  0.41202681  1
  F  F19  1  0.01821357  0.03671160  0.08774235  1
  F  F20  1  0.03177387  0.10718153  0.62166508  1
  F  F21  1  0.03213673  0.60747715  0.87838796  1
  F  F22  1  0.23723466  0.26358545  0.46526618  1
  F  F23  1  0.25150457  0.99057044  0.21703104  1
  F  F24  1  0.25354076  0.35963289  0.95658143  1
  F  F25  1  0.24616154  0.46443583  0.75061780  1
  F  F26  1  0.25407918  0.85975781  0.54340764  1
  F  F27  1  0.24698744  0.96280123  0.74914194  1
  F  F28  1  0.25160051  0.49181382  0.28292195  1
  F  F29  1  0.23786495  0.76416289  0.03498506  1
  F  F30  1  0.46845764  0.11005364  0.63138058  1
  F  F31  1  0.46913315  0.61004720  0.86767392  1
  F  F32  1  0.48521041  0.54599854  0.41232503  1
  F  F33  1  0.48589567  0.04663379  0.08756295  1
  F  F34  1  0.50569245  0.73793423  0.16018802  1
  F  F35  1  0.50479464  0.23769160  0.34004682  1
  F  F36  1  0.50150158  0.26388497  0.83620032  1
  F  F37  1  0.50198845  0.76356239  0.66378326  1
  F  F38  1  0.51852500  0.46424742  0.58814631  1
  F  F39  1  0.51898608  0.96354563  0.91195342  1
  F  F40  1  0.53369144  0.89246295  0.37825165  1
  F  F41  1  0.53362908  0.39296411  0.12146422  1
  F  F42  1  0.75423373  0.14018420  0.45662720  1
  F  F43  1  0.73724436  0.23570212  0.96496750  1
  F  F44  1  0.74784693  0.03704218  0.25085305  1
  F  F45  1  0.75219456  0.50782570  0.71721568  1
  F  F46  1  0.73719857  0.73617427  0.53484836  1
  F  F47  1  0.74711845  0.53576572  0.24937197  1
  F  F48  1  0.75284411  0.00973059  0.78277553  1
  F  F49  1  0.75474413  0.64055309  0.04348791  1
  F  F50  1  0.97025066  0.88995076  0.36865391  1
  F  F51  1  0.97039223  0.38942993  0.13222972  1
  F  F52  1  0.98629865  0.45370806  0.58771446  1
  F  F53  1  0.98674093  0.95330628  0.91240288  1
  F  F54  1  0.00561091  0.26210939  0.83997552  1
  F  F55  1  0.00482362  0.76200595  0.66001894  1
