# generated using pymatgen
data_LiVOF2
_symmetry_space_group_name_H-M   'P 1'
_cell_length_a   6.62309495
_cell_length_b   6.62309495
_cell_length_c   5.33985554
_cell_angle_alpha   83.85118442
_cell_angle_beta   96.14881558
_cell_angle_gamma   95.08206159
_symmetry_Int_Tables_number   1
_chemical_formula_structural   LiVOF2
_chemical_formula_sum   'Li4 V4 O4 F8'
_cell_volume   230.84197184
_cell_formula_units_Z   4
loop_
 _symmetry_equiv_pos_site_id
 _symmetry_equiv_pos_as_xyz
  1  'x, y, z'
loop_
 _atom_site_type_symbol
 _atom_site_label
 _atom_site_symmetry_multiplicity
 _atom_site_fract_x
 _atom_site_fract_y
 _atom_site_fract_z
 _atom_site_occupancy
  Li  Li0  1  0.21903716  0.60327510  0.68034385  1
  Li  Li1  1  0.39672490  0.78096284  0.18034385  1
  Li  Li2  1  0.60327510  0.21903716  0.81965615  1
  Li  Li3  1  0.78096284  0.39672490  0.31965615  1
  V  V4  1  0.07844506  0.07844506  0.75000000  1
  V  V5  1  0.74428915  0.74428915  0.75000000  1
  V  V6  1  0.25571085  0.25571085  0.25000000  1
  V  V7  1  0.92155494  0.92155494  0.25000000  1
  O  O8  1  0.01272740  0.80536354  0.60922023  1
  O  O9  1  0.19463646  0.98727260  0.10922023  1
  O  O10  1  0.80536354  0.01272740  0.89077977  1
  O  O11  1  0.98727260  0.19463646  0.39077977  1
  F  F12  1  0.46461772  0.71034387  0.86244245  1
  F  F13  1  0.13838124  0.36081764  0.88867652  1
  F  F14  1  0.28965613  0.53538328  0.36244245  1
  F  F15  1  0.63918236  0.86161876  0.38867652  1
  F  F16  1  0.36081764  0.13838124  0.61132348  1
  F  F17  1  0.71034387  0.46461772  0.63755755  1
  F  F18  1  0.86161876  0.63918236  0.11132348  1
  F  F19  1  0.53538328  0.28965613  0.13755755  1
