# generated using pymatgen
data_LiV(CO3)2
_symmetry_space_group_name_H-M   'P 1'
_cell_length_a   4.43194838
_cell_length_b   5.91128696
_cell_length_c   7.65523169
_cell_angle_alpha   90.00000000
_cell_angle_beta   88.73369700
_cell_angle_gamma   90.00000000
_symmetry_Int_Tables_number   1
_chemical_formula_structural   LiV(CO3)2
_chemical_formula_sum   'Li2 V2 C4 O12'
_cell_volume   200.50675060
_cell_formula_units_Z   2
loop_
 _symmetry_equiv_pos_site_id
 _symmetry_equiv_pos_as_xyz
  1  'x, y, z'
loop_
 _atom_site_type_symbol
 _atom_site_label
 _atom_site_symmetry_multiplicity
 _atom_site_fract_x
 _atom_site_fract_y
 _atom_site_fract_z
 _atom_site_occupancy
  Li  Li0  1  0.00000000  0.50000000  0.00000000  1
  Li  Li1  1  0.50000000  0.00000000  0.50000000  1
  V  V2  1  0.00000000  0.50000000  0.50000000  1
  V  V3  1  0.50000000  0.00000000  0.00000000  1
  C  C4  1  0.00160382  0.13141456  0.75222994  1
  C  C5  1  0.49839618  0.63141456  0.74777006  1
  C  C6  1  0.50160382  0.36858544  0.25222994  1
  C  C7  1  0.99839618  0.86858544  0.24777006  1
  O  O8  1  0.23272485  0.45063817  0.26080245  1
  O  O9  1  0.12243722  0.19117090  0.60336990  1
  O  O10  1  0.15075661  0.16423734  0.89468869  1
  O  O11  1  0.34924339  0.66423734  0.60531131  1
  O  O12  1  0.37756278  0.69117090  0.89663010  1
  O  O13  1  0.26727515  0.95063817  0.23919755  1
  O  O14  1  0.73272485  0.04936183  0.76080245  1
  O  O15  1  0.62243722  0.30882910  0.10336990  1
  O  O16  1  0.65075661  0.33576266  0.39468869  1
  O  O17  1  0.84924339  0.83576266  0.10531131  1
  O  O18  1  0.87756278  0.80882910  0.39663010  1
  O  O19  1  0.76727515  0.54936183  0.73919755  1
