# generated using pymatgen
data_Na7Mn11O24
_symmetry_space_group_name_H-M   'P 1'
_cell_length_a   6.06182745
_cell_length_b   10.52027658
_cell_length_c   8.75783799
_cell_angle_alpha   113.49211016
_cell_angle_beta   89.98129801
_cell_angle_gamma   74.85057465
_symmetry_Int_Tables_number   1
_chemical_formula_structural   Na7Mn11O24
_chemical_formula_sum   'Na7 Mn11 O24'
_cell_volume   490.95627303
_cell_formula_units_Z   1
loop_
 _symmetry_equiv_pos_site_id
 _symmetry_equiv_pos_as_xyz
  1  'x, y, z'
loop_
 _atom_site_type_symbol
 _atom_site_label
 _atom_site_symmetry_multiplicity
 _atom_site_fract_x
 _atom_site_fract_y
 _atom_site_fract_z
 _atom_site_occupancy
  Na  Na0  1  0.33338302  0.83336700  0.16664084  1
  Na  Na1  1  0.91272316  0.67900798  0.20426157  1
  Na  Na2  1  0.75398299  0.98764326  0.12907191  1
  Na  Na3  1  0.41425750  0.67089044  0.44825385  1
  Na  Na4  1  0.58857150  0.31478122  0.51971188  1
  Na  Na5  1  0.07805282  0.35186112  0.81365077  1
  Na  Na6  1  0.25229175  0.99581750  0.88504948  1
  Mn  Mn7  1  0.50191667  0.48383764  0.97978685  1
  Mn  Mn8  1  0.33331670  0.33337724  0.16671344  1
  Mn  Mn9  1  0.83329747  0.33334235  0.16667047  1
  Mn  Mn10  1  0.98963838  0.50594090  0.49287972  1
  Mn  Mn11  1  0.16476093  0.18282931  0.35352579  1
  Mn  Mn12  1  0.83330295  0.83331119  0.66664885  1
  Mn  Mn13  1  0.48996189  0.01746924  0.51497040  1
  Mn  Mn14  1  0.67220950  0.64932743  0.82041779  1
  Mn  Mn15  1  0.99451298  0.01728540  0.51285286  1
  Mn  Mn16  1  0.17673220  0.64924562  0.81841469  1
  Mn  Mn17  1  0.67700976  0.16069072  0.84046702  1
  O  O18  1  0.66115521  0.62492861  0.02361821  1
  O  O19  1  0.20757786  0.61752119  0.01681445  1
  O  O20  1  0.48416002  0.48226283  0.20000929  1
  O  O21  1  0.30081584  0.88938823  0.45185576  1
  O  O22  1  0.69024665  0.17793706  0.06853599  1
  O  O23  1  0.18252908  0.18446625  0.13333099  1
  O  O24  1  0.97643300  0.48871528  0.26480365  1
  O  O25  1  0.80291936  0.88419934  0.43661488  1
  O  O26  1  0.87342379  0.33882609  0.40163908  1
  O  O27  1  0.27988733  0.35783492  0.40745171  1
  O  O28  1  0.45915542  0.04924048  0.31661135  1
  O  O29  1  0.00559765  0.04170870  0.30964842  1
  O  O30  1  0.70348251  0.66483047  0.60004915  1
  O  O31  1  0.12086464  0.67038014  0.59880504  1
  O  O32  1  0.86365078  0.78245930  0.89666540  1
  O  O33  1  0.17509401  0.16008164  0.57346504  1
  O  O34  1  0.98718584  0.51429534  0.71939998  1
  O  O35  1  0.36597698  0.77729938  0.88143674  1
  O  O36  1  0.67956161  0.15238342  0.61397959  1
  O  O37  1  0.49152784  0.50655139  0.75988641  1
  O  O38  1  0.54577477  0.99627906  0.73454532  1
  O  O39  1  0.96316512  0.00175471  0.73320113  1
  O  O40  1  0.79317355  0.32782657  0.93168269  1
  O  O41  1  0.38671895  0.30880004  0.92596456  1
