# generated using pymatgen
data_Na7(WO3)12
_symmetry_space_group_name_H-M   'P 1'
_cell_length_a   9.58027330
_cell_length_b   9.58073160
_cell_length_c   9.58004525
_cell_angle_alpha   80.40971935
_cell_angle_beta   70.53572775
_cell_angle_gamma   60.00158521
_symmetry_Int_Tables_number   1
_chemical_formula_structural   Na7(WO3)12
_chemical_formula_sum   'Na7 W12 O36'
_cell_volume   717.99936092
_cell_formula_units_Z   1
loop_
 _symmetry_equiv_pos_site_id
 _symmetry_equiv_pos_as_xyz
  1  'x, y, z'
loop_
 _atom_site_type_symbol
 _atom_site_label
 _atom_site_symmetry_multiplicity
 _atom_site_fract_x
 _atom_site_fract_y
 _atom_site_fract_z
 _atom_site_occupancy
  Na  Na0  1  0.75016100  0.00046471  0.74949479  1
  Na  Na1  1  0.41628845  0.66666709  0.74979814  1
  Na  Na2  1  0.91704346  0.66666709  0.25020186  1
  Na  Na3  1  0.08396466  0.33286351  0.74949252  1
  Na  Na4  1  0.58317183  0.33286351  0.25050748  1
  Na  Na5  1  0.66666673  0.66666653  0.00000000  1
  Na  Na6  1  0.24937429  0.00046471  0.25050521  1
  W  W7  1  0.70861505  0.33152558  0.87375411  1
  W  W8  1  0.79298450  0.66665767  0.62241632  1
  W  W9  1  0.37347280  0.00181658  0.87373291  1
  W  W10  1  0.45857135  0.33283504  0.62434868  1
  W  W11  1  0.87474492  0.00051000  0.37566508  1
  W  W12  1  0.95985936  0.33152558  0.12624589  1
  W  W13  1  0.54035783  0.66665767  0.37758368  1
  W  W14  1  0.04422612  0.66666407  0.87358696  1
  W  W15  1  0.62471062  0.00181658  0.12626709  1
  W  W16  1  0.12474607  0.00051000  0.62433492  1
  W  W17  1  0.28910980  0.66666407  0.12641304  1
  W  W18  1  0.20859361  0.33283504  0.37565132  1
  O  O19  1  0.91463646  0.66668981  0.75207835  1
  O  O20  1  0.91638853  0.16667202  0.75008204  1
  O  O21  1  0.58411106  0.83186748  0.75195131  1
  O  O22  1  0.74933801  0.50144468  0.75194401  1
  O  O23  1  0.83341785  0.83317132  0.49986508  1
  O  O24  1  0.66667285  0.66665430  0.50000000  1
  O  O25  1  0.58346975  0.33305035  0.74995810  1
  O  O26  1  0.91693946  0.16667202  0.24991796  1
  O  O27  1  0.33341083  0.83317132  0.50013492  1
  O  O28  1  0.58402146  0.83186748  0.24804869  1
  O  O29  1  0.41636595  0.16668809  0.75009033  1
  O  O30  1  0.25013114  0.50012365  0.74997271  1
  O  O31  1  0.66665615  0.16667126  0.50000529  1
  O  O32  1  0.49990813  0.50015994  0.50013779  1
  O  O33  1  0.74921830  0.50144468  0.24805599  1
  O  O34  1  0.83206122  0.83190800  0.99998421  1
  O  O35  1  0.08360751  0.83320243  0.74996575  1
  O  O36  1  0.24986575  0.00026449  0.74995512  1
  O  O37  1  0.74986976  0.00026449  0.25004488  1
  O  O38  1  0.83195107  0.33609786  1.00000000  1
  O  O39  1  0.41867373  0.66668981  0.24792165  1
  O  O40  1  0.33336111  0.33327678  0.50000000  1
  O  O41  1  0.66667051  0.16666718  0.99999696  1
  O  O42  1  0.24974522  0.50012365  0.25002729  1
  O  O43  1  0.33603078  0.83190800  0.00001579  1
  O  O44  1  0.16667159  0.16667126  0.49999471  1
  O  O45  1  0.99993293  0.50015994  0.49986221  1
  O  O46  1  0.41694595  0.16668809  0.24990967  1
  O  O47  1  0.50126949  0.50142571  0.00002464  1
  O  O48  1  0.08319105  0.83320243  0.25003425  1
  O  O49  1  0.16667118  0.66665764  0.00000000  1
  O  O50  1  0.50138493  0.99723015  0.00000000  1
  O  O51  1  0.99996881  0.00006338  0.50000000  1
  O  O52  1  0.08347990  0.33305035  0.25004190  1
  O  O53  1  0.16666132  0.16666718  0.00000304  1
  O  O54  1  0.99730480  0.50142571  0.99997536  1
