# generated using pymatgen
data_Li6V3P8O29
_symmetry_space_group_name_H-M   'P 1'
_cell_length_a   9.83153761
_cell_length_b   9.82915437
_cell_length_c   13.89647916
_cell_angle_alpha   90.21670533
_cell_angle_beta   90.13272843
_cell_angle_gamma   60.10428503
_symmetry_Int_Tables_number   1
_chemical_formula_structural   Li6V3P8O29
_chemical_formula_sum   'Li12 V6 P16 O58'
_cell_volume   1164.19376842
_cell_formula_units_Z   2
loop_
 _symmetry_equiv_pos_site_id
 _symmetry_equiv_pos_as_xyz
  1  'x, y, z'
loop_
 _atom_site_type_symbol
 _atom_site_label
 _atom_site_symmetry_multiplicity
 _atom_site_fract_x
 _atom_site_fract_y
 _atom_site_fract_z
 _atom_site_occupancy
  Li  Li0  1  0.90745831  0.31778961  0.56154618  1
  Li  Li1  1  0.66749529  0.67133715  0.38396135  1
  Li  Li2  1  0.66929272  0.67081353  0.88317005  1
  Li  Li3  1  0.77446743  0.31532189  0.06193065  1
  Li  Li4  1  0.31654014  0.90990090  0.06128697  1
  Li  Li5  1  0.67649720  0.22540193  0.44139780  1
  Li  Li6  1  0.31486512  0.77280676  0.56187724  1
  Li  Li7  1  0.68066609  0.09112278  0.93878473  1
  Li  Li8  1  0.22367503  0.67960042  0.94219142  1
  Li  Li9  1  0.08965627  0.68210624  0.43877320  1
  Li  Li10  1  0.22690371  0.09433640  0.44029904  1
  Li  Li11  1  0.09685580  0.22900650  0.93972997  1
  V  V12  1  0.56763788  0.43056602  0.24801091  1
  V  V13  1  0.43198237  0.56465084  0.75080848  1
  V  V14  1  0.57252693  0.99882336  0.74586685  1
  V  V15  1  0.43512891  0.00283491  0.25068719  1
  V  V16  1  0.00039612  0.57103073  0.24541985  1
  V  V17  1  0.00274250  0.43303238  0.74767715  1
  P  P18  1  0.91261241  0.77018175  0.84250822  1
  P  P19  1  0.77171484  0.91353262  0.34134580  1
  P  P20  1  0.91006586  0.32207639  0.34163419  1
  P  P21  1  0.66605522  0.66728331  0.12651849  1
  P  P22  1  0.66557574  0.66499835  0.62658658  1
  P  P23  1  0.77112817  0.32032655  0.84140218  1
  P  P24  1  0.68046498  0.23132357  0.65755178  1
  P  P25  1  0.32071543  0.91132183  0.84278033  1
  P  P26  1  0.68225862  0.08525290  0.15513848  1
  P  P27  1  0.32109188  0.76937246  0.34365106  1
  P  P28  1  0.23129370  0.68157743  0.15902345  1
  P  P29  1  0.33187842  0.33440607  0.37358547  1
  P  P30  1  0.33591538  0.33072128  0.87390902  1
  P  P31  1  0.08388471  0.68467683  0.65497345  1
  P  P32  1  0.23356145  0.08633318  0.65818301  1
  P  P33  1  0.08809148  0.23155710  0.15743427  1
  O  O34  1  0.00345444  0.75195812  0.56265212  1
  O  O35  1  0.91893113  0.74643919  0.34087658  1
  O  O36  1  0.75367153  0.00682857  0.06279589  1
  O  O37  1  0.74696258  0.91779061  0.84210475  1
  O  O38  1  0.88956898  0.62541652  0.82644679  1
  O  O39  1  0.80997758  0.67095649  0.16977907  1
  O  O40  1  0.89005583  0.48655340  0.32694591  1
  O  O41  1  0.99738295  0.24491362  0.06697760  1
  O  O42  1  0.92092107  0.33568534  0.84085912  1
  O  O43  1  0.66980421  0.80890293  0.67066648  1
  O  O44  1  0.62668838  0.88974298  0.32681195  1
  O  O45  1  0.81393222  0.51043880  0.66334158  1
  O  O46  1  0.66189621  0.66708881  0.01825884  1
  O  O47  1  0.66001755  0.66431686  0.51864366  1
  O  O48  1  0.67025710  0.51332348  0.16388980  1
  O  O49  1  0.48532714  0.89209570  0.82720735  1
  O  O50  1  0.51331282  0.81676295  0.16646220  1
  O  O51  1  0.74408723  0.33870859  0.34147184  1
  O  O52  1  0.79088397  0.21211148  0.74997568  1
  O  O53  1  0.75924924  0.24271515  0.56782572  1
  O  O54  1  0.75790241  0.24408056  0.93143076  1
  O  O55  1  0.62789642  0.48683249  0.82568927  1
  O  O56  1  0.51274020  0.66842446  0.66725984  1
  O  O57  1  0.66807645  0.25090248  0.16140893  1
  O  O58  1  0.48681409  0.62720154  0.32596542  1
  O  O59  1  0.33374734  0.91913469  0.34475108  1
  O  O60  1  0.79351776  0.99301103  0.24535201  1
  O  O61  1  0.75993300  0.00894648  0.42707244  1
  O  O62  1  0.24390071  0.99700391  0.56771427  1
  O  O63  1  0.66225331  0.08575811  0.66088254  1
  O  O64  1  0.52138187  0.38126604  0.67362085  1
  O  O65  1  0.33547678  0.74762543  0.84435575  1
  O  O66  1  0.48386337  0.32840786  0.33366527  1
  O  O67  1  0.38282804  0.52245533  0.17766766  1
  O  O68  1  0.24679455  0.75673574  0.06872332  1
  O  O69  1  0.24300848  0.75375034  0.43226585  1
  O  O70  1  0.21223225  0.79015817  0.25089578  1
  O  O71  1  0.24977757  0.66507658  0.66028733  1
  O  O72  1  0.48887857  0.18418991  0.83304603  1
  O  O73  1  0.52027308  0.10093134  0.17492537  1
  O  O74  1  0.33305969  0.48456686  0.83161674  1
  O  O75  1  0.33625506  0.33671320  0.98105089  1
  O  O76  1  0.32908269  0.32977497  0.48073965  1
  O  O77  1  0.18458753  0.48360068  0.33198259  1
  O  O78  1  0.37896916  0.10081917  0.67725900  1
  O  O79  1  0.33126376  0.18142734  0.33142018  1
  O  O80  1  0.08755367  0.66011668  0.15998924  1
  O  O81  1  0.99187556  0.79240139  0.74550437  1
  O  O82  1  0.00854678  0.76087410  0.92702553  1
  O  O83  1  0.09386683  0.52310030  0.67744321  1
  O  O84  1  0.18833376  0.32731602  0.83332957  1
  O  O85  1  0.10142990  0.37786732  0.17754824  1
  O  O86  1  0.24964134  0.08189454  0.15790742  1
  O  O87  1  0.24164429  0.00363427  0.93229211  1
  O  O88  1  0.21214313  0.99812899  0.75038814  1
  O  O89  1  0.08294202  0.24943473  0.65844712  1
  O  O90  1  0.99976443  0.24235928  0.43154867  1
  O  O91  1  0.99708289  0.21310211  0.24977480  1
