# generated using pymatgen
data_LiAg2F6
_symmetry_space_group_name_H-M   'P 1'
_cell_length_a   9.28536928
_cell_length_b   9.28637452
_cell_length_c   4.82296159
_cell_angle_alpha   90.00006360
_cell_angle_beta   90.00553345
_cell_angle_gamma   60.00033834
_symmetry_Int_Tables_number   1
_chemical_formula_structural   LiAg2F6
_chemical_formula_sum   'Li3 Ag6 F18'
_cell_volume   360.15652558
_cell_formula_units_Z   3
loop_
 _symmetry_equiv_pos_site_id
 _symmetry_equiv_pos_as_xyz
  1  'x, y, z'
loop_
 _atom_site_type_symbol
 _atom_site_label
 _atom_site_symmetry_multiplicity
 _atom_site_fract_x
 _atom_site_fract_y
 _atom_site_fract_z
 _atom_site_occupancy
  Li  Li0  1  0.33148253  0.33442735  0.48537274  1
  Li  Li1  1  0.99854848  0.00160919  0.00000261  1
  Li  Li2  1  0.66550956  0.66824668  0.51450148  1
  Ag  Ag3  1  0.30332381  0.00131341  0.50004947  1
  Ag  Ag4  1  0.63563538  0.00146521  0.00010069  1
  Ag  Ag5  1  0.36137360  0.63849466  0.99995473  1
  Ag  Ag6  1  0.69325251  0.30674535  0.50015914  1
  Ag  Ag7  1  0.99881432  0.36436061  0.00036359  1
  Ag  Ag8  1  0.99879269  0.69614603  0.50008815  1
  F  F9  1  0.10006658  0.11496152  0.76191963  1
  F  F10  1  0.19715287  0.25848986  0.25781084  1
  F  F11  1  0.11266934  0.48085081  0.72767139  1
  F  F12  1  0.40531033  0.11560999  0.72794883  1
  F  F13  1  0.11268403  0.78588946  0.76095754  1
  F  F14  1  0.25569441  0.54562291  0.25681141  1
  F  F15  1  0.54344567  0.19999399  0.25811733  1
  F  F16  1  0.21451995  0.88684308  0.23850087  1
  F  F17  1  0.47754574  0.40869178  0.72807783  1
  F  F18  1  0.45435215  0.74451927  0.74271928  1
  F  F19  1  0.78253765  0.10333169  0.76202557  1
  F  F20  1  0.59166425  0.52240534  0.27187623  1
  F  F21  1  0.51934066  0.88798744  0.27214294  1
  F  F22  1  0.89671978  0.21696049  0.23851869  1
  F  F23  1  0.79981089  0.45700834  0.74149861  1
  F  F24  1  0.74145882  0.80292028  0.74252627  1
  F  F25  1  0.88410323  0.59510419  0.27222618  1
  F  F26  1  0.88481777  0.89983408  0.23830698  1
