# generated using pymatgen
data_Li3Fe(PO4)2
_symmetry_space_group_name_H-M   'P 1'
_cell_length_a   4.80198290
_cell_length_b   5.81755686
_cell_length_c   10.27424622
_cell_angle_alpha   89.99974686
_cell_angle_beta   88.77776663
_cell_angle_gamma   90.00028056
_symmetry_Int_Tables_number   1
_chemical_formula_structural   Li3Fe(PO4)2
_chemical_formula_sum   'Li6 Fe2 P4 O16'
_cell_volume   286.95407310
_cell_formula_units_Z   2
loop_
 _symmetry_equiv_pos_site_id
 _symmetry_equiv_pos_as_xyz
  1  'x, y, z'
loop_
 _atom_site_type_symbol
 _atom_site_label
 _atom_site_symmetry_multiplicity
 _atom_site_fract_x
 _atom_site_fract_y
 _atom_site_fract_z
 _atom_site_occupancy
  Li  Li0  1  0.10500293  0.74911939  0.93629772  1
  Li  Li1  1  0.50427813  0.75539520  0.76894514  1
  Li  Li2  1  0.49945787  0.49962953  0.50299649  1
  Li  Li3  1  0.50054707  0.99962739  0.49699828  1
  Li  Li4  1  0.49572783  0.25539990  0.23105552  1
  Li  Li5  1  0.89499193  0.24912427  0.06369776  1
  Fe  Fe6  1  0.97656456  0.25009714  0.72544208  1
  Fe  Fe7  1  0.02342721  0.75011227  0.27456249  1
  P  P8  1  0.39046435  0.25021238  0.90177657  1
  P  P9  1  0.93017536  0.75062613  0.58790740  1
  P  P10  1  0.06983986  0.25062934  0.41209388  1
  P  P11  1  0.60952995  0.75022678  0.09822247  1
  O  O12  1  0.69150882  0.75046070  0.95449427  1
  O  O13  1  0.71185841  0.24977477  0.88216692  1
  O  O14  1  0.25216971  0.04061837  0.82851998  1
  O  O15  1  0.25246506  0.45921748  0.82804298  1
  O  O16  1  0.79420878  0.53893973  0.65967739  1
  O  O17  1  0.79301431  0.96220926  0.65929678  1
  O  O18  1  0.24728810  0.75138267  0.58564472  1
  O  O19  1  0.19961455  0.25003861  0.55144798  1
  O  O20  1  0.80038524  0.75003525  0.44855410  1
  O  O21  1  0.75271715  0.25138236  0.41435586  1
  O  O22  1  0.20580131  0.03894414  0.34032875  1
  O  O23  1  0.20698578  0.46221579  0.34070139  1
  O  O24  1  0.74781873  0.54063400  0.17148200  1
  O  O25  1  0.74753208  0.95923409  0.17195382  1
  O  O26  1  0.28813068  0.74978534  0.11783156  1
  O  O27  1  0.30848327  0.25045572  0.04550868  1
