# generated using pymatgen
data_Li6V3P8O29
_symmetry_space_group_name_H-M   'P 1'
_cell_length_a   9.80944976
_cell_length_b   9.79129583
_cell_length_c   13.94363200
_cell_angle_alpha   89.82256475
_cell_angle_beta   89.63558905
_cell_angle_gamma   60.37603970
_symmetry_Int_Tables_number   1
_chemical_formula_structural   Li6V3P8O29
_chemical_formula_sum   'Li12 V6 P16 O58'
_cell_volume   1164.16832439
_cell_formula_units_Z   2
loop_
 _symmetry_equiv_pos_site_id
 _symmetry_equiv_pos_as_xyz
  1  'x, y, z'
loop_
 _atom_site_type_symbol
 _atom_site_label
 _atom_site_symmetry_multiplicity
 _atom_site_fract_x
 _atom_site_fract_y
 _atom_site_fract_z
 _atom_site_occupancy
  Li  Li0  1  0.91234991  0.77315608  0.06160107  1
  Li  Li1  1  0.76583397  0.90308947  0.55790893  1
  Li  Li2  1  0.89860572  0.33814499  0.55808174  1
  Li  Li3  1  0.77281827  0.32178065  0.06221380  1
  Li  Li4  1  0.31887621  0.90475611  0.05942594  1
  Li  Li5  1  0.33323120  0.76947047  0.55812843  1
  Li  Li6  1  0.69058048  0.08367133  0.94020218  1
  Li  Li7  1  0.34003647  0.32938179  0.61126295  1
  Li  Li8  1  0.33546255  0.33551616  0.11443462  1
  Li  Li9  1  0.09255611  0.67604212  0.43685942  1
  Li  Li10  1  0.08798696  0.22250128  0.94007032  1
  Li  Li11  1  0.98777256  0.03841816  0.49109314  1
  V  V12  1  0.56272926  0.43653420  0.25278758  1
  V  V13  1  0.43388620  0.56688202  0.75217782  1
  V  V14  1  0.56698075  0.99624968  0.74895823  1
  V  V15  1  0.43338681  0.00078852  0.25475495  1
  V  V16  1  0.00020066  0.56619278  0.25132344  1
  V  V17  1  0.99787490  0.43193023  0.75191779  1
  P  P18  1  0.91282619  0.76833365  0.84236980  1
  P  P19  1  0.77205442  0.91364840  0.34327297  1
  P  P20  1  0.91213883  0.31283373  0.34153604  1
  P  P21  1  0.66502258  0.67025531  0.12856845  1
  P  P22  1  0.66787881  0.66459071  0.62655572  1
  P  P23  1  0.76399411  0.32049156  0.84371064  1
  P  P24  1  0.69034857  0.22358121  0.65778450  1
  P  P25  1  0.31677242  0.91238761  0.84441938  1
  P  P26  1  0.68103183  0.09020388  0.15826216  1
  P  P27  1  0.31258721  0.77212921  0.34437213  1
  P  P28  1  0.22921199  0.68181606  0.15886335  1
  P  P29  1  0.33272657  0.33479393  0.37183378  1
  P  P30  1  0.33531239  0.32937589  0.87182882  1
  P  P31  1  0.09096990  0.68297142  0.65771680  1
  P  P32  1  0.22260439  0.08801319  0.65929329  1
  P  P33  1  0.09332201  0.22773977  0.15789538  1
  O  O34  1  0.99791494  0.76832491  0.56988076  1
  O  O35  1  0.91923132  0.74676140  0.33706640  1
  O  O36  1  0.75920148  0.99513649  0.06972303  1
  O  O37  1  0.74760784  0.91599718  0.83714755  1
  O  O38  1  0.90320616  0.61719997  0.81906247  1
  O  O39  1  0.81495488  0.66830256  0.16859668  1
  O  O40  1  0.91664540  0.46845682  0.32657344  1
  O  O41  1  0.99673183  0.24754591  0.06985754  1
  O  O42  1  0.91746775  0.32995473  0.84131277  1
  O  O43  1  0.67382309  0.81136167  0.66737544  1
  O  O44  1  0.62022027  0.90614830  0.33174894  1
  O  O45  1  0.81277748  0.51200296  0.66637911  1
  O  O46  1  0.66058887  0.67133296  0.02191822  1
  O  O47  1  0.66551536  0.66752769  0.51966552  1
  O  O48  1  0.65974499  0.52249912  0.17069031  1
  O  O49  1  0.47591923  0.90657470  0.82272297  1
  O  O50  1  0.51802640  0.82125100  0.17236705  1
  O  O51  1  0.74525977  0.34362308  0.33364490  1
  O  O52  1  0.78198753  0.20341690  0.75764861  1
  O  O53  1  0.79674307  0.21383225  0.57751932  1
  O  O54  1  0.74889989  0.24833301  0.93564140  1
  O  O55  1  0.62303388  0.48259118  0.82336278  1
  O  O56  1  0.51428409  0.66921475  0.66849948  1
  O  O57  1  0.66790163  0.25358908  0.15611914  1
  O  O58  1  0.46953475  0.61839616  0.33291380  1
  O  O59  1  0.33487464  0.91491941  0.33817967  1
  O  O60  1  0.78838688  0.00313822  0.24996568  1
  O  O61  1  0.78265902  0.99131557  0.43322355  1
  O  O62  1  0.21441627  0.99513383  0.57704359  1
  O  O63  1  0.66215014  0.07985442  0.65658829  1
  O  O64  1  0.52812800  0.37423354  0.66503308  1
  O  O65  1  0.33903948  0.74791540  0.83895512  1
  O  O66  1  0.48027731  0.33362276  0.32699350  1
  O  O67  1  0.37254939  0.51467786  0.17220613  1
  O  O68  1  0.23788405  0.76992258  0.07497465  1
  O  O69  1  0.22445551  0.77478772  0.43483395  1
  O  O70  1  0.20332726  0.78205702  0.25567382  1
  O  O71  1  0.25498368  0.66729871  0.65641878  1
  O  O72  1  0.48595805  0.18208348  0.83143998  1
  O  O73  1  0.51444637  0.11303584  0.17395004  1
  O  O74  1  0.33841964  0.47457846  0.82437547  1
  O  O75  1  0.33956362  0.32983527  0.97912003  1
  O  O76  1  0.33432276  0.33565456  0.47894528  1
  O  O77  1  0.18495149  0.48951019  0.33597908  1
  O  O78  1  0.37203974  0.10360966  0.66816473  1
  O  O79  1  0.33116177  0.18778886  0.32875017  1
  O  O80  1  0.08113846  0.66060932  0.15858617  1
  O  O81  1  0.00502939  0.78716246  0.75158580  1
  O  O82  1  0.99281522  0.75613495  0.93414495  1
  O  O83  1  0.10989189  0.51730201  0.67157177  1
  O  O84  1  0.18481890  0.32677178  0.83616143  1
  O  O85  1  0.11911464  0.37001715  0.17502820  1
  O  O86  1  0.25481266  0.07803896  0.15538007  1
  O  O87  1  0.24497223  0.00100659  0.93523672  1
  O  O88  1  0.20228551  0.01331899  0.75792242  1
  O  O89  1  0.07929102  0.25862932  0.66010109  1
  O  O90  1  0.98934478  0.22925623  0.43248008  1
  O  O91  1  0.00623616  0.20634948  0.25007154  1
