# generated using pymatgen
data_Li4Mn3NiO8
_symmetry_space_group_name_H-M   'P 1'
_cell_length_a   5.97776899
_cell_length_b   5.92188624
_cell_length_c   5.87179452
_cell_angle_alpha   118.89087661
_cell_angle_beta   120.22622822
_cell_angle_gamma   59.50737003
_symmetry_Int_Tables_number   1
_chemical_formula_structural   Li4Mn3NiO8
_chemical_formula_sum   'Li4 Mn3 Ni1 O8'
_cell_volume   147.34557111
_cell_formula_units_Z   1
loop_
 _symmetry_equiv_pos_site_id
 _symmetry_equiv_pos_as_xyz
  1  'x, y, z'
loop_
 _atom_site_type_symbol
 _atom_site_label
 _atom_site_symmetry_multiplicity
 _atom_site_fract_x
 _atom_site_fract_y
 _atom_site_fract_z
 _atom_site_occupancy
  Li  Li0  1  0.00007931  0.99928055  0.49949720  1
  Li  Li1  1  0.49707615  0.49670538  0.49832891  1
  Li  Li2  1  0.99716447  0.49984275  0.49999214  1
  Li  Li3  1  0.50080261  0.99761822  0.50051982  1
  Mn  Mn4  1  0.49945753  0.49942525  0.99984208  1
  Mn  Mn5  1  0.49970470  0.99924860  0.99964111  1
  Mn  Mn6  1  0.99939093  0.49945905  0.99962452  1
  Ni  Ni7  1  0.99982164  0.99961752  0.00011272  1
  O  O8  1  0.26307612  0.21678494  0.74516465  1
  O  O9  1  0.27738715  0.75867349  0.78073183  1
  O  O10  1  0.75216957  0.28695036  0.78820060  1
  O  O11  1  0.74511774  0.75929409  0.77780953  1
  O  O12  1  0.25437123  0.23946521  0.22154296  1
  O  O13  1  0.24685567  0.71187152  0.21153433  1
  O  O14  1  0.72190102  0.24030398  0.21912699  1
  O  O15  1  0.73640917  0.78190808  0.25441659  1
