# generated using pymatgen
data_Sr8Cu8O17
_symmetry_space_group_name_H-M   'P 1'
_cell_length_a   7.82866533
_cell_length_b   8.80261497
_cell_length_c   8.11856559
_cell_angle_alpha   64.26079423
_cell_angle_beta   90.00000000
_cell_angle_gamma   63.59723577
_symmetry_Int_Tables_number   1
_chemical_formula_structural   Sr8Cu8O17
_chemical_formula_sum   'Sr8 Cu8 O17'
_cell_volume   438.27300302
_cell_formula_units_Z   1
loop_
 _symmetry_equiv_pos_site_id
 _symmetry_equiv_pos_as_xyz
  1  'x, y, z'
loop_
 _atom_site_type_symbol
 _atom_site_label
 _atom_site_symmetry_multiplicity
 _atom_site_fract_x
 _atom_site_fract_y
 _atom_site_fract_z
 _atom_site_occupancy
  Sr  Sr0  1  0.18621922  0.12500000  0.25000000  1
  Sr  Sr1  1  0.07864622  0.36518057  0.74994768  1
  Sr  Sr2  1  0.43750000  0.62500000  0.25000000  1
  Sr  Sr3  1  0.68878078  0.12500000  0.25000000  1
  Sr  Sr4  1  0.31882678  0.88481943  0.75005232  1
  Sr  Sr5  1  0.55617322  0.36518057  0.74994768  1
  Sr  Sr6  1  0.79635378  0.88481943  0.75005232  1
  Sr  Sr7  1  0.93750000  0.62500000  0.25000000  1
  Cu  Cu8  1  0.00249198  0.99501605  0.00946378  1
  Cu  Cu9  1  0.24875900  0.50248201  0.00479777  1
  Cu  Cu10  1  0.12179504  0.75640993  0.49648058  1
  Cu  Cu11  1  0.37240119  0.25519763  0.48841416  1
  Cu  Cu12  1  0.50259881  0.99480237  0.01158584  1
  Cu  Cu13  1  0.62624100  0.74751799  0.49520223  1
  Cu  Cu14  1  0.75320496  0.49359007  0.00351942  1
  Cu  Cu15  1  0.87250802  0.25498395  0.49053622  1
  O  O16  1  0.99909165  0.00181569  0.50344382  1
  O  O17  1  0.99893021  0.50245768  0.99522924  1
  O  O18  1  0.11569257  0.25990311  0.48028818  1
  O  O19  1  0.25059568  0.99009689  0.01971182  1
  O  O20  1  0.37253659  0.25492681  0.01602977  1
  O  O21  1  0.43750000  0.12500000  0.75000000  1
  O  O22  1  0.50246341  0.99507319  0.48397023  1
  O  O23  1  0.12233826  0.75532349  0.99539227  1
  O  O24  1  0.23992235  0.52015430  0.48373425  1
  O  O25  1  0.37638889  0.74754232  0.50477076  1
  O  O26  1  0.62440432  0.25990311  0.48028818  1
  O  O27  1  0.75930743  0.99009689  0.01971182  1
  O  O28  1  0.49861111  0.50245768  0.99522924  1
  O  O29  1  0.75266174  0.49467651  0.50460773  1
  O  O30  1  0.87590835  0.24818431  0.99655618  1
  O  O31  1  0.63507765  0.72984570  0.01626575  1
  O  O32  1  0.87606979  0.74754232  0.50477076  1
