# generated using pymatgen
data_Li7Zr3Nb(TeO6)4
_symmetry_space_group_name_H-M   'P 1'
_cell_length_a   5.25802199
_cell_length_b   5.25802206
_cell_length_c   18.70535923
_cell_angle_alpha   89.99999899
_cell_angle_beta   98.07958934
_cell_angle_gamma   60.00000039
_symmetry_Int_Tables_number   1
_chemical_formula_structural   Li7Zr3Nb(TeO6)4
_chemical_formula_sum   'Li7 Zr3 Nb1 Te4 O24'
_cell_volume   441.92185620
_cell_formula_units_Z   1
loop_
 _symmetry_equiv_pos_site_id
 _symmetry_equiv_pos_as_xyz
  1  'x, y, z'
loop_
 _atom_site_type_symbol
 _atom_site_label
 _atom_site_symmetry_multiplicity
 _atom_site_fract_x
 _atom_site_fract_y
 _atom_site_fract_z
 _atom_site_occupancy
  Li  Li0  1  0.11456473  0.44271714  0.67184759  1
  Li  Li1  1  0.11608654  0.94195673  0.17412981  1
  Li  Li2  1  0.61543714  0.69228143  0.92315671  1
  Li  Li3  1  0.35652518  0.32173741  0.03478677  1
  Li  Li4  1  0.61638559  0.19180720  0.42457939  1
  Li  Li5  1  0.85602778  0.07198611  0.78404167  1
  Li  Li6  1  0.85776844  0.57111578  0.28665167  1
  Zr  Zr7  1  0.99916977  0.00041512  0.99875465  1
  Zr  Zr8  1  0.49835712  0.75082094  0.74753617  1
  Zr  Zr9  1  0.50041921  0.24979039  0.25062882  1
  Nb  Nb10  1  0.00070070  0.49964915  0.50105155  1
  Te  Te11  1  0.24906615  0.37546742  0.87359873  1
  Te  Te12  1  0.25196970  0.87401515  0.37795355  1
  Te  Te13  1  0.74866978  0.12566461  0.62300517  1
  Te  Te14  1  0.75020326  0.62489887  0.12530439  1
  O  O15  1  0.09654123  0.07997558  0.68764686  1
  O  O16  1  0.27175229  0.07025882  0.93884974  1
  O  O17  1  0.00910856  0.65798889  0.93884974  1
  O  O18  1  0.00748565  0.17699924  0.43974491  1
  O  O19  1  0.00170930  0.32263777  0.06719120  1
  O  O20  1  0.50090366  0.07369876  0.81593654  1
  O  O21  1  0.97603237  0.81346566  0.56434616  1
  O  O22  1  0.37781182  0.21050198  0.56434616  1
  O  O23  1  0.24133512  0.68496712  0.81593654  1
  O  O24  1  0.24993793  0.17915964  0.31982417  1
  O  O25  1  0.59683963  0.33290155  0.93884974  1
  O  O26  1  0.09755118  0.58180400  0.19043387  1
  O  O27  1  0.25525902  0.56774174  0.43974491  1
  O  O28  1  0.51113106  0.40889437  0.68764686  1
  O  O29  1  0.49898381  0.57090243  0.31982417  1
  O  O30  1  0.88963530  0.42539858  0.81593654  1
  O  O31  1  0.38982898  0.67565293  0.06719120  1
  O  O32  1  0.77484814  0.41168621  0.56434616  1
  O  O33  1  0.61674415  0.81551411  0.43974491  1
  O  O34  1  0.76762244  0.82348320  0.68764686  1
  O  O35  1  0.77223787  0.32064482  0.19043387  1
  O  O36  1  0.51107868  0.90711731  0.19043387  1
  O  O37  1  0.89072660  0.93011376  0.31982417  1
  O  O38  1  0.74284414  0.93451809  0.06719120  1
