# generated using pymatgen
data_Sn(PO3)2
_symmetry_space_group_name_H-M   'P 1'
_cell_length_a   8.07929307
_cell_length_b   8.07929307
_cell_length_c   10.66331989
_cell_angle_alpha   78.87379909
_cell_angle_beta   73.00733364
_cell_angle_gamma   111.07505044
_symmetry_Int_Tables_number   1
_chemical_formula_structural   Sn(PO3)2
_chemical_formula_sum   'Sn4 P8 O24'
_cell_volume   585.46228124
_cell_formula_units_Z   4
loop_
 _symmetry_equiv_pos_site_id
 _symmetry_equiv_pos_as_xyz
  1  'x, y, z'
loop_
 _atom_site_type_symbol
 _atom_site_label
 _atom_site_symmetry_multiplicity
 _atom_site_fract_x
 _atom_site_fract_y
 _atom_site_fract_z
 _atom_site_occupancy
  Sn  Sn0  1  0.23865875  0.98865875  0.75000000  1
  Sn  Sn1  1  0.00000000  0.50000000  0.00000000  1
  Sn  Sn2  1  0.00000000  0.00000000  0.50000000  1
  Sn  Sn3  1  0.76134125  0.01134125  0.25000000  1
  P  P4  1  0.00076149  0.67909811  0.31074305  1
  P  P5  1  0.24880411  0.70615481  0.47949981  1
  P  P6  1  0.51015885  0.68849546  0.81074305  1
  P  P7  1  0.68565461  0.72830392  0.02050019  1
  P  P8  1  0.31434539  0.27169608  0.97949981  1
  P  P9  1  0.48984115  0.31150454  0.18925695  1
  P  P10  1  0.75119589  0.29384519  0.52050019  1
  P  P11  1  0.99923851  0.32090189  0.68925695  1
  O  O12  1  0.03684153  0.64113996  0.17655417  1
  O  O13  1  0.13798860  0.78392968  0.57102586  1
  O  O14  1  0.17784944  0.68289355  0.35404008  1
  O  O15  1  0.32924449  0.71068621  0.81729646  1
  O  O16  1  0.46587841  0.80683142  0.41544329  1
  O  O17  1  0.14504446  0.29098554  0.07102586  1
  O  O18  1  0.19079470  0.49129775  0.56250697  1
  O  O19  1  0.72227471  0.88132170  0.08455671  1
  O  O20  1  0.55380472  0.75330166  0.93749303  1
  O  O21  1  0.68230487  0.78660431  0.67655417  1
  O  O22  1  0.53693263  0.53188851  0.14595992  1
  O  O23  1  0.02798167  0.14653995  0.68270354  1
  O  O24  1  0.97201833  0.85346005  0.31729646  1
  O  O25  1  0.46306737  0.46811149  0.85404008  1
  O  O26  1  0.31769513  0.21339569  0.32344583  1
  O  O27  1  0.44619528  0.24669834  0.06250697  1
  O  O28  1  0.27772529  0.11867830  0.91544329  1
  O  O29  1  0.80920530  0.50870225  0.43749303  1
  O  O30  1  0.85495554  0.70901446  0.92897414  1
  O  O31  1  0.53412159  0.19316858  0.58455671  1
  O  O32  1  0.67075551  0.28931379  0.18270354  1
  O  O33  1  0.82215056  0.31710645  0.64595992  1
  O  O34  1  0.86201140  0.21607032  0.42897414  1
  O  O35  1  0.96315847  0.35886004  0.82344583  1
