# generated using pymatgen
data_SbOF
_symmetry_space_group_name_H-M   'P 1'
_cell_length_a   9.37508870
_cell_length_b   10.77646564
_cell_length_c   7.06003323
_cell_angle_alpha   90.00000000
_cell_angle_beta   105.19285377
_cell_angle_gamma   90.00000000
_symmetry_Int_Tables_number   1
_chemical_formula_structural   SbOF
_chemical_formula_sum   'Sb12 O12 F12'
_cell_volume   688.34779997
_cell_formula_units_Z   12
loop_
 _symmetry_equiv_pos_site_id
 _symmetry_equiv_pos_as_xyz
  1  'x, y, z'
loop_
 _atom_site_type_symbol
 _atom_site_label
 _atom_site_symmetry_multiplicity
 _atom_site_fract_x
 _atom_site_fract_y
 _atom_site_fract_z
 _atom_site_occupancy
  Sb  Sb0  1  0.09787766  0.52782903  0.74666876  1
  Sb  Sb1  1  0.04477059  0.21937558  0.02633702  1
  Sb  Sb2  1  0.22011162  0.16730456  0.54534875  1
  Sb  Sb3  1  0.27988838  0.66730456  0.45465125  1
  Sb  Sb4  1  0.45522941  0.71937558  0.97366298  1
  Sb  Sb5  1  0.40212234  0.02782903  0.25333124  1
  Sb  Sb6  1  0.59787766  0.97217097  0.74666876  1
  Sb  Sb7  1  0.54477059  0.28062442  0.02633702  1
  Sb  Sb8  1  0.72011162  0.33269544  0.54534875  1
  Sb  Sb9  1  0.77988838  0.83269544  0.45465125  1
  Sb  Sb10  1  0.95522941  0.78062442  0.97366298  1
  Sb  Sb11  1  0.90212234  0.47217097  0.25333124  1
  O  O12  1  0.10198405  0.56042377  0.46057519  1
  O  O13  1  0.03271094  0.32795709  0.24965252  1
  O  O14  1  0.28894019  0.64083453  0.75361069  1
  O  O15  1  0.21105981  0.14083453  0.24638931  1
  O  O16  1  0.46728906  0.82795709  0.75034748  1
  O  O17  1  0.39801595  0.06042377  0.53942481  1
  O  O18  1  0.60198405  0.93957623  0.46057519  1
  O  O19  1  0.53271094  0.17204291  0.24965252  1
  O  O20  1  0.78894019  0.85916547  0.75361069  1
  O  O21  1  0.71105981  0.35916547  0.24638931  1
  O  O22  1  0.96728906  0.67204291  0.75034748  1
  O  O23  1  0.89801595  0.43957623  0.53942481  1
  F  F24  1  0.10077731  0.90034722  0.92661768  1
  F  F25  1  0.16384935  0.82135123  0.42873188  1
  F  F26  1  0.16324309  0.65546313  0.12552895  1
  F  F27  1  0.33675691  0.15546313  0.87447105  1
  F  F28  1  0.33615065  0.32135123  0.57126812  1
  F  F29  1  0.39922269  0.40034722  0.07338232  1
  F  F30  1  0.60077731  0.59965278  0.92661768  1
  F  F31  1  0.66384935  0.67864877  0.42873188  1
  F  F32  1  0.66324309  0.84453687  0.12552895  1
  F  F33  1  0.83675691  0.34453687  0.87447105  1
  F  F34  1  0.83615065  0.17864877  0.57126812  1
  F  F35  1  0.89922269  0.09965278  0.07338232  1
