# generated using pymatgen
data_VOF3
_symmetry_space_group_name_H-M   'P 1'
_cell_length_a   4.97563209
_cell_length_b   12.45385386
_cell_length_c   4.90888739
_cell_angle_alpha   90.00000000
_cell_angle_beta   94.45464398
_cell_angle_gamma   90.00000000
_symmetry_Int_Tables_number   1
_chemical_formula_structural   VOF3
_chemical_formula_sum   'V4 O4 F12'
_cell_volume   303.26421206
_cell_formula_units_Z   4
loop_
 _symmetry_equiv_pos_site_id
 _symmetry_equiv_pos_as_xyz
  1  'x, y, z'
loop_
 _atom_site_type_symbol
 _atom_site_label
 _atom_site_symmetry_multiplicity
 _atom_site_fract_x
 _atom_site_fract_y
 _atom_site_fract_z
 _atom_site_occupancy
  V  V0  1  0.03785608  0.84057554  0.78832723  1
  V  V1  1  0.03785608  0.65942446  0.28832623  1
  V  V2  1  0.96214392  0.34057554  0.71167277  1
  V  V3  1  0.96214392  0.15942446  0.21167277  1
  O  O4  1  0.18055560  0.42213573  0.61191682  1
  O  O5  1  0.18055560  0.07786427  0.11191682  1
  O  O6  1  0.81944440  0.92213573  0.88808318  1
  O  O7  1  0.81944440  0.57786427  0.38808318  1
  F  F8  1  0.14290922  0.20664014  0.54746792  1
  F  F9  1  0.14290922  0.29335986  0.04746792  1
  F  F10  1  0.25927238  0.69192899  0.59304300  1
  F  F11  1  0.26896606  0.92456433  0.63938524  1
  F  F12  1  0.25927238  0.80807101  0.09304300  1
  F  F13  1  0.26896606  0.57543567  0.13938524  1
  F  F14  1  0.73103394  0.42456433  0.86061476  1
  F  F15  1  0.74072762  0.19192899  0.90695700  1
  F  F16  1  0.73103394  0.07543567  0.36061476  1
  F  F17  1  0.74072762  0.30807101  0.40695700  1
  F  F18  1  0.85709078  0.70664014  0.95253208  1
  F  F19  1  0.85709078  0.79335986  0.45253208  1
