# generated using pymatgen
data_NaPH2OF6
_symmetry_space_group_name_H-M   'P 1'
_cell_length_a   10.71487408
_cell_length_b   7.98767062
_cell_length_c   6.11851701
_cell_angle_alpha   90.00000000
_cell_angle_beta   90.00000000
_cell_angle_gamma   90.00000000
_symmetry_Int_Tables_number   1
_chemical_formula_structural   NaPH2OF6
_chemical_formula_sum   'Na4 P4 H8 O4 F24'
_cell_volume   523.66481101
_cell_formula_units_Z   4
loop_
 _symmetry_equiv_pos_site_id
 _symmetry_equiv_pos_as_xyz
  1  'x, y, z'
loop_
 _atom_site_type_symbol
 _atom_site_label
 _atom_site_symmetry_multiplicity
 _atom_site_fract_x
 _atom_site_fract_y
 _atom_site_fract_z
 _atom_site_occupancy
  Na  Na0  1  0.23841035  0.25000000  0.75000000  1
  Na  Na1  1  0.26158965  0.75000000  0.75000000  1
  Na  Na2  1  0.73841035  0.25000000  0.25000000  1
  Na  Na3  1  0.76158965  0.75000000  0.25000000  1
  P  P4  1  0.00000000  0.00000000  0.00000000  1
  P  P5  1  0.00000000  0.50000000  0.50000000  1
  P  P6  1  0.50000000  0.00000000  0.00000000  1
  P  P7  1  0.50000000  0.50000000  0.50000000  1
  H  H8  1  0.17714019  0.50491136  0.06977404  1
  H  H9  1  0.17714019  0.99508864  0.43022596  1
  H  H10  1  0.32285981  0.00491136  0.43022596  1
  H  H11  1  0.32285981  0.49508864  0.06977404  1
  H  H12  1  0.67714019  0.50491136  0.93022596  1
  H  H13  1  0.67714019  0.99508864  0.56977404  1
  H  H14  1  0.82285981  0.00491136  0.56977404  1
  H  H15  1  0.82285981  0.49508864  0.93022596  1
  O  O16  1  0.25000000  0.00000000  0.52531026  1
  O  O17  1  0.25000000  0.50000000  0.97468974  1
  O  O18  1  0.75000000  0.00000000  0.47468974  1
  O  O19  1  0.75000000  0.50000000  0.02531026  1
  F  F20  1  0.00532108  0.52951417  0.23559116  1
  F  F21  1  0.00532108  0.97048583  0.26440884  1
  F  F22  1  0.10199309  0.65077189  0.53271072  1
  F  F23  1  0.10199309  0.84922811  0.96728928  1
  F  F24  1  0.11415041  0.13668606  0.02087356  1
  F  F25  1  0.11415041  0.36331394  0.47912644  1
  F  F26  1  0.38584959  0.63668606  0.47912644  1
  F  F27  1  0.38584959  0.86331394  0.02087356  1
  F  F28  1  0.39800691  0.15077189  0.96728928  1
  F  F29  1  0.39800691  0.34922811  0.53271072  1
  F  F30  1  0.49467892  0.02951417  0.26440884  1
  F  F31  1  0.49467892  0.47048583  0.23559116  1
  F  F32  1  0.50532108  0.52951417  0.76440884  1
  F  F33  1  0.50532108  0.97048583  0.73559116  1
  F  F34  1  0.60199309  0.65077189  0.46728928  1
  F  F35  1  0.60199309  0.84922811  0.03271072  1
  F  F36  1  0.61415041  0.13668606  0.97912644  1
  F  F37  1  0.61415041  0.36331394  0.52087356  1
  F  F38  1  0.88584959  0.63668606  0.52087356  1
  F  F39  1  0.88584959  0.86331394  0.97912644  1
  F  F40  1  0.89800691  0.15077189  0.03271072  1
  F  F41  1  0.89800691  0.34922811  0.46728928  1
  F  F42  1  0.99467892  0.02951417  0.73559116  1
  F  F43  1  0.99467892  0.47048583  0.76440884  1
