# generated using pymatgen
data_LiVF6
_symmetry_space_group_name_H-M   'P 1'
_cell_length_a   5.44742769
_cell_length_b   5.37307597
_cell_length_c   8.66994524
_cell_angle_alpha   89.99926815
_cell_angle_beta   89.99963405
_cell_angle_gamma   60.45047890
_symmetry_Int_Tables_number   1
_chemical_formula_structural   LiVF6
_chemical_formula_sum   'Li2 V2 F12'
_cell_volume   220.75726287
_cell_formula_units_Z   2
loop_
 _symmetry_equiv_pos_site_id
 _symmetry_equiv_pos_as_xyz
  1  'x, y, z'
loop_
 _atom_site_type_symbol
 _atom_site_label
 _atom_site_symmetry_multiplicity
 _atom_site_fract_x
 _atom_site_fract_y
 _atom_site_fract_z
 _atom_site_occupancy
  Li  Li0  1  0.88404755  0.05756845  0.02501025  1
  Li  Li1  1  0.11595245  0.94161699  0.52501025  1
  V  V2  1  0.76598109  0.61700968  0.74264833  1
  V  V3  1  0.23401891  0.38298976  0.24264833  1
  F  F4  1  0.82322610  0.82984279  0.59823306  1
  F  F5  1  0.86750224  0.56731711  0.28465539  1
  F  F6  1  0.70579704  0.88602380  0.88826142  1
  F  F7  1  0.82441086  0.34502212  0.59919744  1
  F  F8  1  0.70721214  0.40872724  0.88917117  1
  F  F9  1  0.38848195  0.80474382  0.69469794  1
  F  F10  1  0.61151805  0.19322578  0.19469794  1
  F  F11  1  0.29420296  0.59182084  0.38826142  1
  F  F12  1  0.17677390  0.65306890  0.09823306  1
  F  F13  1  0.29278786  0.11593838  0.38917117  1
  F  F14  1  0.13249776  0.43482035  0.78465539  1
  F  F15  1  0.17558914  0.16943299  0.09919744  1
