# generated using pymatgen
data_Li5MgTi12O24
_symmetry_space_group_name_H-M   'P 1'
_cell_length_a   5.99481804
_cell_length_b   5.99481804
_cell_length_c   14.75757098
_cell_angle_alpha   90.00000000
_cell_angle_beta   90.00000000
_cell_angle_gamma   120.00000000
_symmetry_Int_Tables_number   1
_chemical_formula_structural   Li5MgTi12O24
_chemical_formula_sum   'Li5 Mg1 Ti12 O24'
_cell_volume   459.30114072
_cell_formula_units_Z   1
loop_
 _symmetry_equiv_pos_site_id
 _symmetry_equiv_pos_as_xyz
  1  'x, y, z'
loop_
 _atom_site_type_symbol
 _atom_site_label
 _atom_site_symmetry_multiplicity
 _atom_site_fract_x
 _atom_site_fract_y
 _atom_site_fract_z
 _atom_site_occupancy
  Li  Li0  1  0.83333300  0.66666700  0.04218795  1
  Li  Li1  1  0.83333300  0.66666700  0.29011924  1
  Li  Li2  1  0.50000000  0.00000000  0.37590753  1
  Li  Li3  1  0.50000000  0.00000000  0.62026292  1
  Li  Li4  1  0.16666700  0.33333300  0.96180381  1
  Mg  Mg5  1  0.83333300  0.66666700  0.66372295  1
  Ti  Ti6  1  0.33351412  0.66702924  0.16694654  1
  Ti  Ti7  1  0.99589721  0.50410279  0.49879013  1
  Ti  Ti8  1  0.33351412  0.16648588  0.16694654  1
  Ti  Ti9  1  0.16666700  0.33333300  0.33288583  1
  Ti  Ti10  1  0.50000000  0.00000000  0.00183623  1
  Ti  Ti11  1  0.83297076  0.16648588  0.16694654  1
  Ti  Ti12  1  0.50820459  0.50410279  0.49879013  1
  Ti  Ti13  1  0.99589721  0.99179541  0.49879013  1
  Ti  Ti14  1  0.17563429  0.83781715  0.83806243  1
  Ti  Ti15  1  0.16666700  0.33333300  0.70976798  1
  Ti  Ti16  1  0.66218285  0.83781715  0.83806243  1
  Ti  Ti17  1  0.66218285  0.32436571  0.83806243  1
  O  O18  1  0.19993400  0.84996700  0.08826692  1
  O  O19  1  0.65003300  0.84996700  0.08826692  1
  O  O20  1  0.16666700  0.33333300  0.09673239  1
  O  O21  1  0.01731088  0.48268912  0.24586105  1
  O  O22  1  0.01731088  0.03462175  0.24586105  1
  O  O23  1  0.46537825  0.48268912  0.24586105  1
  O  O24  1  0.13791255  0.81895677  0.57413828  1
  O  O25  1  0.65003300  0.30006600  0.08826692  1
  O  O26  1  0.31465428  0.62930956  0.42084276  1
  O  O27  1  0.31465428  0.18534572  0.42084276  1
  O  O28  1  0.50000000  0.00000000  0.23700948  1
  O  O29  1  0.16666700  0.33333300  0.57925053  1
  O  O30  1  0.83333300  0.66666700  0.42668742  1
  O  O31  1  0.68104323  0.81895677  0.57413828  1
  O  O32  1  0.68104323  0.36208745  0.57413828  1
  O  O33  1  0.34854778  0.69709555  0.91316239  1
  O  O34  1  0.87069044  0.18534572  0.42084276  1
  O  O35  1  0.51122642  0.50561321  0.75295917  1
  O  O36  1  0.99438679  0.98877358  0.75295917  1
  O  O37  1  0.99438679  0.50561321  0.75295917  1
  O  O38  1  0.83333300  0.66666700  0.90168325  1
  O  O39  1  0.50000000  0.00000000  0.76305551  1
  O  O40  1  0.34854778  0.15145222  0.91316239  1
  O  O41  1  0.80290445  0.15145222  0.91316239  1
