# generated using pymatgen
data_Ho2(SeO3)3
_symmetry_space_group_name_H-M   'P 1'
_cell_length_a   8.53373413
_cell_length_b   8.53383399
_cell_length_c   8.18910659
_cell_angle_alpha   89.99961705
_cell_angle_beta   89.99935398
_cell_angle_gamma   120.00033196
_symmetry_Int_Tables_number   1
_chemical_formula_structural   Ho2(SeO3)3
_chemical_formula_sum   'Ho4 Se6 O18'
_cell_volume   516.47463995
_cell_formula_units_Z   2
loop_
 _symmetry_equiv_pos_site_id
 _symmetry_equiv_pos_as_xyz
  1  'x, y, z'
loop_
 _atom_site_type_symbol
 _atom_site_label
 _atom_site_symmetry_multiplicity
 _atom_site_fract_x
 _atom_site_fract_y
 _atom_site_fract_z
 _atom_site_occupancy
  Ho  Ho0  1  0.33331665  0.66667460  0.03931922  1
  Ho  Ho1  1  0.33335705  0.66667351  0.46068221  1
  Ho  Ho2  1  0.66665244  0.33332605  0.53931990  1
  Ho  Ho3  1  0.66665204  0.33332839  0.96068091  1
  Se  Se4  1  0.02925081  0.73261220  0.74998169  1
  Se  Se5  1  0.26736553  0.29663906  0.75000908  1
  Se  Se6  1  0.70337178  0.97074788  0.75000668  1
  Se  Se7  1  0.29662347  0.02925575  0.25000810  1
  Se  Se8  1  0.73261821  0.70335919  0.24998844  1
  Se  Se9  1  0.97075046  0.26739138  0.25000086  1
  O  O10  1  0.16169557  0.75032848  0.91337526  1
  O  O11  1  0.16172361  0.75031993  0.58661970  1
  O  O12  1  0.12960671  0.50048005  0.25000528  1
  O  O13  1  0.37087225  0.87041092  0.25000075  1
  O  O14  1  0.24967034  0.41139426  0.58663098  1
  O  O15  1  0.24966785  0.41139369  0.91338402  1
  O  O16  1  0.58863983  0.83829854  0.58662019  1
  O  O17  1  0.58860367  0.83827359  0.91337225  1
  O  O18  1  0.49952531  0.62912897  0.24999044  1
  O  O19  1  0.50045917  0.37086234  0.75000447  1
  O  O20  1  0.41136779  0.16170463  0.41338758  1
  O  O21  1  0.41137326  0.16172036  0.08662564  1
  O  O22  1  0.75032783  0.58860155  0.08662351  1
  O  O23  1  0.75031779  0.58860079  0.41336730  1
  O  O24  1  0.62912094  0.12959125  0.75000206  1
  O  O25  1  0.87039298  0.49952220  0.74999579  1
  O  O26  1  0.83829613  0.24969169  0.08662021  1
  O  O27  1  0.83828053  0.24966876  0.41337650  1
