# generated using pymatgen
data_V(PO3)3
_symmetry_space_group_name_H-M   'P 1'
_cell_length_a   8.55803023
_cell_length_b   8.49120522
_cell_length_c   9.06102301
_cell_angle_alpha   90.00000000
_cell_angle_beta   90.00000000
_cell_angle_gamma   90.00000000
_symmetry_Int_Tables_number   1
_chemical_formula_structural   V(PO3)3
_chemical_formula_sum   'V4 P12 O36'
_cell_volume   658.44633820
_cell_formula_units_Z   4
loop_
 _symmetry_equiv_pos_site_id
 _symmetry_equiv_pos_as_xyz
  1  'x, y, z'
loop_
 _atom_site_type_symbol
 _atom_site_label
 _atom_site_symmetry_multiplicity
 _atom_site_fract_x
 _atom_site_fract_y
 _atom_site_fract_z
 _atom_site_occupancy
  V  V0  1  0.12076176  0.09649092  0.13893464  1
  V  V1  1  0.37923824  0.90350908  0.63893464  1
  V  V2  1  0.62076176  0.40350908  0.86106536  1
  V  V3  1  0.87923824  0.59649092  0.36106536  1
  P  P4  1  0.06264469  0.94856137  0.82505347  1
  P  P5  1  0.06594827  0.72384851  0.07129778  1
  P  P6  1  0.21991462  0.56087785  0.55611638  1
  P  P7  1  0.28008538  0.43912215  0.05611638  1
  P  P8  1  0.43405173  0.27615149  0.57129778  1
  P  P9  1  0.43735531  0.05143863  0.32505347  1
  P  P10  1  0.56264469  0.55143863  0.17494653  1
  P  P11  1  0.56594827  0.77615149  0.92870222  1
  P  P12  1  0.71991462  0.93912215  0.44388362  1
  P  P13  1  0.78008538  0.06087785  0.94388362  1
  P  P14  1  0.93405173  0.22384851  0.42870222  1
  P  P15  1  0.93735531  0.44856137  0.67494653  1
  O  O16  1  0.01584272  0.78564202  0.91048460  1
  O  O17  1  0.06532548  0.13342125  0.35712748  1
  O  O18  1  0.11023707  0.52121284  0.69894924  1
  O  O19  1  0.13398797  0.90956230  0.67882933  1
  O  O20  1  0.12802915  0.86068644  0.15937594  1
  O  O21  1  0.11935840  0.60152559  0.42567565  1
  O  O22  1  0.15192814  0.32960029  0.10337852  1
  O  O23  1  0.15685177  0.05554153  0.92365378  1
  O  O24  1  0.20400241  0.60837092  0.02337688  1
  O  O25  1  0.29599759  0.39162908  0.52337688  1
  O  O26  1  0.34314823  0.94445847  0.42365378  1
  O  O27  1  0.34807186  0.67039971  0.60337852  1
  O  O28  1  0.38064160  0.39847441  0.92567565  1
  O  O29  1  0.37197085  0.13931356  0.65937594  1
  O  O30  1  0.36601203  0.09043770  0.17882933  1
  O  O31  1  0.38976293  0.47878716  0.19894924  1
  O  O32  1  0.43467452  0.86657875  0.85712748  1
  O  O33  1  0.48415728  0.21435798  0.41048460  1
  O  O34  1  0.51584272  0.71435798  0.08951540  1
  O  O35  1  0.56532548  0.36657875  0.64287252  1
  O  O36  1  0.61023707  0.97878716  0.30105076  1
  O  O37  1  0.63398797  0.59043770  0.32117067  1
  O  O38  1  0.62802915  0.63931356  0.84062406  1
  O  O39  1  0.61935840  0.89847441  0.57432435  1
  O  O40  1  0.65192814  0.17039971  0.89662148  1
  O  O41  1  0.65685177  0.44445847  0.07634622  1
  O  O42  1  0.70400241  0.89162908  0.97662312  1
  O  O43  1  0.79599759  0.10837092  0.47662312  1
  O  O44  1  0.84314823  0.55554153  0.57634622  1
  O  O45  1  0.84807186  0.82960029  0.39662148  1
  O  O46  1  0.88064160  0.10152559  0.07432435  1
  O  O47  1  0.87197085  0.36068644  0.34062406  1
  O  O48  1  0.86601203  0.40956230  0.82117067  1
  O  O49  1  0.88976293  0.02121284  0.80105076  1
  O  O50  1  0.93467452  0.63342125  0.14287252  1
  O  O51  1  0.98415728  0.28564202  0.58951540  1
