# generated using pymatgen
data_Li24MnCr11O36
_symmetry_space_group_name_H-M   'P 1'
_cell_length_a   5.06131356
_cell_length_b   13.27514811
_cell_length_c   9.75481811
_cell_angle_alpha   91.88272758
_cell_angle_beta   99.24517062
_cell_angle_gamma   78.88278767
_symmetry_Int_Tables_number   1
_chemical_formula_structural   Li24MnCr11O36
_chemical_formula_sum   'Li24 Mn1 Cr11 O36'
_cell_volume   634.76859018
_cell_formula_units_Z   1
loop_
 _symmetry_equiv_pos_site_id
 _symmetry_equiv_pos_as_xyz
  1  'x, y, z'
loop_
 _atom_site_type_symbol
 _atom_site_label
 _atom_site_symmetry_multiplicity
 _atom_site_fract_x
 _atom_site_fract_y
 _atom_site_fract_z
 _atom_site_occupancy
  Li  Li0  1  0.22002948  0.05780826  0.99973561  1
  Li  Li1  1  0.16570418  0.16804376  0.49964794  1
  Li  Li2  1  0.72015104  0.05996963  0.49995574  1
  Li  Li3  1  0.41817260  0.16632987  0.24829953  1
  Li  Li4  1  0.11177985  0.27392954  0.99827779  1
  Li  Li5  1  0.66872570  0.16725764  0.99918618  1
  Li  Li6  1  0.91263979  0.16634869  0.75035435  1
  Li  Li7  1  0.61626382  0.27344983  0.50066428  1
  Li  Li8  1  0.05967167  0.39276497  0.50046858  1
  Li  Li9  1  0.55480067  0.39196371  0.00001485  1
  Li  Li10  1  0.99829276  0.49897942  0.00174518  1
  Li  Li11  1  0.25081670  0.49885387  0.74942354  1
  Li  Li12  1  0.50211838  0.49830090  0.49865510  1
  Li  Li13  1  0.75180863  0.49900172  0.25097746  1
  Li  Li14  1  0.44730704  0.60617913  0.99899225  1
  Li  Li15  1  0.94303077  0.60541109  0.49880147  1
  Li  Li16  1  0.38647901  0.72749627  0.50017074  1
  Li  Li17  1  0.08479219  0.83481976  0.25064458  1
  Li  Li18  1  0.88522816  0.72544609  0.99861786  1
  Li  Li19  1  0.33120441  0.83455299  0.00007406  1
  Li  Li20  1  0.57835235  0.83339497  0.74918277  1
  Li  Li21  1  0.28058463  0.93950363  0.49880058  1
  Li  Li22  1  0.83455814  0.83375421  0.49940769  1
  Li  Li23  1  0.77873216  0.94129489  0.00011164  1
  Mn  Mn24  1  0.97461341  0.05462863  0.24974854  1
  Cr  Cr25  1  0.46229630  0.05428330  0.75064128  1
  Cr  Cr26  1  0.36142559  0.27708158  0.75005041  1
  Cr  Cr27  1  0.31218705  0.38865384  0.24844460  1
  Cr  Cr28  1  0.86720563  0.27718756  0.24850113  1
  Cr  Cr29  1  0.79961820  0.38845984  0.75017540  1
  Cr  Cr30  1  0.19175472  0.61482205  0.25130113  1
  Cr  Cr31  1  0.14315378  0.71781643  0.74701510  1
  Cr  Cr32  1  0.69589594  0.61419691  0.74719984  1
  Cr  Cr33  1  0.63953339  0.71915146  0.25084005  1
  Cr  Cr34  1  0.02004320  0.94317207  0.75197020  1
  Cr  Cr35  1  0.53027963  0.94609590  0.24924281  1
  O  O36  1  0.12075580  0.04485094  0.63913013  1
  O  O37  1  0.33352836  0.04620112  0.36091156  1
  O  O38  1  0.82873496  0.04768764  0.86163015  1
  O  O39  1  0.02333454  0.16559839  0.13516913  1
  O  O40  1  0.62163459  0.04752597  0.13871610  1
  O  O41  1  0.31526063  0.16429253  0.86464581  1
  O  O42  1  0.52060931  0.16807868  0.63451926  1
  O  O43  1  0.21192159  0.28684662  0.36100607  1
  O  O44  1  0.81156138  0.16580392  0.36366388  1
  O  O45  1  0.16805415  0.38054887  0.86131033  1
  O  O46  1  0.71027917  0.28444234  0.86228016  1
  O  O47  1  0.50706675  0.28488312  0.13704033  1
  O  O48  1  0.45736556  0.38030824  0.63756489  1
  O  O49  1  0.00053982  0.28677455  0.63764472  1
  O  O50  1  0.66496512  0.37951709  0.36150220  1
  O  O51  1  0.14573317  0.50081260  0.36392059  1
  O  O52  1  0.35279554  0.49929842  0.13621669  1
  O  O53  1  0.95531220  0.38092207  0.13673830  1
  O  O54  1  0.05358756  0.62115213  0.86167285  1
  O  O55  1  0.64966218  0.49903836  0.86306126  1
  O  O56  1  0.85409780  0.50110738  0.63497232  1
  O  O57  1  0.32617479  0.61980022  0.63604426  1
  O  O58  1  0.00765768  0.71212550  0.36312557  1
  O  O59  1  0.55415405  0.62116351  0.36294388  1
  O  O60  1  0.50816598  0.71096712  0.86202159  1
  O  O61  1  0.28080964  0.71131979  0.13696439  1
  O  O62  1  0.82554364  0.62120456  0.13715656  1
  O  O63  1  0.18856024  0.83083199  0.63468819  1
  O  O64  1  0.77935440  0.71243308  0.63596668  1
  O  O65  1  0.48050665  0.83295040  0.36451451  1
  O  O66  1  0.68400528  0.83384856  0.13622078  1
  O  O67  1  0.37748284  0.95080345  0.86286572  1
  O  O68  1  0.97993114  0.83297041  0.86308279  1
  O  O69  1  0.16253265  0.95226124  0.13728598  1
  O  O70  1  0.66618505  0.95352154  0.63807399  1
  O  O71  1  0.88463982  0.95305225  0.36202510  1
