# generated using pymatgen
data_Li5Ti2Fe5O12
_symmetry_space_group_name_H-M   'P 1'
_cell_length_a   5.25683871
_cell_length_b   5.25683829
_cell_length_c   10.03032918
_cell_angle_alpha   84.38751291
_cell_angle_beta   95.61248413
_cell_angle_gamma   58.83937278
_symmetry_Int_Tables_number   1
_chemical_formula_structural   Li5Ti2Fe5O12
_chemical_formula_sum   'Li5 Ti2 Fe5 O12'
_cell_volume   232.44102320
_cell_formula_units_Z   1
loop_
 _symmetry_equiv_pos_site_id
 _symmetry_equiv_pos_as_xyz
  1  'x, y, z'
loop_
 _atom_site_type_symbol
 _atom_site_label
 _atom_site_symmetry_multiplicity
 _atom_site_fract_x
 _atom_site_fract_y
 _atom_site_fract_z
 _atom_site_occupancy
  Li  Li0  1  0.16573852  0.66997846  0.50357556  1
  Li  Li1  1  0.32740969  0.83300594  0.99481098  1
  Li  Li2  1  0.66997846  0.16573852  0.99642444  1
  Li  Li3  1  0.83300594  0.32740969  0.50518902  1
  Li  Li4  1  0.92046942  0.92046942  0.75000000  1
  Ti  Ti5  1  0.25225092  0.25225092  0.75000000  1
  Ti  Ti6  1  0.74643779  0.74643779  0.25000000  1
  Fe  Fe7  1  0.07749228  0.07749228  0.25000000  1
  Fe  Fe8  1  0.00390422  0.50485295  0.99811181  1
  Fe  Fe9  1  0.50485295  0.00390422  0.50188819  1
  Fe  Fe10  1  0.41924023  0.41924023  0.25000000  1
  Fe  Fe11  1  0.58120662  0.58120662  0.75000000  1
  O  O12  1  0.96926187  0.22532876  0.86419287  1
  O  O13  1  0.22532876  0.96926187  0.63580713  1
  O  O14  1  0.11691490  0.38074117  0.36791407  1
  O  O15  1  0.38074117  0.11691490  0.13208593  1
  O  O16  1  0.30733128  0.51727529  0.86375542  1
  O  O17  1  0.51727529  0.30733128  0.63624458  1
  O  O18  1  0.49089428  0.69951154  0.36845743  1
  O  O19  1  0.69951154  0.49089428  0.13154257  1
  O  O20  1  0.60470884  0.87901749  0.86443661  1
  O  O21  1  0.87901749  0.60470884  0.63556339  1
  O  O22  1  0.80010896  0.00692156  0.37020455  1
  O  O23  1  0.00692156  0.80010896  0.12979545  1
