# generated using pymatgen
data_Na6Mn2B4SO16
_symmetry_space_group_name_H-M   'P 1'
_cell_length_a   9.83437645
_cell_length_b   9.83437629
_cell_length_c   9.83437639
_cell_angle_alpha   90.00000501
_cell_angle_beta   60.00000319
_cell_angle_gamma   60.00000285
_symmetry_Int_Tables_number   1
_chemical_formula_structural   Na6Mn2B4SO16
_chemical_formula_sum   'Na12 Mn4 B8 S2 O32'
_cell_volume   672.55142765
_cell_formula_units_Z   2
loop_
 _symmetry_equiv_pos_site_id
 _symmetry_equiv_pos_as_xyz
  1  'x, y, z'
loop_
 _atom_site_type_symbol
 _atom_site_label
 _atom_site_symmetry_multiplicity
 _atom_site_fract_x
 _atom_site_fract_y
 _atom_site_fract_z
 _atom_site_occupancy
  Na  Na0  1  0.75000000  0.90735382  0.65735382  1
  Na  Na1  1  0.68529236  0.65735382  0.90735382  1
  Na  Na2  1  0.75000000  0.34264618  0.65735382  1
  Na  Na3  1  0.75000000  0.90735382  0.09264618  1
  Na  Na4  1  0.25000000  0.65735382  0.90735382  1
  Na  Na5  1  0.81470764  0.09264618  0.34264618  1
  Na  Na6  1  0.75000000  0.34264618  0.09264618  1
  Na  Na7  1  0.18529236  0.90735382  0.65735382  1
  Na  Na8  1  0.25000000  0.09264618  0.90735382  1
  Na  Na9  1  0.25000000  0.65735382  0.34264618  1
  Na  Na10  1  0.31470764  0.34264618  0.09264618  1
  Na  Na11  1  0.25000000  0.09264618  0.34264618  1
  Mn  Mn12  1  0.50000000  0.50000000  0.50000000  1
  Mn  Mn13  1  0.50000000  0.00000000  0.50000000  1
  Mn  Mn14  1  0.00000000  0.50000000  0.50000000  1
  Mn  Mn15  1  0.00000000  0.50000000  0.00000000  1
  B  B16  1  0.92210879  0.71105389  0.28894611  1
  B  B17  1  0.57789121  0.71105389  0.63316268  1
  B  B18  1  0.92210879  0.36683732  0.28894611  1
  B  B19  1  0.57789121  0.71105389  0.28894611  1
  B  B20  1  0.42210879  0.28894611  0.71105389  1
  B  B21  1  0.42210879  0.28894611  0.36683732  1
  B  B22  1  0.07789121  0.63316268  0.71105389  1
  B  B23  1  0.07789121  0.28894611  0.71105389  1
  S  S24  1  0.75000000  0.12500000  0.87500000  1
  S  S25  1  0.25000000  0.87500000  0.12500000  1
  O  O26  1  0.95075641  0.64027238  0.68248666  1
  O  O27  1  0.95075641  0.40897021  0.86675693  1
  O  O28  1  0.95778672  0.68248666  0.40897021  1
  O  O29  1  0.77351645  0.86675693  0.31751334  1
  O  O30  1  0.87426784  0.06286658  0.93713342  1
  O  O31  1  0.72648355  0.59102979  0.64027238  1
  O  O32  1  0.54221328  0.86675693  0.64027238  1
  O  O33  1  0.62573216  0.31140127  0.93713342  1
  O  O34  1  0.87426784  0.06286658  0.68859873  1
  O  O35  1  0.95778672  0.35972762  0.13324307  1
  O  O36  1  0.77351645  0.35972762  0.40897021  1
  O  O37  1  0.62573216  0.06286658  0.93713342  1
  O  O38  1  0.72648355  0.68248666  0.13324307  1
  O  O39  1  0.45075641  0.68248666  0.64027238  1
  O  O40  1  0.45075641  0.86675693  0.40897021  1
  O  O41  1  0.45778672  0.40897021  0.68248666  1
  O  O42  1  0.54221328  0.59102979  0.31751334  1
  O  O43  1  0.54924359  0.13324307  0.59102979  1
  O  O44  1  0.54924359  0.31751334  0.35972762  1
  O  O45  1  0.27351645  0.31751334  0.86675693  1
  O  O46  1  0.37426784  0.93713342  0.06286658  1
  O  O47  1  0.22648355  0.64027238  0.59102979  1
  O  O48  1  0.04221328  0.64027238  0.86675693  1
  O  O49  1  0.37426784  0.68859873  0.06286658  1
  O  O50  1  0.12573216  0.93713342  0.31140127  1
  O  O51  1  0.45778672  0.13324307  0.35972762  1
  O  O52  1  0.27351645  0.40897021  0.35972762  1
  O  O53  1  0.12573216  0.93713342  0.06286658  1
  O  O54  1  0.22648355  0.13324307  0.68248666  1
  O  O55  1  0.04221328  0.31751334  0.59102979  1
  O  O56  1  0.04924359  0.59102979  0.13324307  1
  O  O57  1  0.04924359  0.35972762  0.31751334  1
