# generated using pymatgen
data_Li4Cr3Cu3(TeO8)2
_symmetry_space_group_name_H-M   'P 1'
_cell_length_a   5.97317132
_cell_length_b   5.87925526
_cell_length_c   9.76651354
_cell_angle_alpha   89.99950955
_cell_angle_beta   87.20236781
_cell_angle_gamma   119.49332181
_symmetry_Int_Tables_number   1
_chemical_formula_structural   Li4Cr3Cu3(TeO8)2
_chemical_formula_sum   'Li4 Cr3 Cu3 Te2 O16'
_cell_volume   298.06313129
_cell_formula_units_Z   1
loop_
 _symmetry_equiv_pos_site_id
 _symmetry_equiv_pos_as_xyz
  1  'x, y, z'
loop_
 _atom_site_type_symbol
 _atom_site_label
 _atom_site_symmetry_multiplicity
 _atom_site_fract_x
 _atom_site_fract_y
 _atom_site_fract_z
 _atom_site_occupancy
  Li  Li0  1  0.32805980  0.66399878  0.91405403  1
  Li  Li1  1  0.99590829  0.99793655  0.98722731  1
  Li  Li2  1  0.00800778  0.00401191  0.47988623  1
  Li  Li3  1  0.68390248  0.34202017  0.41386466  1
  Cr  Cr4  1  0.65478811  0.82733863  0.21436516  1
  Cr  Cr5  1  0.82692340  0.65945144  0.71266485  1
  Cr  Cr6  1  0.82688069  0.16747847  0.71266655  1
  Cu  Cu7  1  0.16507364  0.82821841  0.20962220  1
  Cu  Cu8  1  0.16471192  0.33674975  0.20954748  1
  Cu  Cu9  1  0.33634577  0.16820334  0.71116456  1
  Te  Te10  1  0.34308351  0.67159248  0.48451093  1
  Te  Te11  1  0.65241267  0.32616728  0.98281491  1
  O  O12  1  0.16664650  0.82949527  0.58808081  1
  O  O13  1  0.05787726  0.52912305  0.35427783  1
  O  O14  1  0.33317995  0.66665321  0.11956736  1
  O  O15  1  0.99624919  0.99806975  0.29166629  1
  O  O16  1  0.99540809  0.99776355  0.80009024  1
  O  O17  1  0.16655649  0.33721715  0.58804663  1
  O  O18  1  0.51593982  0.97781221  0.36049501  1
  O  O19  1  0.51570954  0.53801725  0.36050178  1
  O  O20  1  0.31882555  0.15932877  0.08524936  1
  O  O21  1  0.66096340  0.83048041  0.59909710  1
  O  O22  1  0.52290608  0.48895808  0.85119636  1
  O  O23  1  0.52293190  0.03388087  0.85119643  1
  O  O24  1  0.67001391  0.33501664  0.61415814  1
  O  O25  1  0.80659932  0.64644448  0.08495230  1
  O  O26  1  0.95739979  0.47871601  0.84192075  1
  O  O27  1  0.80669413  0.16015807  0.08495574  1
