# generated using pymatgen
data_Li4CrO5
_symmetry_space_group_name_H-M   'P 1'
_cell_length_a   5.25965434
_cell_length_b   5.25965434
_cell_length_c   7.91609101
_cell_angle_alpha   83.51996044
_cell_angle_beta   96.48003956
_cell_angle_gamma   112.67936111
_symmetry_Int_Tables_number   1
_chemical_formula_structural   Li4CrO5
_chemical_formula_sum   'Li8 Cr2 O10'
_cell_volume   200.19145959
_cell_formula_units_Z   2
loop_
 _symmetry_equiv_pos_site_id
 _symmetry_equiv_pos_as_xyz
  1  'x, y, z'
loop_
 _atom_site_type_symbol
 _atom_site_label
 _atom_site_symmetry_multiplicity
 _atom_site_fract_x
 _atom_site_fract_y
 _atom_site_fract_z
 _atom_site_occupancy
  Li  Li0  1  0.36290510  0.96503857  0.64798172  1
  Li  Li1  1  0.03496143  0.63709490  0.14798172  1
  Li  Li2  1  0.21999861  0.43359492  0.55551364  1
  Li  Li3  1  0.56640508  0.78000139  0.05551364  1
  Li  Li4  1  0.43359492  0.21999861  0.94448636  1
  Li  Li5  1  0.78000139  0.56640508  0.44448636  1
  Li  Li6  1  0.96503857  0.36290510  0.85201828  1
  Li  Li7  1  0.63709490  0.03496143  0.35201828  1
  Cr  Cr8  1  0.82865282  0.82865282  0.75000000  1
  Cr  Cr9  1  0.17134718  0.17134718  0.25000000  1
  O  O10  1  0.01076232  0.64674766  0.65941828  1
  O  O11  1  0.35325234  0.98923768  0.15941828  1
  O  O12  1  0.59041192  0.76774711  0.57247267  1
  O  O13  1  0.23225289  0.40958808  0.07247267  1
  O  O14  1  0.12867816  0.12867816  0.75000000  1
  O  O15  1  0.87132184  0.87132184  0.25000000  1
  O  O16  1  0.76774711  0.59041192  0.92752733  1
  O  O17  1  0.40958808  0.23225289  0.42752733  1
  O  O18  1  0.64674766  0.01076232  0.84058172  1
  O  O19  1  0.98923768  0.35325234  0.34058172  1
