# generated using pymatgen
data_LiMn2(PO4)2
_symmetry_space_group_name_H-M   'P 1'
_cell_length_a   12.55738054
_cell_length_b   9.09124652
_cell_length_c   8.67033237
_cell_angle_alpha   104.40854493
_cell_angle_beta   80.41349211
_cell_angle_gamma   74.61934340
_symmetry_Int_Tables_number   1
_chemical_formula_structural   LiMn2(PO4)2
_chemical_formula_sum   'Li6 Mn12 P12 O48'
_cell_volume   895.24008329
_cell_formula_units_Z   6
loop_
 _symmetry_equiv_pos_site_id
 _symmetry_equiv_pos_as_xyz
  1  'x, y, z'
loop_
 _atom_site_type_symbol
 _atom_site_label
 _atom_site_symmetry_multiplicity
 _atom_site_fract_x
 _atom_site_fract_y
 _atom_site_fract_z
 _atom_site_occupancy
  Li  Li0  1  0.00422243  0.49555810  0.49576711  1
  Li  Li1  1  0.25000000  0.25000000  0.50000000  1
  Li  Li2  1  0.60263242  0.37946224  0.00695175  1
  Li  Li3  1  0.49577757  0.00444190  0.50423289  1
  Li  Li4  1  0.75000000  0.75000000  0.50000000  1
  Li  Li5  1  0.89736758  0.12053776  0.99304825  1
  Mn  Mn6  1  0.03950674  0.89508138  0.61413527  1
  Mn  Mn7  1  0.24164071  0.49547955  0.26264567  1
  Mn  Mn8  1  0.13286887  0.48668713  0.93214719  1
  Mn  Mn9  1  0.36713113  0.01331287  0.06785281  1
  Mn  Mn10  1  0.46049326  0.60491862  0.38586473  1
  Mn  Mn11  1  0.25835929  0.00452045  0.73735433  1
  Mn  Mn12  1  0.74018290  0.98959232  0.27371871  1
  Mn  Mn13  1  0.53629103  0.39825893  0.62422247  1
  Mn  Mn14  1  0.62858133  0.98657904  0.93666090  1
  Mn  Mn15  1  0.87141867  0.51342096  0.06333910  1
  Mn  Mn16  1  0.75981710  0.51040768  0.72628129  1
  Mn  Mn17  1  0.96370897  0.10174107  0.37577753  1
  P  P18  1  0.10671089  0.24103714  0.12676655  1
  P  P19  1  0.25074372  0.88303019  0.34904878  1
  P  P20  1  0.02062571  0.27050065  0.70888888  1
  P  P21  1  0.24925628  0.61696981  0.65095122  1
  P  P22  1  0.60846900  0.73428256  0.12954626  1
  P  P23  1  0.47937429  0.22949935  0.29111112  1
  P  P24  1  0.52051889  0.77111442  0.71027048  1
  P  P25  1  0.39328911  0.25896286  0.87323345  1
  P  P26  1  0.74920259  0.37660687  0.34053312  1
  P  P27  1  0.97948111  0.72888558  0.28972952  1
  P  P28  1  0.75079741  0.12339313  0.65946688  1
  P  P29  1  0.89153100  0.76571744  0.87045374  1
  O  O30  1  0.05048091  0.36364850  0.03780644  1
  O  O31  1  0.11613144  0.92770667  0.40807227  1
  O  O32  1  0.09841953  0.63323903  0.17048632  1
  O  O33  1  0.01787333  0.15983065  0.16892632  1
  O  O34  1  0.27878722  0.90952654  0.18064208  1
  O  O35  1  0.00449303  0.27145433  0.53667043  1
  O  O36  1  0.13680901  0.33416208  0.27869299  1
  O  O37  1  0.29155400  0.98952201  0.47896024  1
  O  O38  1  0.28554377  0.38409171  0.00079084  1
  O  O39  1  0.19843382  0.79773591  0.67054748  1
  O  O40  1  0.30156618  0.70226409  0.32945252  1
  O  O41  1  0.20844600  0.51047799  0.52103976  1
  O  O42  1  0.11598891  0.34997792  0.72516619  1
  O  O43  1  0.54422736  0.85447657  0.04697598  1
  O  O44  1  0.06471043  0.10361723  0.73693804  1
  O  O45  1  0.22121278  0.59047346  0.81935792  1
  O  O46  1  0.53550196  0.62974935  0.17782331  1
  O  O47  1  0.43528957  0.39638277  0.26306196  1
  O  O48  1  0.40158047  0.86676097  0.82951368  1
  O  O49  1  0.38386856  0.57229333  0.59192773  1
  O  O50  1  0.38401109  0.15002208  0.27483381  1
  O  O51  1  0.50510363  0.77026625  0.53410283  1
  O  O52  1  0.63869032  0.83012805  0.27977783  1
  O  O53  1  0.78541709  0.88824275  0.00443675  1
  O  O54  1  0.21445623  0.11590829  0.99920916  1
  O  O55  1  0.36319099  0.16583792  0.72130701  1
  O  O56  1  0.49550697  0.22854567  0.46332957  1
  O  O57  1  0.61571235  0.85209476  0.72584646  1
  O  O58  1  0.61734037  0.42709990  0.39730471  1
  O  O59  1  0.59851334  0.13501948  0.16793856  1
  O  O60  1  0.56930044  0.60527354  0.73155712  1
  O  O61  1  0.48212667  0.34016935  0.83107368  1
  O  O62  1  0.78472306  0.38601048  0.16106544  1
  O  O63  1  0.93069956  0.89472646  0.26844288  1
  O  O64  1  0.44951909  0.13635150  0.96219356  1
  O  O65  1  0.88428765  0.64790524  0.27415354  1
  O  O66  1  0.79377305  0.48417769  0.46389660  1
  O  O67  1  0.70146106  0.30439439  0.67556224  1
  O  O68  1  0.79853894  0.19560561  0.32443776  1
  O  O69  1  0.71458291  0.61175725  0.99556325  1
  O  O70  1  0.70622695  0.01582231  0.53610340  1
  O  O71  1  0.86130968  0.66987195  0.72022217  1
  O  O72  1  0.99489637  0.72973375  0.46589717  1
  O  O73  1  0.71527694  0.11398952  0.83893456  1
  O  O74  1  0.96449804  0.87025065  0.82217669  1
  O  O75  1  0.90148666  0.36498052  0.83206144  1
  O  O76  1  0.88265963  0.07290010  0.60269529  1
  O  O77  1  0.95577264  0.64552343  0.95302402  1
