# generated using pymatgen
data_Na3CrBAsO7
_symmetry_space_group_name_H-M   'P 1'
_cell_length_a   9.11699771
_cell_length_b   6.74536202
_cell_length_c   5.31788470
_cell_angle_alpha   90.00000000
_cell_angle_beta   88.25402669
_cell_angle_gamma   90.00000000
_symmetry_Int_Tables_number   1
_chemical_formula_structural   Na3CrBAsO7
_chemical_formula_sum   'Na6 Cr2 B2 As2 O14'
_cell_volume   326.88451722
_cell_formula_units_Z   2
loop_
 _symmetry_equiv_pos_site_id
 _symmetry_equiv_pos_as_xyz
  1  'x, y, z'
loop_
 _atom_site_type_symbol
 _atom_site_label
 _atom_site_symmetry_multiplicity
 _atom_site_fract_x
 _atom_site_fract_y
 _atom_site_fract_z
 _atom_site_occupancy
  Na  Na0  1  0.07187399  0.25000000  0.75798285  1
  Na  Na1  1  0.24428919  0.00054465  0.24926620  1
  Na  Na2  1  0.24428919  0.49945535  0.24926620  1
  Na  Na3  1  0.75571081  0.50054465  0.75073380  1
  Na  Na4  1  0.75571081  0.99945535  0.75073380  1
  Na  Na5  1  0.92812601  0.75000000  0.24201715  1
  Cr  Cr6  1  0.32820459  0.75000000  0.78267551  1
  Cr  Cr7  1  0.67179541  0.25000000  0.21732449  1
  B  B8  1  0.06384930  0.75000000  0.72907830  1
  B  B9  1  0.93615070  0.25000000  0.27092170  1
  As  As10  1  0.42315405  0.25000000  0.71026603  1
  As  As11  1  0.57684595  0.75000000  0.28973397  1
  O  O12  1  0.08210780  0.25000000  0.30180374  1
  O  O13  1  0.13149610  0.75000000  0.96355039  1
  O  O14  1  0.16954497  0.75000000  0.53050861  1
  O  O15  1  0.30921882  0.05399763  0.78702201  1
  O  O16  1  0.30921882  0.44600237  0.78702201  1
  O  O17  1  0.46428626  0.25000000  0.39040831  1
  O  O18  1  0.41572271  0.75000000  0.13500323  1
  O  O19  1  0.58427729  0.25000000  0.86499677  1
  O  O20  1  0.53571374  0.75000000  0.60959169  1
  O  O21  1  0.69078118  0.55399763  0.21297799  1
  O  O22  1  0.69078118  0.94600237  0.21297799  1
  O  O23  1  0.83045503  0.25000000  0.46949139  1
  O  O24  1  0.86850390  0.25000000  0.03644961  1
  O  O25  1  0.91789220  0.75000000  0.69819626  1
