# generated using pymatgen
data_NbPO5
_symmetry_space_group_name_H-M   'P 1'
_cell_length_a   7.66239193
_cell_length_b   6.55773631
_cell_length_c   7.52707226
_cell_angle_alpha   90.00000000
_cell_angle_beta   90.00000000
_cell_angle_gamma   90.00000000
_symmetry_Int_Tables_number   1
_chemical_formula_structural   NbPO5
_chemical_formula_sum   'Nb4 P4 O20'
_cell_volume   378.21991881
_cell_formula_units_Z   4
loop_
 _symmetry_equiv_pos_site_id
 _symmetry_equiv_pos_as_xyz
  1  'x, y, z'
loop_
 _atom_site_type_symbol
 _atom_site_label
 _atom_site_symmetry_multiplicity
 _atom_site_fract_x
 _atom_site_fract_y
 _atom_site_fract_z
 _atom_site_occupancy
  Nb  Nb0  1  0.15435641  0.25000000  0.74011126  1
  Nb  Nb1  1  0.34564359  0.75000000  0.24011126  1
  Nb  Nb2  1  0.65435641  0.25000000  0.75988874  1
  Nb  Nb3  1  0.84564359  0.75000000  0.25988874  1
  P  P4  1  0.12179355  0.75000000  0.62321548  1
  P  P5  1  0.37820645  0.25000000  0.12321548  1
  P  P6  1  0.62179355  0.75000000  0.87678452  1
  P  P7  1  0.87820645  0.25000000  0.37678452  1
  O  O8  1  0.04763095  0.25000000  0.48982183  1
  O  O9  1  0.11830002  0.75000000  0.17456735  1
  O  O10  1  0.12738357  0.55878717  0.74137323  1
  O  O11  1  0.12738357  0.94121283  0.74137323  1
  O  O12  1  0.21503835  0.25000000  0.99879115  1
  O  O13  1  0.28496165  0.75000000  0.49879115  1
  O  O14  1  0.37261643  0.05878717  0.24137323  1
  O  O15  1  0.37261643  0.44121283  0.24137323  1
  O  O16  1  0.38169998  0.25000000  0.67456735  1
  O  O17  1  0.45236905  0.75000000  0.98982183  1
  O  O18  1  0.54763095  0.25000000  0.01017817  1
  O  O19  1  0.61830002  0.75000000  0.32543265  1
  O  O20  1  0.62738357  0.55878717  0.75862677  1
  O  O21  1  0.62738357  0.94121283  0.75862677  1
  O  O22  1  0.71503835  0.25000000  0.50120885  1
  O  O23  1  0.78496165  0.75000000  0.00120885  1
  O  O24  1  0.87261643  0.05878717  0.25862677  1
  O  O25  1  0.87261643  0.44121283  0.25862677  1
  O  O26  1  0.88169998  0.25000000  0.82543265  1
  O  O27  1  0.95236905  0.75000000  0.51017817  1
