# generated using pymatgen
data_Li2CuNiO4
_symmetry_space_group_name_H-M   'P 1'
_cell_length_a   6.01115559
_cell_length_b   6.01115529
_cell_length_c   6.20485160
_cell_angle_alpha   124.44012587
_cell_angle_beta   124.44012974
_cell_angle_gamma   82.15811859
_symmetry_Int_Tables_number   1
_chemical_formula_structural   Li2CuNiO4
_chemical_formula_sum   'Li4 Cu2 Ni2 O8'
_cell_volume   146.84734100
_cell_formula_units_Z   2
loop_
 _symmetry_equiv_pos_site_id
 _symmetry_equiv_pos_as_xyz
  1  'x, y, z'
loop_
 _atom_site_type_symbol
 _atom_site_label
 _atom_site_symmetry_multiplicity
 _atom_site_fract_x
 _atom_site_fract_y
 _atom_site_fract_z
 _atom_site_occupancy
  Li  Li0  1  -0.00000000  0.50000000  0.50000000  1
  Li  Li1  1  0.50000000  0.50000000  0.50000000  1
  Li  Li2  1  0.50000000  -0.00000000  -0.00000000  1
  Li  Li3  1  0.50000000  0.50000000  -0.00000000  1
  Cu  Cu4  1  -0.00000000  -0.00000000  0.50000000  1
  Cu  Cu5  1  -0.00000000  -0.00000000  -0.00000000  1
  Ni  Ni6  1  -0.00000000  0.50000000  -0.00000000  1
  Ni  Ni7  1  0.50000000  -0.00000000  0.50000000  1
  O  O8  1  0.19473245  0.72680033  0.98676964  1
  O  O9  1  0.26477187  0.24091237  0.45260131  1
  O  O10  1  0.27319967  0.80526755  0.51323036  1
  O  O11  1  0.75908763  0.73522813  0.04739869  1
  O  O12  1  0.24091237  0.26477187  0.95260131  1
  O  O13  1  0.72680033  0.19473245  0.48676964  1
  O  O14  1  0.73522813  0.75908763  0.54739869  1
  O  O15  1  0.80526755  0.27319967  0.01323036  1
