# generated using pymatgen
data_Li3V6O16
_symmetry_space_group_name_H-M   'P 1'
_cell_length_a   6.78231022
_cell_length_b   3.65756253
_cell_length_c   12.18691545
_cell_angle_alpha   90.00000000
_cell_angle_beta   107.51161412
_cell_angle_gamma   90.00000000
_symmetry_Int_Tables_number   1
_chemical_formula_structural   Li3V6O16
_chemical_formula_sum   'Li3 V6 O16'
_cell_volume   288.30683787
_cell_formula_units_Z   1
loop_
 _symmetry_equiv_pos_site_id
 _symmetry_equiv_pos_as_xyz
  1  'x, y, z'
loop_
 _atom_site_type_symbol
 _atom_site_label
 _atom_site_symmetry_multiplicity
 _atom_site_fract_x
 _atom_site_fract_y
 _atom_site_fract_z
 _atom_site_occupancy
  Li  Li0  1  0.49845652  0.25000000  0.68208974  1
  Li  Li1  1  0.50294439  0.75000000  0.31839699  1
  Li  Li2  1  0.57885109  0.25000000  0.05225768  1
  V  V3  1  0.06940783  0.25000000  0.80261677  1
  V  V4  1  0.15736141  0.75000000  0.46418957  1
  V  V5  1  0.19747294  0.25000000  0.07975986  1
  V  V6  1  0.79709386  0.75000000  0.91737453  1
  V  V7  1  0.84298877  0.25000000  0.53637291  1
  V  V8  1  0.93642374  0.75000000  0.19915651  1
  O  O9  1  0.01047586  0.75000000  0.82762750  1
  O  O10  1  0.28241224  0.25000000  0.95648799  1
  O  O11  1  0.06925876  0.25000000  0.46060207  1
  O  O12  1  0.22471360  0.25000000  0.72204580  1
  O  O13  1  0.20067436  0.75000000  0.32829664  1
  O  O14  1  0.38556227  0.75000000  0.56244153  1
  O  O15  1  0.11760500  0.75000000  0.07273838  1
  O  O16  1  0.58164087  0.75000000  0.81013823  1
  O  O17  1  0.42385823  0.25000000  0.18268585  1
  O  O18  1  0.87550488  0.25000000  0.93023590  1
  O  O19  1  0.61459689  0.25000000  0.43782636  1
  O  O20  1  0.80164155  0.25000000  0.67220120  1
  O  O21  1  0.77671519  0.75000000  0.27780889  1
  O  O22  1  0.93121442  0.75000000  0.53938385  1
  O  O23  1  0.71116737  0.75000000  0.04483322  1
  O  O24  1  0.98495498  0.25000000  0.17260004  1
