# generated using pymatgen
data_V4FeCoO12
_symmetry_space_group_name_H-M   'P 1'
_cell_length_a   6.83549849
_cell_length_b   6.83549768
_cell_length_c   5.90004472
_cell_angle_alpha   74.71103698
_cell_angle_beta   105.28896708
_cell_angle_gamma   95.98533950
_symmetry_Int_Tables_number   1
_chemical_formula_structural   V4FeCoO12
_chemical_formula_sum   'V4 Fe1 Co1 O12'
_cell_volume   256.32714005
_cell_formula_units_Z   1
loop_
 _symmetry_equiv_pos_site_id
 _symmetry_equiv_pos_as_xyz
  1  'x, y, z'
loop_
 _atom_site_type_symbol
 _atom_site_label
 _atom_site_symmetry_multiplicity
 _atom_site_fract_x
 _atom_site_fract_y
 _atom_site_fract_z
 _atom_site_occupancy
  V  V0  1  0.20576312  0.61066261  0.76058246  1
  V  V1  1  0.38797313  0.79299434  0.26041855  1
  V  V2  1  0.61066261  0.20576312  0.73941754  1
  V  V3  1  0.79299434  0.38797313  0.23958145  1
  Fe  Fe4  1  0.91507706  0.91507706  0.25000000  1
  Co  Co5  1  0.08744383  0.08744383  0.75000000  1
  O  O6  1  0.03834404  0.80361531  0.64653803  1
  O  O7  1  0.09051883  0.37869821  0.78102674  1
  O  O8  1  0.19748752  0.96374372  0.13970541  1
  O  O9  1  0.36732340  0.64630082  0.55544592  1
  O  O10  1  0.37869821  0.09051883  0.71897326  1
  O  O11  1  0.35303188  0.63248383  0.05466558  1
  O  O12  1  0.64630082  0.36732340  0.94455408  1
  O  O13  1  0.61771765  0.91082071  0.28246237  1
  O  O14  1  0.63248383  0.35303188  0.44533442  1
  O  O15  1  0.80361531  0.03834404  0.85346197  1
  O  O16  1  0.91082071  0.61771765  0.21753763  1
  O  O17  1  0.96374372  0.19748752  0.36029459  1
