# generated using pymatgen
data_Li6NiO4
_symmetry_space_group_name_H-M   'P 1'
_cell_length_a   6.64025724
_cell_length_b   6.54680141
_cell_length_c   4.65888084
_cell_angle_alpha   90.00051493
_cell_angle_beta   89.99963008
_cell_angle_gamma   89.72016622
_symmetry_Int_Tables_number   1
_chemical_formula_structural   Li6NiO4
_chemical_formula_sum   'Li12 Ni2 O8'
_cell_volume   202.53052755
_cell_formula_units_Z   2
loop_
 _symmetry_equiv_pos_site_id
 _symmetry_equiv_pos_as_xyz
  1  'x, y, z'
loop_
 _atom_site_type_symbol
 _atom_site_label
 _atom_site_symmetry_multiplicity
 _atom_site_fract_x
 _atom_site_fract_y
 _atom_site_fract_z
 _atom_site_occupancy
  Li  Li0  1  0.03308839  0.53365170  0.74849713  1
  Li  Li1  1  0.03012087  0.96924715  0.74880014  1
  Li  Li2  1  0.25001743  0.25001344  0.69785914  1
  Li  Li3  1  0.25000529  0.25000951  0.19769013  1
  Li  Li4  1  0.46991482  0.53079565  0.74879769  1
  Li  Li5  1  0.46692586  0.96635763  0.74849846  1
  Li  Li6  1  0.52967565  0.02910353  0.25067015  1
  Li  Li7  1  0.53500237  0.46549355  0.25110428  1
  Li  Li8  1  0.75000521  0.75000853  0.30335786  1
  Li  Li9  1  0.75001733  0.75001769  0.80356323  1
  Li  Li10  1  0.96501259  0.03452086  0.25110307  1
  Li  Li11  1  0.97032419  0.47090141  0.25066791  1
  Ni  Ni12  1  0.24999785  0.74998704  0.24196302  1
  Ni  Ni13  1  0.74999821  0.25000574  0.75524449  1
  O  O14  1  0.01614136  0.25460362  0.95813568  1
  O  O15  1  0.24585418  0.01197801  0.45987616  1
  O  O16  1  0.25417605  0.48804048  0.45988723  1
  O  O17  1  0.48386509  0.24541056  0.95814421  1
  O  O18  1  0.51702887  0.74612649  0.04236279  1
  O  O19  1  0.74495268  0.98727793  0.54070596  1
  O  O20  1  0.75506279  0.51273506  0.54070980  1
  O  O21  1  0.98299191  0.75389643  0.04236147  1
