# generated using pymatgen
data_Li3Cr2NiO6
_symmetry_space_group_name_H-M   'P 1'
_cell_length_a   15.35422831
_cell_length_b   9.79239557
_cell_length_c   9.79239539
_cell_angle_alpha   17.29608927
_cell_angle_beta   16.75999680
_cell_angle_gamma   16.76000115
_symmetry_Int_Tables_number   1
_chemical_formula_structural   Li3Cr2NiO6
_chemical_formula_sum   'Li3 Cr2 Ni1 O6'
_cell_volume   108.94728159
_cell_formula_units_Z   1
loop_
 _symmetry_equiv_pos_site_id
 _symmetry_equiv_pos_as_xyz
  1  'x, y, z'
loop_
 _atom_site_type_symbol
 _atom_site_label
 _atom_site_symmetry_multiplicity
 _atom_site_fract_x
 _atom_site_fract_y
 _atom_site_fract_z
 _atom_site_occupancy
  Li  Li0  1  0.16666700  0.50000000  0.50000000  1
  Li  Li1  1  0.50319457  0.49944909  0.49944909  1
  Li  Li2  1  0.83013943  0.50055091  0.50055091  1
  Cr  Cr3  1  0.00797857  0.99294502  0.99294502  1
  Cr  Cr4  1  0.32535443  0.00705498  0.00705498  1
  Ni  Ni5  1  0.66666700  0.00000000  0.00000000  1
  O  O6  1  0.23294881  0.26682613  0.26682613  1
  O  O7  1  0.57807812  0.26168906  0.26168906  1
  O  O8  1  0.10038419  0.73317387  0.73317387  1
  O  O9  1  0.92731723  0.24760447  0.24760447  1
  O  O10  1  0.40601577  0.75239553  0.75239553  1
  O  O11  1  0.75525588  0.73831094  0.73831094  1
