# generated using pymatgen
data_LiMn2O4
_symmetry_space_group_name_H-M   'P 1'
_cell_length_a   5.86618626
_cell_length_b   5.86589331
_cell_length_c   9.76391986
_cell_angle_alpha   89.99512741
_cell_angle_beta   90.00243171
_cell_angle_gamma   119.99834949
_symmetry_Int_Tables_number   1
_chemical_formula_structural   LiMn2O4
_chemical_formula_sum   'Li4 Mn8 O16'
_cell_volume   290.97258154
_cell_formula_units_Z   4
loop_
 _symmetry_equiv_pos_site_id
 _symmetry_equiv_pos_as_xyz
  1  'x, y, z'
loop_
 _atom_site_type_symbol
 _atom_site_label
 _atom_site_symmetry_multiplicity
 _atom_site_fract_x
 _atom_site_fract_y
 _atom_site_fract_z
 _atom_site_occupancy
  Li  Li0  1  0.33335451  0.66670810  0.88673644  1
  Li  Li1  1  0.99997923  0.00000504  0.99735712  1
  Li  Li2  1  0.00002077  0.00002581  0.49735712  1
  Li  Li3  1  0.66664549  0.33335359  0.38673644  1
  Mn  Mn4  1  0.16886095  0.83113781  0.21530835  1
  Mn  Mn5  1  0.33333356  0.66666604  0.49315048  1
  Mn  Mn6  1  0.16885817  0.33773944  0.21530945  1
  Mn  Mn7  1  0.66224181  0.83113464  0.21530969  1
  Mn  Mn8  1  0.33775819  0.16889283  0.71530969  1
  Mn  Mn9  1  0.66666644  0.33333148  0.99315048  1
  Mn  Mn10  1  0.83113905  0.66227686  0.71530835  1
  Mn  Mn11  1  0.83114183  0.16888027  0.71530945  1
  O  O12  1  0.15809650  0.84194340  0.60683374  1
  O  O13  1  0.03361470  0.51681365  0.32968118  1
  O  O14  1  0.33331885  0.66666405  0.10943905  1
  O  O15  1  0.99998614  -0.00000095  0.31175803  1
  O  O16  1  0.00001386  0.00001191  0.81175803  1
  O  O17  1  0.15807802  0.31615318  0.60683877  1
  O  O18  1  0.48316860  0.96637250  0.32967810  1
  O  O19  1  0.48316260  0.51682826  0.32968351  1
  O  O20  1  0.31613944  0.15808189  0.10683508  1
  O  O21  1  0.68386056  0.84194245  0.60683508  1
  O  O22  1  0.51683140  0.48320490  0.82967810  1
  O  O23  1  0.51683740  0.03366466  0.82968351  1
  O  O24  1  0.66668115  0.33334521  0.60943905  1
  O  O25  1  0.84190350  0.68384689  0.10683374  1
  O  O26  1  0.96638530  0.48319894  0.82968118  1
  O  O27  1  0.84192198  0.15807516  0.10683877  1
