# generated using pymatgen
data_CuPO3
_symmetry_space_group_name_H-M   'P 1'
_cell_length_a   9.70332757
_cell_length_b   9.70332757
_cell_length_c   9.70332800
_cell_angle_alpha   114.89621502
_cell_angle_beta   114.89621503
_cell_angle_gamma   114.89621818
_symmetry_Int_Tables_number   1
_chemical_formula_structural   CuPO3
_chemical_formula_sum   'Cu6 P6 O18'
_cell_volume   516.11153286
_cell_formula_units_Z   6
loop_
 _symmetry_equiv_pos_site_id
 _symmetry_equiv_pos_as_xyz
  1  'x, y, z'
loop_
 _atom_site_type_symbol
 _atom_site_label
 _atom_site_symmetry_multiplicity
 _atom_site_fract_x
 _atom_site_fract_y
 _atom_site_fract_z
 _atom_site_occupancy
  Cu  Cu0  1  0.05357865  0.64891960  0.45414661  1
  Cu  Cu1  1  0.54585339  0.94642135  0.35108040  1
  Cu  Cu2  1  0.35108040  0.54585339  0.94642135  1
  Cu  Cu3  1  0.64891960  0.45414661  0.05357865  1
  Cu  Cu4  1  0.45414661  0.05357865  0.64891960  1
  Cu  Cu5  1  0.94642135  0.35108040  0.54585339  1
  P  P6  1  0.06198378  0.83170113  0.19365575  1
  P  P7  1  0.16829887  0.80634425  0.93801622  1
  P  P8  1  0.80634425  0.93801622  0.16829887  1
  P  P9  1  0.19365575  0.06198378  0.83170113  1
  P  P10  1  0.83170113  0.19365575  0.06198378  1
  P  P11  1  0.93801622  0.16829887  0.80634425  1
  O  O12  1  0.00504300  0.96856250  0.22942506  1
  O  O13  1  0.11254170  0.89637892  0.61791857  1
  O  O14  1  0.03143750  0.77057494  0.99495700  1
  O  O15  1  0.30413791  0.99542487  0.40001853  1
  O  O16  1  0.00457513  0.59998147  0.69586209  1
  O  O17  1  0.38208143  0.88745830  0.10362108  1
  O  O18  1  0.10362108  0.38208143  0.88745830  1
  O  O19  1  0.77057494  0.99495700  0.03143750  1
  O  O20  1  0.59998147  0.69586209  0.00457513  1
  O  O21  1  0.40001853  0.30413791  0.99542487  1
  O  O22  1  0.22942506  0.00504300  0.96856250  1
  O  O23  1  0.89637892  0.61791857  0.11254170  1
  O  O24  1  0.61791857  0.11254170  0.89637892  1
  O  O25  1  0.99542487  0.40001853  0.30413791  1
  O  O26  1  0.69586209  0.00457513  0.59998147  1
  O  O27  1  0.96856250  0.22942506  0.00504300  1
  O  O28  1  0.88745830  0.10362108  0.38208143  1
  O  O29  1  0.99495700  0.03143750  0.77057494  1
