# generated using pymatgen
data_Mg16Al12I
_symmetry_space_group_name_H-M   'P 1'
_cell_length_a   9.69844928
_cell_length_b   9.08109133
_cell_length_c   9.13385616
_cell_angle_alpha   108.56093254
_cell_angle_beta   111.08411974
_cell_angle_gamma   110.63776087
_symmetry_Int_Tables_number   1
_chemical_formula_structural   Mg16Al12I
_chemical_formula_sum   'Mg16 Al12 I1'
_cell_volume   604.30575180
_cell_formula_units_Z   1
loop_
 _symmetry_equiv_pos_site_id
 _symmetry_equiv_pos_as_xyz
  1  'x, y, z'
loop_
 _atom_site_type_symbol
 _atom_site_label
 _atom_site_symmetry_multiplicity
 _atom_site_fract_x
 _atom_site_fract_y
 _atom_site_fract_z
 _atom_site_occupancy
  Mg  Mg0  1  0.32428627  0.00549502  0.00033867  1
  Mg  Mg1  1  0.00128384  0.00177858  0.99985442  1
  Mg  Mg2  1  0.00170439  0.34576236  0.99990423  1
  Mg  Mg3  1  0.31275607  0.60467432  0.00012575  1
  Mg  Mg4  1  0.67142604  0.68498540  0.28527489  1
  Mg  Mg5  1  0.59890063  0.99955706  0.30577067  1
  Mg  Mg6  1  0.00794134  0.60056032  0.31688118  1
  Mg  Mg7  1  0.00620721  0.99377564  0.35375702  1
  Mg  Mg8  1  0.71917419  0.39619078  0.39898764  1
  Mg  Mg9  1  0.40418508  0.72352220  0.40634389  1
  Mg  Mg10  1  0.99729860  0.31593767  0.59301477  1
  Mg  Mg11  1  0.32043249  0.99714064  0.60145552  1
  Mg  Mg12  1  0.65323979  0.63996762  0.64672656  1
  Mg  Mg13  1  0.69140083  0.28303124  0.68279690  1
  Mg  Mg14  1  0.29384369  0.69471076  0.69493881  1
  Mg  Mg15  1  0.38520142  0.39899935  0.71464159  1
  Al  Al16  1  0.84200720  0.65453733  0.99912978  1
  Al  Al17  1  0.63711652  0.79601840  0.00037141  1
  Al  Al18  1  0.34664311  0.36974004  0.18846896  1
  Al  Al19  1  0.19455659  0.82426484  0.18771655  1
  Al  Al20  1  0.83395080  0.17280951  0.19151495  1
  Al  Al21  1  0.17988105  0.36699007  0.36966156  1
  Al  Al22  1  0.37669671  0.19259249  0.37943795  1
  Al  Al23  1  0.99612116  0.81295586  0.61951864  1
  Al  Al24  1  0.81003453  0.99800721  0.63022535  1
  Al  Al25  1  0.64173901  0.98249485  0.80848841  1
  Al  Al26  1  0.00648509  0.63743601  0.81310858  1
  Al  Al27  1  0.15870532  0.18129391  0.81083629  1
  I  I28  1  0.58678503  0.32476951  0.00070905  1
