# generated using pymatgen
data_MgBi3
_symmetry_space_group_name_H-M   'P 1'
_cell_length_a   7.00723033
_cell_length_b   7.00723036
_cell_length_c   5.58406820
_cell_angle_alpha   90.00000000
_cell_angle_beta   90.00000000
_cell_angle_gamma   119.99999990
_symmetry_Int_Tables_number   1
_chemical_formula_structural   MgBi3
_chemical_formula_sum   'Mg2 Bi6'
_cell_volume   237.45107180
_cell_formula_units_Z   2
loop_
 _symmetry_equiv_pos_site_id
 _symmetry_equiv_pos_as_xyz
  1  'x, y, z'
loop_
 _atom_site_type_symbol
 _atom_site_label
 _atom_site_symmetry_multiplicity
 _atom_site_fract_x
 _atom_site_fract_y
 _atom_site_fract_z
 _atom_site_occupancy
  Mg  Mg0  1  0.66666800  0.33333300  0.25000100  1
  Mg  Mg1  1  0.33333300  0.66666600  0.75000000  1
  Bi  Bi2  1  0.17309054  0.34618108  0.25000100  1
  Bi  Bi3  1  0.17309054  0.82691046  0.25000100  1
  Bi  Bi4  1  0.65382092  0.82691046  0.25000100  1
  Bi  Bi5  1  0.34618008  0.17308954  0.75000000  1
  Bi  Bi6  1  0.82691046  0.17308954  0.75000000  1
  Bi  Bi7  1  0.82690946  0.65381892  0.75000000  1
