# generated using pymatgen
data_Lu2GeO5
_symmetry_space_group_name_H-M   'P 1'
_cell_length_a   9.18041257
_cell_length_b   6.86989479
_cell_length_c   6.63448820
_cell_angle_alpha   90.00000000
_cell_angle_beta   101.78879388
_cell_angle_gamma   90.00000000
_symmetry_Int_Tables_number   1
_chemical_formula_structural   Lu2GeO5
_chemical_formula_sum   'Lu8 Ge4 O20'
_cell_volume   409.60128200
_cell_formula_units_Z   4
loop_
 _symmetry_equiv_pos_site_id
 _symmetry_equiv_pos_as_xyz
  1  'x, y, z'
loop_
 _atom_site_type_symbol
 _atom_site_label
 _atom_site_symmetry_multiplicity
 _atom_site_fract_x
 _atom_site_fract_y
 _atom_site_fract_z
 _atom_site_occupancy
  Lu  Lu0  1  0.02919278  0.12602601  0.72715347  1
  Lu  Lu1  1  0.02919278  0.37397399  0.22715347  1
  Lu  Lu2  1  0.35365247  0.13984888  0.51217706  1
  Lu  Lu3  1  0.35365247  0.36015112  0.01217706  1
  Lu  Lu4  1  0.64634753  0.63984888  0.98782294  1
  Lu  Lu5  1  0.64634753  0.86015112  0.48782294  1
  Lu  Lu6  1  0.97080722  0.62602601  0.77284653  1
  Lu  Lu7  1  0.97080722  0.87397399  0.27284653  1
  Ge  Ge8  1  0.30145918  0.59777452  0.51042337  1
  Ge  Ge9  1  0.30145918  0.90222548  0.01042337  1
  Ge  Ge10  1  0.69854082  0.09777452  0.98957663  1
  Ge  Ge11  1  0.69854082  0.40222548  0.48957663  1
  O  O12  1  0.10554845  0.85669296  0.98837856  1
  O  O13  1  0.10706552  0.38456547  0.91981170  1
  O  O14  1  0.10554845  0.64330704  0.48837856  1
  O  O15  1  0.10706552  0.11543453  0.41981170  1
  O  O16  1  0.27881080  0.07844469  0.80228771  1
  O  O17  1  0.39775011  0.68832996  0.98786418  1
  O  O18  1  0.27881080  0.42155531  0.30228771  1
  O  O19  1  0.38041322  0.42439307  0.69479705  1
  O  O20  1  0.39775011  0.81167004  0.48786418  1
  O  O21  1  0.38041322  0.07560693  0.19479705  1
  O  O22  1  0.61958678  0.92439307  0.80520295  1
  O  O23  1  0.60224989  0.18832996  0.51213582  1
  O  O24  1  0.61958678  0.57560693  0.30520295  1
  O  O25  1  0.72118920  0.57844469  0.69771229  1
  O  O26  1  0.60224989  0.31167004  0.01213582  1
  O  O27  1  0.72118920  0.92155531  0.19771229  1
  O  O28  1  0.89293448  0.88456547  0.58018830  1
  O  O29  1  0.89445155  0.35669296  0.51162144  1
  O  O30  1  0.89293448  0.61543453  0.08018830  1
  O  O31  1  0.89445155  0.14330704  0.01162144  1
