# generated using pymatgen
data_LiMnCuO4
_symmetry_space_group_name_H-M   'P 1'
_cell_length_a   5.77066692
_cell_length_b   5.89143607
_cell_length_c   5.89384324
_cell_angle_alpha   59.53858264
_cell_angle_beta   60.69775240
_cell_angle_gamma   60.67411072
_symmetry_Int_Tables_number   1
_chemical_formula_structural   LiMnCuO4
_chemical_formula_sum   'Li2 Mn2 Cu2 O8'
_cell_volume   142.62275337
_cell_formula_units_Z   2
loop_
 _symmetry_equiv_pos_site_id
 _symmetry_equiv_pos_as_xyz
  1  'x, y, z'
loop_
 _atom_site_type_symbol
 _atom_site_label
 _atom_site_symmetry_multiplicity
 _atom_site_fract_x
 _atom_site_fract_y
 _atom_site_fract_z
 _atom_site_occupancy
  Li  Li0  1  0.12086040  0.12887021  0.12930814  1
  Li  Li1  1  0.87913960  0.87112979  0.87069186  1
  Mn  Mn2  1  0.00000000  0.50000000  0.50000000  1
  Mn  Mn3  1  0.50000000  0.50000000  0.50000000  1
  Cu  Cu4  1  0.50000000  0.00000000  0.50000000  1
  Cu  Cu5  1  0.50000000  0.50000000  0.00000000  1
  O  O6  1  0.25099275  0.26983095  0.27394514  1
  O  O7  1  0.24948405  0.28107598  0.72017024  1
  O  O8  1  0.25120290  0.71959620  0.27778443  1
  O  O9  1  0.70530113  0.26996912  0.27380740  1
  O  O10  1  0.29469887  0.73003088  0.72619260  1
  O  O11  1  0.75051595  0.71892402  0.27982976  1
  O  O12  1  0.74879810  0.28040380  0.72221557  1
  O  O13  1  0.74900725  0.73016905  0.72605486  1
