# generated using pymatgen
data_MnH4(SO5)2
_symmetry_space_group_name_H-M   'P 1'
_cell_length_a   6.23088855
_cell_length_b   7.62334414
_cell_length_c   10.30871979
_cell_angle_alpha   69.75816806
_cell_angle_beta   71.59576713
_cell_angle_gamma   65.44541788
_symmetry_Int_Tables_number   1
_chemical_formula_structural   MnH4(SO5)2
_chemical_formula_sum   'Mn2 H8 S4 O20'
_cell_volume   409.30748622
_cell_formula_units_Z   2
loop_
 _symmetry_equiv_pos_site_id
 _symmetry_equiv_pos_as_xyz
  1  'x, y, z'
loop_
 _atom_site_type_symbol
 _atom_site_label
 _atom_site_symmetry_multiplicity
 _atom_site_fract_x
 _atom_site_fract_y
 _atom_site_fract_z
 _atom_site_occupancy
  Mn  Mn0  1  0.25328847  0.02177788  0.24724255  1
  Mn  Mn1  1  0.74671153  0.97822212  0.75275745  1
  H  H2  1  0.16365737  0.39918814  0.20110051  1
  H  H3  1  0.37671531  0.27795348  0.29523907  1
  H  H4  1  0.20979987  0.68816339  0.36123644  1
  H  H5  1  0.36005057  0.70297366  0.19299035  1
  H  H6  1  0.63994943  0.29702634  0.80700965  1
  H  H7  1  0.79020013  0.31183661  0.63876356  1
  H  H8  1  0.62328469  0.72204652  0.70476093  1
  H  H9  1  0.83634263  0.60081186  0.79889949  1
  S  S10  1  0.25386774  0.24097063  0.91414586  1
  S  S11  1  0.26442557  0.77190226  0.56960139  1
  S  S12  1  0.73557443  0.22809774  0.43039861  1
  S  S13  1  0.74613226  0.75902937  0.08585414  1
  O  O14  1  0.18356639  0.11221708  0.05922107  1
  O  O15  1  0.29520120  0.27108410  0.22772703  1
  O  O16  1  0.03291353  0.36653522  0.86384105  1
  O  O17  1  0.21659944  0.77293783  0.26151653  1
  O  O18  1  0.16586585  0.65098691  0.53891009  1
  O  O19  1  0.09642765  0.87205171  0.68669369  1
  O  O20  1  0.39801083  0.09622215  0.81903756  1
  O  O21  1  0.50548086  0.33390409  0.38510891  1
  O  O22  1  0.29932382  0.94082909  0.43990659  1
  O  O23  1  0.59889569  0.65439564  0.08119619  1
  O  O24  1  0.40110431  0.34560436  0.91880381  1
  O  O25  1  0.70067618  0.05917091  0.56009341  1
  O  O26  1  0.49451914  0.66609591  0.61489109  1
  O  O27  1  0.60198917  0.90377785  0.18096244  1
  O  O28  1  0.90357235  0.12794829  0.31330631  1
  O  O29  1  0.83413415  0.34901309  0.46108991  1
  O  O30  1  0.78340056  0.22706217  0.73848347  1
  O  O31  1  0.96708647  0.63346478  0.13615895  1
  O  O32  1  0.70479880  0.72891590  0.77227297  1
  O  O33  1  0.81643361  0.88778292  0.94077893  1
