# generated using pymatgen
data_Na3VBAsO7
_symmetry_space_group_name_H-M   'P 1'
_cell_length_a   9.16493561
_cell_length_b   6.75510782
_cell_length_c   5.37142724
_cell_angle_alpha   90.00000000
_cell_angle_beta   88.63677583
_cell_angle_gamma   90.00000000
_symmetry_Int_Tables_number   1
_chemical_formula_structural   Na3VBAsO7
_chemical_formula_sum   'Na6 V2 B2 As2 O14'
_cell_volume   332.45162770
_cell_formula_units_Z   2
loop_
 _symmetry_equiv_pos_site_id
 _symmetry_equiv_pos_as_xyz
  1  'x, y, z'
loop_
 _atom_site_type_symbol
 _atom_site_label
 _atom_site_symmetry_multiplicity
 _atom_site_fract_x
 _atom_site_fract_y
 _atom_site_fract_z
 _atom_site_occupancy
  Na  Na0  1  0.07243133  0.25000000  0.75546339  1
  Na  Na1  1  0.24100174  0.99868715  0.24718548  1
  Na  Na2  1  0.24100174  0.50131285  0.24718548  1
  Na  Na3  1  0.75899826  0.49868715  0.75281452  1
  Na  Na4  1  0.75899826  0.00131285  0.75281452  1
  Na  Na5  1  0.92756867  0.75000000  0.24453661  1
  V  V6  1  0.32687548  0.75000000  0.78313350  1
  V  V7  1  0.67312452  0.25000000  0.21686650  1
  B  B8  1  0.06145147  0.75000000  0.73022277  1
  B  B9  1  0.93854853  0.25000000  0.26977723  1
  As  As10  1  0.42277710  0.25000000  0.71143415  1
  As  As11  1  0.57722290  0.75000000  0.28856585  1
  O  O12  1  0.08277306  0.25000000  0.31487801  1
  O  O13  1  0.12402082  0.75000000  0.96525491  1
  O  O14  1  0.17066694  0.75000000  0.53583191  1
  O  O15  1  0.31112410  0.05333371  0.79410236  1
  O  O16  1  0.31112410  0.44666629  0.79410236  1
  O  O17  1  0.46014929  0.25000000  0.39553061  1
  O  O18  1  0.41633367  0.75000000  0.13146271  1
  O  O19  1  0.58366633  0.25000000  0.86853729  1
  O  O20  1  0.53985071  0.75000000  0.60446939  1
  O  O21  1  0.68887590  0.55333371  0.20589764  1
  O  O22  1  0.68887590  0.94666629  0.20589764  1
  O  O23  1  0.82933306  0.25000000  0.46416809  1
  O  O24  1  0.87597918  0.25000000  0.03474509  1
  O  O25  1  0.91722694  0.75000000  0.68512199  1
