# generated using pymatgen
data_K2TbPCO7
_symmetry_space_group_name_H-M   'P 1'
_cell_length_a   10.02795377
_cell_length_b   7.17082933
_cell_length_c   5.85054295
_cell_angle_alpha   90.00000000
_cell_angle_beta   91.97332437
_cell_angle_gamma   90.00000000
_symmetry_Int_Tables_number   1
_chemical_formula_structural   K2TbPCO7
_chemical_formula_sum   'K4 Tb2 P2 C2 O14'
_cell_volume   420.45570888
_cell_formula_units_Z   2
loop_
 _symmetry_equiv_pos_site_id
 _symmetry_equiv_pos_as_xyz
  1  'x, y, z'
loop_
 _atom_site_type_symbol
 _atom_site_label
 _atom_site_symmetry_multiplicity
 _atom_site_fract_x
 _atom_site_fract_y
 _atom_site_fract_z
 _atom_site_occupancy
  Tb  Tb0  1  0.36959751  0.75000000  0.78191485  1
  Tb  Tb1  1  0.63040249  0.25000000  0.21808515  1
  K  K2  1  0.21935578  0.48917456  0.24721942  1
  K  K3  1  0.21935578  0.01082544  0.24721942  1
  K  K4  1  0.78064422  0.51082544  0.75278058  1
  K  K5  1  0.78064422  0.98917456  0.75278058  1
  P  P6  1  0.43087147  0.25000000  0.71040332  1
  P  P7  1  0.56912853  0.75000000  0.28959668  1
  C  C8  1  0.09432894  0.75000000  0.72866500  1
  C  C9  1  0.90567106  0.25000000  0.27133500  1
  O  O10  1  0.03072234  0.25000000  0.30202370  1
  O  O11  1  0.15413066  0.75000000  0.93282043  1
  O  O12  1  0.17701253  0.75000000  0.55575318  1
  O  O13  1  0.35315946  0.07100161  0.77216468  1
  O  O14  1  0.35315946  0.42899839  0.77216468  1
  O  O15  1  0.43049291  0.75000000  0.15629710  1
  O  O16  1  0.45574985  0.25000000  0.44762598  1
  O  O17  1  0.54425015  0.75000000  0.55237402  1
  O  O18  1  0.56950709  0.25000000  0.84370290  1
  O  O19  1  0.64684054  0.57100161  0.22783532  1
  O  O20  1  0.64684054  0.92899839  0.22783532  1
  O  O21  1  0.82298747  0.25000000  0.44424682  1
  O  O22  1  0.84586934  0.25000000  0.06717957  1
  O  O23  1  0.96927766  0.75000000  0.69797630  1
