# generated using pymatgen
data_NaLi2FePCO7
_symmetry_space_group_name_H-M   'P 1'
_cell_length_a   8.64251312
_cell_length_b   6.60406198
_cell_length_c   5.08335578
_cell_angle_alpha   89.92880718
_cell_angle_beta   85.94663070
_cell_angle_gamma   87.94016931
_symmetry_Int_Tables_number   1
_chemical_formula_structural   NaLi2FePCO7
_chemical_formula_sum   'Na2 Li4 Fe2 P2 C2 O14'
_cell_volume   289.22306469
_cell_formula_units_Z   2
loop_
 _symmetry_equiv_pos_site_id
 _symmetry_equiv_pos_as_xyz
  1  'x, y, z'
loop_
 _atom_site_type_symbol
 _atom_site_label
 _atom_site_symmetry_multiplicity
 _atom_site_fract_x
 _atom_site_fract_y
 _atom_site_fract_z
 _atom_site_occupancy
  Na  Na0  1  0.25883660  0.49931893  0.25721646  1
  Na  Na1  1  0.74116340  0.50068107  0.74278354  1
  Li  Li2  1  0.08897819  0.21310325  0.75323929  1
  Li  Li3  1  0.28297196  0.02649272  0.24233941  1
  Li  Li4  1  0.71702804  0.97350728  0.75766059  1
  Li  Li5  1  0.91102181  0.78689675  0.24676071  1
  Fe  Fe6  1  0.33967202  0.75813317  0.78450029  1
  Fe  Fe7  1  0.66032798  0.24186683  0.21549971  1
  P  P8  1  0.41090754  0.24325664  0.71248634  1
  P  P9  1  0.58909246  0.75674336  0.28751366  1
  C  C10  1  0.03899848  0.76433698  0.71136730  1
  C  C11  1  0.96100152  0.23566302  0.28863270  1
  O  O12  1  0.10390009  0.22537219  0.35349135  1
  O  O13  1  0.07387195  0.75413321  0.95555371  1
  O  O14  1  0.15058712  0.76558163  0.52490443  1
  O  O15  1  0.30141648  0.07435903  0.82541701  1
  O  O16  1  0.32058366  0.44571304  0.78471274  1
  O  O17  1  0.43361559  0.22251608  0.40661276  1
  O  O18  1  0.42894496  0.77037068  0.16946161  1
  O  O19  1  0.57105504  0.22962932  0.83053839  1
  O  O20  1  0.56638441  0.77748392  0.59338724  1
  O  O21  1  0.67941634  0.55428696  0.21528726  1
  O  O22  1  0.69858352  0.92564097  0.17458299  1
  O  O23  1  0.84941288  0.23441837  0.47509557  1
  O  O24  1  0.92612805  0.24586679  0.04444629  1
  O  O25  1  0.89609991  0.77462781  0.64650865  1
