# generated using pymatgen
data_Li6V3P8O29
_symmetry_space_group_name_H-M   'P 1'
_cell_length_a   9.83320616
_cell_length_b   9.80992338
_cell_length_c   13.96832558
_cell_angle_alpha   90.40489074
_cell_angle_beta   90.72448573
_cell_angle_gamma   59.99955202
_symmetry_Int_Tables_number   1
_chemical_formula_structural   Li6V3P8O29
_chemical_formula_sum   'Li12 V6 P16 O58'
_cell_volume   1166.80666146
_cell_formula_units_Z   2
loop_
 _symmetry_equiv_pos_site_id
 _symmetry_equiv_pos_as_xyz
  1  'x, y, z'
loop_
 _atom_site_type_symbol
 _atom_site_label
 _atom_site_symmetry_multiplicity
 _atom_site_fract_x
 _atom_site_fract_y
 _atom_site_fract_z
 _atom_site_occupancy
  Li  Li0  1  0.67522138  0.66416048  0.38970500  1
  Li  Li1  1  0.67743902  0.66803611  0.88750750  1
  Li  Li2  1  0.77536791  0.30713555  0.06084740  1
  Li  Li3  1  0.30987923  0.91308459  0.06129832  1
  Li  Li4  1  0.66242594  0.23531255  0.44074858  1
  Li  Li5  1  0.32326242  0.76637251  0.56431230  1
  Li  Li6  1  0.68391739  0.09009532  0.93571126  1
  Li  Li7  1  0.22683473  0.67749100  0.94186981  1
  Li  Li8  1  0.09942702  0.66617829  0.43957538  1
  Li  Li9  1  0.23052206  0.10124498  0.44478133  1
  Li  Li10  1  0.09705192  0.22804828  0.93740245  1
  Li  Li11  1  0.95753832  0.02478284  0.50928418  1
  V  V12  1  0.56951446  0.42947683  0.24954073  1
  V  V13  1  0.43418706  0.56544772  0.75023601  1
  V  V14  1  0.56901241  0.99861210  0.74708126  1
  V  V15  1  0.43424941  0.00406966  0.25169213  1
  V  V16  1  0.00251224  0.56767906  0.24746175  1
  V  V17  1  0.99855687  0.43596541  0.74431670  1
  P  P18  1  0.91286400  0.77264841  0.83902269  1
  P  P19  1  0.78012448  0.91332303  0.33820867  1
  P  P20  1  0.91370824  0.31151110  0.34106338  1
  P  P21  1  0.66407954  0.66764420  0.12959074  1
  P  P22  1  0.66458660  0.66752874  0.62924908  1
  P  P23  1  0.77236104  0.32109309  0.84134388  1
  P  P24  1  0.68438766  0.22815562  0.65773423  1
  P  P25  1  0.32493573  0.90759118  0.84318175  1
  P  P26  1  0.68007331  0.08479534  0.15301714  1
  P  P27  1  0.32004822  0.77301120  0.34407710  1
  P  P28  1  0.23182912  0.67995058  0.16026806  1
  P  P29  1  0.33572230  0.33315315  0.37348345  1
  P  P30  1  0.33204762  0.33389318  0.87069416  1
  P  P31  1  0.08286409  0.68848208  0.65380338  1
  P  P32  1  0.22712220  0.08462999  0.65893081  1
  P  P33  1  0.08404764  0.23314860  0.15551729  1
  O  O34  1  0.01221540  0.77258376  0.56113128  1
  O  O35  1  0.92230533  0.74147271  0.34075137  1
  O  O36  1  0.74573895  0.00980913  0.06014740  1
  O  O37  1  0.74466072  0.91935720  0.84126667  1
  O  O38  1  0.89148560  0.62656326  0.82649322  1
  O  O39  1  0.80927147  0.66949023  0.17333101  1
  O  O40  1  0.90216984  0.47407873  0.33379251  1
  O  O41  1  0.99788734  0.24977008  0.06288118  1
  O  O42  1  0.92218075  0.33305199  0.84372522  1
  O  O43  1  0.67304937  0.80973095  0.67162761  1
  O  O44  1  0.62851232  0.90020388  0.33250808  1
  O  O45  1  0.81049645  0.51649785  0.67218555  1
  O  O46  1  0.65652039  0.67160904  0.02229586  1
  O  O47  1  0.66173584  0.66620611  0.52184094  1
  O  O48  1  0.66849485  0.51334457  0.16581310  1
  O  O49  1  0.49032329  0.88525852  0.82697567  1
  O  O50  1  0.51236739  0.81704300  0.17146029  1
  O  O51  1  0.74240599  0.34029953  0.34166121  1
  O  O52  1  0.79243109  0.21227547  0.74991479  1
  O  O53  1  0.77055914  0.21502220  0.56701897  1
  O  O54  1  0.75132561  0.24709108  0.92969870  1
  O  O55  1  0.63019209  0.48931817  0.82375623  1
  O  O56  1  0.50957588  0.67501840  0.66676599  1
  O  O57  1  0.66870129  0.24920221  0.16254283  1
  O  O58  1  0.48507858  0.62790548  0.32971046  1
  O  O59  1  0.33475439  0.92216499  0.34578314  1
  O  O60  1  0.79906557  0.98280816  0.23896167  1
  O  O61  1  0.78988068  0.00927057  0.41886830  1
  O  O62  1  0.22332933  0.99691275  0.56981195  1
  O  O63  1  0.65593745  0.08877821  0.66657197  1
  O  O64  1  0.53001524  0.38613217  0.66909471  1
  O  O65  1  0.34032745  0.74303144  0.84593500  1
  O  O66  1  0.48956189  0.32325329  0.33551453  1
  O  O67  1  0.38289453  0.51997805  0.18174322  1
  O  O68  1  0.24948656  0.75197545  0.07017373  1
  O  O69  1  0.23589583  0.76346626  0.43122498  1
  O  O70  1  0.21352934  0.79224579  0.25016197  1
  O  O71  1  0.24964850  0.66775116  0.66501324  1
  O  O72  1  0.48132605  0.18504162  0.83167428  1
  O  O73  1  0.51899200  0.10145048  0.17580490  1
  O  O74  1  0.33435685  0.48407720  0.83076605  1
  O  O75  1  0.32370046  0.33790331  0.97729661  1
  O  O76  1  0.33690135  0.32269145  0.47995636  1
  O  O77  1  0.19056228  0.48586614  0.33347946  1
  O  O78  1  0.38333354  0.08302264  0.67074703  1
  O  O79  1  0.32830926  0.18488310  0.32921623  1
  O  O80  1  0.08708473  0.66049070  0.16164627  1
  O  O81  1  0.98415029  0.79884473  0.74153608  1
  O  O82  1  0.01150856  0.76505633  0.92225558  1
  O  O83  1  0.08854021  0.52989065  0.66572201  1
  O  O84  1  0.18173409  0.33773581  0.82521919  1
  O  O85  1  0.09768987  0.38031715  0.17910161  1
  O  O86  1  0.24673845  0.08406405  0.15883278  1
  O  O87  1  0.24720836  0.00195026  0.93173331  1
  O  O88  1  0.21447316  0.99263751  0.75176052  1
  O  O89  1  0.08661048  0.24965366  0.66208758  1
  O  O90  1  0.00760576  0.20521937  0.42164457  1
  O  O91  1  0.98340495  0.21886823  0.24079512  1
