# generated using pymatgen
data_Er2P4O13
_symmetry_space_group_name_H-M   'P 1'
_cell_length_a   8.78152567
_cell_length_b   9.61420578
_cell_length_c   13.89914706
_cell_angle_alpha   90.00000000
_cell_angle_beta   106.20902203
_cell_angle_gamma   90.00000000
_symmetry_Int_Tables_number   1
_chemical_formula_structural   Er2P4O13
_chemical_formula_sum   'Er8 P16 O52'
_cell_volume   1126.82309082
_cell_formula_units_Z   4
loop_
 _symmetry_equiv_pos_site_id
 _symmetry_equiv_pos_as_xyz
  1  'x, y, z'
loop_
 _atom_site_type_symbol
 _atom_site_label
 _atom_site_symmetry_multiplicity
 _atom_site_fract_x
 _atom_site_fract_y
 _atom_site_fract_z
 _atom_site_occupancy
  Er  Er0  1  0.02717123  0.00308810  0.72137574  1
  Er  Er1  1  0.02717123  0.49691190  0.22137574  1
  Er  Er2  1  0.44696700  0.99872843  0.73775344  1
  Er  Er3  1  0.55303300  0.49872843  0.76224656  1
  Er  Er4  1  0.44696700  0.50127157  0.23775344  1
  Er  Er5  1  0.55303300  0.00127157  0.26224656  1
  Er  Er6  1  0.97282877  0.50308810  0.77862426  1
  Er  Er7  1  0.97282877  0.99691190  0.27862426  1
  P  P8  1  0.14528827  0.24003430  0.93703558  1
  P  P9  1  0.28818163  0.72992341  0.84619462  1
  P  P10  1  0.21684950  0.29465276  0.65706998  1
  P  P11  1  0.14528827  0.25996570  0.43703558  1
  P  P12  1  0.49576280  0.25008256  0.93964593  1
  P  P13  1  0.28818163  0.77007659  0.34619462  1
  P  P14  1  0.21684950  0.20534724  0.15706998  1
  P  P15  1  0.50423720  0.75008256  0.56035407  1
  P  P16  1  0.49576280  0.24991744  0.43964593  1
  P  P17  1  0.78315050  0.79465276  0.84293002  1
  P  P18  1  0.71181837  0.22992341  0.65380538  1
  P  P19  1  0.50423720  0.74991744  0.06035407  1
  P  P20  1  0.85471173  0.74003430  0.56296442  1
  P  P21  1  0.78315050  0.70534724  0.34293002  1
  P  P22  1  0.71181837  0.27007659  0.15380538  1
  P  P23  1  0.85471173  0.75996570  0.06296442  1
  O  O24  1  0.03970520  0.36628368  0.91252603  1
  O  O25  1  0.11077918  0.12187146  0.86333013  1
  O  O26  1  0.13819682  0.66298268  0.85851388  1
  O  O27  1  0.11878687  0.37060844  0.71462664  1
  O  O28  1  0.03970520  0.13371632  0.41252603  1
  O  O29  1  0.12956560  0.32310071  0.54016125  1
  O  O30  1  0.32768869  0.29503241  0.95969962  1
  O  O31  1  0.25263957  0.86385553  0.78036867  1
  O  O32  1  0.21916032  0.13367372  0.67286009  1
  O  O33  1  0.11077918  0.37812854  0.36333013  1
  O  O34  1  0.39246037  0.79143827  0.95296054  1
  O  O35  1  0.13819682  0.83701732  0.35851388  1
  O  O36  1  0.11878687  0.12939156  0.21462664  1
  O  O37  1  0.39028872  0.62773293  0.80928184  1
  O  O38  1  0.47014217  0.12032758  0.87697528  1
  O  O39  1  0.38318793  0.35202786  0.67580165  1
  O  O40  1  0.12956560  0.17689929  0.04016125  1
  O  O41  1  0.32768869  0.20496759  0.45969962  1
  O  O42  1  0.25263957  0.63614447  0.28036867  1
  O  O43  1  0.21916032  0.36632628  0.17286009  1
  O  O44  1  0.43547293  0.87450165  0.59927316  1
  O  O45  1  0.39246037  0.70856173  0.45296054  1
  O  O46  1  0.56452707  0.37450165  0.90072684  1
  O  O47  1  0.61681207  0.85202786  0.82419835  1
  O  O48  1  0.52985783  0.62032758  0.62302472  1
  O  O49  1  0.39028872  0.87226707  0.30928184  1
  O  O50  1  0.60971128  0.12773293  0.69071816  1
  O  O51  1  0.47014217  0.37967242  0.37697528  1
  O  O52  1  0.38318793  0.14797214  0.17580165  1
  O  O53  1  0.43547293  0.62549835  0.09927316  1
  O  O54  1  0.60753963  0.29143827  0.54703946  1
  O  O55  1  0.56452707  0.12549835  0.40072684  1
  O  O56  1  0.78083968  0.63367372  0.82713991  1
  O  O57  1  0.74736043  0.36385553  0.71963133  1
  O  O58  1  0.67231131  0.79503241  0.54030038  1
  O  O59  1  0.87043440  0.82310071  0.95983875  1
  O  O60  1  0.61681207  0.64797214  0.32419835  1
  O  O61  1  0.52985783  0.87967242  0.12302472  1
  O  O62  1  0.60971128  0.37226707  0.19071816  1
  O  O63  1  0.88121313  0.87060844  0.78537336  1
  O  O64  1  0.86180318  0.16298268  0.64148612  1
  O  O65  1  0.60753963  0.20856173  0.04703946  1
  O  O66  1  0.88922082  0.62187146  0.63666987  1
  O  O67  1  0.78083968  0.86632628  0.32713991  1
  O  O68  1  0.74736043  0.13614447  0.21963133  1
  O  O69  1  0.67231131  0.70496759  0.04030038  1
  O  O70  1  0.87043440  0.67689929  0.45983875  1
  O  O71  1  0.96029480  0.86628368  0.58747397  1
  O  O72  1  0.88121313  0.62939156  0.28537336  1
  O  O73  1  0.86180318  0.33701732  0.14148612  1
  O  O74  1  0.88922082  0.87812854  0.13666987  1
  O  O75  1  0.96029480  0.63371632  0.08747397  1
