# generated using pymatgen
data_Na3NiPCO7
_symmetry_space_group_name_H-M   'P 1'
_cell_length_a   8.84424711
_cell_length_b   5.37469862
_cell_length_c   6.53671380
_cell_angle_alpha   90.00000000
_cell_angle_beta   90.00000000
_cell_angle_gamma   88.99504209
_symmetry_Int_Tables_number   1
_chemical_formula_structural   Na3NiPCO7
_chemical_formula_sum   'Na6 Ni2 P2 C2 O14'
_cell_volume   310.67595895
_cell_formula_units_Z   2
loop_
 _symmetry_equiv_pos_site_id
 _symmetry_equiv_pos_as_xyz
  1  'x, y, z'
loop_
 _atom_site_type_symbol
 _atom_site_label
 _atom_site_symmetry_multiplicity
 _atom_site_fract_x
 _atom_site_fract_y
 _atom_site_fract_z
 _atom_site_occupancy
  Na  Na0  1  0.00194726  0.00298480  0.48831515  1
  Na  Na1  1  0.16472640  0.44494654  0.20671279  1
  Na  Na2  1  0.49378844  0.50522506  0.49116371  1
  Na  Na3  1  0.50621156  0.49477494  0.99116371  1
  Na  Na4  1  0.83527360  0.55505346  0.70671279  1
  Na  Na5  1  0.99805274  0.99701520  0.98831515  1
  Ni  Ni6  1  0.28731921  0.04603004  0.73899876  1
  Ni  Ni7  1  0.71268079  0.95396996  0.23899876  1
  P  P8  1  0.34885592  0.97891774  0.23804974  1
  P  P9  1  0.65114408  0.02108226  0.73804974  1
  C  C10  1  0.15993271  0.49074424  0.73973968  1
  C  C11  1  0.84006729  0.50925576  0.23973968  1
  O  O12  1  0.05856883  0.31599102  0.74100635  1
  O  O13  1  0.11743072  0.72347583  0.74058030  1
  O  O14  1  0.25433732  0.07579552  0.04998186  1
  O  O15  1  0.25454026  0.07165080  0.42686730  1
  O  O16  1  0.30120733  0.42686351  0.74018989  1
  O  O17  1  0.36339494  0.69412215  0.23358759  1
  O  O18  1  0.50521920  0.10628852  0.23940789  1
  O  O19  1  0.49478080  0.89371148  0.73940789  1
  O  O20  1  0.63660506  0.30587785  0.73358759  1
  O  O21  1  0.69879267  0.57313649  0.24018989  1
  O  O22  1  0.74545974  0.92834920  0.92686730  1
  O  O23  1  0.74566268  0.92420448  0.54998186  1
  O  O24  1  0.88256928  0.27652417  0.24058030  1
  O  O25  1  0.94143117  0.68400898  0.24100635  1
