# generated using pymatgen
data_Na2Ge2O5
_symmetry_space_group_name_H-M   'P 1'
_cell_length_a   8.80145456
_cell_length_b   12.46260743
_cell_length_c   5.04140414
_cell_angle_alpha   90.00000000
_cell_angle_beta   90.51984775
_cell_angle_gamma   90.00000000
_symmetry_Int_Tables_number   1
_chemical_formula_structural   Na2Ge2O5
_chemical_formula_sum   'Na8 Ge8 O20'
_cell_volume   552.96418536
_cell_formula_units_Z   4
loop_
 _symmetry_equiv_pos_site_id
 _symmetry_equiv_pos_as_xyz
  1  'x, y, z'
loop_
 _atom_site_type_symbol
 _atom_site_label
 _atom_site_symmetry_multiplicity
 _atom_site_fract_x
 _atom_site_fract_y
 _atom_site_fract_z
 _atom_site_occupancy
  Na  Na0  1  0.12018334  0.96294104  0.22587770  1
  Na  Na1  1  0.12960444  0.50249261  0.73766146  1
  Na  Na2  1  0.37039556  0.00249261  0.76233854  1
  Na  Na3  1  0.37981666  0.46294104  0.27412230  1
  Na  Na4  1  0.62018334  0.53705896  0.72587770  1
  Na  Na5  1  0.62960444  0.99750739  0.23766146  1
  Na  Na6  1  0.87039556  0.49750739  0.26233854  1
  Na  Na7  1  0.87981666  0.03705896  0.77412230  1
  Ge  Ge8  1  0.05254935  0.80481108  0.69382432  1
  Ge  Ge9  1  0.17529196  0.67600233  0.19637480  1
  Ge  Ge10  1  0.32470804  0.17600233  0.30362520  1
  Ge  Ge11  1  0.44745065  0.30481108  0.80617568  1
  Ge  Ge12  1  0.55254935  0.69518892  0.19382432  1
  Ge  Ge13  1  0.67529196  0.82399767  0.69637480  1
  Ge  Ge14  1  0.82470804  0.32399767  0.80362520  1
  Ge  Ge15  1  0.94745065  0.19518892  0.30617568  1
  O  O16  1  0.06281921  0.78027095  0.34158654  1
  O  O17  1  0.11505168  0.93377497  0.75597002  1
  O  O18  1  0.13353628  0.54383409  0.26482642  1
  O  O19  1  0.15005246  0.69363392  0.84333291  1
  O  O20  1  0.13859942  0.21680780  0.20968211  1
  O  O21  1  0.34994754  0.19363392  0.65666709  1
  O  O22  1  0.36140058  0.71680780  0.29031789  1
  O  O23  1  0.36646372  0.04383409  0.23517358  1
  O  O24  1  0.38494832  0.43377497  0.74402998  1
  O  O25  1  0.43718079  0.28027095  0.15841346  1
  O  O26  1  0.56281921  0.71972905  0.84158654  1
  O  O27  1  0.61505168  0.56622503  0.25597002  1
  O  O28  1  0.63353628  0.95616591  0.76482642  1
  O  O29  1  0.63859942  0.28319220  0.70968211  1
  O  O30  1  0.65005246  0.80636608  0.34333291  1
  O  O31  1  0.86140058  0.78319220  0.79031789  1
  O  O32  1  0.84994754  0.30636608  0.15666709  1
  O  O33  1  0.86646372  0.45616591  0.73517358  1
  O  O34  1  0.88494832  0.06622503  0.24402998  1
  O  O35  1  0.93718079  0.21972905  0.65841346  1
