# generated using pymatgen
data_Nb2PbO6
_symmetry_space_group_name_H-M   'P 1'
_cell_length_a   12.99899031
_cell_length_b   12.99899031
_cell_length_c   7.90381138
_cell_angle_alpha   90.00000000
_cell_angle_beta   90.00000000
_cell_angle_gamma   87.98981965
_symmetry_Int_Tables_number   1
_chemical_formula_structural   Nb2PbO6
_chemical_formula_sum   'Nb20 Pb10 O60'
_cell_volume   1334.71476464
_cell_formula_units_Z   10
loop_
 _symmetry_equiv_pos_site_id
 _symmetry_equiv_pos_as_xyz
  1  'x, y, z'
loop_
 _atom_site_type_symbol
 _atom_site_label
 _atom_site_symmetry_multiplicity
 _atom_site_fract_x
 _atom_site_fract_y
 _atom_site_fract_z
 _atom_site_occupancy
  Nb  Nb0  1  0.29574664  0.93334208  0.99842317  1
  Nb  Nb1  1  0.29574664  0.93334208  0.50157683  1
  Nb  Nb2  1  0.08470697  0.71604242  0.49603243  1
  Nb  Nb3  1  0.08470697  0.71604242  0.00396757  1
  Nb  Nb4  1  0.21457711  0.43469374  0.00401479  1
  Nb  Nb5  1  0.21457711  0.43469374  0.49598521  1
  Nb  Nb6  1  0.58205268  0.79426386  0.99765238  1
  Nb  Nb7  1  0.58205268  0.79426386  0.50234762  1
  Nb  Nb8  1  0.00434831  0.00434831  0.00000000  1
  Nb  Nb9  1  0.50377381  0.50377381  0.00000000  1
  Nb  Nb10  1  0.50377381  0.50377381  0.50000000  1
  Nb  Nb11  1  0.00434831  0.00434831  0.50000000  1
  Nb  Nb12  1  0.79426386  0.58205268  0.00234762  1
  Nb  Nb13  1  0.79426386  0.58205268  0.49765238  1
  Nb  Nb14  1  0.43469374  0.21457711  0.99598521  1
  Nb  Nb15  1  0.43469374  0.21457711  0.50401479  1
  Nb  Nb16  1  0.71604242  0.08470697  0.99603243  1
  Nb  Nb17  1  0.71604242  0.08470697  0.50396757  1
  Nb  Nb18  1  0.93334208  0.29574664  0.00157683  1
  Nb  Nb19  1  0.93334208  0.29574664  0.49842317  1
  Pb  Pb20  1  0.51713347  0.00803929  0.25000000  1
  Pb  Pb21  1  0.37740895  0.72016979  0.25000000  1
  Pb  Pb22  1  0.37636310  0.71912473  0.75000000  1
  Pb  Pb23  1  0.85875587  0.85487501  0.75000000  1
  Pb  Pb24  1  0.21177412  0.20637607  0.25000000  1
  Pb  Pb25  1  0.20637607  0.21177412  0.75000000  1
  Pb  Pb26  1  0.85487501  0.85875587  0.25000000  1
  Pb  Pb27  1  0.71912473  0.37636310  0.25000000  1
  Pb  Pb28  1  0.72016979  0.37740895  0.75000000  1
  Pb  Pb29  1  0.00803929  0.51713347  0.75000000  1
  O  O30  1  0.29272313  0.90895391  0.75000000  1
  O  O31  1  0.29186556  0.90812210  0.25000000  1
  O  O32  1  0.06608461  0.69553283  0.75000000  1
  O  O33  1  0.07136834  0.70256726  0.25000000  1
  O  O34  1  0.21156938  0.77483797  0.99618769  1
  O  O35  1  0.21156938  0.77483797  0.50381231  1
  O  O36  1  0.42400060  0.84392543  0.00256003  1
  O  O37  1  0.42400060  0.84392543  0.49743997  1
  O  O38  1  0.13097683  0.55920930  0.99098709  1
  O  O39  1  0.13097683  0.55920930  0.50901291  1
  O  O40  1  0.63257081  0.92404931  0.00913061  1
  O  O41  1  0.63257081  0.92404931  0.49086939  1
  O  O42  1  0.06207642  0.34906109  0.99571595  1
  O  O43  1  0.06207642  0.34906109  0.50428405  1
  O  O44  1  0.20185855  0.40185847  0.25000000  1
  O  O45  1  0.19936428  0.40301985  0.75000000  1
  O  O46  1  0.55778688  0.78306868  0.25000000  1
  O  O47  1  0.56035265  0.78335057  0.75000000  1
  O  O48  1  0.99055480  0.14805067  0.00113697  1
  O  O49  1  0.99055480  0.14805067  0.49886303  1
  O  O50  1  0.49044896  0.65132086  0.99883759  1
  O  O51  1  0.49044896  0.65132086  0.50116241  1
  O  O52  1  0.33956107  0.49537624  0.00232137  1
  O  O53  1  0.33956107  0.49537624  0.49767863  1
  O  O54  1  0.83597336  0.98661871  0.00248801  1
  O  O55  1  0.83597336  0.98661871  0.49751199  1
  O  O56  1  0.27825982  0.27825982  0.00000000  1
  O  O57  1  0.71299572  0.71299572  0.00000000  1
  O  O58  1  0.98493295  0.98278500  0.25000000  1
  O  O59  1  0.27825982  0.27825982  0.50000000  1
  O  O60  1  0.71299572  0.71299572  0.50000000  1
  O  O61  1  0.98278500  0.98493295  0.75000000  1
  O  O62  1  0.49744462  0.49662038  0.25000000  1
  O  O63  1  0.49662038  0.49744462  0.75000000  1
  O  O64  1  0.98661871  0.83597336  0.99751199  1
  O  O65  1  0.98661871  0.83597336  0.50248801  1
  O  O66  1  0.49537624  0.33956107  0.99767863  1
  O  O67  1  0.49537624  0.33956107  0.50232137  1
  O  O68  1  0.65132086  0.49044896  0.00116241  1
  O  O69  1  0.65132086  0.49044896  0.49883759  1
  O  O70  1  0.14805067  0.99055480  0.99886303  1
  O  O71  1  0.14805067  0.99055480  0.50113697  1
  O  O72  1  0.78335057  0.56035265  0.25000000  1
  O  O73  1  0.78306868  0.55778688  0.75000000  1
  O  O74  1  0.40185847  0.20185855  0.75000000  1
  O  O75  1  0.40301985  0.19936428  0.25000000  1
  O  O76  1  0.34906109  0.06207642  0.00428405  1
  O  O77  1  0.34906109  0.06207642  0.49571595  1
  O  O78  1  0.92404931  0.63257081  0.99086939  1
  O  O79  1  0.92404931  0.63257081  0.50913061  1
  O  O80  1  0.55920930  0.13097683  0.00901291  1
  O  O81  1  0.55920930  0.13097683  0.49098709  1
  O  O82  1  0.84392543  0.42400060  0.99743997  1
  O  O83  1  0.84392543  0.42400060  0.50256003  1
  O  O84  1  0.77483797  0.21156938  0.00381231  1
  O  O85  1  0.77483797  0.21156938  0.49618769  1
  O  O86  1  0.69553283  0.06608461  0.25000000  1
  O  O87  1  0.70256726  0.07136834  0.75000000  1
  O  O88  1  0.90895391  0.29272313  0.25000000  1
  O  O89  1  0.90812210  0.29186556  0.75000000  1
