# generated using pymatgen
data_LiZnAsH2O5
_symmetry_space_group_name_H-M   'P 1'
_cell_length_a   11.08621167
_cell_length_b   8.46595711
_cell_length_c   5.21551313
_cell_angle_alpha   90.00000000
_cell_angle_beta   90.00000000
_cell_angle_gamma   90.00000000
_symmetry_Int_Tables_number   1
_chemical_formula_structural   LiZnAsH2O5
_chemical_formula_sum   'Li4 Zn4 As4 H8 O20'
_cell_volume   489.50403196
_cell_formula_units_Z   4
loop_
 _symmetry_equiv_pos_site_id
 _symmetry_equiv_pos_as_xyz
  1  'x, y, z'
loop_
 _atom_site_type_symbol
 _atom_site_label
 _atom_site_symmetry_multiplicity
 _atom_site_fract_x
 _atom_site_fract_y
 _atom_site_fract_z
 _atom_site_occupancy
  Li  Li0  1  0.18021947  0.67531384  0.26413123  1
  Li  Li1  1  0.31978053  0.17531384  0.76413123  1
  Li  Li2  1  0.68021947  0.82468616  0.26413123  1
  Li  Li3  1  0.81978053  0.32468616  0.76413123  1
  Zn  Zn4  1  0.12373783  0.86885200  0.76284648  1
  Zn  Zn5  1  0.37626217  0.36885200  0.26284648  1
  Zn  Zn6  1  0.62373783  0.63114800  0.76284648  1
  Zn  Zn7  1  0.87626217  0.13114800  0.26284648  1
  As  As8  1  0.17085264  0.07900592  0.25770935  1
  As  As9  1  0.32914736  0.57900592  0.75770935  1
  As  As10  1  0.67085264  0.42099408  0.25770935  1
  As  As11  1  0.82914736  0.92099408  0.75770935  1
  H  H12  1  0.01644622  0.45116456  0.59257380  1
  H  H13  1  0.04115136  0.33136943  0.82195788  1
  H  H14  1  0.45884864  0.83136943  0.32195788  1
  H  H15  1  0.48355378  0.95116456  0.09257380  1
  H  H16  1  0.51644622  0.04883544  0.59257380  1
  H  H17  1  0.54115136  0.16863057  0.82195788  1
  H  H18  1  0.95884864  0.66863057  0.32195788  1
  H  H19  1  0.98355378  0.54883544  0.09257380  1
  O  O20  1  0.01488055  0.58837046  0.25623374  1
  O  O21  1  0.04341548  0.18086601  0.17079047  1
  O  O22  1  0.16831566  0.89122078  0.12698999  1
  O  O23  1  0.18962249  0.05977313  0.58491574  1
  O  O24  1  0.20727047  0.67757741  0.63228632  1
  O  O25  1  0.29272953  0.17757741  0.13228632  1
  O  O26  1  0.31037751  0.55977313  0.08491574  1
  O  O27  1  0.33168434  0.39122078  0.62698999  1
  O  O28  1  0.45658452  0.68086601  0.67079047  1
  O  O29  1  0.48511945  0.08837046  0.75623374  1
  O  O30  1  0.51488055  0.91162954  0.25623374  1
  O  O31  1  0.54341548  0.31913399  0.17079047  1
  O  O32  1  0.66831566  0.60877922  0.12698999  1
  O  O33  1  0.68962249  0.44022687  0.58491574  1
  O  O34  1  0.70727047  0.82242259  0.63228632  1
  O  O35  1  0.79272953  0.32242259  0.13228632  1
  O  O36  1  0.81037751  0.94022687  0.08491574  1
  O  O37  1  0.83168434  0.10877922  0.62698999  1
  O  O38  1  0.95658452  0.81913399  0.67079047  1
  O  O39  1  0.98511945  0.41162954  0.75623374  1
