# generated using pymatgen
data_Li6V3P8O29
_symmetry_space_group_name_H-M   'P 1'
_cell_length_a   9.83129793
_cell_length_b   9.80819539
_cell_length_c   13.88227999
_cell_angle_alpha   89.98696212
_cell_angle_beta   89.70691356
_cell_angle_gamma   60.07079537
_symmetry_Int_Tables_number   1
_chemical_formula_structural   Li6V3P8O29
_chemical_formula_sum   'Li12 V6 P16 O58'
_cell_volume   1160.09492911
_cell_formula_units_Z   2
loop_
 _symmetry_equiv_pos_site_id
 _symmetry_equiv_pos_as_xyz
  1  'x, y, z'
loop_
 _atom_site_type_symbol
 _atom_site_label
 _atom_site_symmetry_multiplicity
 _atom_site_fract_x
 _atom_site_fract_y
 _atom_site_fract_z
 _atom_site_occupancy
  Li  Li0  1  0.91095511  0.77708619  0.05715236  1
  Li  Li1  1  0.77069529  0.90442788  0.56374539  1
  Li  Li2  1  0.90456807  0.32337989  0.56276542  1
  Li  Li3  1  0.66413920  0.67088825  0.88097745  1
  Li  Li4  1  0.77385198  0.31391942  0.05882216  1
  Li  Li5  1  0.31417764  0.90847219  0.05627925  1
  Li  Li6  1  0.67779703  0.22766050  0.44236082  1
  Li  Li7  1  0.32493902  0.77015420  0.56351932  1
  Li  Li8  1  0.33593022  0.33370703  0.11380580  1
  Li  Li9  1  0.09379779  0.67812473  0.44170246  1
  Li  Li10  1  0.22833213  0.09227518  0.44200360  1
  Li  Li11  1  0.09213093  0.22611398  0.93622120  1
  V  V12  1  0.56780590  0.43213333  0.25096102  1
  V  V13  1  0.43049805  0.56511945  0.75455545  1
  V  V14  1  0.56838677  0.00260942  0.75337963  1
  V  V15  1  0.43581032  0.99812980  0.24880918  1
  V  V16  1  0.00009393  0.57050037  0.25075072  1
  V  V17  1  0.99889132  0.43418883  0.74810976  1
  P  P18  1  0.90950473  0.77121241  0.84424098  1
  P  P19  1  0.76651864  0.91448284  0.34365413  1
  P  P20  1  0.91335626  0.31904136  0.34136675  1
  P  P21  1  0.66897241  0.66655101  0.12554310  1
  P  P22  1  0.66468114  0.66759731  0.62648683  1
  P  P23  1  0.76985993  0.31974735  0.84262663  1
  P  P24  1  0.68109720  0.23259389  0.65799308  1
  P  P25  1  0.31890558  0.90981034  0.84203140  1
  P  P26  1  0.68401851  0.08726966  0.15785726  1
  P  P27  1  0.31702216  0.76831025  0.34358836  1
  P  P28  1  0.23102970  0.68174223  0.15736417  1
  P  P29  1  0.33305736  0.33244415  0.37360163  1
  P  P30  1  0.33181587  0.33162475  0.87329995  1
  P  P31  1  0.08718761  0.68269869  0.65913426  1
  P  P32  1  0.23420691  0.08681452  0.65787357  1
  P  P33  1  0.09046089  0.22993038  0.15607527  1
  O  O34  1  0.99702220  0.75770163  0.56855209  1
  O  O35  1  0.91749259  0.75028114  0.34147799  1
  O  O36  1  0.76877300  0.99359377  0.07216938  1
  O  O37  1  0.74317659  0.91621710  0.83798142  1
  O  O38  1  0.88868898  0.62536654  0.82511779  1
  O  O39  1  0.81392718  0.67388202  0.16440538  1
  O  O40  1  0.90485219  0.47850358  0.32122086  1
  O  O41  1  0.99772069  0.24505199  0.06708029  1
  O  O42  1  0.92000877  0.33654096  0.83848443  1
  O  O43  1  0.67009942  0.81488362  0.66760802  1
  O  O44  1  0.62000986  0.90048170  0.32530472  1
  O  O45  1  0.81390399  0.51294043  0.66637863  1
  O  O46  1  0.66367168  0.67112330  0.01729225  1
  O  O47  1  0.66703756  0.66571366  0.51889086  1
  O  O48  1  0.67180303  0.51601004  0.16475886  1
  O  O49  1  0.48514345  0.88915274  0.82594655  1
  O  O50  1  0.51549039  0.81784818  0.16681322  1
  O  O51  1  0.74859377  0.33598959  0.34181471  1
  O  O52  1  0.79002424  0.21195505  0.75029849  1
  O  O53  1  0.76148033  0.24219829  0.56755202  1
  O  O54  1  0.76061693  0.24651546  0.93388964  1
  O  O55  1  0.62644085  0.48733899  0.82551963  1
  O  O56  1  0.51324948  0.67036402  0.66849013  1
  O  O57  1  0.66421989  0.25590085  0.15980320  1
  O  O58  1  0.47650705  0.61728580  0.32164398  1
  O  O59  1  0.33467519  0.91508600  0.34239347  1
  O  O60  1  0.78616106  0.00770359  0.25413696  1
  O  O61  1  0.75540968  0.00145064  0.43519550  1
  O  O62  1  0.24311000  0.99674711  0.56781712  1
  O  O63  1  0.66686933  0.08300944  0.65851531  1
  O  O64  1  0.52294251  0.38208332  0.67416813  1
  O  O65  1  0.33644325  0.74644592  0.84102134  1
  O  O66  1  0.48758694  0.32570715  0.33385913  1
  O  O67  1  0.37367237  0.51462520  0.17331271  1
  O  O68  1  0.23898969  0.76855765  0.07252192  1
  O  O69  1  0.24441916  0.75286564  0.43540140  1
  O  O70  1  0.20681938  0.78548949  0.25422490  1
  O  O71  1  0.25163706  0.66390115  0.65797632  1
  O  O72  1  0.47965714  0.18563378  0.83010157  1
  O  O73  1  0.51598269  0.11118661  0.17313555  1
  O  O74  1  0.33484140  0.47916988  0.83019563  1
  O  O75  1  0.33196983  0.33088560  0.98101428  1
  O  O76  1  0.33073483  0.32988423  0.48091586  1
  O  O77  1  0.18645023  0.48640296  0.33341016  1
  O  O78  1  0.38391998  0.09457996  0.67487165  1
  O  O79  1  0.33013116  0.18305424  0.32995767  1
  O  O80  1  0.08213121  0.66240189  0.15938719  1
  O  O81  1  0.99978569  0.78997986  0.75121660  1
  O  O82  1  0.99562643  0.75890630  0.93375969  1
  O  O83  1  0.09544918  0.52251591  0.67683404  1
  O  O84  1  0.18256326  0.33038792  0.83546095  1
  O  O85  1  0.11357275  0.37281624  0.17405930  1
  O  O86  1  0.25281495  0.07968177  0.15563724  1
  O  O87  1  0.24191387  0.00452777  0.93117994  1
  O  O88  1  0.21061192  0.00074997  0.75039455  1
  O  O89  1  0.08464094  0.25109357  0.65764926  1
  O  O90  1  0.00217285  0.24350856  0.43189759  1
  O  O91  1  0.00069136  0.21003144  0.24901916  1
