# generated using pymatgen
data_MnCu(PO4)2
_symmetry_space_group_name_H-M   'P 1'
_cell_length_a   9.76927450
_cell_length_b   5.97247732
_cell_length_c   4.94740582
_cell_angle_alpha   90.00000000
_cell_angle_beta   92.11977688
_cell_angle_gamma   90.00000000
_symmetry_Int_Tables_number   1
_chemical_formula_structural   MnCu(PO4)2
_chemical_formula_sum   'Mn2 Cu2 P4 O16'
_cell_volume   288.46761376
_cell_formula_units_Z   2
loop_
 _symmetry_equiv_pos_site_id
 _symmetry_equiv_pos_as_xyz
  1  'x, y, z'
loop_
 _atom_site_type_symbol
 _atom_site_label
 _atom_site_symmetry_multiplicity
 _atom_site_fract_x
 _atom_site_fract_y
 _atom_site_fract_z
 _atom_site_occupancy
  Mn  Mn0  1  0.21204156  0.75000000  0.43560735  1
  Mn  Mn1  1  0.78795844  0.25000000  0.56439265  1
  Cu  Cu2  1  0.29343361  0.25000000  0.89187827  1
  Cu  Cu3  1  0.70656639  0.75000000  0.10812173  1
  P  P4  1  0.10015652  0.25000000  0.40942370  1
  P  P5  1  0.39925856  0.75000000  0.93074436  1
  P  P6  1  0.60074144  0.25000000  0.06925564  1
  P  P7  1  0.89984348  0.75000000  0.59057630  1
  O  O8  1  0.05574936  0.75000000  0.65034382  1
  O  O9  1  0.12187643  0.25000000  0.72203883  1
  O  O10  1  0.16735286  0.04552562  0.27709513  1
  O  O11  1  0.16735286  0.45447438  0.27709513  1
  O  O12  1  0.32697961  0.94712893  0.77025501  1
  O  O13  1  0.32697961  0.55287107  0.77025501  1
  O  O14  1  0.37694974  0.75000000  0.23328963  1
  O  O15  1  0.44651020  0.25000000  0.12357899  1
  O  O16  1  0.55348980  0.75000000  0.87642101  1
  O  O17  1  0.62305026  0.25000000  0.76671037  1
  O  O18  1  0.67302039  0.05287107  0.22974499  1
  O  O19  1  0.67302039  0.44712893  0.22974499  1
  O  O20  1  0.83264714  0.54552562  0.72290487  1
  O  O21  1  0.83264714  0.95447438  0.72290487  1
  O  O22  1  0.87812357  0.75000000  0.27796117  1
  O  O23  1  0.94425064  0.25000000  0.34965618  1
