# generated using pymatgen
data_Li6V3P8O29
_symmetry_space_group_name_H-M   'P 1'
_cell_length_a   9.80951217
_cell_length_b   9.81121181
_cell_length_c   13.88622332
_cell_angle_alpha   90.28945506
_cell_angle_beta   90.27129920
_cell_angle_gamma   60.05900105
_symmetry_Int_Tables_number   1
_chemical_formula_structural   Li6V3P8O29
_chemical_formula_sum   'Li12 V6 P16 O58'
_cell_volume   1158.07257210
_cell_formula_units_Z   2
loop_
 _symmetry_equiv_pos_site_id
 _symmetry_equiv_pos_as_xyz
  1  'x, y, z'
loop_
 _atom_site_type_symbol
 _atom_site_label
 _atom_site_symmetry_multiplicity
 _atom_site_fract_x
 _atom_site_fract_y
 _atom_site_fract_z
 _atom_site_occupancy
  Li  Li0  1  0.77268007  0.90674757  0.55791786  1
  Li  Li1  1  0.90744169  0.32320685  0.56035491  1
  Li  Li2  1  0.67460036  0.66428213  0.88508048  1
  Li  Li3  1  0.76786094  0.33117185  0.06327595  1
  Li  Li4  1  0.33025105  0.90464550  0.06322478  1
  Li  Li5  1  0.67536691  0.22925598  0.43751935  1
  Li  Li6  1  0.32179765  0.77238435  0.55931708  1
  Li  Li7  1  0.66834427  0.09607094  0.94172206  1
  Li  Li8  1  0.23423158  0.66334248  0.94165152  1
  Li  Li9  1  0.09521941  0.67442245  0.43696947  1
  Li  Li10  1  0.22772637  0.09668656  0.43891772  1
  Li  Li11  1  0.99853255  0.00035737  0.00379297  1
  V  V12  1  0.56754619  0.43291699  0.25087425  1
  V  V13  1  0.43087893  0.56654024  0.74681598  1
  V  V14  1  0.56393920  0.00077644  0.75036875  1
  V  V15  1  0.43199311  0.00185451  0.24987232  1
  V  V16  1  0.99746869  0.56898497  0.24464976  1
  V  V17  1  0.00542968  0.43143248  0.75512843  1
  P  P18  1  0.91367236  0.77712681  0.84338607  1
  P  P19  1  0.76918307  0.91248650  0.34036788  1
  P  P20  1  0.91450454  0.31980356  0.34304031  1
  P  P21  1  0.66523940  0.66648535  0.12633942  1
  P  P22  1  0.66788371  0.66597454  0.62757756  1
  P  P23  1  0.77323056  0.31734722  0.84304079  1
  P  P24  1  0.68282275  0.22957469  0.65709392  1
  P  P25  1  0.31565242  0.90903810  0.84341199  1
  P  P26  1  0.68440989  0.08818417  0.15621088  1
  P  P27  1  0.31934866  0.76937192  0.34204364  1
  P  P28  1  0.22783908  0.68332965  0.15810622  1
  P  P29  1  0.33198049  0.33540861  0.37232306  1
  P  P30  1  0.33438631  0.33372164  0.87382865  1
  P  P31  1  0.08494875  0.68069581  0.65579728  1
  P  P32  1  0.22933854  0.08780178  0.65796593  1
  P  P33  1  0.08517195  0.22533568  0.15715277  1
  O  O34  1  0.99773383  0.75928608  0.56465622  1
  O  O35  1  0.91634012  0.74814797  0.34102140  1
  O  O36  1  0.77220373  0.01229820  0.06513769  1
  O  O37  1  0.74657570  0.92184528  0.84404048  1
  O  O38  1  0.89620539  0.62820153  0.83254779  1
  O  O39  1  0.80682761  0.67549048  0.16929425  1
  O  O40  1  0.90656310  0.47782448  0.32416873  1
  O  O41  1  0.99485871  0.21263269  0.07303177  1
  O  O42  1  0.91613185  0.33914080  0.84180219  1
  O  O43  1  0.66899695  0.81654424  0.67132600  1
  O  O44  1  0.61810250  0.90332138  0.32222904  1
  O  O45  1  0.81491941  0.51718172  0.67130904  1
  O  O46  1  0.66250971  0.66383292  0.01757579  1
  O  O47  1  0.66889043  0.66894986  0.52024038  1
  O  O48  1  0.67566641  0.51090343  0.16480764  1
  O  O49  1  0.48101799  0.89195768  0.83054113  1
  O  O50  1  0.50977396  0.81191340  0.16401838  1
  O  O51  1  0.74837202  0.33774455  0.34275562  1
  O  O52  1  0.79010154  0.20936637  0.74990315  1
  O  O53  1  0.75724563  0.24642719  0.56700897  1
  O  O54  1  0.76897941  0.22954643  0.93153495  1
  O  O55  1  0.62371732  0.48028283  0.82984783  1
  O  O56  1  0.51292460  0.67361737  0.66640766  1
  O  O57  1  0.66189534  0.25709014  0.16253389  1
  O  O58  1  0.47941891  0.62022708  0.32366623  1
  O  O59  1  0.33607851  0.91754236  0.34305906  1
  O  O60  1  0.79231952  0.00034162  0.24944607  1
  O  O61  1  0.75515526  0.00303555  0.43135435  1
  O  O62  1  0.24238427  0.99675555  0.56753305  1
  O  O63  1  0.66438248  0.08351927  0.65592458  1
  O  O64  1  0.52284820  0.38090632  0.67704953  1
  O  O65  1  0.33839895  0.73959373  0.83810048  1
  O  O66  1  0.48796741  0.32574796  0.33231269  1
  O  O67  1  0.38062781  0.52753087  0.17021739  1
  O  O68  1  0.22428329  0.77327881  0.06854503  1
  O  O69  1  0.24235805  0.75595349  0.43218874  1
  O  O70  1  0.20802535  0.79337891  0.25043965  1
  O  O71  1  0.25021478  0.66633441  0.65715000  1
  O  O72  1  0.48580864  0.18245067  0.83141833  1
  O  O73  1  0.52780781  0.09291830  0.16988141  1
  O  O74  1  0.32762736  0.48507486  0.83288223  1
  O  O75  1  0.33961638  0.33009266  0.98084163  1
  O  O76  1  0.33540288  0.33318667  0.48014276  1
  O  O77  1  0.18589622  0.48747986  0.33178783  1
  O  O78  1  0.37817642  0.09967174  0.67475789  1
  O  O79  1  0.32507454  0.18707432  0.33218882  1
  O  O80  1  0.08401239  0.66023787  0.16199632  1
  O  O81  1  0.99335023  0.79429552  0.74545893  1
  O  O82  1  0.01044605  0.77869173  0.92663721  1
  O  O83  1  0.09671070  0.52145688  0.67286861  1
  O  O84  1  0.18740046  0.33125384  0.82834498  1
  O  O85  1  0.09224465  0.37617635  0.16874796  1
  O  O86  1  0.25466467  0.08028100  0.16013162  1
  O  O87  1  0.23305790  0.98659714  0.93492875  1
  O  O88  1  0.21036292  0.99740817  0.75074381  1
  O  O89  1  0.08027258  0.25038667  0.65900105  1
  O  O90  1  0.00127830  0.24295848  0.43470781  1
  O  O91  1  0.00524672  0.20454465  0.25450117  1
