# generated using pymatgen
data_V3Cu(PO4)6
_symmetry_space_group_name_H-M   'P 1'
_cell_length_a   8.71864108
_cell_length_b   8.71864163
_cell_length_c   8.71864156
_cell_angle_alpha   58.43525869
_cell_angle_beta   58.43526068
_cell_angle_gamma   58.43525939
_symmetry_Int_Tables_number   1
_chemical_formula_structural   V3Cu(PO4)6
_chemical_formula_sum   'V3 Cu1 P6 O24'
_cell_volume   451.85083136
_cell_formula_units_Z   1
loop_
 _symmetry_equiv_pos_site_id
 _symmetry_equiv_pos_as_xyz
  1  'x, y, z'
loop_
 _atom_site_type_symbol
 _atom_site_label
 _atom_site_symmetry_multiplicity
 _atom_site_fract_x
 _atom_site_fract_y
 _atom_site_fract_z
 _atom_site_occupancy
  V  V0  1  0.13943806  0.13943806  0.13943806  1
  V  V1  1  0.35890480  0.35890480  0.35890480  1
  V  V2  1  0.63826466  0.63826466  0.63826466  1
  Cu  Cu3  1  0.85648624  0.85648624  0.85648624  1
  P  P4  1  0.03135280  0.74980424  0.46949670  1
  P  P5  1  0.46949670  0.03135280  0.74980424  1
  P  P6  1  0.74980424  0.46949670  0.03135280  1
  P  P7  1  0.24589536  0.53429666  0.96807132  1
  P  P8  1  0.53429666  0.96807132  0.24589536  1
  P  P9  1  0.96807132  0.24589536  0.53429666  1
  O  O10  1  0.13860936  0.28848266  0.49602275  1
  O  O11  1  0.28848266  0.49602275  0.13860936  1
  O  O12  1  0.06118958  0.92706494  0.28332473  1
  O  O13  1  0.49602275  0.13860936  0.28848266  1
  O  O14  1  0.21635344  0.57648566  0.42731824  1
  O  O15  1  0.02342093  0.76640070  0.63783999  1
  O  O16  1  0.28332473  0.06118958  0.92706494  1
  O  O17  1  0.42731824  0.21635344  0.57648566  1
  O  O18  1  0.57648566  0.42731824  0.21635344  1
  O  O19  1  0.22293352  0.35653788  0.99478875  1
  O  O20  1  0.07697217  0.71796108  0.94777720  1
  O  O21  1  0.35653788  0.99478875  0.22293352  1
  O  O22  1  0.63783999  0.02342093  0.76640070  1
  O  O23  1  0.92706494  0.28332473  0.06118958  1
  O  O24  1  0.76640070  0.63783999  0.02342093  1
  O  O25  1  0.43011454  0.55651306  0.78594307  1
  O  O26  1  0.55651306  0.78594307  0.43011454  1
  O  O27  1  0.71796108  0.94777720  0.07697217  1
  O  O28  1  0.99478875  0.22293352  0.35653788  1
  O  O29  1  0.78594307  0.43011454  0.55651306  1
  O  O30  1  0.49555924  0.85673217  0.72364148  1
  O  O31  1  0.94777720  0.07697217  0.71796108  1
  O  O32  1  0.72364148  0.49555924  0.85673217  1
  O  O33  1  0.85673217  0.72364148  0.49555924  1
