# generated using pymatgen
data_Li4Ti5V3O16
_symmetry_space_group_name_H-M   'P 1'
_cell_length_a   5.96003869
_cell_length_b   5.95152392
_cell_length_c   9.63991772
_cell_angle_alpha   89.98686481
_cell_angle_beta   89.93683352
_cell_angle_gamma   119.95726681
_symmetry_Int_Tables_number   1
_chemical_formula_structural   Li4Ti5V3O16
_chemical_formula_sum   'Li4 Ti5 V3 O16'
_cell_volume   296.25632482
_cell_formula_units_Z   1
loop_
 _symmetry_equiv_pos_site_id
 _symmetry_equiv_pos_as_xyz
  1  'x, y, z'
loop_
 _atom_site_type_symbol
 _atom_site_label
 _atom_site_symmetry_multiplicity
 _atom_site_fract_x
 _atom_site_fract_y
 _atom_site_fract_z
 _atom_site_occupancy
  Li  Li0  1  0.32881304  0.66440128  0.89594659  1
  Li  Li1  1  0.99760859  0.99886630  0.99414820  1
  Li  Li2  1  0.01047868  0.00509364  0.49356890  1
  Li  Li3  1  0.66612289  0.33312549  0.39730802  1
  Ti  Ti4  1  0.18490303  0.83685679  0.21997998  1
  Ti  Ti5  1  0.34000015  0.67044346  0.49969171  1
  Ti  Ti6  1  0.18499121  0.34807017  0.22005897  1
  Ti  Ti7  1  0.34950252  0.17517463  0.72721817  1
  Ti  Ti8  1  0.68882534  0.34450759  0.99670255  1
  V  V9  1  0.65195379  0.82601304  0.21021425  1
  V  V10  1  0.82997109  0.65758985  0.71137610  1
  V  V11  1  0.83000449  0.17214052  0.71124389  1
  O  O12  1  0.17402080  0.83118860  0.59423756  1
  O  O13  1  0.03801220  0.51901461  0.33473304  1
  O  O14  1  0.30958001  0.65482730  0.10133667  1
  O  O15  1  0.00746743  0.00369747  0.30497601  1
  O  O16  1  0.00471567  0.00205182  0.80585117  1
  O  O17  1  0.17339785  0.34223107  0.59446785  1
  O  O18  1  0.46598275  0.95989540  0.34521563  1
  O  O19  1  0.46589190  0.50597818  0.34518828  1
  O  O20  1  0.33596294  0.16794643  0.09901009  1
  O  O21  1  0.66731234  0.83348201  0.59239656  1
  O  O22  1  0.50731287  0.47255366  0.84046055  1
  O  O23  1  0.50812745  0.03491155  0.84001497  1
  O  O24  1  0.65378323  0.32713009  0.60316104  1
  O  O25  1  0.83553342  0.66006934  0.09306108  1
  O  O26  1  0.95423681  0.47752466  0.84325517  1
  O  O27  1  0.83548951  0.17551506  0.09301700  1
