# generated using pymatgen
data_Mg16Al12S
_symmetry_space_group_name_H-M   'P 1'
_cell_length_a   9.30436760
_cell_length_b   9.05418128
_cell_length_c   9.05418178
_cell_angle_alpha   108.90471243
_cell_angle_beta   110.03194801
_cell_angle_gamma   110.03194244
_symmetry_Int_Tables_number   1
_chemical_formula_structural   Mg16Al12S
_chemical_formula_sum   'Mg16 Al12 S1'
_cell_volume   583.05719348
_cell_formula_units_Z   1
loop_
 _symmetry_equiv_pos_site_id
 _symmetry_equiv_pos_as_xyz
  1  'x, y, z'
loop_
 _atom_site_type_symbol
 _atom_site_label
 _atom_site_symmetry_multiplicity
 _atom_site_fract_x
 _atom_site_fract_y
 _atom_site_fract_z
 _atom_site_occupancy
  Mg  Mg0  1  0.99913126  0.34393391  0.99999900  1
  Mg  Mg1  1  0.30876237  0.59805802  1.00000000  1
  Mg  Mg2  1  0.57728693  0.28145478  0.00000000  1
  Mg  Mg3  1  0.03996714  1.00000000  0.00000100  1
  Mg  Mg4  1  0.67523740  0.67646386  0.27104013  1
  Mg  Mg5  1  0.57728693  0.00000100  0.28145478  1
  Mg  Mg6  1  0.99877354  0.59457628  0.32353614  1
  Mg  Mg7  1  0.99913126  0.99999900  0.34393391  1
  Mg  Mg8  1  0.71070635  0.40194298  0.40194298  1
  Mg  Mg9  1  0.40419727  0.72895987  0.40542372  1
  Mg  Mg10  1  0.99877354  0.32353614  0.59457628  1
  Mg  Mg11  1  0.30876237  1.00000000  0.59805802  1
  Mg  Mg12  1  0.65519635  0.65606409  0.65606509  1
  Mg  Mg13  1  0.67523740  0.27104113  0.67646386  1
  Mg  Mg14  1  0.29583215  0.71854522  0.71854622  1
  Mg  Mg15  1  0.40419727  0.40542372  0.72895987  1
  Al  Al16  1  0.80742884  0.61314258  1.00000000  1
  Al  Al17  1  0.64974832  0.81027218  1.00000000  1
  Al  Al18  1  0.36261510  0.37668576  0.18880666  1
  Al  Al19  1  0.17380745  0.81119234  0.18787810  1
  Al  Al20  1  0.83947614  0.18972882  0.18972882  1
  Al  Al21  1  0.36261510  0.18880666  0.37668576  1
  Al  Al22  1  0.19428526  0.38685742  0.38685742  1
  Al  Al23  1  0.80742784  1.00000000  0.61314358  1
  Al  Al24  1  0.98592934  0.81212190  0.62331524  1
  Al  Al25  1  0.64974832  1.00000000  0.81027218  1
  Al  Al26  1  0.98592934  0.62331524  0.81212190  1
  Al  Al27  1  0.17380845  0.18787810  0.81119234  1
  S  S28  1  0.37870698  0.00000100  1.00000000  1
