# generated using pymatgen
data_Er5Si4
_symmetry_space_group_name_H-M   'P 1'
_cell_length_a   7.42021242
_cell_length_b   7.59929416
_cell_length_c   14.45715429
_cell_angle_alpha   90.00000000
_cell_angle_beta   93.48174937
_cell_angle_gamma   90.00000000
_symmetry_Int_Tables_number   1
_chemical_formula_structural   Er5Si4
_chemical_formula_sum   'Er20 Si16'
_cell_volume   813.71073523
_cell_formula_units_Z   4
loop_
 _symmetry_equiv_pos_site_id
 _symmetry_equiv_pos_as_xyz
  1  'x, y, z'
loop_
 _atom_site_type_symbol
 _atom_site_label
 _atom_site_symmetry_multiplicity
 _atom_site_fract_x
 _atom_site_fract_y
 _atom_site_fract_z
 _atom_site_occupancy
  Si  Si0  1  0.35275901  0.97195750  0.45885270  1
  Si  Si1  1  0.14724099  0.47195750  0.54114730  1
  Si  Si2  1  0.64724099  0.02804250  0.54114730  1
  Si  Si3  1  0.85275901  0.52804250  0.45885270  1
  Si  Si4  1  0.29686385  0.96499383  0.04170802  1
  Si  Si5  1  0.20313615  0.46499383  0.95829198  1
  Si  Si6  1  0.70313615  0.03500617  0.95829198  1
  Si  Si7  1  0.79686385  0.53500617  0.04170802  1
  Si  Si8  1  0.28922980  0.86934718  0.74808713  1
  Si  Si9  1  0.21077020  0.36934718  0.25191287  1
  Si  Si10  1  0.71077020  0.13065282  0.25191287  1
  Si  Si11  1  0.78922980  0.63065282  0.74808713  1
  Si  Si12  1  0.54529332  0.39230941  0.74800936  1
  Si  Si13  1  0.95470668  0.89230941  0.25199064  1
  Si  Si14  1  0.45470668  0.60769059  0.25199064  1
  Si  Si15  1  0.04529332  0.10769059  0.74800936  1
  Er  Er16  1  0.67305147  0.82227614  0.37753430  1
  Er  Er17  1  0.82694853  0.32227614  0.62246570  1
  Er  Er18  1  0.32694853  0.17772386  0.62246570  1
  Er  Er19  1  0.17305147  0.67772386  0.37753430  1
  Er  Er20  1  0.14485736  0.66576149  0.12037713  1
  Er  Er21  1  0.35514264  0.16576149  0.87962287  1
  Er  Er22  1  0.85514264  0.33423851  0.87962287  1
  Er  Er23  1  0.64485736  0.83423851  0.12037713  1
  Er  Er24  1  0.47767734  0.68335775  0.60089252  1
  Er  Er25  1  0.02232266  0.18335775  0.39910748  1
  Er  Er26  1  0.52232266  0.31664225  0.39910748  1
  Er  Er27  1  0.97767734  0.81664225  0.60089252  1
  Er  Er28  1  0.50458157  0.68054677  0.90064334  1
  Er  Er29  1  0.99541843  0.18054677  0.09935666  1
  Er  Er30  1  0.49541843  0.31945323  0.09935666  1
  Er  Er31  1  0.00458157  0.81945323  0.90064334  1
  Er  Er32  1  0.17402685  0.50493090  0.75389273  1
  Er  Er33  1  0.32597315  0.00493090  0.24610727  1
  Er  Er34  1  0.82597315  0.49506910  0.24610727  1
  Er  Er35  1  0.67402685  0.99506910  0.75389273  1
