# generated using pymatgen
data_V3Cr(PO4)6
_symmetry_space_group_name_H-M   'P 1'
_cell_length_a   8.74007755
_cell_length_b   8.74007753
_cell_length_c   8.74007807
_cell_angle_alpha   58.40327052
_cell_angle_beta   58.40327085
_cell_angle_gamma   58.40326683
_symmetry_Int_Tables_number   1
_chemical_formula_structural   V3Cr(PO4)6
_chemical_formula_sum   'V3 Cr1 P6 O24'
_cell_volume   454.84320924
_cell_formula_units_Z   1
loop_
 _symmetry_equiv_pos_site_id
 _symmetry_equiv_pos_as_xyz
  1  'x, y, z'
loop_
 _atom_site_type_symbol
 _atom_site_label
 _atom_site_symmetry_multiplicity
 _atom_site_fract_x
 _atom_site_fract_y
 _atom_site_fract_z
 _atom_site_occupancy
  V  V0  1  0.14006054  0.14006054  0.14006054  1
  V  V1  1  0.35880923  0.35880923  0.35880923  1
  V  V2  1  0.63921554  0.63921554  0.63921554  1
  Cr  Cr3  1  0.85827291  0.85827291  0.85827291  1
  P  P4  1  0.03218051  0.74983531  0.46877423  1
  P  P5  1  0.46877423  0.03218051  0.74983531  1
  P  P6  1  0.74983531  0.46877423  0.03218051  1
  P  P7  1  0.24832636  0.53326900  0.96790378  1
  P  P8  1  0.53326900  0.96790378  0.24832636  1
  P  P9  1  0.96790378  0.24832636  0.53326900  1
  O  O10  1  0.13901281  0.28790449  0.49669124  1
  O  O11  1  0.28790449  0.49669124  0.13901281  1
  O  O12  1  0.06219963  0.92671593  0.28328076  1
  O  O13  1  0.49669124  0.13901281  0.28790449  1
  O  O14  1  0.21625601  0.57591352  0.42917951  1
  O  O15  1  0.01555622  0.77134350  0.63681099  1
  O  O16  1  0.28328076  0.06219963  0.92671593  1
  O  O17  1  0.42917951  0.21625601  0.57591352  1
  O  O18  1  0.57591352  0.42917951  0.21625601  1
  O  O19  1  0.22442011  0.35581713  0.99530779  1
  O  O20  1  0.08029567  0.71389528  0.94343678  1
  O  O21  1  0.35581713  0.99530779  0.22442011  1
  O  O22  1  0.63681099  0.01555622  0.77134350  1
  O  O23  1  0.92671593  0.28328076  0.06219963  1
  O  O24  1  0.77134350  0.63681099  0.01555622  1
  O  O25  1  0.43118370  0.55628395  0.78604817  1
  O  O26  1  0.55628395  0.78604817  0.43118370  1
  O  O27  1  0.71389528  0.94343678  0.08029567  1
  O  O28  1  0.99530779  0.22442011  0.35581713  1
  O  O29  1  0.78604817  0.43118370  0.55628395  1
  O  O30  1  0.49512900  0.85781308  0.72285833  1
  O  O31  1  0.94343678  0.08029567  0.71389528  1
  O  O32  1  0.72285833  0.49512900  0.85781308  1
  O  O33  1  0.85781308  0.72285833  0.49512900  1
