# generated using pymatgen
data_Li4Mn3Ni3(SnO8)2
_symmetry_space_group_name_H-M   'P 1'
_cell_length_a   5.92136931
_cell_length_b   5.81017741
_cell_length_c   9.65890285
_cell_angle_alpha   89.99625709
_cell_angle_beta   91.67972780
_cell_angle_gamma   119.38804284
_symmetry_Int_Tables_number   1
_chemical_formula_structural   Li4Mn3Ni3(SnO8)2
_chemical_formula_sum   'Li4 Mn3 Ni3 Sn2 O16'
_cell_volume   289.38084870
_cell_formula_units_Z   1
loop_
 _symmetry_equiv_pos_site_id
 _symmetry_equiv_pos_as_xyz
  1  'x, y, z'
loop_
 _atom_site_type_symbol
 _atom_site_label
 _atom_site_symmetry_multiplicity
 _atom_site_fract_x
 _atom_site_fract_y
 _atom_site_fract_z
 _atom_site_occupancy
  Li  Li0  1  0.32354786  0.66175726  0.89064238  1
  Li  Li1  1  0.99472518  0.99736479  0.99311605  1
  Li  Li2  1  0.00489079  0.00259514  0.49565580  1
  Li  Li3  1  0.66335112  0.33181903  0.39120335  1
  Mn  Mn4  1  0.17039802  0.83175817  0.21515792  1
  Mn  Mn5  1  0.17034004  0.33862802  0.21515568  1
  Mn  Mn6  1  0.33992352  0.16995664  0.71667621  1
  Ni  Ni7  1  0.66106464  0.83053124  0.21517276  1
  Ni  Ni8  1  0.83111915  0.66242908  0.71426297  1
  Ni  Ni9  1  0.83109019  0.16865092  0.71428206  1
  Sn  Sn10  1  0.34391474  0.67201196  0.49319580  1
  Sn  Sn11  1  0.67008936  0.33502114  0.99028630  1
  O  O12  1  0.17616413  0.85056262  0.60055219  1
  O  O13  1  0.03287609  0.51636335  0.33082811  1
  O  O14  1  0.31007842  0.65500902  0.10951841  1
  O  O15  1  0.01932258  0.00971497  0.30900892  1
  O  O16  1  0.00503054  0.00238712  0.80488620  1
  O  O17  1  0.17621988  0.32579600  0.60067613  1
  O  O18  1  0.46951747  0.96588563  0.33840677  1
  O  O19  1  0.46943686  0.50367576  0.33839245  1
  O  O20  1  0.31828714  0.15909207  0.10539312  1
  O  O21  1  0.69660778  0.84826028  0.60010134  1
  O  O22  1  0.49958466  0.47198613  0.83939636  1
  O  O23  1  0.49961954  0.02756501  0.83928256  1
  O  O24  1  0.66256964  0.33139453  0.61578308  1
  O  O25  1  0.85069061  0.68359282  0.09922919  1
  O  O26  1  0.95895858  0.47951203  0.83242769  1
  O  O27  1  0.85058349  0.16697827  0.09914921  1
