# generated using pymatgen
data_LiCr(SO4)2
_symmetry_space_group_name_H-M   'P 1'
_cell_length_a   8.93093734
_cell_length_b   8.90489472
_cell_length_c   8.92336599
_cell_angle_alpha   55.79687658
_cell_angle_beta   55.62366110
_cell_angle_gamma   55.61937713
_symmetry_Int_Tables_number   1
_chemical_formula_structural   LiCr(SO4)2
_chemical_formula_sum   'Li3 Cr3 S6 O24'
_cell_volume   451.51311656
_cell_formula_units_Z   3
loop_
 _symmetry_equiv_pos_site_id
 _symmetry_equiv_pos_as_xyz
  1  'x, y, z'
loop_
 _atom_site_type_symbol
 _atom_site_label
 _atom_site_symmetry_multiplicity
 _atom_site_fract_x
 _atom_site_fract_y
 _atom_site_fract_z
 _atom_site_occupancy
  Li  Li0  1  0.16647709  0.13520381  0.15719393  1
  Li  Li1  1  0.18097752  0.41340934  0.77799362  1
  Li  Li2  1  0.77849161  0.18177370  0.41230688  1
  Cr  Cr3  1  0.35527354  0.35292027  0.34903937  1
  Cr  Cr4  1  0.64165094  0.64518024  0.64308320  1
  Cr  Cr5  1  0.84807474  0.85106539  0.85402071  1
  S  S6  1  0.03681860  0.74437870  0.46677379  1
  S  S7  1  0.46361605  0.03710599  0.74826622  1
  S  S8  1  0.74753576  0.46983200  0.03321302  1
  S  S9  1  0.25114145  0.54354127  0.95401804  1
  S  S10  1  0.53803445  0.95569831  0.25467938  1
  S  S11  1  0.95497787  0.25166974  0.54253210  1
  O  O12  1  0.10744228  0.30031552  0.51042050  1
  O  O13  1  0.30098732  0.51105429  0.10528294  1
  O  O14  1  0.00432169  0.94922621  0.34565932  1
  O  O15  1  0.52049722  0.10507186  0.30059418  1
  O  O16  1  0.02674891  0.70201076  0.66321433  1
  O  O17  1  0.23463468  0.61456069  0.38073747  1
  O  O18  1  0.37964042  0.24084111  0.61387944  1
  O  O19  1  0.33564922  0.01665474  0.94681628  1
  O  O20  1  0.62377040  0.37453033  0.23627456  1
  O  O21  1  0.04568619  0.68259040  0.98410045  1
  O  O22  1  0.27642120  0.36196061  0.96131245  1
  O  O23  1  0.35196069  0.97448700  0.28571624  1
  O  O24  1  0.66076470  0.02696125  0.70314902  1
  O  O25  1  0.70883277  0.66084750  0.02418921  1
  O  O26  1  0.95171661  0.34090067  0.00296693  1
  O  O27  1  0.37811094  0.63715263  0.75884766  1
  O  O28  1  0.67664494  0.98362693  0.04831451  1
  O  O29  1  0.63323865  0.75910283  0.38048510  1
  O  O30  1  0.75957654  0.37975680  0.63640451  1
  O  O31  1  0.96274975  0.27718311  0.36096125  1
  O  O32  1  0.49222105  0.89733783  0.68761768  1
  O  O33  1  0.98216034  0.04683777  0.68157049  1
  O  O34  1  0.68416333  0.49743260  0.89615613  1
  O  O35  1  0.89239052  0.68797881  0.49741008  1
