# generated using pymatgen
data_Li2Fe3NiO8
_symmetry_space_group_name_H-M   'P 1'
_cell_length_a   8.39212587
_cell_length_b   8.35128488
_cell_length_c   8.33787269
_cell_angle_alpha   89.97685090
_cell_angle_beta   89.87109322
_cell_angle_gamma   89.94078637
_symmetry_Int_Tables_number   1
_chemical_formula_structural   Li2Fe3NiO8
_chemical_formula_sum   'Li8 Fe12 Ni4 O32'
_cell_volume   584.35825155
_cell_formula_units_Z   4
loop_
 _symmetry_equiv_pos_site_id
 _symmetry_equiv_pos_as_xyz
  1  'x, y, z'
loop_
 _atom_site_type_symbol
 _atom_site_label
 _atom_site_symmetry_multiplicity
 _atom_site_fract_x
 _atom_site_fract_y
 _atom_site_fract_z
 _atom_site_occupancy
  Li  Li0  1  0.00199606  0.00139899  0.00138406  1
  Li  Li1  1  0.24872672  0.24799764  0.24819726  1
  Li  Li2  1  0.25114625  0.75127361  0.74836942  1
  Li  Li3  1  0.49806702  0.99935732  0.50161401  1
  Li  Li4  1  0.50152707  0.49888578  0.00029833  1
  Li  Li5  1  0.74867022  0.25133033  0.75022891  1
  Li  Li6  1  0.75187687  0.74796870  0.25029401  1
  Li  Li7  1  0.99728579  0.50168446  0.49958801  1
  Fe  Fe8  1  0.12801452  0.12184510  0.62468538  1
  Fe  Fe9  1  0.12530101  0.37242298  0.87787596  1
  Fe  Fe10  1  0.12177416  0.62543501  0.12901054  1
  Fe  Fe11  1  0.37824403  0.37450093  0.62828768  1
  Fe  Fe12  1  0.37532178  0.62807187  0.37803668  1
  Fe  Fe13  1  0.37163711  0.87857482  0.12466616  1
  Fe  Fe14  1  0.62870137  0.37840836  0.37527269  1
  Fe  Fe15  1  0.62532442  0.12782772  0.12165474  1
  Fe  Fe16  1  0.62142793  0.87429327  0.87159094  1
  Fe  Fe17  1  0.87831636  0.12510150  0.37135250  1
  Fe  Fe18  1  0.87512723  0.87210612  0.62233133  1
  Fe  Fe19  1  0.87127532  0.62154609  0.87578847  1
  Ni  Ni20  1  0.12516342  0.87438611  0.37505837  1
  Ni  Ni21  1  0.37471518  0.12569619  0.87481405  1
  Ni  Ni22  1  0.62416910  0.62543223  0.62504278  1
  Ni  Ni23  1  0.87572032  0.37472829  0.12471029  1
  O  O24  1  0.11916936  0.10151263  0.38418742  1
  O  O25  1  0.11542627  0.88104711  0.60232082  1
  O  O26  1  0.11369327  0.61225260  0.88720109  1
  O  O27  1  0.14904088  0.13222343  0.86636782  1
  O  O28  1  0.10146694  0.38413059  0.11845276  1
  O  O29  1  0.13681933  0.36395998  0.63768969  1
  O  O30  1  0.13409174  0.64777733  0.36941458  1
  O  O31  1  0.13100719  0.86513117  0.14783394  1
  O  O32  1  0.36867614  0.13502140  0.64746830  1
  O  O33  1  0.36619892  0.35232874  0.86913334  1
  O  O34  1  0.36345474  0.63669469  0.13809191  1
  O  O35  1  0.39853824  0.61581779  0.61852150  1
  O  O36  1  0.35093170  0.86866235  0.36606758  1
  O  O37  1  0.38660771  0.38751075  0.38669436  1
  O  O38  1  0.38513092  0.11898877  0.10199857  1
  O  O39  1  0.38025024  0.89831712  0.88426732  1
  O  O40  1  0.61881106  0.39860450  0.61573472  1
  O  O41  1  0.61583574  0.61946842  0.39792354  1
  O  O42  1  0.61365790  0.88648748  0.11195554  1
  O  O43  1  0.64960253  0.36890594  0.13412221  1
  O  O44  1  0.60107988  0.11488652  0.88004702  1
  O  O45  1  0.63671777  0.13659417  0.36250953  1
  O  O46  1  0.63394088  0.85223969  0.63154830  1
  O  O47  1  0.63006766  0.63486754  0.85246872  1
  O  O48  1  0.86929727  0.36510761  0.35205193  1
  O  O49  1  0.86579084  0.14808305  0.13032397  1
  O  O50  1  0.86347156  0.86265863  0.86338128  1
  O  O51  1  0.89894212  0.88405066  0.38101379  1
  O  O52  1  0.85042510  0.63108886  0.63495680  1
  O  O53  1  0.88661203  0.11285820  0.61306483  1
  O  O54  1  0.88456429  0.38117825  0.89733900  1
  O  O55  1  0.88114648  0.60141058  0.11583223  1
