# generated using pymatgen
data_CoSb3(PO4)6
_symmetry_space_group_name_H-M   'P 1'
_cell_length_a   8.82811564
_cell_length_b   8.82811516
_cell_length_c   8.82811538
_cell_angle_alpha   58.00566709
_cell_angle_beta   58.00566575
_cell_angle_gamma   58.00566612
_symmetry_Int_Tables_number   1
_chemical_formula_structural   CoSb3(PO4)6
_chemical_formula_sum   'Co1 Sb3 P6 O24'
_cell_volume   464.25099265
_cell_formula_units_Z   1
loop_
 _symmetry_equiv_pos_site_id
 _symmetry_equiv_pos_as_xyz
  1  'x, y, z'
loop_
 _atom_site_type_symbol
 _atom_site_label
 _atom_site_symmetry_multiplicity
 _atom_site_fract_x
 _atom_site_fract_y
 _atom_site_fract_z
 _atom_site_occupancy
  Co  Co0  1  0.85591659  0.85591659  0.85591659  1
  Sb  Sb1  1  0.14313738  0.14313738  0.14313738  1
  Sb  Sb2  1  0.35647381  0.35647381  0.35647381  1
  Sb  Sb3  1  0.64328757  0.64328757  0.64328757  1
  P  P4  1  0.03511704  0.75208212  0.47028755  1
  P  P5  1  0.47028755  0.03511704  0.75208212  1
  P  P6  1  0.75208212  0.47028755  0.03511704  1
  P  P7  1  0.24169413  0.54559107  0.95969979  1
  P  P8  1  0.54559107  0.95969979  0.24169413  1
  P  P9  1  0.95969979  0.24169413  0.54559107  1
  O  O10  1  0.13207135  0.27551442  0.51471518  1
  O  O11  1  0.27551442  0.51471518  0.13207135  1
  O  O12  1  0.05967783  0.92334258  0.28050579  1
  O  O13  1  0.51471518  0.13207135  0.27551442  1
  O  O14  1  0.21860782  0.57650763  0.44071844  1
  O  O15  1  0.01005404  0.77692366  0.63860118  1
  O  O16  1  0.28050579  0.05967783  0.92334258  1
  O  O17  1  0.44071844  0.21860782  0.57650763  1
  O  O18  1  0.57650763  0.44071844  0.21860782  1
  O  O19  1  0.22919119  0.36349633  0.98509348  1
  O  O20  1  0.07008737  0.72177364  0.93930502  1
  O  O21  1  0.36349633  0.98509348  0.22919119  1
  O  O22  1  0.63860118  0.01005404  0.77692366  1
  O  O23  1  0.92334258  0.28050579  0.05967783  1
  O  O24  1  0.77692366  0.63860118  0.01005404  1
  O  O25  1  0.42575295  0.55689486  0.78208590  1
  O  O26  1  0.55689486  0.78208590  0.42575295  1
  O  O27  1  0.72177364  0.93930502  0.07008737  1
  O  O28  1  0.98509348  0.22919119  0.36349633  1
  O  O29  1  0.78208590  0.42575295  0.55689486  1
  O  O30  1  0.48355862  0.86722569  0.72500899  1
  O  O31  1  0.93930502  0.07008737  0.72177364  1
  O  O32  1  0.72500899  0.48355862  0.86722569  1
  O  O33  1  0.86722569  0.72500899  0.48355862  1
