# generated using pymatgen
data_Na2MnO2
_symmetry_space_group_name_H-M   'P 1'
_cell_length_a   8.74701857
_cell_length_b   5.47800126
_cell_length_c   12.83719805
_cell_angle_alpha   90.00000000
_cell_angle_beta   89.17632038
_cell_angle_gamma   90.00000000
_symmetry_Int_Tables_number   1
_chemical_formula_structural   Na2MnO2
_chemical_formula_sum   'Na16 Mn8 O16'
_cell_volume   615.04591610
_cell_formula_units_Z   8
loop_
 _symmetry_equiv_pos_site_id
 _symmetry_equiv_pos_as_xyz
  1  'x, y, z'
loop_
 _atom_site_type_symbol
 _atom_site_label
 _atom_site_symmetry_multiplicity
 _atom_site_fract_x
 _atom_site_fract_y
 _atom_site_fract_z
 _atom_site_occupancy
  Na  Na0  1  0.12074830  0.50897459  0.23602187  1
  Na  Na1  1  0.03466307  0.07158711  0.36492532  1
  Na  Na2  1  0.17884337  0.58972607  0.95655663  1
  Na  Na3  1  0.21560737  0.50747966  0.69308295  1
  Na  Na4  1  0.28439263  0.00747966  0.80691705  1
  Na  Na5  1  0.32115663  0.08972607  0.54344337  1
  Na  Na6  1  0.46533693  0.57158711  0.13507468  1
  Na  Na7  1  0.37925170  0.00897459  0.26397813  1
  Na  Na8  1  0.62074830  0.99102541  0.73602187  1
  Na  Na9  1  0.53466307  0.42841289  0.86492532  1
  Na  Na10  1  0.67884337  0.91027393  0.45655663  1
  Na  Na11  1  0.71560737  0.99252034  0.19308295  1
  Na  Na12  1  0.78439263  0.49252034  0.30691705  1
  Na  Na13  1  0.82115663  0.41027393  0.04344337  1
  Na  Na14  1  0.96533693  0.92841289  0.63507468  1
  Na  Na15  1  0.87925170  0.49102541  0.76397813  1
  Mn  Mn16  1  0.03746659  0.00479273  0.11167851  1
  Mn  Mn17  1  0.15497408  0.54393740  0.47089278  1
  Mn  Mn18  1  0.34502592  0.04393740  0.02910722  1
  Mn  Mn19  1  0.46253341  0.50479273  0.38832149  1
  Mn  Mn20  1  0.53746659  0.49520727  0.61167851  1
  Mn  Mn21  1  0.65497408  0.95606260  0.97089278  1
  Mn  Mn22  1  0.84502592  0.45606260  0.52910722  1
  Mn  Mn23  1  0.96253341  0.99520727  0.88832149  1
  O  O24  1  0.04463029  0.30730728  0.58073069  1
  O  O25  1  0.07197528  0.76480446  0.79215125  1
  O  O26  1  0.14102900  0.17385591  0.96986234  1
  O  O27  1  0.23418465  0.80148876  0.13329954  1
  O  O28  1  0.26581535  0.30148876  0.36670046  1
  O  O29  1  0.35897100  0.67385591  0.53013766  1
  O  O30  1  0.54463029  0.19269272  0.08073069  1
  O  O31  1  0.42802472  0.26480446  0.70784875  1
  O  O32  1  0.57197528  0.73519554  0.29215125  1
  O  O33  1  0.45536971  0.80730728  0.91926931  1
  O  O34  1  0.64102900  0.32614409  0.46986234  1
  O  O35  1  0.73418465  0.69851124  0.63329954  1
  O  O36  1  0.76581535  0.19851124  0.86670046  1
  O  O37  1  0.85897100  0.82614409  0.03013766  1
  O  O38  1  0.92802472  0.23519554  0.20784875  1
  O  O39  1  0.95536971  0.69269272  0.41926931  1
