# generated using pymatgen
data_Li2Mn3CuO8
_symmetry_space_group_name_H-M   'P 1'
_cell_length_a   8.22703359
_cell_length_b   8.31499255
_cell_length_c   8.35940559
_cell_angle_alpha   89.86342394
_cell_angle_beta   89.90648234
_cell_angle_gamma   90.04665853
_symmetry_Int_Tables_number   1
_chemical_formula_structural   Li2Mn3CuO8
_chemical_formula_sum   'Li8 Mn12 Cu4 O32'
_cell_volume   571.84532488
_cell_formula_units_Z   4
loop_
 _symmetry_equiv_pos_site_id
 _symmetry_equiv_pos_as_xyz
  1  'x, y, z'
loop_
 _atom_site_type_symbol
 _atom_site_label
 _atom_site_symmetry_multiplicity
 _atom_site_fract_x
 _atom_site_fract_y
 _atom_site_fract_z
 _atom_site_occupancy
  Li  Li0  1  0.12188274  0.87615797  0.37639049  1
  Li  Li1  1  0.25212250  0.75200451  0.74665485  1
  Li  Li2  1  0.24822033  0.24861054  0.24637642  1
  Li  Li3  1  0.37653193  0.12194420  0.87634615  1
  Li  Li4  1  0.62105609  0.62599968  0.62416280  1
  Li  Li5  1  0.75326078  0.74953305  0.25110627  1
  Li  Li6  1  0.74726398  0.25204468  0.75083879  1
  Li  Li7  1  0.87810940  0.37365637  0.12352686  1
  Mn  Mn8  1  0.12286775  0.62035613  0.12324359  1
  Mn  Mn9  1  0.12342490  0.37777457  0.87467351  1
  Mn  Mn10  1  0.12409369  0.12508994  0.62204947  1
  Mn  Mn11  1  0.37578827  0.87487014  0.12316500  1
  Mn  Mn12  1  0.37582071  0.62218035  0.37524388  1
  Mn  Mn13  1  0.37696918  0.37916395  0.62202021  1
  Mn  Mn14  1  0.62308338  0.87726427  0.87835988  1
  Mn  Mn15  1  0.62317752  0.12162299  0.12502982  1
  Mn  Mn16  1  0.62410458  0.37764572  0.37693268  1
  Mn  Mn17  1  0.87708108  0.62363461  0.87844521  1
  Mn  Mn18  1  0.87656158  0.87898767  0.62567484  1
  Mn  Mn19  1  0.87703061  0.12214858  0.37755818  1
  Cu  Cu20  1  0.98527172  0.50645337  0.49486121  1
  Cu  Cu21  1  0.51004326  0.49030415  0.99432263  1
  Cu  Cu22  1  0.49024681  0.99607944  0.50434287  1
  Cu  Cu23  1  0.00864837  0.00458078  0.00421386  1
  O  O24  1  0.10503859  0.12651560  0.39396971  1
  O  O25  1  0.10843613  0.89934397  0.62625531  1
  O  O26  1  0.11434328  0.61359602  0.88819626  1
  O  O27  1  0.12803930  0.39188659  0.10008340  1
  O  O28  1  0.12109980  0.14730273  0.85685612  1
  O  O29  1  0.13518122  0.36418428  0.63625055  1
  O  O30  1  0.13671475  0.62142586  0.35216244  1
  O  O31  1  0.14265796  0.85739842  0.12697002  1
  O  O32  1  0.35800918  0.14305503  0.62685991  1
  O  O33  1  0.36152264  0.38072925  0.85085770  1
  O  O34  1  0.36419463  0.63524340  0.13747689  1
  O  O35  1  0.38024673  0.85221719  0.35806706  1
  O  O36  1  0.37166629  0.60764162  0.60018057  1
  O  O37  1  0.38690703  0.38658446  0.38702607  1
  O  O38  1  0.39154330  0.10123922  0.12639425  1
  O  O39  1  0.39516008  0.87272343  0.89526823  1
  O  O40  1  0.60544648  0.37645231  0.60486968  1
  O  O41  1  0.60808120  0.60318134  0.37269054  1
  O  O42  1  0.61344728  0.88620714  0.11350018  1
  O  O43  1  0.62857453  0.10608136  0.89986270  1
  O  O44  1  0.62267611  0.35284191  0.14275667  1
  O  O45  1  0.63495917  0.13780843  0.36379702  1
  O  O46  1  0.63771798  0.87750145  0.64921588  1
  O  O47  1  0.64452366  0.64003810  0.87451767  1
  O  O48  1  0.85774215  0.35833130  0.37190733  1
  O  O49  1  0.86150540  0.12004012  0.14858142  1
  O  O50  1  0.86473526  0.86316527  0.86411434  1
  O  O51  1  0.88283701  0.64908936  0.64370728  1
  O  O52  1  0.87092773  0.89381446  0.40043378  1
  O  O53  1  0.88659134  0.11469634  0.61264100  1
  O  O54  1  0.89191630  0.39768767  0.87294909  1
  O  O55  1  0.89489632  0.62395172  0.10612146  1
