# generated using pymatgen
data_Mg16Al12Te
_symmetry_space_group_name_H-M   'P 1'
_cell_length_a   9.18014355
_cell_length_b   9.18014333
_cell_length_c   9.18014355
_cell_angle_alpha   109.47121441
_cell_angle_beta   109.47122696
_cell_angle_gamma   109.47121441
_symmetry_Int_Tables_number   1
_chemical_formula_structural   Mg16Al12Te
_chemical_formula_sum   'Mg16 Al12 Te1'
_cell_volume   595.56140841
_cell_formula_units_Z   1
loop_
 _symmetry_equiv_pos_site_id
 _symmetry_equiv_pos_as_xyz
  1  'x, y, z'
loop_
 _atom_site_type_symbol
 _atom_site_label
 _atom_site_symmetry_multiplicity
 _atom_site_fract_x
 _atom_site_fract_y
 _atom_site_fract_z
 _atom_site_occupancy
  Mg  Mg0  1  0.59611549  0.31278121  0.00000000  1
  Mg  Mg1  1  0.00000000  0.33570164  0.00000000  1
  Mg  Mg2  1  0.33570164  0.00000000  1.00000000  1
  Mg  Mg3  1  0.31278121  0.59611449  0.00000100  1
  Mg  Mg4  1  0.68721779  0.68721879  0.28333328  1
  Mg  Mg5  1  0.00000100  0.59611449  0.31278121  1
  Mg  Mg6  1  0.59611549  -0.00000000  0.31278221  1
  Mg  Mg7  1  1.00000000  0.00000000  0.33570164  1
  Mg  Mg8  1  0.40388551  0.71666672  0.40388551  1
  Mg  Mg9  1  0.71666772  0.40388551  0.40388651  1
  Mg  Mg10  1  0.31278221  -0.00000000  0.59611549  1
  Mg  Mg11  1  0.00000000  0.31278121  0.59611549  1
  Mg  Mg12  1  0.66429736  0.66429736  0.66429736  1
  Mg  Mg13  1  0.28333328  0.68721879  0.68721779  1
  Mg  Mg14  1  0.68721879  0.28333328  0.68721879  1
  Mg  Mg15  1  0.40388651  0.40388551  0.71666772  1
  Al  Al16  1  0.62642760  0.81232109  1.00000000  1
  Al  Al17  1  0.81232209  0.62642760  1.00000000  1
  Al  Al18  1  0.37357340  0.37357340  0.18589449  1
  Al  Al19  1  0.18767791  0.81410451  0.18767791  1
  Al  Al20  1  0.81410451  0.18767791  0.18767791  1
  Al  Al21  1  0.18589449  0.37357340  0.37357340  1
  Al  Al22  1  0.37357340  0.18589349  0.37357340  1
  Al  Al23  1  0.81232109  1.00000000  0.62642760  1
  Al  Al24  1  1.00000000  0.81232109  0.62642760  1
  Al  Al25  1  0.62642760  1.00000000  0.81232109  1
  Al  Al26  1  1.00000000  0.62642760  0.81232209  1
  Al  Al27  1  0.18767791  0.18767791  0.81410451  1
  Te  Te28  1  -0.00000000  0.00000000  0.00000000  1
