# generated using pymatgen
data_Cr(PO3)2
_symmetry_space_group_name_H-M   'P 1'
_cell_length_a   9.34821541
_cell_length_b   13.72555863
_cell_length_c   7.33335735
_cell_angle_alpha   90.00000000
_cell_angle_beta   90.00000000
_cell_angle_gamma   90.00000000
_symmetry_Int_Tables_number   1
_chemical_formula_structural   Cr(PO3)2
_chemical_formula_sum   'Cr8 P16 O48'
_cell_volume   940.93925867
_cell_formula_units_Z   8
loop_
 _symmetry_equiv_pos_site_id
 _symmetry_equiv_pos_as_xyz
  1  'x, y, z'
loop_
 _atom_site_type_symbol
 _atom_site_label
 _atom_site_symmetry_multiplicity
 _atom_site_fract_x
 _atom_site_fract_y
 _atom_site_fract_z
 _atom_site_occupancy
  Cr  Cr0  1  0.00792968  0.71697273  0.44863208  1
  Cr  Cr1  1  0.00792968  0.78302727  0.94863208  1
  Cr  Cr2  1  0.49207032  0.28302727  0.94863208  1
  Cr  Cr3  1  0.49207032  0.21697273  0.44863208  1
  Cr  Cr4  1  0.50792968  0.71697273  0.05136792  1
  Cr  Cr5  1  0.50792968  0.78302727  0.55136792  1
  Cr  Cr6  1  0.99207032  0.21697273  0.05136792  1
  Cr  Cr7  1  0.99207032  0.28302727  0.55136792  1
  P  P8  1  0.20459160  0.89987283  0.57034816  1
  P  P9  1  0.20459160  0.60012717  0.07034816  1
  P  P10  1  0.22046636  0.10541611  0.67158276  1
  P  P11  1  0.22046636  0.39458389  0.17158276  1
  P  P12  1  0.27953364  0.60541611  0.67158276  1
  P  P13  1  0.27953364  0.89458389  0.17158276  1
  P  P14  1  0.29540840  0.10012717  0.07034816  1
  P  P15  1  0.29540840  0.39987283  0.57034816  1
  P  P16  1  0.70459160  0.89987283  0.92965184  1
  P  P17  1  0.70459160  0.60012717  0.42965184  1
  P  P18  1  0.72046636  0.10541611  0.82841724  1
  P  P19  1  0.72046636  0.39458389  0.32841724  1
  P  P20  1  0.77953364  0.89458389  0.32841724  1
  P  P21  1  0.77953364  0.60541611  0.82841724  1
  P  P22  1  0.79540840  0.10012717  0.42965184  1
  P  P23  1  0.79540840  0.39987283  0.92965184  1
  O  O24  1  0.09711928  0.82225899  0.62288004  1
  O  O25  1  0.09711928  0.67774101  0.12288004  1
  O  O26  1  0.10394803  0.32070684  0.20866962  1
  O  O27  1  0.10394803  0.17929316  0.70866962  1
  O  O28  1  0.14183486  0.00169612  0.64267995  1
  O  O29  1  0.14183486  0.49830388  0.14267995  1
  O  O30  1  0.14161975  0.38837242  0.62512156  1
  O  O31  1  0.14161975  0.11162758  0.12512156  1
  O  O32  1  0.18801167  0.91225653  0.35303558  1
  O  O33  1  0.18801167  0.58774347  0.85303558  1
  O  O34  1  0.17559826  0.62366662  0.51975349  1
  O  O35  1  0.17559826  0.87633338  0.01975349  1
  O  O36  1  0.32440174  0.12366662  0.51975349  1
  O  O37  1  0.32440174  0.37633338  0.01975349  1
  O  O38  1  0.31198833  0.08774347  0.85303558  1
  O  O39  1  0.31198833  0.41225653  0.35303558  1
  O  O40  1  0.35838025  0.61162758  0.12512156  1
  O  O41  1  0.35838025  0.88837242  0.62512156  1
  O  O42  1  0.35816514  0.50169612  0.64267995  1
  O  O43  1  0.35816514  0.99830388  0.14267995  1
  O  O44  1  0.39605197  0.67929316  0.70866962  1
  O  O45  1  0.39605197  0.82070684  0.20866962  1
  O  O46  1  0.40288072  0.17774101  0.12288004  1
  O  O47  1  0.40288072  0.32225899  0.62288004  1
  O  O48  1  0.59711928  0.67774101  0.37711996  1
  O  O49  1  0.59711928  0.82225899  0.87711996  1
  O  O50  1  0.60394803  0.17929316  0.79133038  1
  O  O51  1  0.60394803  0.32070684  0.29133038  1
  O  O52  1  0.64183486  0.00169612  0.85732005  1
  O  O53  1  0.64183486  0.49830388  0.35732005  1
  O  O54  1  0.64161975  0.11162758  0.37487844  1
  O  O55  1  0.64161975  0.38837242  0.87487844  1
  O  O56  1  0.68801167  0.91225653  0.14696442  1
  O  O57  1  0.68801167  0.58774347  0.64696442  1
  O  O58  1  0.67559826  0.87633338  0.48024651  1
  O  O59  1  0.67559826  0.62366662  0.98024651  1
  O  O60  1  0.82440174  0.12366662  0.98024651  1
  O  O61  1  0.82440174  0.37633338  0.48024651  1
  O  O62  1  0.81198833  0.08774347  0.64696442  1
  O  O63  1  0.81198833  0.41225653  0.14696442  1
  O  O64  1  0.85838025  0.88837242  0.87487844  1
  O  O65  1  0.85838025  0.61162758  0.37487844  1
  O  O66  1  0.85816514  0.50169612  0.85732005  1
  O  O67  1  0.85816514  0.99830388  0.35732005  1
  O  O68  1  0.89605197  0.67929316  0.79133038  1
  O  O69  1  0.89605197  0.82070684  0.29133038  1
  O  O70  1  0.90288072  0.17774101  0.37711996  1
  O  O71  1  0.90288072  0.32225899  0.87711996  1
