# generated using pymatgen
data_Li8Mn7Fe(PO4)12
_symmetry_space_group_name_H-M   'P 1'
_cell_length_a   8.57066791
_cell_length_b   8.79515111
_cell_length_c   11.95575629
_cell_angle_alpha   89.78373783
_cell_angle_beta   89.94647405
_cell_angle_gamma   89.82740586
_symmetry_Int_Tables_number   1
_chemical_formula_structural   Li8Mn7Fe(PO4)12
_chemical_formula_sum   'Li8 Mn7 Fe1 P12 O48'
_cell_volume   901.21783522
_cell_formula_units_Z   1
loop_
 _symmetry_equiv_pos_site_id
 _symmetry_equiv_pos_as_xyz
  1  'x, y, z'
loop_
 _atom_site_type_symbol
 _atom_site_label
 _atom_site_symmetry_multiplicity
 _atom_site_fract_x
 _atom_site_fract_y
 _atom_site_fract_z
 _atom_site_occupancy
  Li  Li0  1  0.21551873  0.72194485  0.18098990  1
  Li  Li1  1  0.21432959  0.77748946  0.81969397  1
  Li  Li2  1  0.28530070  0.22235613  0.31798266  1
  Li  Li3  1  0.28520913  0.27966887  0.68141440  1
  Li  Li4  1  0.71636853  0.72114596  0.32006153  1
  Li  Li5  1  0.71619143  0.77569292  0.68152405  1
  Li  Li6  1  0.78449630  0.22269015  0.18074759  1
  Li  Li7  1  0.78387169  0.27844888  0.81895840  1
  Mn  Mn8  1  0.24698475  0.96282646  0.61312881  1
  Mn  Mn9  1  0.24846833  0.53577067  0.38561723  1
  Mn  Mn10  1  0.25183802  0.03658605  0.11329704  1
  Mn  Mn11  1  0.25073492  0.46504116  0.88612202  1
  Mn  Mn12  1  0.74809984  0.53635279  0.11511584  1
  Mn  Mn13  1  0.74794367  0.96310478  0.88672089  1
  Mn  Mn14  1  0.75205566  0.03655924  0.38600330  1
  Fe  Fe15  1  0.75289744  0.46264184  0.61405144  1
  P  P16  1  0.03811772  0.24624220  0.49957490  1
  P  P17  1  0.46414039  0.75069383  0.99977567  1
  P  P18  1  0.53544050  0.24978644  0.99991921  1
  P  P19  1  0.96554162  0.75069744  0.50077472  1
  P  P20  1  0.10542967  0.39406184  0.14702988  1
  P  P21  1  0.10563205  0.10614156  0.85201870  1
  P  P22  1  0.39267799  0.60939113  0.64559614  1
  P  P23  1  0.39400965  0.89376542  0.35290710  1
  P  P24  1  0.60522267  0.10420929  0.64703941  1
  P  P25  1  0.60404998  0.39387006  0.35157700  1
  P  P26  1  0.89406249  0.60549313  0.85652426  1
  P  P27  1  0.89406371  0.89415658  0.14736403  1
  O  O28  1  0.05916017  0.64437089  0.42516350  1
  O  O29  1  0.05976306  0.86004306  0.57547559  1
  O  O30  1  0.07495003  0.89728380  0.15741860  1
  O  O31  1  0.07455063  0.60552300  0.84516791  1
  O  O32  1  0.14733652  0.15637851  0.58272815  1
  O  O33  1  0.14677631  0.33211945  0.41854380  1
  O  O34  1  0.15596419  0.43822375  0.02901342  1
  O  O35  1  0.15543689  0.06082460  0.97079467  1
  O  O36  1  0.15961769  0.23206466  0.17999475  1
  O  O37  1  0.15819860  0.26546555  0.81841516  1
  O  O38  1  0.17766038  0.51532864  0.22682384  1
  O  O39  1  0.17838190  0.98318841  0.77302257  1
  O  O40  1  0.32130090  0.01619783  0.27382159  1
  O  O41  1  0.31870048  0.48964039  0.72606374  1
  O  O42  1  0.33468561  0.77243194  0.67715471  1
  O  O43  1  0.34110061  0.73400540  0.31974522  1
  O  O44  1  0.34342888  0.56307361  0.52773469  1
  O  O45  1  0.34478340  0.93819060  0.47222906  1
  O  O46  1  0.35696296  0.83779843  0.08352138  1
  O  O47  1  0.35824802  0.66721467  0.91723843  1
  O  O48  1  0.42356698  0.10036845  0.65701071  1
  O  O49  1  0.42412369  0.39616696  0.34023078  1
  O  O50  1  0.44198761  0.14154623  0.07559243  1
  O  O51  1  0.44220479  0.35691189  0.92436886  1
  O  O52  1  0.55668056  0.64369802  0.07566580  1
  O  O53  1  0.55825252  0.85898859  0.92394116  1
  O  O54  1  0.57139554  0.60803788  0.65736465  1
  O  O55  1  0.57461818  0.89612032  0.34298595  1
  O  O56  1  0.64350935  0.33521506  0.08108897  1
  O  O57  1  0.64437196  0.16091050  0.91707751  1
  O  O58  1  0.65527831  0.06031101  0.52845131  1
  O  O59  1  0.65644620  0.43843374  0.46849273  1
  O  O60  1  0.65776065  0.23181450  0.31882785  1
  O  O61  1  0.65695514  0.26531605  0.67987260  1
  O  O62  1  0.67672584  0.51504371  0.27100921  1
  O  O63  1  0.67785732  0.98213008  0.72691144  1
  O  O64  1  0.82133205  0.01621195  0.22658212  1
  O  O65  1  0.82296362  0.48568799  0.77751880  1
  O  O66  1  0.84158463  0.73413132  0.18117180  1
  O  O67  1  0.84024440  0.76886276  0.82205631  1
  O  O68  1  0.84582354  0.56616881  0.97591027  1
  O  O69  1  0.84424209  0.93928696  0.02845966  1
  O  O70  1  0.85800284  0.66387304  0.58230576  1
  O  O71  1  0.85823445  0.83830429  0.41739865  1
  O  O72  1  0.92477409  0.10280960  0.84174637  1
  O  O73  1  0.92583376  0.39533562  0.15852933  1
  O  O74  1  0.94478338  0.13936869  0.42375053  1
  O  O75  1  0.94474308  0.35275266  0.57407954  1
