# generated using pymatgen
data_Li2Mn2Cr3O12
_symmetry_space_group_name_H-M   'P 1'
_cell_length_a   12.89355858
_cell_length_b   9.28830522
_cell_length_c   9.33983688
_cell_angle_alpha   90.00000000
_cell_angle_beta   90.00000000
_cell_angle_gamma   90.00000000
_symmetry_Int_Tables_number   1
_chemical_formula_structural   Li2Mn2Cr3O12
_chemical_formula_sum   'Li8 Mn8 Cr12 O48'
_cell_volume   1118.53239657
_cell_formula_units_Z   4
loop_
 _symmetry_equiv_pos_site_id
 _symmetry_equiv_pos_as_xyz
  1  'x, y, z'
loop_
 _atom_site_type_symbol
 _atom_site_label
 _atom_site_symmetry_multiplicity
 _atom_site_fract_x
 _atom_site_fract_y
 _atom_site_fract_z
 _atom_site_occupancy
  Li  Li0  1  0.18602193  0.21977428  0.27251174  1
  Li  Li1  1  0.18602193  0.78022572  0.77251174  1
  Li  Li2  1  0.31397807  0.28022572  0.77251174  1
  Li  Li3  1  0.31397807  0.71977428  0.27251174  1
  Li  Li4  1  0.68602193  0.28022572  0.72748826  1
  Li  Li5  1  0.68602193  0.71977428  0.22748826  1
  Li  Li6  1  0.81397807  0.21977428  0.22748826  1
  Li  Li7  1  0.81397807  0.78022572  0.72748826  1
  Mn  Mn8  1  0.11847542  0.25288027  0.96538260  1
  Mn  Mn9  1  0.11847542  0.74711973  0.46538260  1
  Mn  Mn10  1  0.38152458  0.75288027  0.96538260  1
  Mn  Mn11  1  0.38152458  0.24711973  0.46538260  1
  Mn  Mn12  1  0.61847542  0.24711973  0.03461740  1
  Mn  Mn13  1  0.61847542  0.75288027  0.53461740  1
  Mn  Mn14  1  0.88152458  0.25288027  0.53461740  1
  Mn  Mn15  1  0.88152458  0.74711973  0.03461740  1
  Cr  Cr16  1  0.00000000  0.45867073  0.25000000  1
  Cr  Cr17  1  0.00000000  0.54132927  0.75000000  1
  Cr  Cr18  1  0.14485307  0.10045926  0.60557386  1
  Cr  Cr19  1  0.14485307  0.89954074  0.10557386  1
  Cr  Cr20  1  0.35514693  0.39954074  0.10557386  1
  Cr  Cr21  1  0.35514693  0.60045926  0.60557386  1
  Cr  Cr22  1  0.50000000  0.04132927  0.75000000  1
  Cr  Cr23  1  0.50000000  0.95867073  0.25000000  1
  Cr  Cr24  1  0.64485307  0.39954074  0.39442614  1
  Cr  Cr25  1  0.64485307  0.60045926  0.89442614  1
  Cr  Cr26  1  0.85514693  0.10045926  0.89442614  1
  Cr  Cr27  1  0.85514693  0.89954074  0.39442614  1
  O  O28  1  0.02272826  0.13884652  0.57284995  1
  O  O29  1  0.02272826  0.86115348  0.07284995  1
  O  O30  1  0.06017898  0.55974384  0.36866815  1
  O  O31  1  0.06017898  0.44025616  0.86866815  1
  O  O32  1  0.08842674  0.35199241  0.16913864  1
  O  O33  1  0.08842674  0.64800759  0.66913864  1
  O  O34  1  0.16082170  0.07943087  0.11107406  1
  O  O35  1  0.16082170  0.92056913  0.61107406  1
  O  O36  1  0.17918204  0.17141867  0.76356766  1
  O  O37  1  0.17918204  0.82858133  0.26356766  1
  O  O38  1  0.21928403  0.83038766  0.97462727  1
  O  O39  1  0.21928403  0.16961234  0.47462727  1
  O  O40  1  0.28071597  0.33038766  0.97462727  1
  O  O41  1  0.28071597  0.66961234  0.47462727  1
  O  O42  1  0.32081796  0.67141867  0.76356766  1
  O  O43  1  0.32081796  0.32858133  0.26356766  1
  O  O44  1  0.33917830  0.42056913  0.61107406  1
  O  O45  1  0.33917830  0.57943087  0.11107406  1
  O  O46  1  0.41157326  0.14800759  0.66913864  1
  O  O47  1  0.41157326  0.85199241  0.16913864  1
  O  O48  1  0.43982102  0.05974384  0.36866815  1
  O  O49  1  0.43982102  0.94025616  0.86866815  1
  O  O50  1  0.47727174  0.63884652  0.57284995  1
  O  O51  1  0.47727174  0.36115348  0.07284995  1
  O  O52  1  0.52272826  0.36115348  0.42715005  1
  O  O53  1  0.52272826  0.63884652  0.92715005  1
  O  O54  1  0.56017898  0.05974384  0.13133185  1
  O  O55  1  0.56017898  0.94025616  0.63133185  1
  O  O56  1  0.58842674  0.14800759  0.83086136  1
  O  O57  1  0.58842674  0.85199241  0.33086136  1
  O  O58  1  0.66082170  0.42056913  0.88892594  1
  O  O59  1  0.66082170  0.57943087  0.38892594  1
  O  O60  1  0.67918204  0.32858133  0.23643234  1
  O  O61  1  0.67918204  0.67141867  0.73643234  1
  O  O62  1  0.71928403  0.33038766  0.52537273  1
  O  O63  1  0.71928403  0.66961234  0.02537273  1
  O  O64  1  0.78071597  0.16961234  0.02537273  1
  O  O65  1  0.78071597  0.83038766  0.52537273  1
  O  O66  1  0.82081796  0.17141867  0.73643234  1
  O  O67  1  0.82081796  0.82858133  0.23643234  1
  O  O68  1  0.83917830  0.07943087  0.38892594  1
  O  O69  1  0.83917830  0.92056913  0.88892594  1
  O  O70  1  0.91157326  0.35199241  0.33086136  1
  O  O71  1  0.91157326  0.64800759  0.83086136  1
  O  O72  1  0.93982102  0.44025616  0.63133185  1
  O  O73  1  0.93982102  0.55974384  0.13133185  1
  O  O74  1  0.97727174  0.13884652  0.92715005  1
  O  O75  1  0.97727174  0.86115348  0.42715005  1
