# generated using pymatgen
data_Li3MnF6
_symmetry_space_group_name_H-M   'P 1'
_cell_length_a   6.11019278
_cell_length_b   6.17481414
_cell_length_c   5.86823187
_cell_angle_alpha   89.61889161
_cell_angle_beta   91.85327765
_cell_angle_gamma   91.12329254
_symmetry_Int_Tables_number   1
_chemical_formula_structural   Li3MnF6
_chemical_formula_sum   'Li6 Mn2 F12'
_cell_volume   221.24195898
_cell_formula_units_Z   2
loop_
 _symmetry_equiv_pos_site_id
 _symmetry_equiv_pos_as_xyz
  1  'x, y, z'
loop_
 _atom_site_type_symbol
 _atom_site_label
 _atom_site_symmetry_multiplicity
 _atom_site_fract_x
 _atom_site_fract_y
 _atom_site_fract_z
 _atom_site_occupancy
  Li  Li0  1  0.04785478  0.53823410  0.24864779  1
  Li  Li1  1  0.44141568  0.77011368  0.93777597  1
  Li  Li2  1  0.73749512  0.93183715  0.44329425  1
  Li  Li3  1  0.26261480  0.06822014  0.55661667  1
  Li  Li4  1  0.55870571  0.23002710  0.06224380  1
  Li  Li5  1  0.95214093  0.46180769  0.75134935  1
  Mn  Mn6  1  0.49973152  0.49993934  0.49972062  1
  Mn  Mn7  1  -0.00002502  -0.00017171  0.00032761  1
  F  F8  1  0.08054768  0.94238772  0.30164054  1
  F  F9  1  0.08076965  0.69414310  0.93189986  1
  F  F10  1  0.45261868  0.80529988  0.59679634  1
  F  F11  1  0.69003624  0.92269017  0.08231421  1
  F  F12  1  0.18823531  0.39367118  0.54643563  1
  F  F13  1  0.40747042  0.55287207  0.20030310  1
  F  F14  1  0.59254564  0.44724412  0.79991926  1
  F  F15  1  0.81155403  0.60628864  0.45365943  1
  F  F16  1  0.30985479  0.07734058  0.91770274  1
  F  F17  1  0.54747493  0.19471272  0.40321742  1
  F  F18  1  0.91941589  0.30574579  0.06800811  1
  F  F19  1  0.91954323  0.05759753  0.69812829  1
