# generated using pymatgen
data_Li2MnVP2(HO5)2
_symmetry_space_group_name_H-M   'P 1'
_cell_length_a   5.43506875
_cell_length_b   10.35007116
_cell_length_c   10.10055952
_cell_angle_alpha   79.64856078
_cell_angle_beta   79.30865156
_cell_angle_gamma   83.65623011
_symmetry_Int_Tables_number   1
_chemical_formula_structural   Li2MnVP2(HO5)2
_chemical_formula_sum   'Li6 Mn3 V3 P6 H6 O30'
_cell_volume   547.48720818
_cell_formula_units_Z   3
loop_
 _symmetry_equiv_pos_site_id
 _symmetry_equiv_pos_as_xyz
  1  'x, y, z'
loop_
 _atom_site_type_symbol
 _atom_site_label
 _atom_site_symmetry_multiplicity
 _atom_site_fract_x
 _atom_site_fract_y
 _atom_site_fract_z
 _atom_site_occupancy
  Li  Li0  1  0.79318246  0.63746039  0.80825446  1
  Li  Li1  1  0.87293499  0.69933689  0.52523131  1
  Li  Li2  1  0.53617207  0.03344469  0.85632416  1
  Li  Li3  1  0.46382793  0.96655531  0.14367584  1
  Li  Li4  1  0.12706501  0.30066311  0.47476869  1
  Li  Li5  1  0.20681754  0.36253961  0.19174554  1
  Mn  Mn6  1  0.66740696  0.33478116  0.33367319  1
  Mn  Mn7  1  0.33259304  0.66521884  0.66632681  1
  Mn  Mn8  1  0.50000000  0.00000000  0.50000000  1
  V  V9  1  0.82869090  0.66651972  0.16892988  1
  V  V10  1  0.17130910  0.33348028  0.83107012  1
  V  V11  1  0.00000000  0.00000000  0.00000000  1
  P  P12  1  0.93419569  0.92988379  0.69537840  1
  P  P13  1  0.73095467  0.40467033  0.63566941  1
  P  P14  1  0.38797871  0.73806305  0.96862368  1
  P  P15  1  0.61202129  0.26193695  0.03137632  1
  P  P16  1  0.26904533  0.59532867  0.36433059  1
  P  P17  1  0.06580431  0.07011621  0.30462160  1
  H  H18  1  0.82659754  0.89454113  0.23504396  1
  H  H19  1  0.83465115  0.43724965  0.10209330  1
  H  H20  1  0.49931837  0.76795520  0.43701388  1
  H  H21  1  0.50068163  0.23204480  0.56298612  1
  H  H22  1  0.16534885  0.56275035  0.89790670  1
  H  H23  1  0.17340246  0.10545887  0.76495604  1
  O  O24  1  0.88250670  0.92664390  0.85239562  1
  O  O25  1  0.97872644  0.78824095  0.66341035  1
  O  O26  1  0.97714535  0.33263081  0.67836545  1
  O  O27  1  0.84037284  0.34372388  0.96481320  1
  O  O28  1  0.84339478  0.98503083  0.36898235  1
  O  O29  1  0.67983214  0.99910446  0.65177958  1
  O  O30  1  0.80617265  0.87106771  0.14638468  1
  O  O31  1  0.66477976  0.11772001  0.99950400  1
  O  O32  1  0.68688939  0.54549787  0.66985413  1
  O  O33  1  0.77520156  0.40985020  0.47774402  1
  O  O34  1  0.85976117  0.45968626  0.19017148  1
  O  O35  1  0.43648617  0.74233942  0.81150967  1
  O  O36  1  0.52299977  0.78963490  0.52571611  1
  O  O37  1  0.50091155  0.32239660  0.70051736  1
  O  O38  1  0.63522510  0.67105954  0.01373194  1
  O  O39  1  0.36477490  0.32894046  0.98626806  1
  O  O40  1  0.49908845  0.67760340  0.29948264  1
  O  O41  1  0.47700023  0.21036510  0.47428389  1
  O  O42  1  0.56351383  0.25766058  0.18849033  1
  O  O43  1  0.14023883  0.54031374  0.80982852  1
  O  O44  1  0.22479844  0.59014980  0.52225598  1
  O  O45  1  0.31311061  0.45450213  0.33014587  1
  O  O46  1  0.33522024  0.88227999  0.00049600  1
  O  O47  1  0.19382735  0.12893229  0.85361532  1
  O  O48  1  0.32016786  0.00089554  0.34822042  1
  O  O49  1  0.15660522  0.01496917  0.63101765  1
  O  O50  1  0.15962716  0.65627612  0.03518680  1
  O  O51  1  0.02285465  0.66736919  0.32163455  1
  O  O52  1  0.02127356  0.21175905  0.33658965  1
  O  O53  1  0.11749330  0.07335610  0.14760438  1
