# generated using pymatgen
data_LiMnP2O7
_symmetry_space_group_name_H-M   'P 1'
_cell_length_a   5.13227972
_cell_length_b   7.96901262
_cell_length_c   12.95310455
_cell_angle_alpha   89.99984140
_cell_angle_beta   90.00314398
_cell_angle_gamma   93.20862613
_symmetry_Int_Tables_number   1
_chemical_formula_structural   LiMnP2O7
_chemical_formula_sum   'Li4 Mn4 P8 O28'
_cell_volume   528.94113911
_cell_formula_units_Z   4
loop_
 _symmetry_equiv_pos_site_id
 _symmetry_equiv_pos_as_xyz
  1  'x, y, z'
loop_
 _atom_site_type_symbol
 _atom_site_label
 _atom_site_symmetry_multiplicity
 _atom_site_fract_x
 _atom_site_fract_y
 _atom_site_fract_z
 _atom_site_occupancy
  Li  Li0  1  0.21138765  0.14265689  0.17384591  1
  Li  Li1  1  0.28861618  0.35734363  0.67384433  1
  Li  Li2  1  0.71138392  0.64265363  0.32615864  1
  Li  Li3  1  0.78861539  0.85734273  0.82615697  1
  Mn  Mn4  1  0.22246623  0.84581749  0.35819634  1
  Mn  Mn5  1  0.27753215  0.65417624  0.85818846  1
  Mn  Mn6  1  0.72246343  0.34582178  0.14179785  1
  Mn  Mn7  1  0.77754787  0.15416529  0.64181250  1
  P  P8  1  0.20794308  0.29636792  0.97752549  1
  P  P9  1  0.20830571  0.44415689  0.30815246  1
  P  P10  1  0.29168562  0.05584844  0.80815185  1
  P  P11  1  0.29204518  0.20362602  0.47752924  1
  P  P12  1  0.70795912  0.79637381  0.52247030  1
  P  P13  1  0.70831766  0.94415319  0.19185010  1
  P  P14  1  0.79169172  0.55584108  0.69184739  1
  P  P15  1  0.79205656  0.70363775  0.02247072  1
  O  O16  1  0.99573350  0.95071439  0.22060192  1
  O  O17  1  0.03499920  0.33109317  0.23687662  1
  O  O18  1  0.04578765  0.76696634  0.97202227  1
  O  O19  1  0.09515667  0.14726683  0.56062577  1
  O  O20  1  0.09065331  0.61772027  0.31702912  1
  O  O21  1  0.16967548  0.42696121  0.89245536  1
  O  O22  1  0.17306445  0.36455243  0.42210932  1
  O  O23  1  0.32693092  0.13544969  0.92211152  1
  O  O24  1  0.33031732  0.07304006  0.39245963  1
  O  O25  1  0.40933733  0.88228746  0.81702748  1
  O  O26  1  0.40483171  0.35272751  0.06063128  1
  O  O27  1  0.45421044  0.73303496  0.47201662  1
  O  O28  1  0.50427958  0.54928101  0.72059352  1
  O  O29  1  0.46498347  0.16891590  0.73687937  1
  O  O30  1  0.53501776  0.83108598  0.26312192  1
  O  O31  1  0.49571904  0.45072023  0.27940667  1
  O  O32  1  0.54579297  0.26696492  0.52798676  1
  O  O33  1  0.59516129  0.64727263  0.93936800  1
  O  O34  1  0.59066633  0.11771796  0.18297099  1
  O  O35  1  0.66968326  0.92696064  0.60754275  1
  O  O36  1  0.67306821  0.86455046  0.07789000  1
  O  O37  1  0.82693255  0.63544815  0.57789138  1
  O  O38  1  0.83032583  0.57304260  0.10754393  1
  O  O39  1  0.90934715  0.38227833  0.68297296  1
  O  O40  1  0.90484247  0.85273193  0.43937692  1
  O  O41  1  0.95421132  0.23303374  0.02797578  1
  O  O42  1  0.96499626  0.66890785  0.76312294  1
  O  O43  1  0.00426306  0.04928555  0.77939865  1
