# generated using pymatgen
data_Li4Ti3Nb2Co3O16
_symmetry_space_group_name_H-M   'P 1'
_cell_length_a   6.01748273
_cell_length_b   5.97731119
_cell_length_c   9.84726762
_cell_angle_alpha   90.21873162
_cell_angle_beta   90.13020426
_cell_angle_gamma   119.75044144
_symmetry_Int_Tables_number   1
_chemical_formula_structural   Li4Ti3Nb2Co3O16
_chemical_formula_sum   'Li4 Ti3 Nb2 Co3 O16'
_cell_volume   307.50031826
_cell_formula_units_Z   1
loop_
 _symmetry_equiv_pos_site_id
 _symmetry_equiv_pos_as_xyz
  1  'x, y, z'
loop_
 _atom_site_type_symbol
 _atom_site_label
 _atom_site_symmetry_multiplicity
 _atom_site_fract_x
 _atom_site_fract_y
 _atom_site_fract_z
 _atom_site_occupancy
  Li  Li0  1  0.33185104  0.66576200  0.90246707  1
  Li  Li1  1  0.99726009  0.99796607  0.98570792  1
  Li  Li2  1  0.00200606  0.00174164  0.49558150  1
  Li  Li3  1  0.66671302  0.33301846  0.40633285  1
  Ti  Ti4  1  0.18833747  0.84275394  0.22053061  1
  Ti  Ti5  1  0.18859973  0.34585698  0.21977368  1
  Ti  Ti6  1  0.35428478  0.17512694  0.73241953  1
  Nb  Nb7  1  0.33613286  0.66676986  0.50040133  1
  Nb  Nb8  1  0.70053965  0.34861651  0.98796292  1
  Co  Co9  1  0.66012804  0.82965175  0.20926971  1
  Co  Co10  1  0.83089824  0.66094473  0.70828923  1
  Co  Co11  1  0.82857865  0.17216856  0.71037369  1
  O  O12  1  0.17594814  0.83597910  0.58981735  1
  O  O13  1  0.03716068  0.51908813  0.33236614  1
  O  O14  1  0.30487175  0.65209100  0.10632954  1
  O  O15  1  0.01176423  0.00650941  0.30548675  1
  O  O16  1  0.01093852  0.00685446  0.79785323  1
  O  O17  1  0.17862852  0.34239508  0.58886318  1
  O  O18  1  0.46706832  0.96360346  0.33805709  1
  O  O19  1  0.46713113  0.50375550  0.33843394  1
  O  O20  1  0.32770672  0.16408149  0.10280896  1
  O  O21  1  0.66415304  0.83354716  0.58188366  1
  O  O22  1  0.50105678  0.46880289  0.84730807  1
  O  O23  1  0.49597410  0.03020222  0.85022766  1
  O  O24  1  0.63969221  0.31931221  0.60837082  1
  O  O25  1  0.83448242  0.66593896  0.09336465  1
  O  O26  1  0.96281711  0.47923405  0.85403669  1
  O  O27  1  0.83527670  0.16852542  0.09351721  1
