# generated using pymatgen
data_Li2MnVP2(O4F)2
_symmetry_space_group_name_H-M   'P 1'
_cell_length_a   7.61092600
_cell_length_b   6.96533137
_cell_length_c   7.83853178
_cell_angle_alpha   90.25585101
_cell_angle_beta   118.26256898
_cell_angle_gamma   91.41080053
_symmetry_Int_Tables_number   1
_chemical_formula_structural   Li2MnVP2(O4F)2
_chemical_formula_sum   'Li4 Mn2 V2 P4 O16 F4'
_cell_volume   365.83087132
_cell_formula_units_Z   2
loop_
 _symmetry_equiv_pos_site_id
 _symmetry_equiv_pos_as_xyz
  1  'x, y, z'
loop_
 _atom_site_type_symbol
 _atom_site_label
 _atom_site_symmetry_multiplicity
 _atom_site_fract_x
 _atom_site_fract_y
 _atom_site_fract_z
 _atom_site_occupancy
  Li  Li0  1  0.07773315  0.65113265  0.26617749  1
  Li  Li1  1  0.58099500  0.15115193  0.76880039  1
  Li  Li2  1  0.42030119  0.84699088  0.23325385  1
  Li  Li3  1  0.92025559  0.35055653  0.73008827  1
  Mn  Mn4  1  0.50001788  0.49940708  0.49971505  1
  Mn  Mn5  1  0.24933602  0.74944500  0.74877758  1
  V  V6  1  0.00030229  0.00185595  0.00166160  1
  V  V7  1  0.75114223  0.24878435  0.25031744  1
  P  P8  1  0.22295230  0.10037665  0.45990149  1
  P  P9  1  0.28057211  0.40290443  0.04185261  1
  P  P10  1  0.71769731  0.60067431  0.95506095  1
  P  P11  1  0.77978342  0.89616074  0.54426437  1
  O  O12  1  0.10402753  0.26900234  0.01787842  1
  O  O13  1  0.03949372  0.21235015  0.42629823  1
  O  O14  1  0.46257921  0.28837575  0.07424635  1
  O  O15  1  0.68929044  0.00070601  0.34804317  1
  O  O16  1  0.40014738  0.23532680  0.48421097  1
  O  O17  1  0.33048631  0.54838016  0.21345502  1
  O  O18  1  0.82571393  0.04427648  0.71331068  1
  O  O19  1  0.80910918  0.49516836  0.15056439  1
  O  O20  1  0.18741871  0.50972911  0.84588135  1
  O  O21  1  0.17434515  0.95458366  0.28903764  1
  O  O22  1  0.67110117  0.45387565  0.78454031  1
  O  O23  1  0.60285142  0.76061567  0.51946488  1
  O  O24  1  0.31410757  0.99275259  0.65522684  1
  O  O25  1  0.53363747  0.71272469  0.92093693  1
  O  O26  1  0.96445220  0.78622996  0.57828135  1
  O  O27  1  0.89265634  0.73736448  0.98070753  1
  F  F28  1  0.76795908  0.10339753  0.03056658  1
  F  F29  1  0.25560038  0.59852644  0.52026104  1
  F  F30  1  0.74221425  0.39342249  0.46996090  1
  F  F31  1  0.23172105  0.90375419  0.97725431  1
