# generated using pymatgen
data_Mg5Ge
_symmetry_space_group_name_H-M   'P 1'
_cell_length_a   5.41408789
_cell_length_b   5.41408913
_cell_length_c   5.96410834
_cell_angle_alpha   116.99346412
_cell_angle_beta   63.00652655
_cell_angle_gamma   119.99997968
_symmetry_Int_Tables_number   1
_chemical_formula_structural   Mg5Ge
_chemical_formula_sum   'Mg5 Ge1'
_cell_volume   128.94060319
_cell_formula_units_Z   1
loop_
 _symmetry_equiv_pos_site_id
 _symmetry_equiv_pos_as_xyz
  1  'x, y, z'
loop_
 _atom_site_type_symbol
 _atom_site_label
 _atom_site_symmetry_multiplicity
 _atom_site_fract_x
 _atom_site_fract_y
 _atom_site_fract_z
 _atom_site_occupancy
  Mg  Mg0  1  0.99448787  0.00000200  0.00000100  1
  Mg  Mg1  1  0.67217813  0.33884513  1.00000000  1
  Mg  Mg2  1  0.33333100  0.66115387  0.00000000  1
  Mg  Mg3  1  0.50044133  0.83289367  0.49867701  1
  Mg  Mg4  1  0.16622367  0.16710733  0.50132399  1
  Ge  Ge5  1  0.83333200  0.49999900  0.50000000  1
