# generated using pymatgen
data_LiMnOF2
_symmetry_space_group_name_H-M   'P 1'
_cell_length_a   6.59066592
_cell_length_b   6.59066646
_cell_length_c   5.31292069
_cell_angle_alpha   83.70117425
_cell_angle_beta   96.29882760
_cell_angle_gamma   94.61209980
_symmetry_Int_Tables_number   1
_chemical_formula_structural   LiMnOF2
_chemical_formula_sum   'Li4 Mn4 O4 F8'
_cell_volume   227.45216780
_cell_formula_units_Z   4
loop_
 _symmetry_equiv_pos_site_id
 _symmetry_equiv_pos_as_xyz
  1  'x, y, z'
loop_
 _atom_site_type_symbol
 _atom_site_label
 _atom_site_symmetry_multiplicity
 _atom_site_fract_x
 _atom_site_fract_y
 _atom_site_fract_z
 _atom_site_occupancy
  Li  Li0  1  0.22060618  0.60639846  0.67113129  1
  Li  Li1  1  0.39360154  0.77939382  0.17113129  1
  Li  Li2  1  0.60639846  0.22060618  0.82886871  1
  Li  Li3  1  0.77939382  0.39360154  0.32886871  1
  Mn  Mn4  1  0.08929940  0.08929940  0.75000000  1
  Mn  Mn5  1  0.25714125  0.25714125  0.25000000  1
  Mn  Mn6  1  0.74285875  0.74285875  0.75000000  1
  Mn  Mn7  1  0.91070060  0.91070060  0.25000000  1
  O  O8  1  0.00076520  0.80606605  0.59864008  1
  O  O9  1  0.19393395  0.99923480  0.09864008  1
  O  O10  1  0.80606605  0.00076520  0.90135992  1
  O  O11  1  0.99923480  0.19393395  0.40135992  1
  F  F12  1  0.13147193  0.37405597  0.87233204  1
  F  F13  1  0.28911434  0.53259012  0.35693997  1
  F  F14  1  0.37405597  0.13147193  0.62766796  1
  F  F15  1  0.46740988  0.71088566  0.85693997  1
  F  F16  1  0.53259012  0.28911434  0.14306003  1
  F  F17  1  0.62594403  0.86852807  0.37233204  1
  F  F18  1  0.71088566  0.46740988  0.64306003  1
  F  F19  1  0.86852807  0.62594403  0.12766796  1
