# generated using pymatgen
data_Li4V2(PO4)3
_symmetry_space_group_name_H-M   'P 1'
_cell_length_a   9.23846099
_cell_length_b   9.23915022
_cell_length_c   9.18322268
_cell_angle_alpha   54.47854435
_cell_angle_beta   54.51656108
_cell_angle_gamma   55.09147828
_symmetry_Int_Tables_number   1
_chemical_formula_structural   Li4V2(PO4)3
_chemical_formula_sum   'Li8 V4 P6 O24'
_cell_volume   485.72625699
_cell_formula_units_Z   2
loop_
 _symmetry_equiv_pos_site_id
 _symmetry_equiv_pos_as_xyz
  1  'x, y, z'
loop_
 _atom_site_type_symbol
 _atom_site_label
 _atom_site_symmetry_multiplicity
 _atom_site_fract_x
 _atom_site_fract_y
 _atom_site_fract_z
 _atom_site_occupancy
  Li  Li0  1  0.07914073  0.33874003  0.72484780  1
  Li  Li1  1  0.33392572  0.72799161  0.07872258  1
  Li  Li2  1  0.72811240  0.06557863  0.30736268  1
  Li  Li3  1  0.26054143  0.78872991  0.53891926  1
  Li  Li4  1  0.73945857  0.21127009  0.46108074  1
  Li  Li5  1  0.27188760  0.93442137  0.69263732  1
  Li  Li6  1  0.66607428  0.27200839  0.92127742  1
  Li  Li7  1  0.92085927  0.66125997  0.27515220  1
  V  V8  1  0.14761912  0.15057599  0.14117236  1
  V  V9  1  0.85238088  0.84942401  0.85882764  1
  V  V10  1  0.34719580  0.35019629  0.34256116  1
  V  V11  1  0.65280420  0.64980371  0.65743884  1
  P  P12  1  0.03860923  0.75570536  0.44905220  1
  P  P13  1  0.46230999  0.04460935  0.74840647  1
  P  P14  1  0.74979320  0.45665198  0.04295974  1
  P  P15  1  0.25020680  0.54334802  0.95704026  1
  P  P16  1  0.53769001  0.95539065  0.25159353  1
  P  P17  1  0.96139077  0.24429464  0.55094780  1
  O  O18  1  0.15039970  0.19961071  0.55401051  1
  O  O19  1  0.19887281  0.56431488  0.14045093  1
  O  O20  1  0.54856843  0.14281450  0.20259551  1
  O  O21  1  0.16088818  0.54372713  0.49112860  1
  O  O22  1  0.14273482  0.88108380  0.24454090  1
  O  O23  1  0.00580100  0.81194957  0.59800915  1
  O  O24  1  0.25920467  0.15266403  0.86475839  1
  O  O25  1  0.51346252  0.16454237  0.52703745  1
  O  O26  1  0.53601399  0.50320096  0.16229882  1
  O  O27  1  0.18620657  0.39285136  0.01016377  1
  O  O28  1  0.14052637  0.74507359  0.83285219  1
  O  O29  1  0.38339034  0.99048241  0.20537108  1
  O  O30  1  0.61660966  0.00951759  0.79462892  1
  O  O31  1  0.85947363  0.25492641  0.16714781  1
  O  O32  1  0.81379343  0.60714864  0.98983623  1
  O  O33  1  0.46398601  0.49679804  0.83770118  1
  O  O34  1  0.48653748  0.83545763  0.47296255  1
  O  O35  1  0.74079533  0.84733597  0.13524161  1
  O  O36  1  0.99419900  0.18805043  0.40199085  1
  O  O37  1  0.85726518  0.11891620  0.75545910  1
  O  O38  1  0.83911182  0.45627287  0.50887140  1
  O  O39  1  0.45143157  0.85718550  0.79740449  1
  O  O40  1  0.80112719  0.43568512  0.85954907  1
  O  O41  1  0.84960030  0.80038929  0.44598949  1
