# generated using pymatgen
data_VOF3
_symmetry_space_group_name_H-M   'P 1'
_cell_length_a   7.63379517
_cell_length_b   5.75667466
_cell_length_c   7.93785202
_cell_angle_alpha   65.98199648
_cell_angle_beta   90.05584591
_cell_angle_gamma   108.31962175
_symmetry_Int_Tables_number   1
_chemical_formula_structural   VOF3
_chemical_formula_sum   'V4 O4 F12'
_cell_volume   299.21994713
_cell_formula_units_Z   4
loop_
 _symmetry_equiv_pos_site_id
 _symmetry_equiv_pos_as_xyz
  1  'x, y, z'
loop_
 _atom_site_type_symbol
 _atom_site_label
 _atom_site_symmetry_multiplicity
 _atom_site_fract_x
 _atom_site_fract_y
 _atom_site_fract_z
 _atom_site_occupancy
  V  V0  1  0.23458130  0.54836030  0.21460567  1
  V  V1  1  0.72829914  0.47478255  0.71116878  1
  V  V2  1  0.46080995  0.93990149  0.47986402  1
  V  V3  1  0.96782741  0.95976752  0.98526451  1
  O  O4  1  0.17401855  0.81744215  0.10207878  1
  O  O5  1  0.86424299  0.70426993  0.94149108  1
  O  O6  1  0.35394846  0.69105839  0.42393799  1
  O  O7  1  0.64942483  0.33251894  0.57585926  1
  F  F8  1  0.87914188  0.86989157  0.21803457  1
  F  F9  1  0.47586449  0.65383119  0.14000252  1
  F  F10  1  0.96961959  0.65443882  0.63031817  1
  F  F11  1  0.67334822  0.79756796  0.59623834  1
  F  F12  1  0.64784547  0.16253595  0.29870382  1
  F  F13  1  0.38358255  0.82947347  0.71869472  1
  F  F14  1  0.15820105  0.36670392  0.07784445  1
  F  F15  1  0.81413109  0.17631741  0.89052483  1
  F  F16  1  0.31931298  0.14967578  0.39896474  1
  F  F17  1  0.54543003  0.34298385  0.89702925  1
  F  F18  1  0.05422421  0.33923817  0.40402012  1
  F  F19  1  0.14614582  0.18924165  0.79535438  1
