# generated using pymatgen
data_Ti2Fe(PO4)3
_symmetry_space_group_name_H-M   'P 1'
_cell_length_a   8.55884644
_cell_length_b   8.55884672
_cell_length_c   8.55884695
_cell_angle_alpha   61.21308199
_cell_angle_beta   61.21308656
_cell_angle_gamma   61.21308761
_symmetry_Int_Tables_number   1
_chemical_formula_structural   Ti2Fe(PO4)3
_chemical_formula_sum   'Ti4 Fe2 P6 O24'
_cell_volume   455.43002538
_cell_formula_units_Z   2
loop_
 _symmetry_equiv_pos_site_id
 _symmetry_equiv_pos_as_xyz
  1  'x, y, z'
loop_
 _atom_site_type_symbol
 _atom_site_label
 _atom_site_symmetry_multiplicity
 _atom_site_fract_x
 _atom_site_fract_y
 _atom_site_fract_z
 _atom_site_occupancy
  Ti  Ti0  1  0.14331527  0.14331527  0.14331527  1
  Ti  Ti1  1  0.35668473  0.35668473  0.35668473  1
  Ti  Ti2  1  0.64331527  0.64331527  0.64331527  1
  Ti  Ti3  1  0.85668473  0.85668473  0.85668473  1
  Fe  Fe4  1  0.00000000  0.00000000  0.00000000  1
  Fe  Fe5  1  0.50000000  0.50000000  0.50000000  1
  P  P6  1  0.25000000  0.54253305  0.95746695  1
  P  P7  1  0.54253305  0.95746695  0.25000000  1
  P  P8  1  0.95746695  0.25000000  0.54253305  1
  P  P9  1  0.04253305  0.75000000  0.45746695  1
  P  P10  1  0.45746695  0.04253305  0.75000000  1
  P  P11  1  0.75000000  0.45746695  0.04253305  1
  O  O12  1  0.11582573  0.31611354  0.50037924  1
  O  O13  1  0.31611354  0.50037924  0.11582573  1
  O  O14  1  0.05689824  0.90923536  0.26243028  1
  O  O15  1  0.50037924  0.11582573  0.31611354  1
  O  O16  1  0.00037924  0.81611354  0.61582573  1
  O  O17  1  0.23756972  0.59076464  0.44310176  1
  O  O18  1  0.26243028  0.05689824  0.90923536  1
  O  O19  1  0.44310176  0.23756972  0.59076464  1
  O  O20  1  0.18388646  0.38417427  0.99962076  1
  O  O21  1  0.59076464  0.44310176  0.23756972  1
  O  O22  1  0.09076464  0.73756972  0.94310176  1
  O  O23  1  0.38417427  0.99962076  0.18388646  1
  O  O24  1  0.61582573  0.00037924  0.81611354  1
  O  O25  1  0.90923536  0.26243028  0.05689824  1
  O  O26  1  0.40923536  0.55689824  0.76243028  1
  O  O27  1  0.81611354  0.61582573  0.00037924  1
  O  O28  1  0.55689824  0.76243028  0.40923536  1
  O  O29  1  0.73756972  0.94310176  0.09076464  1
  O  O30  1  0.76243028  0.40923536  0.55689824  1
  O  O31  1  0.99962076  0.18388646  0.38417427  1
  O  O32  1  0.49962076  0.88417427  0.68388646  1
  O  O33  1  0.94310176  0.09076464  0.73756972  1
  O  O34  1  0.68388646  0.49962076  0.88417427  1
  O  O35  1  0.88417427  0.68388646  0.49962076  1
