# generated using pymatgen
data_LiCu2(SO4)3
_symmetry_space_group_name_H-M   'P 1'
_cell_length_a   8.59729955
_cell_length_b   8.59729955
_cell_length_c   8.59729937
_cell_angle_alpha   60.01690237
_cell_angle_beta   60.01690237
_cell_angle_gamma   60.01689923
_symmetry_Int_Tables_number   1
_chemical_formula_structural   LiCu2(SO4)3
_chemical_formula_sum   'Li2 Cu4 S6 O24'
_cell_volume   449.50811790
_cell_formula_units_Z   2
loop_
 _symmetry_equiv_pos_site_id
 _symmetry_equiv_pos_as_xyz
  1  'x, y, z'
loop_
 _atom_site_type_symbol
 _atom_site_label
 _atom_site_symmetry_multiplicity
 _atom_site_fract_x
 _atom_site_fract_y
 _atom_site_fract_z
 _atom_site_occupancy
  Li  Li0  1  0.00000000  0.00000000  0.00000000  1
  Li  Li1  1  0.50000000  0.50000000  0.50000000  1
  Cu  Cu2  1  0.35476662  0.35476662  0.35476662  1
  Cu  Cu3  1  0.14523338  0.14523338  0.14523338  1
  Cu  Cu4  1  0.64523338  0.64523338  0.64523338  1
  Cu  Cu5  1  0.85476662  0.85476662  0.85476662  1
  S  S6  1  0.04589866  0.75000000  0.45410134  1
  S  S7  1  0.54589866  0.95410134  0.25000000  1
  S  S8  1  0.25000000  0.54589866  0.95410134  1
  S  S9  1  0.75000000  0.45410134  0.04589866  1
  S  S10  1  0.45410134  0.04589866  0.75000000  1
  S  S11  1  0.95410134  0.25000000  0.54589866  1
  O  O12  1  0.05791624  0.91086482  0.26838279  1
  O  O13  1  0.08913518  0.73161721  0.94208376  1
  O  O14  1  0.48583251  0.89308071  0.69458252  1
  O  O15  1  0.60691929  0.01416749  0.80541748  1
  O  O16  1  0.23161721  0.58913518  0.44208376  1
  O  O17  1  0.55791624  0.76838279  0.41086482  1
  O  O18  1  0.73161721  0.94208376  0.08913518  1
  O  O19  1  0.98583251  0.19458252  0.39308071  1
  O  O20  1  0.30541748  0.51416749  0.10691929  1
  O  O21  1  0.10691929  0.30541748  0.51416749  1
  O  O22  1  0.19458252  0.39308071  0.98583251  1
  O  O23  1  0.41086482  0.55791624  0.76838279  1
  O  O24  1  0.58913518  0.44208376  0.23161721  1
  O  O25  1  0.89308071  0.69458252  0.48583251  1
  O  O26  1  0.80541748  0.60691929  0.01416749  1
  O  O27  1  0.01416749  0.80541748  0.60691929  1
  O  O28  1  0.69458252  0.48583251  0.89308071  1
  O  O29  1  0.26838279  0.05791624  0.91086482  1
  O  O30  1  0.44208376  0.23161721  0.58913518  1
  O  O31  1  0.76838279  0.41086482  0.55791624  1
  O  O32  1  0.51416749  0.10691929  0.30541748  1
  O  O33  1  0.39308071  0.98583251  0.19458252  1
  O  O34  1  0.91086482  0.26838279  0.05791624  1
  O  O35  1  0.94208376  0.08913518  0.73161721  1
