# generated using pymatgen
data_LiV3P3(HO6)2
_symmetry_space_group_name_H-M   'P 1'
_cell_length_a   8.67155752
_cell_length_b   8.67155752
_cell_length_c   6.68507243
_cell_angle_alpha   72.71610430
_cell_angle_beta   107.28389570
_cell_angle_gamma   88.03752335
_symmetry_Int_Tables_number   1
_chemical_formula_structural   LiV3P3(HO6)2
_chemical_formula_sum   'Li2 V6 P6 H4 O24'
_cell_volume   454.15956476
_cell_formula_units_Z   2
loop_
 _symmetry_equiv_pos_site_id
 _symmetry_equiv_pos_as_xyz
  1  'x, y, z'
loop_
 _atom_site_type_symbol
 _atom_site_label
 _atom_site_symmetry_multiplicity
 _atom_site_fract_x
 _atom_site_fract_y
 _atom_site_fract_z
 _atom_site_occupancy
  Li  Li0  1  0.51110739  0.51110739  0.75000000  1
  Li  Li1  1  0.48889261  0.48889261  0.25000000  1
  V  V2  1  0.13210199  0.54255071  0.88295155  1
  V  V3  1  0.45744929  0.86789801  0.38295155  1
  V  V4  1  0.21292120  0.21292120  0.75000000  1
  V  V5  1  0.78707880  0.78707880  0.25000000  1
  V  V6  1  0.54255071  0.13210199  0.61704845  1
  V  V7  1  0.86789801  0.45744929  0.11704845  1
  P  P8  1  0.39999659  0.82024802  0.89593138  1
  P  P9  1  0.17975198  0.60000341  0.39593138  1
  P  P10  1  0.82371395  0.82371395  0.75000000  1
  P  P11  1  0.17628605  0.17628605  0.25000000  1
  P  P12  1  0.82024802  0.39999659  0.60406862  1
  P  P13  1  0.60000341  0.17975198  0.10406862  1
  H  H14  1  0.12516460  0.87821367  0.81255694  1
  H  H15  1  0.12178633  0.87483540  0.31255694  1
  H  H16  1  0.87821367  0.12516460  0.68744306  1
  H  H17  1  0.87483540  0.12178633  0.18744306  1
  O  O18  1  0.00488166  0.78944562  0.76527219  1
  O  O19  1  0.23673215  0.93463808  0.85275985  1
  O  O20  1  0.21055438  0.99511834  0.26527219  1
  O  O21  1  0.06536192  0.76326785  0.35275985  1
  O  O22  1  0.46292327  0.88972276  0.69997666  1
  O  O23  1  0.36490060  0.64261201  0.92400620  1
  O  O24  1  0.17557628  0.47745865  0.61578539  1
  O  O25  1  0.11027724  0.53707673  0.19997666  1
  O  O26  1  0.35738799  0.63509940  0.42400620  1
  O  O27  1  0.52254135  0.82442372  0.11578539  1
  O  O28  1  0.78766928  0.71730267  0.95914570  1
  O  O29  1  0.71730267  0.78766928  0.54085430  1
  O  O30  1  0.28269733  0.21233072  0.45914570  1
  O  O31  1  0.21233072  0.28269733  0.04085430  1
  O  O32  1  0.47745865  0.17557628  0.88421461  1
  O  O33  1  0.64261201  0.36490060  0.57599380  1
  O  O34  1  0.88972276  0.46292327  0.80002334  1
  O  O35  1  0.82442372  0.52254135  0.38421461  1
  O  O36  1  0.63509940  0.35738799  0.07599380  1
  O  O37  1  0.53707673  0.11027724  0.30002334  1
  O  O38  1  0.93463808  0.23673215  0.64724015  1
  O  O39  1  0.78944562  0.00488166  0.73472781  1
  O  O40  1  0.76326785  0.06536192  0.14724015  1
  O  O41  1  0.99511834  0.21055438  0.23472781  1
