# generated using pymatgen
data_Li2FeF4
_symmetry_space_group_name_H-M   'P 1'
_cell_length_a   5.83722664
_cell_length_b   5.83722664
_cell_length_c   5.40932750
_cell_angle_alpha   87.08249005
_cell_angle_beta   92.91750995
_cell_angle_gamma   121.12531075
_symmetry_Int_Tables_number   1
_chemical_formula_structural   Li2FeF4
_chemical_formula_sum   'Li4 Fe2 F8'
_cell_volume   157.50954498
_cell_formula_units_Z   2
loop_
 _symmetry_equiv_pos_site_id
 _symmetry_equiv_pos_as_xyz
  1  'x, y, z'
loop_
 _atom_site_type_symbol
 _atom_site_label
 _atom_site_symmetry_multiplicity
 _atom_site_fract_x
 _atom_site_fract_y
 _atom_site_fract_z
 _atom_site_occupancy
  Li  Li0  1  0.34154536  0.93818419  0.78469933  1
  Li  Li1  1  0.06181581  0.65845464  0.28469933  1
  Li  Li2  1  0.93818419  0.34154536  0.71530067  1
  Li  Li3  1  0.65845464  0.06181581  0.21530067  1
  Fe  Fe4  1  0.64589701  0.64589701  0.75000000  1
  Fe  Fe5  1  0.35410299  0.35410299  0.25000000  1
  F  F6  1  0.71421489  0.00331717  0.88237917  1
  F  F7  1  0.99668283  0.28578511  0.38237917  1
  F  F8  1  0.26806780  0.50368517  0.90930630  1
  F  F9  1  0.49631483  0.73193220  0.40930630  1
  F  F10  1  0.50368517  0.26806780  0.59069370  1
  F  F11  1  0.73193220  0.49631483  0.09069370  1
  F  F12  1  0.00331717  0.71421489  0.61762083  1
  F  F13  1  0.28578511  0.99668283  0.11762083  1
