# generated using pymatgen
data_LiCr(SO4)2
_symmetry_space_group_name_H-M   'P 1'
_cell_length_a   9.15916987
_cell_length_b   8.99992148
_cell_length_c   13.67035824
_cell_angle_alpha   90.00000000
_cell_angle_beta   90.32970789
_cell_angle_gamma   90.00000000
_symmetry_Int_Tables_number   1
_chemical_formula_structural   LiCr(SO4)2
_chemical_formula_sum   'Li8 Cr8 S16 O64'
_cell_volume   1126.85371029
_cell_formula_units_Z   8
loop_
 _symmetry_equiv_pos_site_id
 _symmetry_equiv_pos_as_xyz
  1  'x, y, z'
loop_
 _atom_site_type_symbol
 _atom_site_label
 _atom_site_symmetry_multiplicity
 _atom_site_fract_x
 _atom_site_fract_y
 _atom_site_fract_z
 _atom_site_occupancy
  Li  Li0  1  0.05231074  0.20908536  0.37700750  1
  Li  Li1  1  0.05231074  0.29091464  0.87700750  1
  Li  Li2  1  0.44709757  0.71540552  0.37043943  1
  Li  Li3  1  0.44709757  0.78459448  0.87043943  1
  Li  Li4  1  0.76817612  0.44915481  0.12791351  1
  Li  Li5  1  0.76817612  0.05084519  0.62791351  1
  Li  Li6  1  0.96033782  0.77296026  0.62714565  1
  Li  Li7  1  0.96033782  0.72703974  0.12714565  1
  Cr  Cr8  1  0.14309228  0.10325420  0.12363324  1
  Cr  Cr9  1  0.14309228  0.39674580  0.62363324  1
  Cr  Cr10  1  0.36151794  0.60486491  0.12450009  1
  Cr  Cr11  1  0.36151794  0.89513509  0.62450009  1
  Cr  Cr12  1  0.63529549  0.10569640  0.37450107  1
  Cr  Cr13  1  0.63529549  0.39430360  0.87450107  1
  Cr  Cr14  1  0.86130287  0.60371491  0.37573054  1
  Cr  Cr15  1  0.86130287  0.89628509  0.87573054  1
  S  S16  1  0.07731963  0.06491367  0.72514928  1
  S  S17  1  0.07731963  0.43508633  0.22514928  1
  S  S18  1  0.16155152  0.68507741  0.48865148  1
  S  S19  1  0.16155152  0.81492259  0.98865148  1
  S  S20  1  0.34116180  0.18592141  0.49048867  1
  S  S21  1  0.34116180  0.31407859  0.99048867  1
  S  S22  1  0.42527877  0.93505990  0.22150599  1
  S  S23  1  0.42527877  0.56494010  0.72150599  1
  S  S24  1  0.57363569  0.43363854  0.27710546  1
  S  S25  1  0.57363569  0.06636146  0.77710546  1
  S  S26  1  0.66106124  0.68696201  0.01101811  1
  S  S27  1  0.66106124  0.81303799  0.51101811  1
  S  S28  1  0.84033696  0.18474316  0.00985623  1
  S  S29  1  0.84033696  0.31525684  0.50985623  1
  S  S30  1  0.92232249  0.56436466  0.77642471  1
  S  S31  1  0.92232249  0.93563534  0.27642471  1
  O  O32  1  0.99845388  0.70095678  0.47415028  1
  O  O33  1  0.99845388  0.79904322  0.97415028  1
  O  O34  1  0.01643486  0.99587687  0.35198239  1
  O  O35  1  0.01643486  0.50412313  0.85198239  1
  O  O36  1  0.02199749  0.46761251  0.32663397  1
  O  O37  1  0.02199749  0.03238749  0.82663397  1
  O  O38  1  0.08059843  0.23194653  0.72250843  1
  O  O39  1  0.08059843  0.26805347  0.22250843  1
  O  O40  1  0.18586450  0.72414099  0.08040334  1
  O  O41  1  0.18586450  0.77585901  0.58040334  1
  O  O42  1  0.19884156  0.97143829  0.01283306  1
  O  O43  1  0.19884156  0.52856171  0.51283306  1
  O  O44  1  0.22655712  0.00375152  0.71820504  1
  O  O45  1  0.22655712  0.49624848  0.21820504  1
  O  O46  1  0.24306540  0.73421052  0.40525064  1
  O  O47  1  0.24306540  0.76578948  0.90525064  1
  O  O48  1  0.25567987  0.23066585  0.40631722  1
  O  O49  1  0.25567987  0.26933415  0.90631722  1
  O  O50  1  0.27169870  0.99295371  0.21810747  1
  O  O51  1  0.27169870  0.50704629  0.71810747  1
  O  O52  1  0.30482728  0.02749991  0.51528182  1
  O  O53  1  0.30482728  0.47250009  0.01528182  1
  O  O54  1  0.31164647  0.22483642  0.08065143  1
  O  O55  1  0.31164647  0.27516358  0.58065143  1
  O  O56  1  0.41543116  0.76454257  0.22427205  1
  O  O57  1  0.41543116  0.73545743  0.72427205  1
  O  O58  1  0.47909404  0.53509978  0.82569003  1
  O  O59  1  0.47909404  0.96490022  0.32569003  1
  O  O60  1  0.48487410  0.50032644  0.35198791  1
  O  O61  1  0.48487410  0.99967356  0.85198791  1
  O  O62  1  0.50129487  0.20023394  0.47251276  1
  O  O63  1  0.50129487  0.29976606  0.97251276  1
  O  O64  1  0.50020445  0.70315668  0.02572533  1
  O  O65  1  0.50020445  0.79684332  0.52572533  1
  O  O66  1  0.51793398  0.50943537  0.64634910  1
  O  O67  1  0.51793398  0.99056463  0.14634910  1
  O  O68  1  0.52510256  0.47180692  0.17397362  1
  O  O69  1  0.52510256  0.02819308  0.67397362  1
  O  O70  1  0.57883265  0.26889711  0.27954863  1
  O  O71  1  0.57883265  0.23110289  0.77954763  1
  O  O72  1  0.68843678  0.72465212  0.42001168  1
  O  O73  1  0.68843678  0.77534788  0.92001168  1
  O  O74  1  0.69792260  0.52733736  0.98831970  1
  O  O75  1  0.69792260  0.97266264  0.48831970  1
  O  O76  1  0.73030632  0.49179242  0.27868169  1
  O  O77  1  0.73030632  0.00820758  0.77868169  1
  O  O78  1  0.74706129  0.72852435  0.09582721  1
  O  O79  1  0.74706129  0.77147565  0.59582721  1
  O  O80  1  0.76241749  0.23790071  0.09426347  1
  O  O81  1  0.76241749  0.26209929  0.59426347  1
  O  O82  1  0.77046801  0.50742199  0.78164250  1
  O  O83  1  0.77046801  0.99257801  0.28164250  1
  O  O84  1  0.80049241  0.47186361  0.48682320  1
  O  O85  1  0.80049241  0.02813639  0.98682320  1
  O  O86  1  0.81294011  0.22473178  0.41831760  1
  O  O87  1  0.81294011  0.27526822  0.91831760  1
  O  O88  1  0.91830264  0.73391041  0.77728307  1
  O  O89  1  0.91830264  0.76608959  0.27728307  1
  O  O90  1  0.97840265  0.53430112  0.67409034  1
  O  O91  1  0.97840265  0.96569888  0.17409034  1
  O  O92  1  0.98003221  0.00229374  0.64979072  1
  O  O93  1  0.98003221  0.49770626  0.14979072  1
  O  O94  1  0.00388219  0.19804797  0.02257036  1
  O  O95  1  0.00388219  0.30195203  0.52257036  1
