# generated using pymatgen
data_Cs2HfO3
_symmetry_space_group_name_H-M   'P 1'
_cell_length_a   7.20583513
_cell_length_b   15.19509461
_cell_length_c   18.00862394
_cell_angle_alpha   90.00000000
_cell_angle_beta   83.97918244
_cell_angle_gamma   90.00000000
_symmetry_Int_Tables_number   1
_chemical_formula_structural   Cs2HfO3
_chemical_formula_sum   'Cs24 Hf12 O36'
_cell_volume   1960.94762272
_cell_formula_units_Z   12
loop_
 _symmetry_equiv_pos_site_id
 _symmetry_equiv_pos_as_xyz
  1  'x, y, z'
loop_
 _atom_site_type_symbol
 _atom_site_label
 _atom_site_symmetry_multiplicity
 _atom_site_fract_x
 _atom_site_fract_y
 _atom_site_fract_z
 _atom_site_occupancy
  Cs  Cs0  1  0.06293571  0.51027122  0.28323868  1
  Cs  Cs1  1  0.03975586  0.34975696  0.50670477  1
  Cs  Cs2  1  0.24070598  0.58693882  0.03011301  1
  Cs  Cs3  1  0.08005911  0.11013784  0.91613519  1
  Cs  Cs4  1  0.17366148  0.19076411  0.69238713  1
  Cs  Cs5  1  0.25929402  0.08693882  0.46988699  1
  Cs  Cs6  1  0.25038069  0.87607126  0.63307562  1
  Cs  Cs7  1  0.24961931  0.37607126  0.86692438  1
  Cs  Cs8  1  0.43706429  0.01027122  0.21676132  1
  Cs  Cs9  1  0.32633852  0.69076411  0.80761287  1
  Cs  Cs10  1  0.53975586  0.15024304  0.00670477  1
  Cs  Cs11  1  0.41994089  0.61013784  0.58386481  1
  Cs  Cs12  1  0.58005911  0.38986216  0.41613519  1
  Cs  Cs13  1  0.46024414  0.84975696  0.99329523  1
  Cs  Cs14  1  0.67366148  0.30923589  0.19238713  1
  Cs  Cs15  1  0.56293571  0.98972878  0.78323868  1
  Cs  Cs16  1  0.75038069  0.62392874  0.13307562  1
  Cs  Cs17  1  0.74961931  0.12392874  0.36692438  1
  Cs  Cs18  1  0.74070598  0.91306118  0.53011301  1
  Cs  Cs19  1  0.82633852  0.80923589  0.30761287  1
  Cs  Cs20  1  0.91994089  0.88986216  0.08386481  1
  Cs  Cs21  1  0.75929402  0.41306118  0.96988699  1
  Cs  Cs22  1  0.96024414  0.65024304  0.49329523  1
  Cs  Cs23  1  0.93706429  0.48972878  0.71676132  1
  Hf  Hf24  1  0.02559225  0.12583058  0.13328512  1
  Hf  Hf25  1  0.17372250  0.35221790  0.10246704  1
  Hf  Hf26  1  0.18044459  0.25383697  0.28679238  1
  Hf  Hf27  1  0.31955541  0.75383697  0.21320762  1
  Hf  Hf28  1  0.32627750  0.85221790  0.39753296  1
  Hf  Hf29  1  0.47440775  0.62583058  0.36671488  1
  Hf  Hf30  1  0.52559225  0.37416942  0.63328512  1
  Hf  Hf31  1  0.67372250  0.14778210  0.60246704  1
  Hf  Hf32  1  0.68044459  0.24616303  0.78679238  1
  Hf  Hf33  1  0.81955541  0.74616303  0.71320762  1
  Hf  Hf34  1  0.82627750  0.64778210  0.89753296  1
  Hf  Hf35  1  0.97440775  0.87416942  0.86671488  1
  O  O36  1  0.99110057  0.44515923  0.10709225  1
  O  O37  1  0.04568036  0.24038977  0.07742257  1
  O  O38  1  0.09498434  0.14423931  0.23789599  1
  O  O39  1  0.03238685  0.69684977  0.65292291  1
  O  O40  1  0.10722785  0.72884838  0.16026790  1
  O  O41  1  0.19553236  0.04321357  0.08142645  1
  O  O42  1  0.11552471  0.87367200  0.46965644  1
  O  O43  1  0.26310636  0.33846345  0.20415120  1
  O  O44  1  0.23689364  0.83846345  0.29584880  1
  O  O45  1  0.38447529  0.37367200  0.03034356  1
  O  O46  1  0.22922604  0.91179991  0.86292633  1
  O  O47  1  0.30446764  0.54321357  0.41857355  1
  O  O48  1  0.39277215  0.22884838  0.33973210  1
  O  O49  1  0.27077396  0.41179991  0.63707367  1
  O  O50  1  0.40501566  0.64423931  0.26210401  1
  O  O51  1  0.45431964  0.74038977  0.42257743  1
  O  O52  1  0.53238685  0.80315023  0.15292291  1
  O  O53  1  0.50889943  0.94515923  0.39290775  1
  O  O54  1  0.49110057  0.05484077  0.60709225  1
  O  O55  1  0.46761315  0.19684977  0.84707709  1
  O  O56  1  0.54568036  0.25961023  0.57742257  1
  O  O57  1  0.59498434  0.35576069  0.73789599  1
  O  O58  1  0.72922604  0.58820009  0.36292633  1
  O  O59  1  0.60722785  0.77115162  0.66026790  1
  O  O60  1  0.69553236  0.45678643  0.58142645  1
  O  O61  1  0.77077396  0.08820009  0.13707367  1
  O  O62  1  0.61552471  0.62632800  0.96965644  1
  O  O63  1  0.76310636  0.16153655  0.70415120  1
  O  O64  1  0.73689364  0.66153655  0.79584880  1
  O  O65  1  0.88447529  0.12632800  0.53034356  1
  O  O66  1  0.80446764  0.95678643  0.91857355  1
  O  O67  1  0.89277215  0.27115162  0.83973210  1
  O  O68  1  0.96761315  0.30315023  0.34707709  1
  O  O69  1  0.90501566  0.85576069  0.76210401  1
  O  O70  1  0.95431964  0.75961023  0.92257743  1
  O  O71  1  0.00889943  0.55484077  0.89290775  1
