# generated using pymatgen
data_Mg5Ge
_symmetry_space_group_name_H-M   'P 1'
_cell_length_a   3.23409270
_cell_length_b   5.84882762
_cell_length_c   7.45698288
_cell_angle_alpha   75.01667708
_cell_angle_beta   90.00000008
_cell_angle_gamma   106.04984436
_symmetry_Int_Tables_number   1
_chemical_formula_structural   Mg5Ge
_chemical_formula_sum   'Mg5 Ge1'
_cell_volume   130.55816236
_cell_formula_units_Z   1
loop_
 _symmetry_equiv_pos_site_id
 _symmetry_equiv_pos_as_xyz
  1  'x, y, z'
loop_
 _atom_site_type_symbol
 _atom_site_label
 _atom_site_symmetry_multiplicity
 _atom_site_fract_x
 _atom_site_fract_y
 _atom_site_fract_z
 _atom_site_occupancy
  Mg  Mg0  1  0.72071095  0.44141889  0.05315220  1
  Mg  Mg1  1  0.33244174  0.66488348  0.33062816  1
  Mg  Mg2  1  0.04739650  0.09479200  0.40875107  1
  Mg  Mg3  1  0.67811237  0.35622275  0.66655203  1
  Mg  Mg4  1  0.99727614  0.99454928  0.98708871  1
  Ge  Ge5  1  0.39073330  0.78146760  0.72049483  1
