# generated using pymatgen
data_V6O5F19
_symmetry_space_group_name_H-M   'P 1'
_cell_length_a   5.58785376
_cell_length_b   5.39728270
_cell_length_c   14.81960213
_cell_angle_alpha   90.14653890
_cell_angle_beta   100.51945435
_cell_angle_gamma   88.52221898
_symmetry_Int_Tables_number   1
_chemical_formula_structural   V6O5F19
_chemical_formula_sum   'V6 O5 F19'
_cell_volume   439.28866696
_cell_formula_units_Z   1
loop_
 _symmetry_equiv_pos_site_id
 _symmetry_equiv_pos_as_xyz
  1  'x, y, z'
loop_
 _atom_site_type_symbol
 _atom_site_label
 _atom_site_symmetry_multiplicity
 _atom_site_fract_x
 _atom_site_fract_y
 _atom_site_fract_z
 _atom_site_occupancy
  V  V0  1  0.03387199  0.94924342  0.00581411  1
  V  V1  1  0.14854052  0.56032303  0.33917951  1
  V  V2  1  0.31528842  0.99155247  0.66740412  1
  V  V3  1  0.46015872  0.44696902  0.99433257  1
  V  V4  1  0.69224229  0.06535467  0.32709300  1
  V  V5  1  0.77905385  0.46565245  0.66349131  1
  O  O6  1  0.21941214  0.27053292  0.97796207  1
  O  O7  1  0.54048464  0.28836379  0.64462275  1
  O  O8  1  0.28175182  0.76856219  0.02273213  1
  O  O9  1  0.86912514  0.29294039  0.30923252  1
  O  O10  1  0.96321073  0.79260478  0.35596129  1
  F  F11  1  0.01925850  0.20433841  0.64353116  1
  F  F12  1  0.14726858  0.71932043  0.69047437  1
  F  F13  1  0.04443895  0.10030282  0.11258758  1
  F  F14  1  0.20224216  0.39665501  0.44474991  1
  F  F15  1  0.38949907  0.09402963  0.78244785  1
  F  F16  1  0.11939681  0.55765470  0.21856135  1
  F  F17  1  0.30250461  0.93517751  0.54894174  1
  F  F18  1  0.45606760  0.60003245  0.88838391  1
  F  F19  1  0.39031745  0.20939087  0.30854191  1
  F  F20  1  0.69440365  0.22439481  0.97597488  1
  F  F21  1  0.44036493  0.70284438  0.35967744  1
  F  F22  1  0.62409113  0.76939032  0.68933273  1
  F  F23  1  0.55730454  0.44519342  0.11473947  1
  F  F24  1  0.71664578  0.05810491  0.44763159  1
  F  F25  1  0.90028275  0.43033288  0.78106205  1
  F  F26  1  0.62824767  0.90202715  0.22190805  1
  F  F27  1  0.80470319  0.57850697  0.55425025  1
  F  F28  1  0.94712257  0.95162107  0.88502107  1
  F  F29  1  0.81269878  0.72858014  0.02435630  1
