# generated using pymatgen
data_LiMnF3
_symmetry_space_group_name_H-M   'P 1'
_cell_length_a   5.20245481
_cell_length_b   5.20247635
_cell_length_c   4.86105440
_cell_angle_alpha   89.99991553
_cell_angle_beta   89.99998321
_cell_angle_gamma   120.00182148
_symmetry_Int_Tables_number   1
_chemical_formula_structural   LiMnF3
_chemical_formula_sum   'Li2 Mn2 F6'
_cell_volume   113.93878213
_cell_formula_units_Z   2
loop_
 _symmetry_equiv_pos_site_id
 _symmetry_equiv_pos_as_xyz
  1  'x, y, z'
loop_
 _atom_site_type_symbol
 _atom_site_label
 _atom_site_symmetry_multiplicity
 _atom_site_fract_x
 _atom_site_fract_y
 _atom_site_fract_z
 _atom_site_occupancy
  Li  Li0  1  0.99999054  0.00000557  0.42872413  1
  Li  Li1  1  0.99999515  0.99999801  0.92872719  1
  Mn  Mn2  1  0.33332325  0.66666113  0.93384680  1
  Mn  Mn3  1  0.66666550  0.33333144  0.43386383  1
  F  F4  1  0.31072345  0.99929023  0.68191038  1
  F  F5  1  0.00068810  0.31143977  0.68190340  1
  F  F6  1  0.31145329  0.31075799  0.18190607  1
  F  F7  1  0.68852263  0.68924422  0.68190452  1
  F  F8  1  0.99929543  0.68855991  0.18190779  1
  F  F9  1  0.68924266  0.00071272  0.18190588  1
