# generated using pymatgen
data_LiSb(SO4)2
_symmetry_space_group_name_H-M   'P 1'
_cell_length_a   9.81985033
_cell_length_b   9.70459156
_cell_length_c   14.56763163
_cell_angle_alpha   90.00000000
_cell_angle_beta   90.20786235
_cell_angle_gamma   90.00000000
_symmetry_Int_Tables_number   1
_chemical_formula_structural   LiSb(SO4)2
_chemical_formula_sum   'Li8 Sb8 S16 O64'
_cell_volume   1388.25172985
_cell_formula_units_Z   8
loop_
 _symmetry_equiv_pos_site_id
 _symmetry_equiv_pos_as_xyz
  1  'x, y, z'
loop_
 _atom_site_type_symbol
 _atom_site_label
 _atom_site_symmetry_multiplicity
 _atom_site_fract_x
 _atom_site_fract_y
 _atom_site_fract_z
 _atom_site_occupancy
  Li  Li0  1  0.21468385  0.95538398  0.36875524  1
  Li  Li1  1  0.21468385  0.54461602  0.86875524  1
  Li  Li2  1  0.29084399  0.04777088  0.87169198  1
  Li  Li3  1  0.29084399  0.45222912  0.37169198  1
  Li  Li4  1  0.77559763  0.44085449  0.12865878  1
  Li  Li5  1  0.77559763  0.05914551  0.62865878  1
  Li  Li6  1  0.95216134  0.76769683  0.62932167  1
  Li  Li7  1  0.95216134  0.73230317  0.12932167  1
  Sb  Sb8  1  0.13930430  0.11242509  0.12424247  1
  Sb  Sb9  1  0.13930430  0.38757491  0.62424247  1
  Sb  Sb10  1  0.36912951  0.61129575  0.12660331  1
  Sb  Sb11  1  0.36912951  0.88870425  0.62660331  1
  Sb  Sb12  1  0.63911360  0.10050647  0.37171739  1
  Sb  Sb13  1  0.63911360  0.39949353  0.87171739  1
  Sb  Sb14  1  0.85282068  0.59610687  0.38044104  1
  Sb  Sb15  1  0.85282068  0.90389313  0.88044104  1
  S  S16  1  0.06895444  0.06888882  0.73229908  1
  S  S17  1  0.06895444  0.43111118  0.23229908  1
  S  S18  1  0.15495116  0.68826404  0.48669954  1
  S  S19  1  0.15495116  0.81173596  0.98669954  1
  S  S20  1  0.34216779  0.18675790  0.48276222  1
  S  S21  1  0.34216779  0.31324210  0.98276222  1
  S  S22  1  0.42346758  0.92470849  0.23068984  1
  S  S23  1  0.42346758  0.57529151  0.73068984  1
  S  S24  1  0.56981571  0.42446580  0.26836548  1
  S  S25  1  0.56981571  0.07553420  0.76836548  1
  S  S26  1  0.66833340  0.68235614  0.01814590  1
  S  S27  1  0.66833340  0.81764386  0.51814590  1
  S  S28  1  0.84434373  0.18826134  0.01161731  1
  S  S29  1  0.84434373  0.31173866  0.51161731  1
  S  S30  1  0.93048788  0.57760260  0.76828130  1
  S  S31  1  0.93048788  0.92239740  0.26828130  1
  O  O32  1  0.99949641  0.69295944  0.48027322  1
  O  O33  1  0.99949641  0.80704056  0.98027322  1
  O  O34  1  0.02366430  0.97904621  0.33648693  1
  O  O35  1  0.02366430  0.52095379  0.83648693  1
  O  O36  1  0.02249648  0.45692709  0.32933569  1
  O  O37  1  0.02249648  0.04307291  0.82933569  1
  O  O38  1  0.05832122  0.22196471  0.71666080  1
  O  O39  1  0.05832122  0.27803529  0.21666080  1
  O  O40  1  0.18078031  0.74892512  0.07954589  1
  O  O41  1  0.18078031  0.75107488  0.57954589  1
  O  O42  1  0.20126518  0.95871116  0.98776802  1
  O  O43  1  0.20126518  0.54128884  0.48776802  1
  O  O44  1  0.21483463  0.02622535  0.73072671  1
  O  O45  1  0.21483463  0.47377465  0.23072671  1
  O  O46  1  0.21920006  0.76230207  0.41204838  1
  O  O47  1  0.21920006  0.73769793  0.91204838  1
  O  O48  1  0.27758460  0.26123240  0.40709364  1
  O  O49  1  0.27758460  0.23876760  0.90709364  1
  O  O50  1  0.27534166  0.96385396  0.23331648  1
  O  O51  1  0.27534166  0.53614604  0.73331648  1
  O  O52  1  0.29473103  0.04036582  0.48454857  1
  O  O53  1  0.29473103  0.45963418  0.98454857  1
  O  O54  1  0.31037430  0.24929168  0.07446328  1
  O  O55  1  0.31037430  0.25070832  0.57446328  1
  O  O56  1  0.42923253  0.76612791  0.22336329  1
  O  O57  1  0.42923253  0.73387209  0.72336329  1
  O  O58  1  0.47408969  0.54626329  0.82787699  1
  O  O59  1  0.47408969  0.95373671  0.32787699  1
  O  O60  1  0.48315551  0.49188377  0.33559668  1
  O  O61  1  0.48315551  0.00811623  0.83559668  1
  O  O62  1  0.49571067  0.18955212  0.47487469  1
  O  O63  1  0.49571067  0.31044788  0.97487469  1
  O  O64  1  0.51699267  0.69818863  0.03470732  1
  O  O65  1  0.51699267  0.80181137  0.53470732  1
  O  O66  1  0.50043960  0.50808171  0.66056071  1
  O  O67  1  0.50043960  0.99191829  0.16056071  1
  O  O68  1  0.53047689  0.46456640  0.17048337  1
  O  O69  1  0.53047689  0.03543360  0.67048337  1
  O  O70  1  0.56385710  0.27139999  0.27351742  1
  O  O71  1  0.56385710  0.22860001  0.77351742  1
  O  O72  1  0.69206089  0.74531944  0.42931761  1
  O  O73  1  0.69206089  0.75468056  0.92931761  1
  O  O74  1  0.70069290  0.53107254  0.00525764  1
  O  O75  1  0.70069290  0.96892746  0.50525764  1
  O  O76  1  0.71668768  0.46909041  0.27435378  1
  O  O77  1  0.71668768  0.03090959  0.77435378  1
  O  O78  1  0.75027089  0.73433051  0.09406740  1
  O  O79  1  0.75027089  0.76566949  0.59406740  1
  O  O80  1  0.77723516  0.25110429  0.08974073  1
  O  O81  1  0.77723516  0.24889571  0.58974073  1
  O  O82  1  0.78917265  0.52858140  0.78110476  1
  O  O83  1  0.78917265  0.97141860  0.28110476  1
  O  O84  1  0.80113727  0.46010504  0.50102216  1
  O  O85  1  0.80113727  0.03989496  0.00102216  1
  O  O86  1  0.81733773  0.23868972  0.42342808  1
  O  O87  1  0.81733773  0.26131028  0.92342808  1
  O  O88  1  0.93123941  0.73400517  0.76795214  1
  O  O89  1  0.93123941  0.76599483  0.26795214  1
  O  O90  1  0.97407254  0.54201381  0.67065215  1
  O  O91  1  0.97407254  0.95798619  0.17065215  1
  O  O92  1  0.98374282  0.99389569  0.66494683  1
  O  O93  1  0.98374282  0.50610431  0.16494683  1
  O  O94  1  0.99902764  0.19144907  0.02353806  1
  O  O95  1  0.99902764  0.30855093  0.52353806  1
