# generated using pymatgen
data_VOF3
_symmetry_space_group_name_H-M   'P 1'
_cell_length_a   5.62847911
_cell_length_b   5.40026779
_cell_length_c   5.52082109
_cell_angle_alpha   90.00000000
_cell_angle_beta   119.90054207
_cell_angle_gamma   90.00000000
_symmetry_Int_Tables_number   1
_chemical_formula_structural   VOF3
_chemical_formula_sum   'V2 O2 F6'
_cell_volume   145.47053611
_cell_formula_units_Z   2
loop_
 _symmetry_equiv_pos_site_id
 _symmetry_equiv_pos_as_xyz
  1  'x, y, z'
loop_
 _atom_site_type_symbol
 _atom_site_label
 _atom_site_symmetry_multiplicity
 _atom_site_fract_x
 _atom_site_fract_y
 _atom_site_fract_z
 _atom_site_occupancy
  V  V0  1  0.04475476  0.94847041  0.01880841  1
  V  V1  1  0.45524524  0.44847041  0.98119159  1
  O  O2  1  0.31072793  0.78002700  0.06857845  1
  O  O3  1  0.18927207  0.28002700  0.93142155  1
  F  F4  1  0.14909421  0.10313569  0.33893929  1
  F  F5  1  0.84565381  0.72100549  0.07689992  1
  F  F6  1  0.35090579  0.60313569  0.66106071  1
  F  F7  1  0.67214564  0.44736141  0.34702434  1
  F  F8  1  0.82785436  0.94736141  0.65297566  1
  F  F9  1  0.65434619  0.22100549  0.92310008  1
