# generated using pymatgen
data_Li8Fe7Co(PO4)12
_symmetry_space_group_name_H-M   'P 1'
_cell_length_a   8.66337516
_cell_length_b   8.79268724
_cell_length_c   12.22460168
_cell_angle_alpha   90.03181104
_cell_angle_beta   90.00683403
_cell_angle_gamma   89.94156008
_symmetry_Int_Tables_number   1
_chemical_formula_structural   Li8Fe7Co(PO4)12
_chemical_formula_sum   'Li8 Fe7 Co1 P12 O48'
_cell_volume   931.20043069
_cell_formula_units_Z   1
loop_
 _symmetry_equiv_pos_site_id
 _symmetry_equiv_pos_as_xyz
  1  'x, y, z'
loop_
 _atom_site_type_symbol
 _atom_site_label
 _atom_site_symmetry_multiplicity
 _atom_site_fract_x
 _atom_site_fract_y
 _atom_site_fract_z
 _atom_site_occupancy
  Li  Li0  1  0.21722974  0.72214479  0.18126635  1
  Li  Li1  1  0.21737059  0.77763654  0.81866899  1
  Li  Li2  1  0.28221264  0.22215138  0.31907194  1
  Li  Li3  1  0.28304507  0.27777467  0.68121298  1
  Li  Li4  1  0.71690469  0.72229666  0.31879946  1
  Li  Li5  1  0.71728539  0.77716158  0.68131398  1
  Li  Li6  1  0.78308191  0.22204302  0.18115153  1
  Li  Li7  1  0.78266562  0.27816322  0.81842211  1
  Fe  Fe8  1  0.24937230  0.95938192  0.61288942  1
  Fe  Fe9  1  0.24868784  0.54146173  0.38724786  1
  Fe  Fe10  1  0.25086238  0.04105675  0.11282610  1
  Fe  Fe11  1  0.25073484  0.45891868  0.88723312  1
  Fe  Fe12  1  0.74945663  0.54084905  0.11233761  1
  Fe  Fe13  1  0.74910524  0.95942855  0.88733584  1
  Fe  Fe14  1  0.75045242  0.04094576  0.38721856  1
  Co  Co15  1  0.75207662  0.45851803  0.61157465  1
  P  P16  1  0.03769772  0.25061484  0.49982378  1
  P  P17  1  0.46042565  0.75000805  -0.00002330  1
  P  P18  1  0.53982137  0.24998961  0.00014304  1
  P  P19  1  0.96038578  0.74928871  0.49967930  1
  P  P20  1  0.10593952  0.39312891  0.14710639  1
  P  P21  1  0.10609849  0.10684169  0.85286805  1
  P  P22  1  0.39585849  0.60483037  0.64652148  1
  P  P23  1  0.39412432  0.89304510  0.35306188  1
  P  P24  1  0.60586889  0.10737692  0.64628690  1
  P  P25  1  0.60613849  0.39252287  0.35359012  1
  P  P26  1  0.89447435  0.60692564  0.85189229  1
  P  P27  1  0.89403274  0.89299646  0.14711473  1
  O  O28  1  0.05618923  0.64213085  0.42886710  1
  O  O29  1  0.05577030  0.85673408  0.57138979  1
  O  O30  1  0.07292718  0.89542499  0.15592485  1
  O  O31  1  0.07325896  0.60423327  0.84339242  1
  O  O32  1  0.14533297  0.16412535  0.58052658  1
  O  O33  1  0.14641281  0.33879734  0.42146215  1
  O  O34  1  0.15640020  0.43382034  0.03069523  1
  O  O35  1  0.15651850  0.06624181  0.96933896  1
  O  O36  1  0.16238919  0.23232736  0.18013599  1
  O  O37  1  0.16255830  0.26752562  0.81995575  1
  O  O38  1  0.17454303  0.51392455  0.22590445  1
  O  O39  1  0.17460731  0.98563600  0.77405475  1
  O  O40  1  0.32564420  0.01408262  0.27419129  1
  O  O41  1  0.32663749  0.48545345  0.72588304  1
  O  O42  1  0.34042004  0.76676261  0.68002175  1
  O  O43  1  0.33764890  0.73237964  0.32002044  1
  O  O44  1  0.34459392  0.56582767  0.53025541  1
  O  O45  1  0.34317081  0.93404429  0.46959169  1
  O  O46  1  0.35204061  0.83761090  0.07936666  1
  O  O47  1  0.35207237  0.66234981  0.92077043  1
  O  O48  1  0.42719024  0.10536327  0.65598221  1
  O  O49  1  0.42744582  0.39539656  0.34472862  1
  O  O50  1  0.44340509  0.14268627  0.07116900  1
  O  O51  1  0.44344714  0.35742577  0.92886852  1
  O  O52  1  0.55687096  0.64256599  0.07120558  1
  O  O53  1  0.55669287  0.85718258  0.92883553  1
  O  O54  1  0.57560459  0.60215939  0.65538773  1
  O  O55  1  0.57296423  0.89556948  0.34409267  1
  O  O56  1  0.64794983  0.33781796  0.07937904  1
  O  O57  1  0.64801584  0.16236717  0.92059698  1
  O  O58  1  0.65651018  0.06652457  0.53037592  1
  O  O59  1  0.65624663  0.43461507  0.47029116  1
  O  O60  1  0.66275191  0.23237182  0.31994203  1
  O  O61  1  0.66316287  0.26948007  0.67975953  1
  O  O62  1  0.67354646  0.51414374  0.27480276  1
  O  O63  1  0.67464214  0.98721427  0.72570859  1
  O  O64  1  0.82569097  0.01378237  0.22600465  1
  O  O65  1  0.82504821  0.48554088  0.77365201  1
  O  O66  1  0.83738102  0.73209376  0.17993703  1
  O  O67  1  0.83736778  0.76784834  0.81960561  1
  O  O68  1  0.84373689  0.56592121  0.96829486  1
  O  O69  1  0.84331977  0.93364652  0.03070407  1
  O  O70  1  0.85114297  0.66175007  0.58020711  1
  O  O71  1  0.85176521  0.83734707  0.42092152  1
  O  O72  1  0.92705580  0.10437007  0.84406669  1
  O  O73  1  0.92690588  0.39593264  0.15608821  1
  O  O74  1  0.94251567  0.14283262  0.42898384  1
  O  O75  1  0.94108001  0.35911641  0.57202261  1
