# generated using pymatgen
data_Li24TiCr11O36
_symmetry_space_group_name_H-M   'P 1'
_cell_length_a   8.74853065
_cell_length_b   8.71956380
_cell_length_c   10.60670400
_cell_angle_alpha   114.27019978
_cell_angle_beta   97.44078827
_cell_angle_gamma   60.10946308
_symmetry_Int_Tables_number   1
_chemical_formula_structural   Li24TiCr11O36
_chemical_formula_sum   'Li24 Ti1 Cr11 O36'
_cell_volume   636.57467525
_cell_formula_units_Z   1
loop_
 _symmetry_equiv_pos_site_id
 _symmetry_equiv_pos_as_xyz
  1  'x, y, z'
loop_
 _atom_site_type_symbol
 _atom_site_label
 _atom_site_symmetry_multiplicity
 _atom_site_fract_x
 _atom_site_fract_y
 _atom_site_fract_z
 _atom_site_occupancy
  Li  Li0  1  0.16415040  0.00861411  0.99979119  1
  Li  Li1  1  0.08418107  0.08224556  0.75000242  1
  Li  Li2  1  0.99963599  0.49873905  0.50084506  1
  Li  Li3  1  0.33367780  0.17035042  0.49996067  1
  Li  Li4  1  0.25080679  0.25096420  0.24810083  1
  Li  Li5  1  0.49965520  0.33740055  0.00003933  1
  Li  Li6  1  0.17157073  0.32514101  0.00116452  1
  Li  Li7  1  0.50066579  0.00061640  0.99913317  1
  Li  Li8  1  0.41666700  0.41595030  0.75000000  1
  Li  Li9  1  0.32990596  0.49657782  0.49939242  1
  Li  Li10  1  0.66847979  0.16256273  0.49836283  1
  Li  Li11  1  0.00309629  0.83968399  0.50106445  1
  Li  Li12  1  0.16485321  0.66601169  0.00163717  1
  Li  Li13  1  0.00004403  0.16045061  0.50132201  1
  Li  Li14  1  0.33266721  0.83548302  0.50086683  1
  Li  Li15  1  0.66918260  0.50630632  0.50020881  1
  Li  Li16  1  0.58252721  0.58700316  0.25189917  1
  Li  Li17  1  0.83023671  0.67504883  0.99893555  1
  Li  Li18  1  0.50342704  0.66042436  0.00060758  1
  Li  Li19  1  0.83369801  0.33086299  0.99915494  1
  Li  Li20  1  0.74915193  0.74975722  0.74999758  1
  Li  Li21  1  0.66176327  0.82888022  0.49883548  1
  Li  Li22  1  0.91666700  0.91689226  0.25000000  1
  Li  Li23  1  0.83328997  0.99250563  0.99867799  1
  Ti  Ti24  1  0.91666700  0.58409663  0.25000000  1
  Cr  Cr25  1  0.07657732  0.41454610  0.74978277  1
  Cr  Cr26  1  0.41666700  0.08871529  0.75000000  1
  Cr  Cr27  1  0.09047762  0.74229394  0.74958989  1
  Cr  Cr28  1  0.75675568  0.07467465  0.75021723  1
  Cr  Cr29  1  0.25277896  0.58205599  0.24758097  1
  Cr  Cr30  1  0.58498380  0.24983507  0.24378194  1
  Cr  Cr31  1  0.41666700  0.75351068  0.75000000  1
  Cr  Cr32  1  0.74285538  0.41651467  0.75041011  1
  Cr  Cr33  1  0.24834920  0.92436993  0.25621806  1
  Cr  Cr34  1  0.91666700  0.24519707  0.25000000  1
  Cr  Cr35  1  0.58055504  0.92058797  0.25241903  1
  O  O36  1  0.30870698  0.02844698  0.86431100  1
  O  O37  1  0.21154649  0.14622280  0.63754251  1
  O  O38  1  0.12236073  0.19157545  0.36364604  1
  O  O39  1  0.28686189  0.35556307  0.86188863  1
  O  O40  1  0.02432200  0.30285528  0.13472426  1
  O  O41  1  0.62178651  0.05356078  0.86245749  1
  O  O42  1  0.19097528  0.47462189  0.63555555  1
  O  O43  1  0.54647111  0.11386933  0.63811137  1
  O  O44  1  0.12054349  0.55113842  0.36264658  1
  O  O45  1  0.47700874  0.19093615  0.36199999  1
  O  O46  1  0.95289841  0.02448720  0.86205960  1
  O  O47  1  0.05140145  0.61605593  0.13682859  1
  O  O48  1  0.28035165  0.72025675  0.86297011  1
  O  O49  1  0.64235872  0.36337462  0.86444445  1
  O  O50  1  0.38081434  0.30236695  0.13422712  1
  O  O51  1  0.21975379  0.78449394  0.63794187  1
  O  O52  1  0.85455980  0.13615755  0.63549992  1
  O  O53  1  0.55298135  0.47097129  0.63702989  1
  O  O54  1  0.44870031  0.52288039  0.36012146  1
  O  O55  1  0.14092330  0.86664308  0.36599925  1
  O  O56  1  0.78858167  0.21849248  0.36181682  1
  O  O57  1  0.61357921  0.69963887  0.86205813  1
  O  O58  1  0.35632426  0.63927890  0.13800001  1
  O  O59  1  0.71097327  0.28362314  0.13635396  1
  O  O60  1  0.94613057  0.38693584  0.86178632  1
  O  O61  1  0.04475233  0.97859133  0.13818318  1
  O  O62  1  0.52462702  0.80617495  0.63568900  1
  O  O63  1  0.88043559  0.44865901  0.63794040  1
  O  O64  1  0.45251866  0.88228817  0.36577288  1
  O  O65  1  0.80901100  0.52578703  0.36527574  1
  O  O66  1  0.38463269  0.94479224  0.13987854  1
  O  O67  1  0.97877420  0.68855044  0.86450008  1
  O  O68  1  0.71279051  0.64236733  0.13735342  1
  O  O69  1  0.88720243  0.80461409  0.63821368  1
  O  O70  1  0.78193155  0.86396178  0.36317141  1
  O  O71  1  0.69240970  0.97490112  0.13400075  1
