# generated using pymatgen
data_Li8Mn7V(PO4)12
_symmetry_space_group_name_H-M   'P 1'
_cell_length_a   8.54867800
_cell_length_b   8.82444723
_cell_length_c   12.06812562
_cell_angle_alpha   90.32846406
_cell_angle_beta   90.19678755
_cell_angle_gamma   90.55371876
_symmetry_Int_Tables_number   1
_chemical_formula_structural   Li8Mn7V(PO4)12
_chemical_formula_sum   'Li8 Mn7 V1 P12 O48'
_cell_volume   910.32449438
_cell_formula_units_Z   1
loop_
 _symmetry_equiv_pos_site_id
 _symmetry_equiv_pos_as_xyz
  1  'x, y, z'
loop_
 _atom_site_type_symbol
 _atom_site_label
 _atom_site_symmetry_multiplicity
 _atom_site_fract_x
 _atom_site_fract_y
 _atom_site_fract_z
 _atom_site_occupancy
  Li  Li0  1  0.21586880  0.72262595  0.18179524  1
  Li  Li1  1  0.21931752  0.77820661  0.81804434  1
  Li  Li2  1  0.28066268  0.22448333  0.31824498  1
  Li  Li3  1  0.28149759  0.27715758  0.68129690  1
  Li  Li4  1  0.71644351  0.72731272  0.31621212  1
  Li  Li5  1  0.71520891  0.78132910  0.68061834  1
  Li  Li6  1  0.78161305  0.22323029  0.18263867  1
  Li  Li7  1  0.78441548  0.27932903  0.82236207  1
  Mn  Mn8  1  0.25039930  0.96346743  0.61501415  1
  Mn  Mn9  1  0.25056437  0.53753462  0.38741238  1
  Mn  Mn10  1  0.25133645  0.03675411  0.11303770  1
  Mn  Mn11  1  0.25302707  0.46228229  0.88752899  1
  Mn  Mn12  1  0.74916702  0.53782524  0.11250752  1
  Mn  Mn13  1  0.75006044  0.96450444  0.88642849  1
  Mn  Mn14  1  0.74815308  0.03550715  0.38609548  1
  V  V15  1  0.75568982  0.46247060  0.61197890  1
  P  P16  1  0.03540724  0.24724433  0.49713616  1
  P  P17  1  0.10488015  0.39574265  0.14425300  1
  P  P18  1  0.10692667  0.10561516  0.85411811  1
  P  P19  1  0.39675681  0.60240627  0.65049196  1
  P  P20  1  0.39334289  0.89750816  0.35308702  1
  P  P21  1  0.46632387  0.74950382  0.00071654  1
  P  P22  1  0.53403173  0.25167304  0.00103327  1
  P  P23  1  0.60268408  0.39706739  0.35384432  1
  P  P24  1  0.60548973  0.10700822  0.64696645  1
  P  P25  1  0.89833847  0.60580977  0.84939675  1
  P  P26  1  0.89424245  0.89642557  0.14512795  1
  P  P27  1  0.96766111  0.74580489  0.49912898  1
  O  O28  1  0.06166507  0.63735753  0.42685801  1
  O  O29  1  0.05963482  0.85004981  0.57726886  1
  O  O30  1  0.07704827  0.89825161  0.15553601  1
  O  O31  1  0.07965207  0.60137089  0.83807307  1
  O  O32  1  0.13371184  0.17059881  0.58526412  1
  O  O33  1  0.13820352  0.33516938  0.41658899  1
  O  O34  1  0.15333099  0.43603347  0.02558976  1
  O  O35  1  0.15649551  0.06177476  0.97149008  1
  O  O36  1  0.15678305  0.23313354  0.17771735  1
  O  O37  1  0.16034333  0.26859459  0.82183511  1
  O  O38  1  0.17820477  0.51474180  0.22273084  1
  O  O39  1  0.17815662  0.98646157  0.77419408  1
  O  O40  1  0.32177675  0.01867553  0.27356565  1
  O  O41  1  0.32718609  0.47985534  0.72984063  1
  O  O42  1  0.35095193  0.76187408  0.68517816  1
  O  O43  1  0.34084096  0.73752643  0.31935495  1
  O  O44  1  0.34644782  0.55853773  0.53400369  1
  O  O45  1  0.34332429  0.94110446  0.47045591  1
  O  O46  1  0.35754426  0.83751055  0.08233116  1
  O  O47  1  0.35491727  0.65955495  0.91997899  1
  O  O48  1  0.42471817  0.10849810  0.65838843  1
  O  O49  1  0.42150656  0.39883814  0.34811118  1
  O  O50  1  0.43872325  0.14305368  0.07506729  1
  O  O51  1  0.43917778  0.35788428  0.92547266  1
  O  O52  1  0.56024961  0.64288766  0.07434668  1
  O  O53  1  0.55861713  0.85586492  0.92553534  1
  O  O54  1  0.58099091  0.59185835  0.65784883  1
  O  O55  1  0.57502313  0.90088077  0.34298197  1
  O  O56  1  0.63946869  0.33906485  0.08450779  1
  O  O57  1  0.63999389  0.16831854  0.91910548  1
  O  O58  1  0.65451778  0.06226447  0.53113750  1
  O  O59  1  0.65463804  0.43130851  0.47885776  1
  O  O60  1  0.65566686  0.23930696  0.32086287  1
  O  O61  1  0.66425921  0.27213867  0.67689591  1
  O  O62  1  0.67524562  0.52167797  0.28400220  1
  O  O63  1  0.67770761  0.99024093  0.72773030  1
  O  O64  1  0.82421895  0.01540158  0.22491472  1
  O  O65  1  0.82945522  0.48314877  0.76448962  1
  O  O66  1  0.84266697  0.73454997  0.17798461  1
  O  O67  1  0.84425019  0.76304508  0.81446242  1
  O  O68  1  0.84472814  0.55787814  0.96258054  1
  O  O69  1  0.84627913  0.93709879  0.02720871  1
  O  O70  1  0.85449881  0.64944932  0.57942742  1
  O  O71  1  0.85382240  0.82764740  0.42354063  1
  O  O72  1  0.92587469  0.10446130  0.84348980  1
  O  O73  1  0.92318902  0.39890965  0.15443894  1
  O  O74  1  0.93629927  0.13884670  0.42706624  1
  O  O75  1  0.92848049  0.36146790  0.56517397  1
