# generated using pymatgen
data_LiMnP2O7
_symmetry_space_group_name_H-M   'P 1'
_cell_length_a   4.96443383
_cell_length_b   6.82292940
_cell_length_c   8.12890225
_cell_angle_alpha   91.82392753
_cell_angle_beta   93.14232784
_cell_angle_gamma   104.74421927
_symmetry_Int_Tables_number   1
_chemical_formula_structural   LiMnP2O7
_chemical_formula_sum   'Li2 Mn2 P4 O14'
_cell_volume   265.57613762
_cell_formula_units_Z   2
loop_
 _symmetry_equiv_pos_site_id
 _symmetry_equiv_pos_as_xyz
  1  'x, y, z'
loop_
 _atom_site_type_symbol
 _atom_site_label
 _atom_site_symmetry_multiplicity
 _atom_site_fract_x
 _atom_site_fract_y
 _atom_site_fract_z
 _atom_site_occupancy
  Li  Li0  1  0.58442856  0.58846722  0.90031776  1
  Li  Li1  1  0.06030530  0.96787183  0.43761959  1
  Mn  Mn2  1  0.49819176  0.49654765  0.49875380  1
  Mn  Mn3  1  0.00914488  0.01231589  0.99989003  1
  P  P4  1  0.54171621  0.15032011  0.77200899  1
  P  P5  1  0.13359406  0.74807913  0.69623169  1
  P  P6  1  0.86758151  0.25285689  0.30153762  1
  P  P7  1  0.45808831  0.84560417  0.22659254  1
  O  O8  1  0.39273911  0.19761983  0.91964458  1
  O  O9  1  0.02788603  0.75515872  0.87094355  1
  O  O10  1  0.79705087  0.06692496  0.80814546  1
  O  O11  1  0.33156535  0.60625018  0.69354229  1
  O  O12  1  0.62731490  0.33021103  0.66079866  1
  O  O13  1  0.32299566  0.97352433  0.65557977  1
  O  O14  1  0.90846463  0.71659970  0.55746148  1
  O  O15  1  0.10857756  0.27125926  0.43005273  1
  O  O16  1  0.68471901  0.02120574  0.33829070  1
  O  O17  1  0.37439904  0.67676291  0.34701732  1
  O  O18  1  0.68045871  0.39696207  0.31897593  1
  O  O19  1  0.19945519  0.93125815  0.19637046  1
  O  O20  1  0.94359670  0.24609522  0.12117198  1
  O  O21  1  0.59665265  0.79879200  0.07419809  1
