# generated using pymatgen
data_NiH20S2(NO7)2
_symmetry_space_group_name_H-M   'P 1'
_cell_length_a   6.54334163
_cell_length_b   9.13660402
_cell_length_c   12.80656658
_cell_angle_alpha   90.00000000
_cell_angle_beta   90.00000000
_cell_angle_gamma   108.45781271
_symmetry_Int_Tables_number   1
_chemical_formula_structural   NiH20S2(NO7)2
_chemical_formula_sum   'Ni2 H40 S4 N4 O28'
_cell_volume   726.24065751
_cell_formula_units_Z   2
loop_
 _symmetry_equiv_pos_site_id
 _symmetry_equiv_pos_as_xyz
  1  'x, y, z'
loop_
 _atom_site_type_symbol
 _atom_site_label
 _atom_site_symmetry_multiplicity
 _atom_site_fract_x
 _atom_site_fract_y
 _atom_site_fract_z
 _atom_site_occupancy
  Ni  Ni0  1  -0.00000000  -0.00000000  0.00000000  1
  Ni  Ni1  1  -0.00000000  0.50000000  0.50000000  1
  H  H2  1  0.69340626  0.61209627  0.55209463  1
  H  H3  1  0.30659374  0.88790373  0.05209463  1
  H  H4  1  0.30659374  0.38790373  0.44790537  1
  H  H5  1  0.69340626  0.11209627  0.94790537  1
  H  H6  1  0.65143014  0.00985275  0.04595913  1
  H  H7  1  0.34856986  0.49014725  0.54595913  1
  H  H8  1  0.34856986  0.99014725  0.95404087  1
  H  H9  1  0.65143014  0.50985275  0.45404087  1
  H  H10  1  0.30590492  0.73170547  0.59002288  1
  H  H11  1  0.69409508  0.76829453  0.09002288  1
  H  H12  1  0.69409508  0.26829453  0.40997712  1
  H  H13  1  0.30590492  0.23170547  0.90997712  1
  H  H14  1  0.08514739  0.75684919  0.62560260  1
  H  H15  1  0.91485261  0.74315081  0.12560260  1
  H  H16  1  0.91485261  0.24315081  0.37439740  1
  H  H17  1  0.08514739  0.25684919  0.87439740  1
  H  H18  1  0.96688830  0.86222622  0.80897092  1
  H  H19  1  0.03311170  0.63777378  0.30897092  1
  H  H20  1  0.03311170  0.13777378  0.19102908  1
  H  H21  1  0.96688830  0.36222622  0.69102908  1
  H  H22  1  0.92011116  0.73069268  0.89608136  1
  H  H23  1  0.07988884  0.76930732  0.39608136  1
  H  H24  1  0.07988884  0.26930732  0.10391864  1
  H  H25  1  0.92011116  0.23069268  0.60391864  1
  H  H26  1  0.47272432  0.57750687  0.84704523  1
  H  H27  1  0.52727568  0.92249313  0.34704523  1
  H  H28  1  0.52727568  0.42249313  0.15295477  1
  H  H29  1  0.47272432  0.07750687  0.65295477  1
  H  H30  1  0.42017191  0.73500628  0.80366577  1
  H  H31  1  0.57982809  0.76499372  0.30366577  1
  H  H32  1  0.57982809  0.26499372  0.19633423  1
  H  H33  1  0.42017191  0.23500628  0.69633423  1
  H  H34  1  0.21369364  0.56842100  0.83302727  1
  H  H35  1  0.78630636  0.93157900  0.33302727  1
  H  H36  1  0.78630636  0.43157900  0.16697273  1
  H  H37  1  0.21369364  0.06842100  0.66697273  1
  H  H38  1  0.36368784  0.67531598  0.93067123  1
  H  H39  1  0.63631216  0.82468402  0.43067123  1
  H  H40  1  0.63631216  0.32468402  0.06932877  1
  H  H41  1  0.36368784  0.17531598  0.56932877  1
  S  S42  1  0.73505029  0.40450452  0.86169627  1
  S  S43  1  0.26494971  0.09549548  0.36169627  1
  S  S44  1  0.26494971  0.59549548  0.13830373  1
  S  S45  1  0.73505029  0.90450452  0.63830373  1
  N  N46  1  0.36604063  0.63976993  0.85314290  1
  N  N47  1  0.63395937  0.86023007  0.35314290  1
  N  N48  1  0.63395937  0.36023007  0.14685710  1
  N  N49  1  0.36604063  0.13976993  0.64685710  1
  O  O50  1  0.94317400  0.38661958  0.82258686  1
  O  O51  1  0.05682600  0.11338042  0.32258686  1
  O  O52  1  0.05682600  0.61338042  0.17741314  1
  O  O53  1  0.94317400  0.88661958  0.67741314  1
  O  O54  1  0.58790799  0.40467346  0.77385163  1
  O  O55  1  0.41209201  0.09532654  0.27385163  1
  O  O56  1  0.41209201  0.59532654  0.22614837  1
  O  O57  1  0.58790799  0.90467346  0.72614837  1
  O  O58  1  0.77858137  0.54808618  0.92389831  1
  O  O59  1  0.22141863  0.95191382  0.42389831  1
  O  O60  1  0.22141863  0.45191382  0.07610169  1
  O  O61  1  0.77858137  0.04808618  0.57610169  1
  O  O62  1  0.62632172  0.26958383  0.93269769  1
  O  O63  1  0.37367828  0.23041617  0.43269769  1
  O  O64  1  0.37367828  0.73041617  0.06730231  1
  O  O65  1  0.62632172  0.76958383  0.56730231  1
  O  O66  1  0.69985163  0.50968312  0.52629094  1
  O  O67  1  0.30014837  0.99031688  0.02629094  1
  O  O68  1  0.30014837  0.49031688  0.47370906  1
  O  O69  1  0.69985163  0.00968312  0.97370906  1
  O  O70  1  0.15394049  0.67799698  0.60698710  1
  O  O71  1  0.84605951  0.82200302  0.10698710  1
  O  O72  1  0.84605951  0.32200302  0.39301290  1
  O  O73  1  0.15394049  0.17799698  0.89301290  1
  O  O74  1  0.00154075  0.84115262  0.88200403  1
  O  O75  1  0.99845925  0.65884738  0.38200403  1
  O  O76  1  0.99845925  0.15884738  0.11799597  1
  O  O77  1  0.00154075  0.34115262  0.61799597  1
