# generated using pymatgen
data_Li2CuF5
_symmetry_space_group_name_H-M   'P 1'
_cell_length_a   7.66990319
_cell_length_b   4.99128505
_cell_length_c   9.89939519
_cell_angle_alpha   90.00000000
_cell_angle_beta   109.89910427
_cell_angle_gamma   90.00000000
_symmetry_Int_Tables_number   1
_chemical_formula_structural   Li2CuF5
_chemical_formula_sum   'Li8 Cu4 F20'
_cell_volume   356.34800138
_cell_formula_units_Z   4
loop_
 _symmetry_equiv_pos_site_id
 _symmetry_equiv_pos_as_xyz
  1  'x, y, z'
loop_
 _atom_site_type_symbol
 _atom_site_label
 _atom_site_symmetry_multiplicity
 _atom_site_fract_x
 _atom_site_fract_y
 _atom_site_fract_z
 _atom_site_occupancy
  Li  Li0  1  0.10267795  0.51576535  0.87315926  1
  Li  Li1  1  0.10267795  0.98423465  0.37315926  1
  Li  Li2  1  0.34357784  0.01344357  0.67483451  1
  Li  Li3  1  0.34357784  0.48655643  0.17483451  1
  Li  Li4  1  0.65642216  0.51344357  0.82516549  1
  Li  Li5  1  0.65642216  0.98655643  0.32516549  1
  Li  Li6  1  0.89732205  0.01576535  0.62684074  1
  Li  Li7  1  0.89732205  0.48423465  0.12684074  1
  Cu  Cu8  1  0.00000000  0.50000000  0.50000000  1
  Cu  Cu9  1  0.00000000  0.00000000  0.00000000  1
  Cu  Cu10  1  0.50000000  0.50000000  0.50000000  1
  Cu  Cu11  1  0.50000000  0.00000000  0.00000000  1
  F  F12  1  0.03752805  0.35043129  0.68722067  1
  F  F13  1  0.12795597  0.82207863  0.57662864  1
  F  F14  1  0.03752805  0.14956871  0.18722067  1
  F  F15  1  0.36706237  0.75266640  0.87581985  1
  F  F16  1  0.22718132  0.30056668  0.50752505  1
  F  F17  1  0.12795597  0.67792137  0.07662864  1
  F  F18  1  0.48107468  0.21460263  0.84692964  1
  F  F19  1  0.36706237  0.74733360  0.37581985  1
  F  F20  1  0.22718132  0.19943332  0.00752505  1
  F  F21  1  0.51892532  0.71460263  0.65307036  1
  F  F22  1  0.48107468  0.28539737  0.34692964  1
  F  F23  1  0.77281868  0.80056668  0.99247495  1
  F  F24  1  0.63293763  0.25266640  0.62418015  1
  F  F25  1  0.51892532  0.78539737  0.15307036  1
  F  F26  1  0.87204403  0.32207863  0.92337136  1
  F  F27  1  0.77281868  0.69943332  0.49247495  1
  F  F28  1  0.63293763  0.24733360  0.12418015  1
  F  F29  1  0.96247195  0.85043129  0.81277933  1
  F  F30  1  0.87204403  0.17792137  0.42337136  1
  F  F31  1  0.96247195  0.64956871  0.31277933  1
