# generated using pymatgen
data_Fe6OF11
_symmetry_space_group_name_H-M   'P 1'
_cell_length_a   10.81910740
_cell_length_b   6.79221124
_cell_length_c   3.25262795
_cell_angle_alpha   89.92454989
_cell_angle_beta   89.98649019
_cell_angle_gamma   71.74649036
_symmetry_Int_Tables_number   1
_chemical_formula_structural   Fe6OF11
_chemical_formula_sum   'Fe6 O1 F11'
_cell_volume   226.99374352
_cell_formula_units_Z   1
loop_
 _symmetry_equiv_pos_site_id
 _symmetry_equiv_pos_as_xyz
  1  'x, y, z'
loop_
 _atom_site_type_symbol
 _atom_site_label
 _atom_site_symmetry_multiplicity
 _atom_site_fract_x
 _atom_site_fract_y
 _atom_site_fract_z
 _atom_site_occupancy
  Fe  Fe0  1  0.00078475  0.01154070  0.99559374  1
  Fe  Fe1  1  0.00013897  0.47210179  0.49488989  1
  Fe  Fe2  1  0.33298007  0.33467182  0.99860733  1
  Fe  Fe3  1  0.66750073  0.16602427  0.49886192  1
  Fe  Fe4  1  0.33414369  0.83342313  0.50000201  1
  Fe  Fe5  1  0.66807506  0.66683014  0.99807892  1
  O  O6  1  0.99954180  0.31436165  0.99597649  1
  F  F7  1  0.33588039  0.03512951  0.99931713  1
  F  F8  1  0.00116936  0.69392700  0.00102899  1
  F  F9  1  0.19590930  0.40749507  0.49824591  1
  F  F10  1  0.46766153  0.26746495  0.49903830  1
  F  F11  1  0.13628493  0.92796574  0.49675272  1
  F  F12  1  0.33630667  0.63096406  0.00005979  1
  F  F13  1  0.66602693  0.36970218  0.99785790  1
  F  F14  1  0.86547681  0.06213820  0.49567588  1
  F  F15  1  0.53373375  0.73486050  0.49820406  1
  F  F16  1  0.80478830  0.60546461  0.49811046  1
  F  F17  1  0.66564996  0.96608767  0.99928156  1
