# generated using pymatgen
data_Na5Mn2O8
_symmetry_space_group_name_H-M   'P 1'
_cell_length_a   10.63065432
_cell_length_b   15.13637482
_cell_length_c   10.48284117
_cell_angle_alpha   90.00000000
_cell_angle_beta   90.00000000
_cell_angle_gamma   90.00000000
_symmetry_Int_Tables_number   1
_chemical_formula_structural   Na5Mn2O8
_chemical_formula_sum   'Na40 Mn16 O64'
_cell_volume   1686.78944795
_cell_formula_units_Z   8
loop_
 _symmetry_equiv_pos_site_id
 _symmetry_equiv_pos_as_xyz
  1  'x, y, z'
loop_
 _atom_site_type_symbol
 _atom_site_label
 _atom_site_symmetry_multiplicity
 _atom_site_fract_x
 _atom_site_fract_y
 _atom_site_fract_z
 _atom_site_occupancy
  Na  Na0  1  0.00352512  0.50369785  0.79640065  1
  Na  Na1  1  0.00352512  0.99630215  0.79640065  1
  Na  Na2  1  0.01057554  0.11276605  0.52014417  1
  Na  Na3  1  0.01057554  0.38723395  0.52014417  1
  Na  Na4  1  0.18440944  0.75000000  0.99390362  1
  Na  Na5  1  0.24501111  0.75000000  0.56518396  1
  Na  Na6  1  0.24218101  0.63795031  0.28043879  1
  Na  Na7  1  0.24218101  0.86204969  0.28043879  1
  Na  Na8  1  0.24404593  0.60334294  0.75835428  1
  Na  Na9  1  0.24404593  0.89665706  0.75835428  1
  Na  Na10  1  0.25595407  0.10334294  0.25835428  1
  Na  Na11  1  0.25595407  0.39665706  0.25835428  1
  Na  Na12  1  0.25781899  0.13795031  0.78043879  1
  Na  Na13  1  0.25781899  0.36204969  0.78043879  1
  Na  Na14  1  0.25498889  0.25000000  0.06518396  1
  Na  Na15  1  0.31559056  0.25000000  0.49390362  1
  Na  Na16  1  0.48942446  0.61276605  0.02014417  1
  Na  Na17  1  0.48942446  0.88723395  0.02014417  1
  Na  Na18  1  0.49647488  0.00369785  0.29640065  1
  Na  Na19  1  0.49647488  0.49630215  0.29640065  1
  Na  Na20  1  0.50352512  0.50369785  0.70359935  1
  Na  Na21  1  0.50352512  0.99630215  0.70359935  1
  Na  Na22  1  0.51057554  0.11276605  0.97985583  1
  Na  Na23  1  0.51057554  0.38723395  0.97985583  1
  Na  Na24  1  0.68440944  0.75000000  0.50609638  1
  Na  Na25  1  0.74501111  0.75000000  0.93481604  1
  Na  Na26  1  0.74218101  0.63795031  0.21956121  1
  Na  Na27  1  0.74218101  0.86204969  0.21956121  1
  Na  Na28  1  0.74404593  0.60334294  0.74164572  1
  Na  Na29  1  0.74404593  0.89665706  0.74164572  1
  Na  Na30  1  0.75595407  0.10334294  0.24164572  1
  Na  Na31  1  0.75595407  0.39665706  0.24164572  1
  Na  Na32  1  0.75781899  0.13795031  0.71956121  1
  Na  Na33  1  0.75781899  0.36204969  0.71956121  1
  Na  Na34  1  0.75498889  0.25000000  0.43481604  1
  Na  Na35  1  0.81559056  0.25000000  0.00609638  1
  Na  Na36  1  0.98942446  0.61276605  0.47985583  1
  Na  Na37  1  0.98942446  0.88723395  0.47985583  1
  Na  Na38  1  0.99647488  0.00369785  0.20359935  1
  Na  Na39  1  0.99647488  0.49630215  0.20359935  1
  Mn  Mn40  1  0.00508428  0.25000000  0.72599760  1
  Mn  Mn41  1  0.02262024  0.25000000  0.25726637  1
  Mn  Mn42  1  0.25291901  0.00104319  0.00674643  1
  Mn  Mn43  1  0.25291901  0.49895681  0.00674643  1
  Mn  Mn44  1  0.24708099  0.50104319  0.50674643  1
  Mn  Mn45  1  0.24708099  0.99895681  0.50674643  1
  Mn  Mn46  1  0.47737976  0.75000000  0.75726637  1
  Mn  Mn47  1  0.49491572  0.75000000  0.22599760  1
  Mn  Mn48  1  0.50508428  0.25000000  0.77400240  1
  Mn  Mn49  1  0.52262024  0.25000000  0.24273363  1
  Mn  Mn50  1  0.75291901  0.00104319  0.49325357  1
  Mn  Mn51  1  0.75291901  0.49895681  0.49325357  1
  Mn  Mn52  1  0.74708099  0.50104319  0.99325357  1
  Mn  Mn53  1  0.74708099  0.99895681  0.99325357  1
  Mn  Mn54  1  0.97737976  0.75000000  0.74273363  1
  Mn  Mn55  1  0.99491572  0.75000000  0.27400240  1
  O  O56  1  0.00861868  0.25000000  0.10197483  1
  O  O57  1  0.01407973  0.65712640  0.19121576  1
  O  O58  1  0.01407973  0.84287360  0.19121576  1
  O  O59  1  0.04592630  0.65872388  0.68328507  1
  O  O60  1  0.04592630  0.84127612  0.68328507  1
  O  O61  1  0.11045598  0.75000000  0.38947188  1
  O  O62  1  0.14469281  0.57068530  0.95242809  1
  O  O63  1  0.14469281  0.92931470  0.95242809  1
  O  O64  1  0.13580605  0.51152143  0.38748060  1
  O  O65  1  0.13580605  0.98847857  0.38748060  1
  O  O66  1  0.14829280  0.25000000  0.65041859  1
  O  O67  1  0.17235966  0.03543687  0.64125964  1
  O  O68  1  0.17235966  0.46456313  0.64125964  1
  O  O69  1  0.17963204  0.25000000  0.29421306  1
  O  O70  1  0.18935652  0.10003647  0.03997231  1
  O  O71  1  0.18935652  0.39996353  0.03997231  1
  O  O72  1  0.31064348  0.60003647  0.53997231  1
  O  O73  1  0.31064348  0.89996353  0.53997231  1
  O  O74  1  0.32036796  0.75000000  0.79421306  1
  O  O75  1  0.32764034  0.53543687  0.14125964  1
  O  O76  1  0.32764034  0.96456313  0.14125964  1
  O  O77  1  0.35170720  0.75000000  0.15041859  1
  O  O78  1  0.36419395  0.01152143  0.88748060  1
  O  O79  1  0.36419395  0.48847857  0.88748060  1
  O  O80  1  0.35530719  0.07068530  0.45242809  1
  O  O81  1  0.35530719  0.42931470  0.45242809  1
  O  O82  1  0.38954402  0.25000000  0.88947188  1
  O  O83  1  0.45407370  0.15872388  0.18328507  1
  O  O84  1  0.45407370  0.34127612  0.18328507  1
  O  O85  1  0.48592027  0.15712640  0.69121576  1
  O  O86  1  0.48592027  0.34287360  0.69121576  1
  O  O87  1  0.49138132  0.75000000  0.60197483  1
  O  O88  1  0.50861868  0.25000000  0.39802517  1
  O  O89  1  0.51407973  0.65712640  0.30878424  1
  O  O90  1  0.51407973  0.84287360  0.30878424  1
  O  O91  1  0.54592630  0.65872388  0.81671493  1
  O  O92  1  0.54592630  0.84127612  0.81671493  1
  O  O93  1  0.61045598  0.75000000  0.11052812  1
  O  O94  1  0.64469281  0.57068530  0.54757191  1
  O  O95  1  0.64469281  0.92931470  0.54757191  1
  O  O96  1  0.63580605  0.51152143  0.11251940  1
  O  O97  1  0.63580605  0.98847857  0.11251940  1
  O  O98  1  0.64829280  0.25000000  0.84958141  1
  O  O99  1  0.67235966  0.03543687  0.85874036  1
  O  O100  1  0.67235966  0.46456313  0.85874036  1
  O  O101  1  0.67963204  0.25000000  0.20578694  1
  O  O102  1  0.68935652  0.10003647  0.46002769  1
  O  O103  1  0.68935652  0.39996353  0.46002769  1
  O  O104  1  0.81064348  0.60003647  0.96002769  1
  O  O105  1  0.81064348  0.89996353  0.96002769  1
  O  O106  1  0.82036796  0.75000000  0.70578694  1
  O  O107  1  0.82764034  0.53543687  0.35874036  1
  O  O108  1  0.82764034  0.96456313  0.35874036  1
  O  O109  1  0.85170720  0.75000000  0.34958141  1
  O  O110  1  0.86419395  0.01152143  0.61251940  1
  O  O111  1  0.86419395  0.48847857  0.61251940  1
  O  O112  1  0.85530719  0.07068530  0.04757191  1
  O  O113  1  0.85530719  0.42931470  0.04757191  1
  O  O114  1  0.88954402  0.25000000  0.61052812  1
  O  O115  1  0.95407370  0.15872388  0.31671493  1
  O  O116  1  0.95407370  0.34127612  0.31671493  1
  O  O117  1  0.98592027  0.15712640  0.80878424  1
  O  O118  1  0.98592027  0.34287360  0.80878424  1
  O  O119  1  0.99138132  0.75000000  0.89802517  1
