# generated using pymatgen
data_NaV3O8
_symmetry_space_group_name_H-M   'P 1'
_cell_length_a   5.12260376
_cell_length_b   7.44279814
_cell_length_c   8.54792349
_cell_angle_alpha   90.00000000
_cell_angle_beta   90.00000000
_cell_angle_gamma   101.99334660
_symmetry_Int_Tables_number   1
_chemical_formula_structural   NaV3O8
_chemical_formula_sum   'Na2 V6 O16'
_cell_volume   318.78856967
_cell_formula_units_Z   2
loop_
 _symmetry_equiv_pos_site_id
 _symmetry_equiv_pos_as_xyz
  1  'x, y, z'
loop_
 _atom_site_type_symbol
 _atom_site_label
 _atom_site_symmetry_multiplicity
 _atom_site_fract_x
 _atom_site_fract_y
 _atom_site_fract_z
 _atom_site_occupancy
  Na  Na0  1  0.47077281  0.94958290  0.75000000  1
  Na  Na1  1  0.52922719  0.05041710  0.25000000  1
  V  V2  1  0.03522172  0.30200837  0.55497381  1
  V  V3  1  0.03522172  0.30200837  0.94502619  1
  V  V4  1  0.43282935  0.57438394  0.25000000  1
  V  V5  1  0.56717065  0.42561606  0.75000000  1
  V  V6  1  0.96477828  0.69799163  0.05497381  1
  V  V7  1  0.96477828  0.69799163  0.44502619  1
  O  O8  1  0.11143634  0.85347466  0.56864880  1
  O  O9  1  0.11143634  0.85347466  0.93135120  1
  O  O10  1  0.12044227  0.78312694  0.25000000  1
  O  O11  1  0.17777098  0.50751023  0.41193616  1
  O  O12  1  0.17777098  0.50751023  0.08806384  1
  O  O13  1  0.41555358  0.59823609  0.75000000  1
  O  O14  1  0.35790186  0.26046857  0.60179691  1
  O  O15  1  0.35790186  0.26046857  0.89820309  1
  O  O16  1  0.64209814  0.73953143  0.10179691  1
  O  O17  1  0.64209814  0.73953143  0.39820309  1
  O  O18  1  0.58444642  0.40176391  0.25000000  1
  O  O19  1  0.82222902  0.49248977  0.58806384  1
  O  O20  1  0.82222902  0.49248977  0.91193616  1
  O  O21  1  0.87955773  0.21687306  0.75000000  1
  O  O22  1  0.88856366  0.14652534  0.06864880  1
  O  O23  1  0.88856366  0.14652534  0.43135120  1
