# generated using pymatgen
data_Li2MnVP2(HO5)2
_symmetry_space_group_name_H-M   'P 1'
_cell_length_a   10.88044026
_cell_length_b   7.40605573
_cell_length_c   5.21129141
_cell_angle_alpha   107.98935712
_cell_angle_beta   98.64871072
_cell_angle_gamma   106.15727429
_symmetry_Int_Tables_number   1
_chemical_formula_structural   Li2MnVP2(HO5)2
_chemical_formula_sum   'Li4 Mn2 V2 P4 H4 O20'
_cell_volume   370.56943090
_cell_formula_units_Z   2
loop_
 _symmetry_equiv_pos_site_id
 _symmetry_equiv_pos_as_xyz
  1  'x, y, z'
loop_
 _atom_site_type_symbol
 _atom_site_label
 _atom_site_symmetry_multiplicity
 _atom_site_fract_x
 _atom_site_fract_y
 _atom_site_fract_z
 _atom_site_occupancy
  Li  Li0  1  0.19726761  0.81717719  0.73893871  1
  Li  Li1  1  0.30092803  0.16362951  0.24450069  1
  Li  Li2  1  0.69907197  0.83637049  0.75549931  1
  Li  Li3  1  0.80273239  0.18282281  0.26106129  1
  Mn  Mn4  1  0.00000000  0.50000000  0.00000000  1
  Mn  Mn5  1  0.50000000  0.00000000  0.00000000  1
  V  V6  1  0.00000000  0.00000000  0.00000000  1
  V  V7  1  0.50000000  0.50000000  0.00000000  1
  P  P8  1  0.18182384  0.23010590  0.67012244  1
  P  P9  1  0.31473940  0.76555806  0.31070924  1
  P  P10  1  0.68526060  0.23444194  0.68929076  1
  P  P11  1  0.81817616  0.76989410  0.32987756  1
  H  H12  1  0.03360475  0.33781881  0.35543738  1
  H  H13  1  0.46761170  0.65175873  0.64181371  1
  H  H14  1  0.53238830  0.34824127  0.35818629  1
  H  H15  1  0.96639525  0.66218119  0.64456262  1
  O  O16  1  0.02189894  0.72365439  0.84167893  1
  O  O17  1  0.10749749  0.38032194  0.70672020  1
  O  O18  1  0.16922271  0.64542566  0.29524803  1
  O  O19  1  0.13116591  0.07107050  0.36747067  1
  O  O20  1  0.16793256  0.11808229  0.88023191  1
  O  O21  1  0.31903867  0.87894279  0.10733660  1
  O  O22  1  0.36838616  0.91374848  0.61427969  1
  O  O23  1  0.33260195  0.33739990  0.70057778  1
  O  O24  1  0.39853576  0.62182904  0.24956706  1
  O  O25  1  0.52507639  0.70810282  0.83296873  1
  O  O26  1  0.47492361  0.29189718  0.16703127  1
  O  O27  1  0.60146424  0.37817096  0.75043294  1
  O  O28  1  0.66739805  0.66260010  0.29942222  1
  O  O29  1  0.63161384  0.08625152  0.38572031  1
  O  O30  1  0.68096133  0.12105721  0.89266340  1
  O  O31  1  0.83206744  0.88191771  0.11976809  1
  O  O32  1  0.86883409  0.92892950  0.63252933  1
  O  O33  1  0.83077729  0.35457434  0.70475197  1
  O  O34  1  0.89250251  0.61967806  0.29327980  1
  O  O35  1  0.97810106  0.27634561  0.15832107  1
