# generated using pymatgen
data_Na2Ti4O9
_symmetry_space_group_name_H-M   'P 1'
_cell_length_a   10.72619776
_cell_length_b   8.87064781
_cell_length_c   12.47295928
_cell_angle_alpha   69.21861015
_cell_angle_beta   101.90459623
_cell_angle_gamma   89.98548641
_symmetry_Int_Tables_number   1
_chemical_formula_structural   Na2Ti4O9
_chemical_formula_sum   'Na12 Ti24 O54'
_cell_volume   1082.20186429
_cell_formula_units_Z   6
loop_
 _symmetry_equiv_pos_site_id
 _symmetry_equiv_pos_as_xyz
  1  'x, y, z'
loop_
 _atom_site_type_symbol
 _atom_site_label
 _atom_site_symmetry_multiplicity
 _atom_site_fract_x
 _atom_site_fract_y
 _atom_site_fract_z
 _atom_site_occupancy
  Na  Na0  1  0.10044103  0.03668494  0.28667364  1
  Na  Na1  1  0.39726956  0.13574105  0.72615201  1
  Na  Na2  1  0.39703618  0.80524603  0.72462097  1
  Na  Na3  1  0.40676565  0.47079045  0.72479915  1
  Na  Na4  1  0.29737171  0.61628414  0.14478538  1
  Na  Na5  1  0.30547699  0.24396295  0.14124180  1
  Na  Na6  1  0.69569672  0.08860663  0.85793918  1
  Na  Na7  1  0.70711990  0.71139372  0.85300623  1
  Na  Na8  1  0.59462423  0.86211170  0.27640486  1
  Na  Na9  1  0.60378166  0.52848191  0.27409047  1
  Na  Na10  1  0.60424833  0.19801308  0.27313874  1
  Na  Na11  1  0.89945218  0.31784741  0.71398019  1
  Ti  Ti12  1  0.18297940  0.89618575  0.87353935  1
  Ti  Ti13  1  0.18784151  0.56172698  0.87754639  1
  Ti  Ti14  1  0.11787842  0.04729142  0.56920063  1
  Ti  Ti15  1  0.11849544  0.71432701  0.57082934  1
  Ti  Ti16  1  0.19425129  0.22823922  0.87688341  1
  Ti  Ti17  1  0.12517844  0.38493458  0.56389502  1
  Ti  Ti18  1  0.00978961  0.99733932  0.00896624  1
  Ti  Ti19  1  0.50114229  0.66678838  0.99889659  1
  Ti  Ti20  1  0.37067895  0.27860050  0.44010312  1
  Ti  Ti21  1  0.37048989  0.61571858  0.44025388  1
  Ti  Ti22  1  0.37977358  0.94211330  0.44738598  1
  Ti  Ti23  1  0.51058424  0.33732389  0.99186947  1
  Ti  Ti24  1  0.61862612  0.39162861  0.55148654  1
  Ti  Ti25  1  0.49062190  0.99437830  0.00941642  1
  Ti  Ti26  1  0.62686307  0.05639452  0.55726189  1
  Ti  Ti27  1  0.62809319  0.71788776  0.55918344  1
  Ti  Ti28  1  0.99241298  0.33710875  0.99278460  1
  Ti  Ti29  1  0.99994313  0.66854352  0.99997957  1
  Ti  Ti30  1  0.87477351  0.94817068  0.43643536  1
  Ti  Ti31  1  0.88120606  0.61888670  0.42896002  1
  Ti  Ti32  1  0.80726449  0.10469202  0.12297316  1
  Ti  Ti33  1  0.88250094  0.28588113  0.43146095  1
  Ti  Ti34  1  0.81223488  0.77141822  0.12274967  1
  Ti  Ti35  1  0.81853991  0.43705223  0.12689315  1
  O  O36  1  0.05974032  0.40387206  0.84955152  1
  O  O37  1  0.06031357  0.74181411  0.85061156  1
  O  O38  1  0.06129853  0.07722643  0.85308108  1
  O  O39  1  0.00848958  0.87026540  0.59320203  1
  O  O40  1  0.00970593  0.53464347  0.59271562  1
  O  O41  1  0.00966043  0.20648696  0.59238174  1
  O  O42  1  0.21926307  0.30383101  0.72643164  1
  O  O43  1  0.21873898  0.97014765  0.72643825  1
  O  O44  1  0.21884146  0.63593975  0.72689236  1
  O  O45  1  0.30412889  0.69836114  0.93871371  1
  O  O46  1  0.30492526  0.02821617  0.93968858  1
  O  O47  1  0.30539899  0.36440737  0.93952351  1
  O  O48  1  0.21785415  0.90935884  0.51588438  1
  O  O49  1  0.22017392  0.57597372  0.51671406  1
  O  O50  1  0.22113926  0.24029515  0.51723113  1
  O  O51  1  0.12339665  0.14462937  0.05009306  1
  O  O52  1  0.12414538  0.80952475  0.04386526  1
  O  O53  1  0.12460278  0.47866574  0.04103351  1
  O  O54  1  0.31636399  0.83009222  0.34682974  1
  O  O55  1  0.31792929  0.15908287  0.34227823  1
  O  O56  1  0.32324986  0.49507141  0.34251054  1
  O  O57  1  0.51058546  0.22005405  0.89100216  1
  O  O58  1  0.51412002  0.55815646  0.88811257  1
  O  O59  1  0.51616014  0.88629162  0.89333535  1
  O  O60  1  0.44456644  0.38269377  0.56805567  1
  O  O61  1  0.44651211  0.05007761  0.56817224  1
  O  O62  1  0.44748813  0.71490638  0.56955542  1
  O  O63  1  0.55138299  0.28537085  0.42932778  1
  O  O64  1  0.55143616  0.61868963  0.42962882  1
  O  O65  1  0.55381104  0.95146092  0.43039238  1
  O  O66  1  0.48374222  0.44804372  0.10614251  1
  O  O67  1  0.48749788  0.77542907  0.11169845  1
  O  O68  1  0.48989995  0.11385441  0.10950891  1
  O  O69  1  0.67279721  0.83966401  0.65629820  1
  O  O70  1  0.67886466  0.17492410  0.65567104  1
  O  O71  1  0.68116235  0.50318340  0.65356725  1
  O  O72  1  0.87633477  0.52150398  0.95839269  1
  O  O73  1  0.87591606  0.85416667  0.95803134  1
  O  O74  1  0.87788036  0.18765788  0.95194428  1
  O  O75  1  0.77804467  0.09359129  0.48181782  1
  O  O76  1  0.77874108  0.75781988  0.48323075  1
  O  O77  1  0.78231567  0.42356146  0.48506511  1
  O  O78  1  0.69493935  0.96942837  0.06044427  1
  O  O79  1  0.69593113  0.30440472  0.06189452  1
  O  O80  1  0.69655807  0.63484882  0.06063869  1
  O  O81  1  0.78037230  0.69684549  0.27306029  1
  O  O82  1  0.78258423  0.36368356  0.27402490  1
  O  O83  1  0.78241841  0.02924103  0.27376696  1
  O  O84  1  0.99091359  0.12716558  0.40803106  1
  O  O85  1  0.98982144  0.79801447  0.40802174  1
  O  O86  1  0.99139854  0.46375899  0.40685537  1
  O  O87  1  0.94044599  0.25557568  0.14860050  1
  O  O88  1  0.94000481  0.59244978  0.14980521  1
  O  O89  1  0.94029311  0.92810338  0.15086952  1
