# generated using pymatgen
data_Li2Fe3P4(HO4)4
_symmetry_space_group_name_H-M   'P 1'
_cell_length_a   9.11082365
_cell_length_b   8.18650796
_cell_length_c   8.86729360
_cell_angle_alpha   90.00000000
_cell_angle_beta   99.79645197
_cell_angle_gamma   90.00000000
_symmetry_Int_Tables_number   1
_chemical_formula_structural   Li2Fe3P4(HO4)4
_chemical_formula_sum   'Li4 Fe6 P8 H8 O32'
_cell_volume   651.73058278
_cell_formula_units_Z   2
loop_
 _symmetry_equiv_pos_site_id
 _symmetry_equiv_pos_as_xyz
  1  'x, y, z'
loop_
 _atom_site_type_symbol
 _atom_site_label
 _atom_site_symmetry_multiplicity
 _atom_site_fract_x
 _atom_site_fract_y
 _atom_site_fract_z
 _atom_site_occupancy
  Li  Li0  1  0.02828714  0.33330551  0.99796650  1
  Li  Li1  1  0.52828714  0.16669449  0.99796650  1
  Li  Li2  1  0.47171286  0.83330551  0.00203350  1
  Li  Li3  1  0.97171286  0.66669449  0.00203350  1
  Fe  Fe4  1  0.00000000  0.50000000  0.50000000  1
  Fe  Fe5  1  0.00630170  0.14110043  0.35583275  1
  Fe  Fe6  1  0.49369830  0.64110043  0.64416725  1
  Fe  Fe7  1  0.50000000  0.00000000  0.50000000  1
  Fe  Fe8  1  0.50630170  0.35889957  0.35583275  1
  Fe  Fe9  1  0.99369830  0.85889957  0.64416725  1
  P  P10  1  0.22864280  0.56130243  0.82314954  1
  P  P11  1  0.20359798  0.80125632  0.38705237  1
  P  P12  1  0.29640202  0.30125632  0.61294763  1
  P  P13  1  0.27135720  0.06130243  0.17685046  1
  P  P14  1  0.72864280  0.93869757  0.82314954  1
  P  P15  1  0.70359798  0.69874368  0.38705237  1
  P  P16  1  0.79640202  0.19874368  0.61294763  1
  P  P17  1  0.77135720  0.43869757  0.17685046  1
  H  H18  1  0.21259052  0.99477954  0.88343740  1
  H  H19  1  0.23310946  0.03389925  0.71612175  1
  H  H20  1  0.26689054  0.53389925  0.28387825  1
  H  H21  1  0.28740948  0.49477954  0.11656260  1
  H  H22  1  0.71259052  0.50522046  0.88343740  1
  H  H23  1  0.73310946  0.46610075  0.71612175  1
  H  H24  1  0.76689054  0.96610075  0.28387825  1
  H  H25  1  0.78740948  0.00522046  0.11656260  1
  O  O26  1  0.11948545  0.62918749  0.68627970  1
  O  O27  1  0.15731504  0.99408384  0.77707424  1
  O  O28  1  0.10765917  0.92564807  0.45356436  1
  O  O29  1  0.14963084  0.53340915  0.96157671  1
  O  O30  1  0.14115373  0.29084542  0.51226012  1
  O  O31  1  0.12994156  0.63524896  0.34981779  1
  O  O32  1  0.12608945  0.15922566  0.14236580  1
  O  O33  1  0.27184325  0.37465339  0.77859583  1
  O  O34  1  0.22815675  0.87465339  0.22140417  1
  O  O35  1  0.37391055  0.65922566  0.85763420  1
  O  O36  1  0.37005844  0.13524896  0.65018221  1
  O  O37  1  0.35884627  0.79084542  0.48773988  1
  O  O38  1  0.35036916  0.03340915  0.03842329  1
  O  O39  1  0.39234083  0.42564807  0.54643564  1
  O  O40  1  0.34268496  0.49408384  0.22292576  1
  O  O41  1  0.38051455  0.12918749  0.31372030  1
  O  O42  1  0.61948545  0.87081251  0.68627970  1
  O  O43  1  0.65731504  0.50591616  0.77707424  1
  O  O44  1  0.60765917  0.57435193  0.45356436  1
  O  O45  1  0.64963084  0.96659085  0.96157671  1
  O  O46  1  0.64115373  0.20915458  0.51226012  1
  O  O47  1  0.62994056  0.86475104  0.34981779  1
  O  O48  1  0.62608945  0.34077434  0.14236580  1
  O  O49  1  0.77184325  0.12534661  0.77859583  1
  O  O50  1  0.72815675  0.62534661  0.22140417  1
  O  O51  1  0.87391055  0.84077434  0.85763420  1
  O  O52  1  0.87005944  0.36475104  0.65018221  1
  O  O53  1  0.85884627  0.70915458  0.48773988  1
  O  O54  1  0.85036916  0.46659085  0.03842329  1
  O  O55  1  0.89234083  0.07435193  0.54643564  1
  O  O56  1  0.84268496  0.00591616  0.22292576  1
  O  O57  1  0.88051455  0.37081251  0.31372030  1
