# generated using pymatgen
data_Li2MnVP2(HO5)2
_symmetry_space_group_name_H-M   'P 1'
_cell_length_a   5.43588240
_cell_length_b   10.31921937
_cell_length_c   10.17675714
_cell_angle_alpha   79.30605158
_cell_angle_beta   79.28685922
_cell_angle_gamma   83.13669361
_symmetry_Int_Tables_number   1
_chemical_formula_structural   Li2MnVP2(HO5)2
_chemical_formula_sum   'Li6 Mn3 V3 P6 H6 O30'
_cell_volume   549.02379265
_cell_formula_units_Z   3
loop_
 _symmetry_equiv_pos_site_id
 _symmetry_equiv_pos_as_xyz
  1  'x, y, z'
loop_
 _atom_site_type_symbol
 _atom_site_label
 _atom_site_symmetry_multiplicity
 _atom_site_fract_x
 _atom_site_fract_y
 _atom_site_fract_z
 _atom_site_occupancy
  Li  Li0  1  0.79230331  0.63433776  0.80846011  1
  Li  Li1  1  0.87453503  0.69905395  0.52458374  1
  Li  Li2  1  0.54162983  0.03382599  0.85638898  1
  Li  Li3  1  0.45757321  0.96580222  0.14407565  1
  Li  Li4  1  0.12406474  0.30136076  0.47509744  1
  Li  Li5  1  0.20947929  0.36629682  0.19114550  1
  Mn  Mn6  1  0.83196384  0.66744138  0.16764362  1
  Mn  Mn7  1  0.66643685  0.33232633  0.33356757  1
  Mn  Mn8  1  0.33289489  0.66691038  0.66651380  1
  V  V9  1  0.49974086  0.99966629  0.50003485  1
  V  V10  1  0.17019484  0.33385924  0.83168202  1
  V  V11  1  0.00078490  0.99969856  0.99982195  1
  P  P12  1  0.93919515  0.92918060  0.69624563  1
  P  P13  1  0.72882719  0.40457808  0.63675555  1
  P  P14  1  0.39453973  0.73732471  0.97117693  1
  P  P15  1  0.60894734  0.26193118  0.02946861  1
  P  P16  1  0.26857730  0.59575927  0.36209736  1
  P  P17  1  0.06120989  0.07102339  0.30388235  1
  H  H18  1  0.82585124  0.89457549  0.23379281  1
  H  H19  1  0.83616150  0.43674400  0.10288112  1
  H  H20  1  0.50303240  0.76973088  0.43552016  1
  H  H21  1  0.49696632  0.22944286  0.56401042  1
  H  H22  1  0.16351241  0.56364291  0.89779194  1
  H  H23  1  0.17414442  0.10562093  0.76668044  1
  O  O24  1  0.89166448  0.92535973  0.85156212  1
  O  O25  1  0.98583262  0.78638597  0.66363463  1
  O  O26  1  0.97693040  0.33470170  0.68116149  1
  O  O27  1  0.83313694  0.34518534  0.96370704  1
  O  O28  1  0.83559491  0.98862114  0.36969692  1
  O  O29  1  0.68969850  0.99908511  0.65206484  1
  O  O30  1  0.80442415  0.87275322  0.14578365  1
  O  O31  1  0.66340774  0.11809861  0.99609387  1
  O  O32  1  0.67994659  0.54701778  0.67063012  1
  O  O33  1  0.77537815  0.40887459  0.48120840  1
  O  O34  1  0.85773616  0.45767652  0.19155668  1
  O  O35  1  0.44852940  0.74282546  0.81546972  1
  O  O36  1  0.52621222  0.79249784  0.52336047  1
  O  O37  1  0.50296576  0.32189255  0.70212779  1
  O  O38  1  0.64980173  0.67273211  0.01591142  1
  O  O39  1  0.35993628  0.32946702  0.98486884  1
  O  O40  1  0.48793701  0.68101982  0.29966110  1
  O  O41  1  0.47318426  0.20741312  0.47629420  1
  O  O42  1  0.55897392  0.25595187  0.18515465  1
  O  O43  1  0.13979633  0.54152522  0.80984849  1
  O  O44  1  0.21654691  0.59124690  0.51815800  1
  O  O45  1  0.31804860  0.45379318  0.32889540  1
  O  O46  1  0.33731773  0.88121318  0.00389985  1
  O  O47  1  0.19416134  0.12863888  0.85409886  1
  O  O48  1  0.31073230  0.00069421  0.34790996  1
  O  O49  1  0.16481488  0.01122121  0.63035867  1
  O  O50  1  0.17653245  0.65177726  0.03424981  1
  O  O51  1  0.01380556  0.66387216  0.31817632  1
  O  O52  1  0.01542738  0.21323657  0.33680176  1
  O  O53  1  0.10895882  0.07508373  0.14833438  1
