# generated using pymatgen
data_V3(O2F)2
_symmetry_space_group_name_H-M   'P 1'
_cell_length_a   4.72063043
_cell_length_b   4.72063043
_cell_length_c   9.14123076
_cell_angle_alpha   89.91690636
_cell_angle_beta   90.08309364
_cell_angle_gamma   94.24410518
_symmetry_Int_Tables_number   1
_chemical_formula_structural   V3(O2F)2
_chemical_formula_sum   'V6 O8 F4'
_cell_volume   203.14740029
_cell_formula_units_Z   2
loop_
 _symmetry_equiv_pos_site_id
 _symmetry_equiv_pos_as_xyz
  1  'x, y, z'
loop_
 _atom_site_type_symbol
 _atom_site_label
 _atom_site_symmetry_multiplicity
 _atom_site_fract_x
 _atom_site_fract_y
 _atom_site_fract_z
 _atom_site_occupancy
  V  V0  1  0.99676720  0.00323280  0.00661616  1
  V  V1  1  0.00000000  0.00000000  0.33333300  1
  V  V2  1  0.00323280  0.99676720  0.66005084  1
  V  V3  1  0.54408156  0.45591844  0.16781630  1
  V  V4  1  0.50000000  0.50000000  0.83333300  1
  V  V5  1  0.45591844  0.54408156  0.49885070  1
  O  O6  1  0.19673147  0.80326853  0.49702340  1
  O  O7  1  0.30812130  0.29919499  0.00308451  1
  O  O8  1  0.30790053  0.30790053  0.33333300  1
  O  O9  1  0.29919499  0.30812130  0.66358149  1
  O  O10  1  0.70080501  0.69187870  0.00308451  1
  O  O11  1  0.69209947  0.69209947  0.33333300  1
  O  O12  1  0.69187870  0.70080501  0.66358149  1
  O  O13  1  0.80326853  0.19673147  0.16964360  1
  F  F14  1  0.20161092  0.79838908  0.16867574  1
  F  F15  1  0.19407473  0.80592527  0.83465320  1
  F  F16  1  0.80592527  0.19407473  0.83201380  1
  F  F17  1  0.79838908  0.20161092  0.49799126  1
