# generated using pymatgen
data_GaBi25O39
_symmetry_space_group_name_H-M   'P 1'
_cell_length_a   8.94511512
_cell_length_b   8.94251237
_cell_length_c   14.56740045
_cell_angle_alpha   89.91396304
_cell_angle_beta   89.80821693
_cell_angle_gamma   109.55918241
_symmetry_Int_Tables_number   1
_chemical_formula_structural   GaBi25O39
_chemical_formula_sum   'Ga1 Bi25 O39'
_cell_volume   1098.02154857
_cell_formula_units_Z   1
loop_
 _symmetry_equiv_pos_site_id
 _symmetry_equiv_pos_as_xyz
  1  'x, y, z'
loop_
 _atom_site_type_symbol
 _atom_site_label
 _atom_site_symmetry_multiplicity
 _atom_site_fract_x
 _atom_site_fract_y
 _atom_site_fract_z
 _atom_site_occupancy
  Ga  Ga0  1  0.50173889  0.50031895  0.49987549  1
  Bi  Bi1  1  0.76768124  0.56592982  0.08249968  1
  Bi  Bi2  1  0.38882735  0.23450826  0.09196410  1
  Bi  Bi3  1  0.49246542  0.17243462  0.35288220  1
  Bi  Bi4  1  0.82934307  0.52893666  0.34040142  1
  Bi  Bi5  1  0.02467529  0.33240881  0.16969619  1
  Bi  Bi6  1  0.64048359  0.99201259  0.15840514  1
  Bi  Bi7  1  0.23480608  0.73421719  0.07082437  1
  Bi  Bi8  1  0.44462931  0.57935085  0.25580082  1
  Bi  Bi9  1  0.73557071  0.24217650  0.56986005  1
  Bi  Bi10  1  0.94235331  0.08265880  0.75096580  1
  Bi  Bi11  1  0.73051390  0.90046161  0.40573040  1
  Bi  Bi12  1  0.27597899  0.08985358  0.58351187  1
  Bi  Bi13  1  0.08832959  0.27870354  0.42034878  1
  Bi  Bi14  1  0.90070904  0.73339444  0.59347769  1
  Bi  Bi15  1  0.09034575  0.93673202  0.26026203  1
  Bi  Bi16  1  0.57938393  0.44372358  0.74282015  1
  Bi  Bi17  1  0.73567841  0.23142165  0.92373679  1
  Bi  Bi18  1  0.25260202  0.73242958  0.43420241  1
  Bi  Bi19  1  0.98667105  0.65339225  0.84401325  1
  Bi  Bi20  1  0.32682688  0.02268489  0.83291986  1
  Bi  Bi21  1  0.16155521  0.48631133  0.65255588  1
  Bi  Bi22  1  0.52468259  0.83019154  0.66252834  1
  Bi  Bi23  1  0.97930696  0.98197917  0.01523798  1
  Bi  Bi24  1  0.23265684  0.39346030  0.90365553  1
  Bi  Bi25  1  0.58093929  0.77282148  0.91412361  1
  O  O26  1  0.62992716  0.99801271  0.00062636  1
  O  O27  1  0.70283899  0.31647027  0.05724998  1
  O  O28  1  0.92850641  0.04358381  0.30796160  1
  O  O29  1  0.22260097  0.00572712  0.99877927  1
  O  O30  1  0.43445929  0.06007771  0.17655359  1
  O  O31  1  0.92667729  0.57019834  0.18942962  1
  O  O32  1  0.00284321  0.22292370  0.99500691  1
  O  O33  1  0.82122654  0.20487002  0.43916391  1
  O  O34  1  0.54756792  0.42651909  0.18907080  1
  O  O35  1  0.18439368  0.18374998  0.18703074  1
  O  O36  1  0.23840120  0.49695831  0.11932009  1
  O  O37  1  0.51447704  0.75148931  0.13330660  1
  O  O38  1  0.25350841  0.02007038  0.37052347  1
  O  O39  1  0.00526786  0.74381089  0.37957282  1
  O  O40  1  0.50045421  0.11743375  0.49956155  1
  O  O41  1  0.99886759  0.62966714  0.00051846  1
  O  O42  1  0.69225892  0.69179357  0.30909705  1
  O  O43  1  0.71411979  0.50215875  0.49711540  1
  O  O44  1  0.39759955  0.39112130  0.39362394  1
  O  O45  1  0.07756239  0.42971147  0.31041111  1
  O  O46  1  0.94126862  0.55997108  0.67846910  1
  O  O47  1  0.55942473  0.94472435  0.31963089  1
  O  O48  1  0.42973244  0.07508832  0.68954812  1
  O  O49  1  0.39539269  0.39660496  0.60630217  1
  O  O50  1  0.49658145  0.71119823  0.49683052  1
  O  O51  1  0.69124520  0.69236028  0.68926904  1
  O  O52  1  0.11840773  0.50171692  0.49948202  1
  O  O53  1  0.73738371  0.00078853  0.61642280  1
  O  O54  1  0.01372126  0.25116481  0.62743575  1
  O  O55  1  0.49598048  0.23425732  0.88166884  1
  O  O56  1  0.75056234  0.50659244  0.86872342  1
  O  O57  1  0.19129108  0.19129568  0.80594874  1
  O  O58  1  0.20588614  0.82222498  0.56017905  1
  O  O59  1  0.42878334  0.54907373  0.80829678  1
  O  O60  1  0.89461569  0.89368667  0.88428052  1
  O  O61  1  0.56748812  0.92875336  0.80849936  1
  O  O62  1  0.05985918  0.43733992  0.82009032  1
  O  O63  1  0.31964228  0.70135971  0.94021370  1
  O  O64  1  0.04877639  0.93129112  0.68773278  1
