# generated using pymatgen
data_V2(OF)3
_symmetry_space_group_name_H-M   'P 1'
_cell_length_a   5.23969723
_cell_length_b   13.28538567
_cell_length_c   5.23207445
_cell_angle_alpha   89.64753027
_cell_angle_beta   119.41869839
_cell_angle_gamma   90.87504312
_symmetry_Int_Tables_number   1
_chemical_formula_structural   V2(OF)3
_chemical_formula_sum   'V6 O9 F9'
_cell_volume   317.21079764
_cell_formula_units_Z   3
loop_
 _symmetry_equiv_pos_site_id
 _symmetry_equiv_pos_as_xyz
  1  'x, y, z'
loop_
 _atom_site_type_symbol
 _atom_site_label
 _atom_site_symmetry_multiplicity
 _atom_site_fract_x
 _atom_site_fract_y
 _atom_site_fract_z
 _atom_site_occupancy
  V  V0  1  0.98867129  0.49050399  0.02242083  1
  V  V1  1  0.97140330  0.99312958  0.99350707  1
  V  V2  1  0.63329352  0.81938403  0.32134074  1
  V  V3  1  0.30839498  0.66022650  0.68092851  1
  V  V4  1  0.65599929  0.33270325  0.37979104  1
  V  V5  1  0.36273447  0.15193595  0.69944859  1
  O  O6  1  0.43091844  0.75664209  0.00102388  1
  O  O7  1  0.77893355  0.91913158  0.09690035  1
  O  O8  1  0.10079002  0.58444280  0.76148800  1
  O  O9  1  0.43327259  0.25241123  0.42515252  1
  O  O10  1  0.56853390  0.75377651  0.55660099  1
  O  O11  1  0.90144466  0.41756018  0.22955041  1
  O  O12  1  0.23745666  0.08652981  0.88959905  1
  O  O13  1  0.75908236  0.41446296  0.66082799  1
  O  O14  1  0.65881477  0.08643096  0.75312004  1
  F  F15  1  0.99564070  0.75274492  0.40877054  1
  F  F16  1  0.34281056  0.41520887  0.08665555  1
  F  F17  1  0.09080201  0.09268458  0.32468915  1
  F  F18  1  0.35922978  0.92403551  0.25336540  1
  F  F19  1  0.26098952  0.58403365  0.33525467  1
  F  F20  1  0.56487661  0.25288042  0.98509920  1
  F  F21  1  0.99290690  0.25288083  0.55757172  1
  F  F22  1  0.92165402  0.91503988  0.65768854  1
  F  F23  1  0.68134611  0.59121894  0.91920522  1
