# generated using pymatgen
data_Na6Mn2P(CO4)4
_symmetry_space_group_name_H-M   'P 1'
_cell_length_a   10.04783519
_cell_length_b   10.04812694
_cell_length_c   10.04768059
_cell_angle_alpha   60.00019546
_cell_angle_beta   60.00198716
_cell_angle_gamma   60.00145538
_symmetry_Int_Tables_number   1
_chemical_formula_structural   Na6Mn2P(CO4)4
_chemical_formula_sum   'Na12 Mn4 P2 C8 O32'
_cell_volume   717.33228727
_cell_formula_units_Z   2
loop_
 _symmetry_equiv_pos_site_id
 _symmetry_equiv_pos_as_xyz
  1  'x, y, z'
loop_
 _atom_site_type_symbol
 _atom_site_label
 _atom_site_symmetry_multiplicity
 _atom_site_fract_x
 _atom_site_fract_y
 _atom_site_fract_z
 _atom_site_occupancy
  Na  Na0  1  0.16713416  0.08290862  0.08287174  1
  Na  Na1  1  0.16711994  0.66712081  0.08286342  1
  Na  Na2  1  0.16713030  0.08285547  0.66710825  1
  Na  Na3  1  0.41702600  0.33301613  0.33299462  1
  Na  Na4  1  0.58286880  0.08292469  0.66710232  1
  Na  Na5  1  0.58286892  0.66711213  0.08292701  1
  Na  Na6  1  0.41700555  0.91696960  0.33301118  1
  Na  Na7  1  0.41700923  0.33300520  0.91696165  1
  Na  Na8  1  0.58284790  0.66710843  0.66712035  1
  Na  Na9  1  0.83299096  0.33299622  0.91702766  1
  Na  Na10  1  0.83298783  0.91703214  0.33300337  1
  Na  Na11  1  0.83297631  0.91697713  0.91702255  1
  Mn  Mn12  1  0.00002527  0.49998699  -0.00000236  1
  Mn  Mn13  1  0.00010432  0.99993439  0.49991813  1
  Mn  Mn14  1  0.00004111  0.49999233  0.49995105  1
  Mn  Mn15  1  0.50001143  0.49999329  0.50001107  1
  P  P16  1  0.62498838  0.12498666  0.12502647  1
  P  P17  1  0.37500918  0.87501657  0.87497533  1
  C  C18  1  0.15417389  0.28200750  0.28185343  1
  C  C19  1  0.21802502  0.71800376  0.34581722  1
  C  C20  1  0.21791750  0.34582154  0.71817052  1
  C  C21  1  0.21804758  0.71797397  0.71817297  1
  C  C22  1  0.78194721  0.28202623  0.28183124  1
  C  C23  1  0.78207459  0.65419473  0.28182176  1
  C  C24  1  0.78195525  0.28198359  0.65420896  1
  C  C25  1  0.84582278  0.71799121  0.71815320  1
  O  O26  1  0.15565202  0.30240798  0.14304970  1
  O  O27  1  0.15565316  0.14299445  0.39900551  1
  O  O28  1  0.15558285  0.39908479  0.30240945  1
  O  O29  1  0.10085350  0.69761063  0.34447286  1
  O  O30  1  0.56174338  0.06177722  0.06176984  1
  O  O31  1  0.19749474  0.34448898  0.60094610  1
  O  O32  1  0.10095559  0.34437337  0.85694710  1
  O  O33  1  0.56175522  0.31470286  0.06178145  1
  O  O34  1  0.56178022  0.06176944  0.31466496  1
  O  O35  1  0.19756444  0.85703372  0.34434444  1
  O  O36  1  0.35695829  0.60103395  0.34426317  1
  O  O37  1  0.81467429  0.06176965  0.06177167  1
  O  O38  1  0.10089086  0.85706473  0.69768371  1
  O  O39  1  0.35698238  0.34422433  0.69766341  1
  O  O40  1  0.19761149  0.60102693  0.85697308  1
  O  O41  1  0.64303684  0.30233363  0.39892534  1
  O  O42  1  0.35695679  0.69766982  0.60107747  1
  O  O43  1  0.80238809  0.39896884  0.14302886  1
  O  O44  1  0.64301102  0.65578189  0.30233168  1
  O  O45  1  0.89910990  0.14293633  0.30232316  1
  O  O46  1  0.18523534  0.93826229  0.93825960  1
  O  O47  1  0.64302916  0.39899342  0.65574077  1
  O  O48  1  0.80241149  0.14296407  0.65567914  1
  O  O49  1  0.43824857  0.93826330  0.68524642  1
  O  O50  1  0.43827158  0.68521331  0.93824930  1
  O  O51  1  0.89904231  0.65563443  0.14305122  1
  O  O52  1  0.80248970  0.65552679  0.39905247  1
  O  O53  1  0.43828190  0.93825649  0.93826136  1
  O  O54  1  0.89913370  0.30238301  0.65554376  1
  O  O55  1  0.84440387  0.60091343  0.69760373  1
  O  O56  1  0.84433337  0.85701003  0.60100092  1
  O  O57  1  0.84435452  0.69758656  0.85695524  1
