# generated using pymatgen
data_LiCu2F6
_symmetry_space_group_name_H-M   'P 1'
_cell_length_a   5.62066380
_cell_length_b   4.58680000
_cell_length_c   15.50012401
_cell_angle_alpha   90.00000000
_cell_angle_beta   80.31525867
_cell_angle_gamma   90.00000000
_symmetry_Int_Tables_number   1
_chemical_formula_structural   LiCu2F6
_chemical_formula_sum   'Li4 Cu8 F24'
_cell_volume   393.91146785
_cell_formula_units_Z   4
loop_
 _symmetry_equiv_pos_site_id
 _symmetry_equiv_pos_as_xyz
  1  'x, y, z'
loop_
 _atom_site_type_symbol
 _atom_site_label
 _atom_site_symmetry_multiplicity
 _atom_site_fract_x
 _atom_site_fract_y
 _atom_site_fract_z
 _atom_site_occupancy
  Li  Li0  1  0.12098761  0.50710955  0.07593683  1
  Li  Li1  1  0.12098761  0.99289045  0.57593683  1
  Li  Li2  1  0.87901239  0.00710955  0.42406317  1
  Li  Li3  1  0.87901239  0.49289045  0.92406317  1
  Cu  Cu4  1  0.24158835  0.01480861  0.25205693  1
  Cu  Cu5  1  0.38292623  0.50483309  0.41776174  1
  Cu  Cu6  1  0.24158835  0.48519139  0.75205693  1
  Cu  Cu7  1  0.61707377  0.00483309  0.08223826  1
  Cu  Cu8  1  0.38292623  0.99516691  0.91776174  1
  Cu  Cu9  1  0.75841165  0.51480861  0.24794307  1
  Cu  Cu10  1  0.61707377  0.49516691  0.58223826  1
  Cu  Cu11  1  0.75841165  0.98519139  0.74794307  1
  F  F12  1  0.03906510  0.28070520  0.19652769  1
  F  F13  1  0.17789697  0.24100943  0.36005354  1
  F  F14  1  0.13385328  0.75469637  0.46873586  1
  F  F15  1  0.03906510  0.21929480  0.69652769  1
  F  F16  1  0.38342844  0.23049197  0.02577579  1
  F  F17  1  0.33405965  0.79100421  0.14285735  1
  F  F18  1  0.17789697  0.25899057  0.86005354  1
  F  F19  1  0.13385328  0.74530363  0.96873586  1
  F  F20  1  0.45728196  0.73808036  0.30430206  1
  F  F21  1  0.38342844  0.26950803  0.52577579  1
  F  F22  1  0.33405965  0.70899579  0.64285735  1
  F  F23  1  0.54271804  0.23808036  0.19569794  1
  F  F24  1  0.45728196  0.76191964  0.80430206  1
  F  F25  1  0.66594035  0.29100421  0.35714265  1
  F  F26  1  0.61657156  0.73049197  0.47422421  1
  F  F27  1  0.54271804  0.26191964  0.69569794  1
  F  F28  1  0.86614672  0.25469637  0.03126414  1
  F  F29  1  0.82210303  0.74100943  0.13994646  1
  F  F30  1  0.66594035  0.20899579  0.85714265  1
  F  F31  1  0.61657156  0.76950803  0.97422421  1
  F  F32  1  0.96093490  0.78070520  0.30347231  1
  F  F33  1  0.86614672  0.24530363  0.53126414  1
  F  F34  1  0.82210303  0.75899057  0.63994646  1
  F  F35  1  0.96093490  0.71929480  0.80347231  1
