# generated using pymatgen
data_LiTa3O8
_symmetry_space_group_name_H-M   'P 1'
_cell_length_a   16.98349268
_cell_length_b   7.78152864
_cell_length_c   8.99892652
_cell_angle_alpha   90.00000000
_cell_angle_beta   90.00000000
_cell_angle_gamma   90.00000000
_symmetry_Int_Tables_number   1
_chemical_formula_structural   LiTa3O8
_chemical_formula_sum   'Li8 Ta24 O64'
_cell_volume   1189.27594380
_cell_formula_units_Z   8
loop_
 _symmetry_equiv_pos_site_id
 _symmetry_equiv_pos_as_xyz
  1  'x, y, z'
loop_
 _atom_site_type_symbol
 _atom_site_label
 _atom_site_symmetry_multiplicity
 _atom_site_fract_x
 _atom_site_fract_y
 _atom_site_fract_z
 _atom_site_occupancy
  Li  Li0  1  0.09013507  0.75000000  0.07823596  1
  Li  Li1  1  0.25150180  0.25000000  0.31769841  1
  Li  Li2  1  0.41003941  0.75000000  0.08092117  1
  Li  Li3  1  0.49530058  0.25000000  0.53091019  1
  Li  Li4  1  0.59013507  0.25000000  0.92176404  1
  Li  Li5  1  0.75150180  0.75000000  0.68230159  1
  Li  Li6  1  0.91003941  0.25000000  0.91907883  1
  Li  Li7  1  0.99530058  0.75000000  0.46908981  1
  Ta  Ta8  1  0.05997216  0.50080813  0.80812714  1
  Ta  Ta9  1  0.05997216  0.99919187  0.80812714  1
  Ta  Ta10  1  0.12991290  0.99864287  0.39490990  1
  Ta  Ta11  1  0.12991290  0.50135713  0.39490990  1
  Ta  Ta12  1  0.25049486  0.49817211  0.68614149  1
  Ta  Ta13  1  0.24976913  0.99850059  0.05111495  1
  Ta  Ta14  1  0.24976913  0.50149941  0.05111495  1
  Ta  Ta15  1  0.25049486  0.00182789  0.68614149  1
  Ta  Ta16  1  0.37049776  0.99440873  0.39418183  1
  Ta  Ta17  1  0.37049776  0.50559127  0.39418183  1
  Ta  Ta18  1  0.43985175  0.50159874  0.81239708  1
  Ta  Ta19  1  0.43985175  0.99840126  0.81239708  1
  Ta  Ta20  1  0.55997216  0.00080813  0.19187286  1
  Ta  Ta21  1  0.55997216  0.49919187  0.19187286  1
  Ta  Ta22  1  0.62991290  0.49864287  0.60509010  1
  Ta  Ta23  1  0.62991290  0.00135713  0.60509010  1
  Ta  Ta24  1  0.75049486  0.99817211  0.31385851  1
  Ta  Ta25  1  0.75049486  0.50182789  0.31385851  1
  Ta  Ta26  1  0.74976913  0.49850059  0.94888505  1
  Ta  Ta27  1  0.74976913  0.00149941  0.94888505  1
  Ta  Ta28  1  0.87049776  0.49440873  0.60581817  1
  Ta  Ta29  1  0.87049776  0.00559127  0.60581817  1
  Ta  Ta30  1  0.93985175  0.00159874  0.18760292  1
  Ta  Ta31  1  0.93985175  0.49840126  0.18760292  1
  O  O32  1  0.99924377  0.99710514  0.99919024  1
  O  O33  1  0.99924377  0.50289486  0.99919024  1
  O  O34  1  0.02112871  0.02916197  0.33749565  1
  O  O35  1  0.02112871  0.47083803  0.33749565  1
  O  O36  1  0.04146290  0.25000000  0.80788181  1
  O  O37  1  0.07412927  0.75000000  0.84742143  1
  O  O38  1  0.10724426  0.75000000  0.41746092  1
  O  O39  1  0.13205559  0.00588849  0.61914704  1
  O  O40  1  0.13205559  0.49411151  0.61914704  1
  O  O41  1  0.14513373  0.25000000  0.38247826  1
  O  O42  1  0.16315969  0.54128460  0.18987859  1
  O  O43  1  0.16315969  0.95871540  0.18987859  1
  O  O44  1  0.17456964  0.02519177  0.87582967  1
  O  O45  1  0.17456964  0.47480823  0.87582967  1
  O  O46  1  0.25044253  0.75000000  0.69727130  1
  O  O47  1  0.25016874  0.98519781  0.45058284  1
  O  O48  1  0.25001744  0.25000000  0.67250544  1
  O  O49  1  0.25016874  0.51480219  0.45058284  1
  O  O50  1  0.25013257  0.75000000  0.01721080  1
  O  O51  1  0.24952742  0.25000000  0.09853383  1
  O  O52  1  0.32512721  0.02594824  0.87578366  1
  O  O53  1  0.32512721  0.47405176  0.87578366  1
  O  O54  1  0.33823849  0.53738410  0.18728700  1
  O  O55  1  0.33823849  0.96261590  0.18728700  1
  O  O56  1  0.35611306  0.25000000  0.38944777  1
  O  O57  1  0.36880985  0.00526741  0.61859943  1
  O  O58  1  0.36880985  0.49473259  0.61859943  1
  O  O59  1  0.38866474  0.75000000  0.41017232  1
  O  O60  1  0.42649065  0.75000000  0.84787322  1
  O  O61  1  0.45673261  0.25000000  0.79789638  1
  O  O62  1  0.48016522  0.04389348  0.34312207  1
  O  O63  1  0.48016522  0.45610652  0.34312207  1
  O  O64  1  0.49924377  0.00289486  0.00080976  1
  O  O65  1  0.49924377  0.49710514  0.00080976  1
  O  O66  1  0.52112871  0.52916197  0.66250435  1
  O  O67  1  0.52112871  0.97083803  0.66250435  1
  O  O68  1  0.54146290  0.75000000  0.19211819  1
  O  O69  1  0.57412927  0.25000000  0.15257857  1
  O  O70  1  0.60724426  0.25000000  0.58253908  1
  O  O71  1  0.63205559  0.50588849  0.38085296  1
  O  O72  1  0.63205559  0.99411151  0.38085296  1
  O  O73  1  0.64513373  0.75000000  0.61752174  1
  O  O74  1  0.66315969  0.04128460  0.81012141  1
  O  O75  1  0.66315969  0.45871540  0.81012141  1
  O  O76  1  0.67456964  0.52519177  0.12417033  1
  O  O77  1  0.67456964  0.97480823  0.12417033  1
  O  O78  1  0.75044253  0.25000000  0.30272870  1
  O  O79  1  0.75013257  0.25000000  0.98278920  1
  O  O80  1  0.75016874  0.48519781  0.54941716  1
  O  O81  1  0.75001744  0.75000000  0.32749456  1
  O  O82  1  0.74952742  0.75000000  0.90146617  1
  O  O83  1  0.75016874  0.01480219  0.54941716  1
  O  O84  1  0.82512721  0.52594824  0.12421634  1
  O  O85  1  0.82512721  0.97405176  0.12421634  1
  O  O86  1  0.83823849  0.03738410  0.81271300  1
  O  O87  1  0.83823849  0.46261590  0.81271300  1
  O  O88  1  0.85611306  0.75000000  0.61055223  1
  O  O89  1  0.86880985  0.50526741  0.38140057  1
  O  O90  1  0.86880985  0.99473259  0.38140057  1
  O  O91  1  0.88866474  0.25000000  0.58982768  1
  O  O92  1  0.92649065  0.25000000  0.15212678  1
  O  O93  1  0.95673261  0.75000000  0.20210362  1
  O  O94  1  0.98016522  0.54389348  0.65687793  1
  O  O95  1  0.98016522  0.95610652  0.65687793  1
