# generated using pymatgen
data_LiTa3O8
_symmetry_space_group_name_H-M   'P 1'
_cell_length_a   16.98935004
_cell_length_b   7.77965508
_cell_length_c   8.99835097
_cell_angle_alpha   90.00000000
_cell_angle_beta   89.69511946
_cell_angle_gamma   90.00000000
_symmetry_Int_Tables_number   1
_chemical_formula_structural   LiTa3O8
_chemical_formula_sum   'Li8 Ta24 O64'
_cell_volume   1189.30675829
_cell_formula_units_Z   8
loop_
 _symmetry_equiv_pos_site_id
 _symmetry_equiv_pos_as_xyz
  1  'x, y, z'
loop_
 _atom_site_type_symbol
 _atom_site_label
 _atom_site_symmetry_multiplicity
 _atom_site_fract_x
 _atom_site_fract_y
 _atom_site_fract_z
 _atom_site_occupancy
  Li  Li0  1  0.24831971  0.25000000  0.31203773  1
  Li  Li1  1  0.40500075  0.75000000  0.08241129  1
  Li  Li2  1  0.49436193  0.25000000  0.52832755  1
  Li  Li3  1  0.50530456  0.75000000  0.47276258  1
  Li  Li4  1  0.59157820  0.25000000  0.91690838  1
  Li  Li5  1  0.75144861  0.75000000  0.67955865  1
  Li  Li6  1  0.91703090  0.25000000  0.92036624  1
  Li  Li7  1  0.99485634  0.75000000  0.46740563  1
  Ta  Ta8  1  0.05990543  0.50288121  0.81005416  1
  Ta  Ta9  1  0.05990543  0.99711879  0.81005416  1
  Ta  Ta10  1  0.12834429  0.99842704  0.39774503  1
  Ta  Ta11  1  0.12834429  0.50157296  0.39774503  1
  Ta  Ta12  1  0.25114150  0.49824866  0.68675385  1
  Ta  Ta13  1  0.24933697  0.99715850  0.05081791  1
  Ta  Ta14  1  0.24933697  0.50284150  0.05081791  1
  Ta  Ta15  1  0.25114150  0.00175134  0.68675385  1
  Ta  Ta16  1  0.36796848  0.99564897  0.39180707  1
  Ta  Ta17  1  0.36796848  0.50435103  0.39180707  1
  Ta  Ta18  1  0.44032098  0.50137354  0.80927009  1
  Ta  Ta19  1  0.44032098  0.99862646  0.80927009  1
  Ta  Ta20  1  0.55932540  0.00162487  0.19057219  1
  Ta  Ta21  1  0.55932540  0.49837513  0.19057219  1
  Ta  Ta22  1  0.63178277  0.49573933  0.60781553  1
  Ta  Ta23  1  0.63178277  0.00426067  0.60781553  1
  Ta  Ta24  1  0.74949181  0.99829440  0.31500445  1
  Ta  Ta25  1  0.74949181  0.50170560  0.31500445  1
  Ta  Ta26  1  0.75007751  0.49842738  0.94941956  1
  Ta  Ta27  1  0.75007751  0.00157262  0.94941956  1
  Ta  Ta28  1  0.87171675  0.49441840  0.60511935  1
  Ta  Ta29  1  0.87171675  0.00558160  0.60511935  1
  Ta  Ta30  1  0.93966553  0.99999237  0.18655979  1
  Ta  Ta31  1  0.93966553  0.50000763  0.18655979  1
  O  O32  1  0.99317827  0.00065668  0.99325420  1
  O  O33  1  0.99317827  0.49934332  0.99325420  1
  O  O34  1  0.02072835  0.02656435  0.33584708  1
  O  O35  1  0.02072835  0.47343565  0.33584708  1
  O  O36  1  0.04399474  0.25000000  0.80694773  1
  O  O37  1  0.07155018  0.75000000  0.83159495  1
  O  O38  1  0.10721397  0.75000000  0.42133375  1
  O  O39  1  0.13370463  0.00668752  0.62118626  1
  O  O40  1  0.13370463  0.49331248  0.62118626  1
  O  O41  1  0.14421570  0.25000000  0.39057848  1
  O  O42  1  0.16959679  0.52907571  0.19957680  1
  O  O43  1  0.16959679  0.97092429  0.19957680  1
  O  O44  1  0.17517378  0.02227518  0.87781847  1
  O  O45  1  0.17517378  0.47772482  0.87781847  1
  O  O46  1  0.25117304  0.98222747  0.45286469  1
  O  O47  1  0.25177443  0.25000000  0.67200271  1
  O  O48  1  0.25117304  0.51777253  0.45286469  1
  O  O49  1  0.25459003  0.75000000  0.01840480  1
  O  O50  1  0.25253585  0.75000000  0.69848541  1
  O  O51  1  0.25321547  0.25000000  0.09301312  1
  O  O52  1  0.32748485  0.02664528  0.87517072  1
  O  O53  1  0.32748485  0.47335472  0.87517072  1
  O  O54  1  0.33994614  0.54015134  0.18629929  1
  O  O55  1  0.33994614  0.95984866  0.18629929  1
  O  O56  1  0.35487309  0.25000000  0.38534653  1
  O  O57  1  0.36996944  0.00662529  0.61812309  1
  O  O58  1  0.36996944  0.49337471  0.61812309  1
  O  O59  1  0.39487001  0.75000000  0.41401943  1
  O  O60  1  0.42855560  0.75000000  0.84494093  1
  O  O61  1  0.46186963  0.25000000  0.79376552  1
  O  O62  1  0.48012480  0.04063588  0.34683718  1
  O  O63  1  0.48012480  0.45936412  0.34683718  1
  O  O64  1  0.50018515  0.00029666  0.00034181  1
  O  O65  1  0.50018515  0.49970334  0.00034181  1
  O  O66  1  0.52029371  0.54045476  0.65338979  1
  O  O67  1  0.52029371  0.95954524  0.65338979  1
  O  O68  1  0.53952481  0.75000000  0.20681503  1
  O  O69  1  0.57236103  0.25000000  0.15523707  1
  O  O70  1  0.60539213  0.25000000  0.58610837  1
  O  O71  1  0.63096140  0.50625523  0.38275926  1
  O  O72  1  0.63096140  0.99374477  0.38275926  1
  O  O73  1  0.64451130  0.75000000  0.61512891  1
  O  O74  1  0.66121917  0.04194778  0.81394236  1
  O  O75  1  0.66121917  0.45805222  0.81394236  1
  O  O76  1  0.67315760  0.52628804  0.12484379  1
  O  O77  1  0.67315760  0.97371196  0.12484379  1
  O  O78  1  0.74809952  0.25000000  0.30364534  1
  O  O79  1  0.74887469  0.25000000  0.98251131  1
  O  O80  1  0.74932854  0.48468412  0.55129647  1
  O  O81  1  0.74891851  0.75000000  0.32962523  1
  O  O82  1  0.74849093  0.75000000  0.90106040  1
  O  O83  1  0.74932854  0.01531588  0.55129647  1
  O  O84  1  0.82336103  0.52457527  0.12480551  1
  O  O85  1  0.82336103  0.97542473  0.12480551  1
  O  O86  1  0.83720946  0.03619219  0.81177695  1
  O  O87  1  0.83720946  0.46380781  0.81177695  1
  O  O88  1  0.85610378  0.75000000  0.60916662  1
  O  O89  1  0.86708166  0.50275782  0.38195440  1
  O  O90  1  0.86708166  0.99724218  0.38195440  1
  O  O91  1  0.88847464  0.25000000  0.59107778  1
  O  O92  1  0.92568760  0.25000000  0.15836395  1
  O  O93  1  0.94907086  0.75000000  0.20718478  1
  O  O94  1  0.98051353  0.54003517  0.65525629  1
  O  O95  1  0.98051353  0.95996483  0.65525629  1
