# generated using pymatgen
data_Sb2H8Pt(OF3)4
_symmetry_space_group_name_H-M   'P 1'
_cell_length_a   5.06396631
_cell_length_b   7.88736459
_cell_length_c   8.62353518
_cell_angle_alpha   69.40070250
_cell_angle_beta   83.77323899
_cell_angle_gamma   75.81523036
_symmetry_Int_Tables_number   1
_chemical_formula_structural   Sb2H8Pt(OF3)4
_chemical_formula_sum   'Sb2 H8 Pt1 O4 F12'
_cell_volume   312.48956850
_cell_formula_units_Z   1
loop_
 _symmetry_equiv_pos_site_id
 _symmetry_equiv_pos_as_xyz
  1  'x, y, z'
loop_
 _atom_site_type_symbol
 _atom_site_label
 _atom_site_symmetry_multiplicity
 _atom_site_fract_x
 _atom_site_fract_y
 _atom_site_fract_z
 _atom_site_occupancy
  Sb  Sb0  1  0.35028694  0.33655246  0.33392004  1
  Sb  Sb1  1  0.64971301  0.66344847  0.66607872  1
  H  H2  1  0.73188129  0.75825118  0.01030971  1
  H  H3  1  0.80244947  0.72411159  0.19544513  1
  H  H4  1  0.23006838  0.86365918  0.29118480  1
  H  H5  1  0.94967660  0.01299631  0.29640070  1
  H  H6  1  0.05032362  0.98700310  0.70360088  1
  H  H7  1  0.76993309  0.13634087  0.70881505  1
  H  H8  1  0.19755341  0.27588756  0.80455435  1
  H  H9  1  0.26812014  0.24174882  0.98968988  1
  Pt  Pt10  1  -0.00000003  0.00000072  0.00000124  1
  O  O11  1  0.73940006  0.82323448  0.08991779  1
  O  O12  1  0.10910551  0.98087994  0.22656299  1
  O  O13  1  0.89089610  0.01912045  0.77343767  1
  O  O14  1  0.26060283  0.17676459  0.91008332  1
  F  F15  1  0.22634655  0.37115785  0.11791880  1
  F  F16  1  0.62944816  0.46737308  0.23069722  1
  F  F17  1  0.59096661  0.10738560  0.32720928  1
  F  F18  1  0.11054977  0.57083997  0.32706110  1
  F  F19  1  0.52788161  0.70719562  0.44781777  1
  F  F20  1  0.06813912  0.20622108  0.43736046  1
  F  F21  1  0.93186009  0.79377834  0.56263834  1
  F  F22  1  0.47211764  0.29280504  0.55218255  1
  F  F23  1  0.88945115  0.42915936  0.67293737  1
  F  F24  1  0.40903269  0.89261179  0.67279257  1
  F  F25  1  0.37055242  0.53262597  0.76930200  1
  F  F26  1  0.77365474  0.62884157  0.88208025  1
