# generated using pymatgen
data_Na2P2H12O11F2
_symmetry_space_group_name_H-M   'P 1'
_cell_length_a   5.42748192
_cell_length_b   9.98107086
_cell_length_c   12.85687298
_cell_angle_alpha   108.10363214
_cell_angle_beta   90.00000000
_cell_angle_gamma   105.77668993
_symmetry_Int_Tables_number   1
_chemical_formula_structural   Na2P2H12O11F2
_chemical_formula_sum   'Na4 P4 H24 O22 F4'
_cell_volume   634.34292876
_cell_formula_units_Z   2
loop_
 _symmetry_equiv_pos_site_id
 _symmetry_equiv_pos_as_xyz
  1  'x, y, z'
loop_
 _atom_site_type_symbol
 _atom_site_label
 _atom_site_symmetry_multiplicity
 _atom_site_fract_x
 _atom_site_fract_y
 _atom_site_fract_z
 _atom_site_occupancy
  Na  Na0  1  0.89503466  0.95743630  0.12040010  1
  Na  Na1  1  0.93759836  0.04256370  0.37959990  1
  Na  Na2  1  0.10496534  0.04256370  0.87959990  1
  Na  Na3  1  0.06240164  0.95743630  0.62040010  1
  P  P4  1  0.99822874  0.67701755  0.22394881  1
  P  P5  1  0.32121119  0.32298245  0.27605119  1
  P  P6  1  0.00177126  0.32298245  0.77605119  1
  P  P7  1  0.67878881  0.67701755  0.72394881  1
  H  H8  1  0.25899383  0.53363664  0.18922050  1
  H  H9  1  0.72535719  0.46636336  0.31077950  1
  H  H10  1  0.74100617  0.46636336  0.81077950  1
  H  H11  1  0.27464281  0.53363664  0.68922050  1
  H  H12  1  0.44318701  0.69979625  0.06007655  1
  H  H13  1  0.74339076  0.30020375  0.43992345  1
  H  H14  1  0.55681299  0.30020375  0.93992345  1
  H  H15  1  0.25660924  0.69979625  0.56007655  1
  H  H16  1  0.56782790  0.69691189  0.94865165  1
  H  H17  1  0.87091601  0.30308811  0.55134835  1
  H  H18  1  0.43217210  0.30308811  0.05134835  1
  H  H19  1  0.12908399  0.69691189  0.44865165  1
  H  H20  1  0.56092659  0.83439366  0.48344989  1
  H  H21  1  0.72653292  0.16560634  0.01655011  1
  H  H22  1  0.43907341  0.16560634  0.51655011  1
  H  H23  1  0.27346708  0.83439366  0.98344989  1
  H  H24  1  0.76976542  0.77425665  0.41499167  1
  H  H25  1  0.99550876  0.22574335  0.08500833  1
  H  H26  1  0.23023458  0.22574335  0.58500833  1
  H  H27  1  0.00449124  0.77425665  0.91499167  1
  H  H28  1  0.42477824  0.91875326  0.24352804  1
  H  H29  1  0.50602498  0.08124674  0.25647196  1
  H  H30  1  0.57522176  0.08124674  0.75647196  1
  H  H31  1  0.49397502  0.91875326  0.74352804  1
  O  O32  1  0.03852841  0.83593615  0.23555312  1
  O  O33  1  0.20259226  0.16406385  0.26444688  1
  O  O34  1  0.96147159  0.16406385  0.76444688  1
  O  O35  1  0.79740774  0.83593615  0.73555312  1
  O  O36  1  0.89431086  0.62499353  0.31894438  1
  O  O37  1  0.26931733  0.37500647  0.18105562  1
  O  O38  1  0.10568914  0.37500647  0.68105562  1
  O  O39  1  0.73068267  0.62499353  0.81894438  1
  O  O40  1  0.25313712  0.63491460  0.18759928  1
  O  O41  1  0.61822252  0.36508540  0.31240072  1
  O  O42  1  0.74686288  0.36508540  0.81240072  1
  O  O43  1  0.38177748  0.63491460  0.68759928  1
  O  O44  1  0.51857596  0.76162045  0.01531426  1
  O  O45  1  0.75695551  0.23837955  0.48468574  1
  O  O46  1  0.48142404  0.23837955  0.98468574  1
  O  O47  1  0.24304449  0.76162045  0.51531426  1
  O  O48  1  0.74205757  0.86446967  0.46626611  1
  O  O49  1  0.87758790  0.13553033  0.03373389  1
  O  O50  1  0.25794243  0.13553033  0.53373389  1
  O  O51  1  0.12241210  0.86446967  0.96626611  1
  O  O52  1  0.58053961  -0.00000000  0.25000000  1
  O  O53  1  0.41946039  -0.00000000  0.75000000  1
  F  F54  1  0.79689974  0.57822607  0.11994713  1
  F  F55  1  0.21867367  0.42177393  0.38005287  1
  F  F56  1  0.20310026  0.42177393  0.88005287  1
  F  F57  1  0.78132633  0.57822607  0.61994713  1
