# generated using pymatgen
data_Zr11VO24
_symmetry_space_group_name_H-M   'P 1'
_cell_length_a   9.64633619
_cell_length_b   7.37759588
_cell_length_c   6.82737610
_cell_angle_alpha   63.92213225
_cell_angle_beta   91.65133074
_cell_angle_gamma   86.84243974
_symmetry_Int_Tables_number   1
_chemical_formula_structural   Zr11VO24
_chemical_formula_sum   'Zr11 V1 O24'
_cell_volume   434.99322002
_cell_formula_units_Z   1
loop_
 _symmetry_equiv_pos_site_id
 _symmetry_equiv_pos_as_xyz
  1  'x, y, z'
loop_
 _atom_site_type_symbol
 _atom_site_label
 _atom_site_symmetry_multiplicity
 _atom_site_fract_x
 _atom_site_fract_y
 _atom_site_fract_z
 _atom_site_occupancy
  Zr  Zr0  1  0.00522893  0.05145523  0.21326474  1
  Zr  Zr1  1  0.32629795  0.28380393  0.11335749  1
  Zr  Zr2  1  0.03629950  0.49440353  0.74458700  1
  Zr  Zr3  1  0.34569133  0.38280306  0.55293274  1
  Zr  Zr4  1  0.37253851  0.82953324  0.07779340  1
  Zr  Zr5  1  0.70113697  0.15890519  0.41751397  1
  Zr  Zr6  1  0.29556241  0.84074645  0.58643331  1
  Zr  Zr7  1  0.65796093  0.61296268  0.44912490  1
  Zr  Zr8  1  0.96384245  0.50585155  0.25483928  1
  Zr  Zr9  1  0.67419772  0.72493433  0.88791972  1
  Zr  Zr10  1  0.98933925  0.94970531  0.78166892  1
  V  V11  1  0.63037674  0.18490022  0.93353824  1
  O  O12  1  0.09045456  0.34856310  0.11096711  1
  O  O13  1  0.31837275  0.14675045  0.46811896  1
  O  O14  1  0.01880318  0.18623661  0.86260629  1
  O  O15  1  0.54000750  0.20263062  0.18397617  1
  O  O16  1  0.13141806  0.46100403  0.47498427  1
  O  O17  1  0.35546973  0.51929152  0.19671421  1
  O  O18  1  0.78996269  0.12579814  0.13136205  1
  O  O19  1  0.41391718  0.16272266  0.88502803  1
  O  O20  1  0.06972437  0.82949332  0.54876892  1
  O  O21  1  0.24121948  0.98652836  0.21882629  1
  O  O22  1  0.57561873  0.31812054  0.55444428  1
  O  O23  1  0.26258733  0.50343201  0.78308998  1
  O  O24  1  0.73652799  0.49420393  0.21672650  1
  O  O25  1  0.75481269  0.02106296  0.78306698  1
  O  O26  1  0.42471262  0.68293288  0.44474639  1
  O  O27  1  0.92472564  0.16980246  0.44463187  1
  O  O28  1  0.59741100  0.84036201  0.11731690  1
  O  O29  1  0.20278990  0.87300916  0.85685182  1
  O  O30  1  0.64511103  0.46566959  0.80970699  1
  O  O31  1  0.86946885  0.53686626  0.52522208  1
  O  O32  1  0.46365176  0.79133334  0.80910804  1
  O  O33  1  0.98149734  0.81295045  0.13619680  1
  O  O34  1  0.68587757  0.84937701  0.53614372  1
  O  O35  1  0.90738737  0.65185484  0.88842064  1
