# generated using pymatgen
data_Li5(BiO3)4
_symmetry_space_group_name_H-M   'P 1'
_cell_length_a   5.51576925
_cell_length_b   10.24195922
_cell_length_c   10.76922954
_cell_angle_alpha   74.36277173
_cell_angle_beta   77.81052708
_cell_angle_gamma   79.55309402
_symmetry_Int_Tables_number   1
_chemical_formula_structural   Li5(BiO3)4
_chemical_formula_sum   'Li10 Bi8 O24'
_cell_volume   567.62839498
_cell_formula_units_Z   2
loop_
 _symmetry_equiv_pos_site_id
 _symmetry_equiv_pos_as_xyz
  1  'x, y, z'
loop_
 _atom_site_type_symbol
 _atom_site_label
 _atom_site_symmetry_multiplicity
 _atom_site_fract_x
 _atom_site_fract_y
 _atom_site_fract_z
 _atom_site_occupancy
  Li  Li0  1  0.23785156  0.10412686  0.26704572  1
  Li  Li1  1  0.21062546  0.10644505  0.68233229  1
  Li  Li2  1  0.20298307  0.24915718  0.94747762  1
  Li  Li3  1  0.15908821  0.60955723  0.81445972  1
  Li  Li4  1  0.43427930  0.40245163  0.62481680  1
  Li  Li5  1  0.56572070  0.59754837  0.37518320  1
  Li  Li6  1  0.84091179  0.39044277  0.18554028  1
  Li  Li7  1  0.79701693  0.75084282  0.05252238  1
  Li  Li8  1  0.78937454  0.89355495  0.31766771  1
  Li  Li9  1  0.76214844  0.89587314  0.73295428  1
  Bi  Bi10  1  0.13917050  0.39107205  0.40806317  1
  Bi  Bi11  1  0.33071934  0.57452421  0.11090946  1
  Bi  Bi12  1  0.27011568  0.90991375  0.02227847  1
  Bi  Bi13  1  0.27804927  0.89208272  0.52453054  1
  Bi  Bi14  1  0.72195073  0.10791728  0.47546946  1
  Bi  Bi15  1  0.72988432  0.09008625  0.97772153  1
  Bi  Bi16  1  0.66928066  0.42547579  0.88909054  1
  Bi  Bi17  1  0.86082950  0.60892795  0.59193683  1
  O  O18  1  0.99947256  0.25422332  0.33160719  1
  O  O19  1  0.28959142  0.43877660  0.99638803  1
  O  O20  1  0.35661900  0.07906318  0.08627455  1
  O  O21  1  0.10966056  0.07329033  0.87494126  1
  O  O22  1  0.01401399  0.45569567  0.76223034  1
  O  O23  1  0.02005038  0.96468564  0.38389512  1
  O  O24  1  0.35995436  0.25877978  0.54391345  1
  O  O25  1  0.22266039  0.55475038  0.48108459  1
  O  O26  1  0.50425731  0.03451897  0.36678537  1
  O  O27  1  0.16817260  0.74082827  0.96622770  1
  O  O28  1  0.48362237  0.43339933  0.26898287  1
  O  O29  1  0.43346783  0.74561774  0.16430415  1
  O  O30  1  0.56653217  0.25438226  0.83569585  1
  O  O31  1  0.51637763  0.56660067  0.73101713  1
  O  O32  1  0.83182740  0.25917173  0.03377230  1
  O  O33  1  0.49574269  0.96548103  0.63321463  1
  O  O34  1  0.77733961  0.44524962  0.51891541  1
  O  O35  1  0.64004564  0.74122022  0.45608655  1
  O  O36  1  0.97994962  0.03531436  0.61610488  1
  O  O37  1  0.98598601  0.54430433  0.23776966  1
  O  O38  1  0.89033944  0.92670967  0.12505874  1
  O  O39  1  0.64338100  0.92093682  0.91372545  1
  O  O40  1  0.71040858  0.56122340  0.00361197  1
  O  O41  1  0.00052744  0.74577668  0.66839281  1
