# generated using pymatgen
data_V18Ag7O48
_symmetry_space_group_name_H-M   'P 1'
_cell_length_a   10.45804030
_cell_length_b   8.36005054
_cell_length_c   12.92393146
_cell_angle_alpha   82.00333039
_cell_angle_beta   66.02507014
_cell_angle_gamma   70.12135882
_symmetry_Int_Tables_number   1
_chemical_formula_structural   V18Ag7O48
_chemical_formula_sum   'V18 Ag7 O48'
_cell_volume   970.92981685
_cell_formula_units_Z   1
loop_
 _symmetry_equiv_pos_site_id
 _symmetry_equiv_pos_as_xyz
  1  'x, y, z'
loop_
 _atom_site_type_symbol
 _atom_site_label
 _atom_site_symmetry_multiplicity
 _atom_site_fract_x
 _atom_site_fract_y
 _atom_site_fract_z
 _atom_site_occupancy
  V  V0  1  0.99519989  0.82164219  0.07879065  1
  V  V1  1  0.67236398  0.51403743  0.92080192  1
  V  V2  1  0.33937073  0.84442118  0.91950819  1
  V  V3  1  0.28220920  0.85543382  0.54087627  1
  V  V4  1  0.61582500  0.52186024  0.53987524  1
  V  V5  1  0.94948860  0.18843109  0.54089389  1
  V  V6  1  0.78771067  0.13656835  0.81046246  1
  V  V7  1  0.12172575  0.80355223  0.81032253  1
  V  V8  1  0.45860663  0.47303713  0.80705479  1
  V  V9  1  0.54537560  0.52909672  0.18974674  1
  V  V10  1  0.87599439  0.19156511  0.19304939  1
  V  V11  1  0.20757363  0.86058436  0.19651079  1
  V  V12  1  0.38369958  0.47789586  0.45930275  1
  V  V13  1  0.05036194  0.81103986  0.46014051  1
  V  V14  1  0.71718518  0.14454040  0.46029403  1
  V  V15  1  0.33148959  0.49357616  0.08163810  1
  V  V16  1  0.66247376  0.15331818  0.07906789  1
  V  V17  1  0.00373861  0.17924607  0.91936274  1
  Ag  Ag18  1  0.68950293  0.80898547  0.68109888  1
  Ag  Ag19  1  0.64396416  0.85732399  0.31856323  1
  Ag  Ag20  1  0.97666961  0.52475210  0.31988688  1
  Ag  Ag21  1  0.02214927  0.47579130  0.68083974  1
  Ag  Ag22  1  0.35579358  0.14159039  0.67964334  1
  Ag  Ag23  1  0.31123922  0.18988222  0.31993519  1
  Ag  Ag24  1  0.23119840  0.21207124  0.02105047  1
  O  O25  1  0.94789716  0.69944159  0.55266482  1
  O  O26  1  0.44056964  0.94189606  0.81306491  1
  O  O27  1  0.77312428  0.61035468  0.81424340  1
  O  O28  1  0.89455634  0.72467299  0.18503601  1
  O  O29  1  0.38492149  0.96689159  0.44905625  1
  O  O30  1  0.71803021  0.63389671  0.44823401  1
  O  O31  1  0.14282566  0.96582098  0.92844249  1
  O  O32  1  0.47786437  0.63005852  0.92843782  1
  O  O33  1  0.81040524  0.29898610  0.92803953  1
  O  O34  1  0.91323336  0.25221816  0.67622258  1
  O  O35  1  0.24644886  0.91871553  0.67634883  1
  O  O36  1  0.58014856  0.58595304  0.67594127  1
  O  O37  1  0.96996594  0.01784141  0.82747901  1
  O  O38  1  0.30383467  0.68503134  0.82707093  1
  O  O39  1  0.63747100  0.35113651  0.82684319  1
  O  O40  1  0.56391902  0.64778319  0.27003343  1
  O  O41  1  0.89886937  0.31324123  0.26922511  1
  O  O42  1  0.23046539  0.98483124  0.27177310  1
  O  O43  1  0.42455348  0.63679287  0.53867525  1
  O  O44  1  0.75718561  0.30392547  0.53889365  1
  O  O45  1  0.09079877  0.97050864  0.53901844  1
  O  O46  1  0.65432951  0.60117120  0.04513712  1
  O  O47  1  0.98939763  0.26808492  0.04398485  1
  O  O48  1  0.32363207  0.93330012  0.04194137  1
  O  O49  1  0.01452390  0.73121358  0.95383393  1
  O  O50  1  0.67982120  0.06549312  0.95329378  1
  O  O51  1  0.34775958  0.40358967  0.95348264  1
  O  O52  1  0.57601537  0.36325729  0.46143681  1
  O  O53  1  0.90838590  0.03007066  0.46165581  1
  O  O54  1  0.24258306  0.69607227  0.46165915  1
  O  O55  1  0.10261318  0.68549883  0.73014203  1
  O  O56  1  0.43604911  0.35238405  0.73066688  1
  O  O57  1  0.76916936  0.01889988  0.72971915  1
  O  O58  1  0.02495154  0.98658713  0.17117898  1
  O  O59  1  0.69681834  0.31409038  0.17075674  1
  O  O60  1  0.36825676  0.64090112  0.17062568  1
  O  O61  1  0.42019383  0.41269944  0.32457657  1
  O  O62  1  0.75114874  0.08131676  0.32501183  1
  O  O63  1  0.08401255  0.74477460  0.32680695  1
  O  O64  1  0.18942127  0.70203494  0.07241884  1
  O  O65  1  0.52358385  0.36550941  0.07041915  1
  O  O66  1  0.85596598  0.03456889  0.07060743  1
  O  O67  1  0.28175919  0.36586410  0.55181433  1
  O  O68  1  0.61481044  0.03275457  0.55220655  1
  O  O69  1  0.10653207  0.27583475  0.81385254  1
  O  O70  1  0.22815820  0.39292221  0.18461969  1
  O  O71  1  0.56104332  0.05710844  0.18491149  1
  O  O72  1  0.05098574  0.30095874  0.44884209  1
