# generated using pymatgen
data_GaFeO3
_symmetry_space_group_name_H-M   'P 1'
_cell_length_a   8.85977306
_cell_length_b   9.53169772
_cell_length_c   5.16462236
_cell_angle_alpha   90.11267340
_cell_angle_beta   89.93213611
_cell_angle_gamma   90.03599690
_symmetry_Int_Tables_number   1
_chemical_formula_structural   GaFeO3
_chemical_formula_sum   'Ga8 Fe8 O24'
_cell_volume   436.14429925
_cell_formula_units_Z   8
loop_
 _symmetry_equiv_pos_site_id
 _symmetry_equiv_pos_as_xyz
  1  'x, y, z'
loop_
 _atom_site_type_symbol
 _atom_site_label
 _atom_site_symmetry_multiplicity
 _atom_site_fract_x
 _atom_site_fract_y
 _atom_site_fract_z
 _atom_site_occupancy
  Ga  Ga0  1  0.03369164  0.79675405  0.67701718  1
  Ga  Ga1  1  0.15305146  0.99890626  0.17559878  1
  Ga  Ga2  1  0.16094594  0.30598565  0.81425903  1
  Ga  Ga3  1  0.33856342  0.30596060  0.31470922  1
  Ga  Ga4  1  0.34635202  0.99881328  0.67638922  1
  Ga  Ga5  1  0.65180452  0.49914449  0.32467172  1
  Ga  Ga6  1  0.66069589  0.80650356  0.68692162  1
  Ga  Ga7  1  0.84735196  0.50000667  0.82305592  1
  Fe  Fe8  1  0.15183246  0.58278333  0.18794312  1
  Fe  Fe9  1  0.34683623  0.58317480  0.68993394  1
  Fe  Fe10  1  0.46907936  0.79764340  0.17641784  1
  Fe  Fe11  1  0.53061221  0.29780095  0.82444979  1
  Fe  Fe12  1  0.65155186  0.08233335  0.30993700  1
  Fe  Fe13  1  0.83955437  0.80730974  0.18761302  1
  Fe  Fe14  1  0.84842664  0.08278966  0.80890344  1
  Fe  Fe15  1  0.96962377  0.29821608  0.32447303  1
  O  O16  1  0.00206684  0.70314074  0.35216632  1
  O  O17  1  0.01082165  0.43229766  0.01368298  1
  O  O18  1  0.16055515  0.19662777  0.15384318  1
  O  O19  1  0.16927852  0.67309463  0.84624728  1
  O  O20  1  0.16795786  0.93845896  0.51528260  1
  O  O21  1  0.17646288  0.42239109  0.47477360  1
  O  O22  1  0.32140432  0.42381744  0.97504833  1
  O  O23  1  0.33122754  0.93971998  0.01557236  1
  O  O24  1  0.32982515  0.67106673  0.34619057  1
  O  O25  1  0.33889094  0.19648552  0.65399114  1
  O  O26  1  0.48780762  0.43139584  0.51410879  1
  O  O27  1  0.50232919  0.70148831  0.84511748  1
  O  O28  1  0.49790030  0.20298596  0.15598316  1
  O  O29  1  0.51089900  0.93178346  0.48711897  1
  O  O30  1  0.65892056  0.69643453  0.34765446  1
  O  O31  1  0.66977990  0.17213611  0.65332065  1
  O  O32  1  0.66947928  0.44021519  0.98485561  1
  O  O33  1  0.67433658  0.92540256  0.02128883  1
  O  O34  1  0.82248447  0.92406900  0.52616342  1
  O  O35  1  0.83035628  0.43989967  0.48437411  1
  O  O36  1  0.83151158  0.17001444  0.15462642  1
  O  O37  1  0.84171234  0.69765613  0.84310673  1
  O  O38  1  0.99207431  0.93078344  0.97719817  1
  O  O39  1  0.00194698  0.20290897  0.65599200  1
