# generated using pymatgen
data_U(PO3)4
_symmetry_space_group_name_H-M   'P 1'
_cell_length_a   8.33187195
_cell_length_b   8.33497398
_cell_length_c   8.98567338
_cell_angle_alpha   118.56835111
_cell_angle_beta   119.40628517
_cell_angle_gamma   90.30011663
_symmetry_Int_Tables_number   1
_chemical_formula_structural   U(PO3)4
_chemical_formula_sum   'U2 P8 O24'
_cell_volume   453.32730928
_cell_formula_units_Z   2
loop_
 _symmetry_equiv_pos_site_id
 _symmetry_equiv_pos_as_xyz
  1  'x, y, z'
loop_
 _atom_site_type_symbol
 _atom_site_label
 _atom_site_symmetry_multiplicity
 _atom_site_fract_x
 _atom_site_fract_y
 _atom_site_fract_z
 _atom_site_occupancy
  U  U0  1  0.08903115  0.08793502  0.07942784  1
  U  U1  1  0.67859271  0.66387921  0.23062358  1
  P  P2  1  0.94453228  0.39941305  0.44947524  1
  P  P3  1  0.62101040  0.15938179  0.41525396  1
  P  P4  1  0.38734996  0.61578482  0.42316261  1
  P  P5  1  0.82288543  0.35235502  0.86048133  1
  P  P6  1  0.59072173  0.81765994  0.87458459  1
  P  P7  1  0.17694851  0.93401009  0.43541978  1
  P  P8  1  0.14634252  0.59241785  0.89474183  1
  P  P9  1  0.38034015  0.13588645  0.88677623  1
  O  O10  1  0.64320135  0.28364114  0.63228244  1
  O  O11  1  0.68076312  0.98468478  0.39739245  1
  O  O12  1  0.12422189  0.46831992  0.67772997  1
  O  O13  1  0.32221353  0.10457856  0.67290388  1
  O  O14  1  0.98071981  0.24927594  0.30103378  1
  O  O15  1  0.57032061  0.74711555  0.99067982  1
  O  O16  1  0.49904876  0.98793238  0.89679762  1
  O  O17  1  0.42429239  0.13167436  0.24935079  1
  O  O18  1  0.19726405  0.00458861  0.31931146  1
  O  O19  1  0.08662831  0.76713774  0.91259473  1
  O  O20  1  0.44560036  0.64713246  0.63707469  1
  O  O21  1  0.78929237  0.87890965  0.92372986  1
  O  O22  1  0.78681651  0.50261468  0.00897539  1
  O  O23  1  0.26868752  0.76377846  0.41318521  1
  O  O24  1  0.56745887  0.66823559  0.43392034  1
  O  O25  1  0.00000288  0.44286872  0.87061610  1
  O  O26  1  0.97842491  0.87276000  0.38631142  1
  O  O27  1  0.85758023  0.18115621  0.87509582  1
  O  O28  1  0.76739798  0.30873453  0.43922545  1
  O  O29  1  0.52352889  0.33454105  0.05022754  1
  O  O30  1  0.90984385  0.57072923  0.43496609  1
  O  O31  1  0.24416569  0.41724442  0.25974853  1
  O  O32  1  0.34316274  0.62013524  0.06067061  1
  O  O33  1  0.20031054  0.08348451  0.87603003  1
