# generated using pymatgen
data_Nd2SnHg
_symmetry_space_group_name_H-M   'P 1'
_cell_length_a   5.45146505
_cell_length_b   5.45146505
_cell_length_c   5.45146505
_cell_angle_alpha   60.07182710
_cell_angle_beta   60.07182710
_cell_angle_gamma   60.07182710
_symmetry_Int_Tables_number   1
_chemical_formula_structural   Nd2SnHg
_chemical_formula_sum   'Nd2 Sn1 Hg1'
_cell_volume   114.74428180
_cell_formula_units_Z   1
loop_
 _symmetry_equiv_pos_site_id
 _symmetry_equiv_pos_as_xyz
  1  'x, y, z'
loop_
 _atom_site_type_symbol
 _atom_site_label
 _atom_site_symmetry_multiplicity
 _atom_site_fract_x
 _atom_site_fract_y
 _atom_site_fract_z
 _atom_site_occupancy
  Nd  Nd0  1  0.00000694  0.00000694  0.00000694  1
  Nd  Nd1  1  0.49999295  0.49999295  0.49999295  1
  Sn  Sn2  1  0.75001114  0.75001114  0.75001114  1
  Hg  Hg3  1  0.24998897  0.24998897  0.24998897  1
