# generated using pymatgen
data_Pu(Mg4Al3)4
_symmetry_space_group_name_H-M   'P 1'
_cell_length_a   8.87688282
_cell_length_b   9.30072552
_cell_length_c   9.30072597
_cell_angle_alpha   110.37587818
_cell_angle_beta   108.55066248
_cell_angle_gamma   108.55066445
_symmetry_Int_Tables_number   1
_chemical_formula_structural   Pu(Mg4Al3)4
_chemical_formula_sum   'Pu1 Mg16 Al12'
_cell_volume   597.69636944
_cell_formula_units_Z   1
loop_
 _symmetry_equiv_pos_site_id
 _symmetry_equiv_pos_as_xyz
  1  'x, y, z'
loop_
 _atom_site_type_symbol
 _atom_site_label
 _atom_site_symmetry_multiplicity
 _atom_site_fract_x
 _atom_site_fract_y
 _atom_site_fract_z
 _atom_site_occupancy
  Pu  Pu0  1  0.37363687  0.00000000  0.00000000  1
  Mg  Mg1  1  0.99706450  0.34022606  0.00000000  1
  Mg  Mg2  1  0.31703057  0.59676409  -0.00000000  1
  Mg  Mg3  1  0.00159474  0.00000000  0.00000000  1
  Mg  Mg4  1  0.60611625  0.33055452  -0.00000000  1
  Mg  Mg5  1  0.69069065  0.68910699  0.29981870  1
  Mg  Mg6  1  0.00158366  0.61071071  0.31089301  1
  Mg  Mg7  1  0.60611525  -0.00000000  0.33055552  1
  Mg  Mg8  1  0.99706450  0.99999900  0.34022706  1
  Mg  Mg9  1  0.39087395  0.70018230  0.38929029  1
  Mg  Mg10  1  0.72026748  0.40323791  0.40323691  1
  Mg  Mg11  1  0.31703057  -0.00000000  0.59676409  1
  Mg  Mg12  1  0.00158366  0.31089301  0.61071071  1
  Mg  Mg13  1  0.65683644  0.65977094  0.65977194  1
  Mg  Mg14  1  0.27556074  0.66944548  0.66944448  1
  Mg  Mg15  1  0.69069065  0.29981770  0.68910699  1
  Mg  Mg16  1  0.39087395  0.38929029  0.70018330  1
  Al  Al17  1  0.80889221  0.63902262  0.00000000  1
  Al  Al18  1  0.62360407  0.81886808  -0.00000000  1
  Al  Al19  1  0.36614773  0.35844153  0.17710747  1
  Al  Al20  1  0.80473600  0.18113292  0.18113292  1
  Al  Al21  1  0.18903926  0.82289153  0.18133206  1
  Al  Al22  1  0.36614773  0.17710747  0.35844153  1
  Al  Al23  1  0.16987059  0.36097838  0.36097738  1
  Al  Al24  1  0.80889221  0.99999900  0.63902262  1
  Al  Al25  1  0.00770620  0.81866794  0.64155947  1
  Al  Al26  1  0.00770620  0.64155947  0.81866794  1
  Al  Al27  1  0.62360407  -0.00000000  0.81886808  1
  Al  Al28  1  0.18903926  0.18133206  0.82289153  1
