# generated using pymatgen
data_NdDy3
_symmetry_space_group_name_H-M   'P 1'
_cell_length_a   5.06497261
_cell_length_b   5.06498238
_cell_length_c   5.06497550
_cell_angle_alpha   90.00091255
_cell_angle_beta   90.00036855
_cell_angle_gamma   89.99963654
_symmetry_Int_Tables_number   1
_chemical_formula_structural   NdDy3
_chemical_formula_sum   'Nd1 Dy3'
_cell_volume   129.93686640
_cell_formula_units_Z   1
loop_
 _symmetry_equiv_pos_site_id
 _symmetry_equiv_pos_as_xyz
  1  'x, y, z'
loop_
 _atom_site_type_symbol
 _atom_site_label
 _atom_site_symmetry_multiplicity
 _atom_site_fract_x
 _atom_site_fract_y
 _atom_site_fract_z
 _atom_site_occupancy
  Nd  Nd0  1  0.99999894  0.00000109  0.00000045  1
  Dy  Dy1  1  0.99999943  0.50000159  0.50000264  1
  Dy  Dy2  1  0.50000297  0.50000215  0.99999852  1
  Dy  Dy3  1  0.50000265  0.99999918  0.50000239  1
