# generated using pymatgen
data_NdHo3
_symmetry_space_group_name_H-M   'P 1'
_cell_length_a   5.04910094
_cell_length_b   5.04918571
_cell_length_c   5.04909476
_cell_angle_alpha   89.99955256
_cell_angle_beta   89.99936691
_cell_angle_gamma   89.99966173
_symmetry_Int_Tables_number   1
_chemical_formula_structural   NdHo3
_chemical_formula_sum   'Nd1 Ho3'
_cell_volume   128.72085593
_cell_formula_units_Z   1
loop_
 _symmetry_equiv_pos_site_id
 _symmetry_equiv_pos_as_xyz
  1  'x, y, z'
loop_
 _atom_site_type_symbol
 _atom_site_label
 _atom_site_symmetry_multiplicity
 _atom_site_fract_x
 _atom_site_fract_y
 _atom_site_fract_z
 _atom_site_occupancy
  Nd  Nd0  1  0.00000106  0.00000661  0.00000056  1
  Ho  Ho1  1  0.49999377  0.99999580  0.49999476  1
  Ho  Ho2  1  0.00000577  0.49999482  0.49999712  1
  Ho  Ho3  1  0.49999941  0.50000277  0.00000756  1
