# generated using pymatgen
data_TiV3Fe2(PO4)6
_symmetry_space_group_name_H-M   'P 1'
_cell_length_a   8.53921903
_cell_length_b   8.67837077
_cell_length_c   8.67837096
_cell_angle_alpha   60.00000039
_cell_angle_beta   59.45946608
_cell_angle_gamma   59.45946745
_symmetry_Int_Tables_number   1
_chemical_formula_structural   TiV3Fe2(PO4)6
_chemical_formula_sum   'Ti1 V3 Fe2 P6 O24'
_cell_volume   451.00626037
_cell_formula_units_Z   1
loop_
 _symmetry_equiv_pos_site_id
 _symmetry_equiv_pos_as_xyz
  1  'x, y, z'
loop_
 _atom_site_type_symbol
 _atom_site_label
 _atom_site_symmetry_multiplicity
 _atom_site_fract_x
 _atom_site_fract_y
 _atom_site_fract_z
 _atom_site_occupancy
  Ti  Ti0  1  0.56911709  0.14362764  0.14362764  1
  V  V1  1  0.07587173  0.64137642  0.64137642  1
  V  V2  1  0.42968572  0.85677109  0.85677109  1
  V  V3  1  0.92560401  0.35813233  0.35813233  1
  Fe  Fe4  1  0.00027726  0.99990725  0.99990725  1
  Fe  Fe5  1  0.50110555  0.49963148  0.49963148  1
  P  P6  1  0.24834465  0.25063463  0.54375108  1
  P  P7  1  0.24834465  0.95727064  0.25063463  1
  P  P8  1  0.24834465  0.54375108  0.95727064  1
  P  P9  1  0.75191337  0.45750685  0.04087598  1
  P  P10  1  0.75191337  0.04087598  0.74970380  1
  P  P11  1  0.75191337  0.74970380  0.45750685  1
  O  O12  1  0.06500113  0.11547156  0.31508024  1
  O  O13  1  0.06500113  0.50444707  0.11547156  1
  O  O14  1  0.06500113  0.31508024  0.50444707  1
  O  O15  1  0.23091636  0.08867864  0.73866575  1
  O  O16  1  0.43043365  0.18329493  0.38122382  1
  O  O17  1  0.27450691  0.40836673  0.55458687  1
  O  O18  1  0.23091636  0.94173925  0.08867864  1
  O  O19  1  0.27450691  0.76253950  0.40836673  1
  O  O20  1  0.56667168  0.61558244  0.00320002  1
  O  O21  1  0.27450691  0.55458687  0.76253950  1
  O  O22  1  0.76827808  0.26028127  0.05926287  1
  O  O23  1  0.56667168  0.00320002  0.81454587  1
  O  O24  1  0.43043365  0.00504759  0.18329493  1
  O  O25  1  0.23091636  0.73866575  0.94173925  1
  O  O26  1  0.72963521  0.43922549  0.23993514  1
  O  O27  1  0.43043365  0.38122382  0.00504759  1
  O  O28  1  0.72963521  0.23993514  0.59120416  1
  O  O29  1  0.76827808  0.05926287  0.91217777  1
  O  O30  1  0.72963521  0.59120416  0.43922549  1
  O  O31  1  0.56667168  0.81454587  0.61558244  1
  O  O32  1  0.76827808  0.91217777  0.26028127  1
  O  O33  1  0.93374618  0.68684066  0.49390499  1
  O  O34  1  0.93374618  0.49390499  0.88550818  1
  O  O35  1  0.93374618  0.88550818  0.68684066  1
