# generated using pymatgen
data_CaCr2O4
_symmetry_space_group_name_H-M   'P 1'
_cell_length_a   6.23143901
_cell_length_b   6.23143931
_cell_length_c   6.23143910
_cell_angle_alpha   60.00000114
_cell_angle_beta   59.99999953
_cell_angle_gamma   60.00000466
_symmetry_Int_Tables_number   1
_chemical_formula_structural   CaCr2O4
_chemical_formula_sum   'Ca2 Cr4 O8'
_cell_volume   171.10003304
_cell_formula_units_Z   2
loop_
 _symmetry_equiv_pos_site_id
 _symmetry_equiv_pos_as_xyz
  1  'x, y, z'
loop_
 _atom_site_type_symbol
 _atom_site_label
 _atom_site_symmetry_multiplicity
 _atom_site_fract_x
 _atom_site_fract_y
 _atom_site_fract_z
 _atom_site_occupancy
  Ca  Ca0  1  0.87500000  0.87500000  0.87500000  1
  Ca  Ca1  1  0.12500000  0.12500000  0.12500000  1
  Cr  Cr2  1  0.50000000  0.00000000  0.50000000  1
  Cr  Cr3  1  0.00000000  0.50000000  0.50000000  1
  Cr  Cr4  1  0.50000000  0.50000000  0.00000000  1
  Cr  Cr5  1  0.50000000  0.50000000  0.50000000  1
  O  O6  1  0.73138885  0.73138885  0.73138885  1
  O  O7  1  0.26861115  0.26861115  0.69416756  1
  O  O8  1  0.26861115  0.69416756  0.26861115  1
  O  O9  1  0.69416756  0.26861115  0.26861115  1
  O  O10  1  0.73138885  0.30583244  0.73138885  1
  O  O11  1  0.30583244  0.73138885  0.73138885  1
  O  O12  1  0.26861115  0.26861115  0.26861115  1
  O  O13  1  0.73138885  0.73138885  0.30583244  1
