# generated using pymatgen
data_Sm3SbO3
_symmetry_space_group_name_H-M   'P 1'
_cell_length_a   3.97109183
_cell_length_b   7.04149301
_cell_length_c   10.83370621
_cell_angle_alpha   92.02332702
_cell_angle_beta   100.56056915
_cell_angle_gamma   106.37829171
_symmetry_Int_Tables_number   1
_chemical_formula_structural   Sm3SbO3
_chemical_formula_sum   'Sm6 Sb2 O6'
_cell_volume   284.50294321
_cell_formula_units_Z   2
loop_
 _symmetry_equiv_pos_site_id
 _symmetry_equiv_pos_as_xyz
  1  'x, y, z'
loop_
 _atom_site_type_symbol
 _atom_site_label
 _atom_site_symmetry_multiplicity
 _atom_site_fract_x
 _atom_site_fract_y
 _atom_site_fract_z
 _atom_site_occupancy
  Sm  Sm0  1  0.22916894  0.35719565  0.10114322  1
  Sm  Sm1  1  0.55092813  0.89435625  0.20750001  1
  Sm  Sm2  1  0.32260396  0.20278971  0.44241821  1
  Sm  Sm3  1  0.67739604  0.79720929  0.55758179  1
  Sm  Sm4  1  0.44907187  0.10564375  0.79249999  1
  Sm  Sm5  1  0.77083006  0.64280435  0.89885678  1
  Sb  Sb6  1  0.93975711  0.55896901  0.32054621  1
  Sb  Sb7  1  0.06024289  0.44103199  0.67945379  1
  O  O8  1  0.35021761  0.68809714  0.01233809  1
  O  O9  1  0.13296451  0.06868887  0.19723916  1
  O  O10  1  0.72063735  0.03124225  0.41003344  1
  O  O11  1  0.27936365  0.96875975  0.58996756  1
  O  O12  1  0.86703549  0.93131113  0.80276084  1
  O  O13  1  0.64978239  0.31190286  0.98766091  1
