# generated using pymatgen
data_Li3Cr2CuO6
_symmetry_space_group_name_H-M   'P 1'
_cell_length_a   15.29533895
_cell_length_b   9.75567180
_cell_length_c   9.75567163
_cell_angle_alpha   17.38235527
_cell_angle_beta   16.81525771
_cell_angle_gamma   16.81526171
_symmetry_Int_Tables_number   1
_chemical_formula_structural   Li3Cr2CuO6
_chemical_formula_sum   'Li3 Cr2 Cu1 O6'
_cell_volume   108.52597848
_cell_formula_units_Z   1
loop_
 _symmetry_equiv_pos_site_id
 _symmetry_equiv_pos_as_xyz
  1  'x, y, z'
loop_
 _atom_site_type_symbol
 _atom_site_label
 _atom_site_symmetry_multiplicity
 _atom_site_fract_x
 _atom_site_fract_y
 _atom_site_fract_z
 _atom_site_occupancy
  Li  Li0  1  0.16666700  0.50000000  0.50000000  1
  Li  Li1  1  0.50925521  0.49497968  0.49497968  1
  Li  Li2  1  0.82407779  0.50502032  0.50502032  1
  Cr  Cr3  1  0.00473759  0.99562469  0.99562469  1
  Cr  Cr4  1  0.32859641  0.00437531  0.00437531  1
  Cu  Cu5  1  0.66666700  0.00000000  0.00000000  1
  O  O6  1  0.24400674  0.25901379  0.25901379  1
  O  O7  1  0.57710113  0.26086595  0.26086595  1
  O  O8  1  0.08932626  0.74098621  0.74098621  1
  O  O9  1  0.92019527  0.25378017  0.25378017  1
  O  O10  1  0.41313773  0.74621983  0.74621983  1
  O  O11  1  0.75623187  0.73913405  0.73913405  1
