# generated using pymatgen
data_SbPt3
_symmetry_space_group_name_H-M   'P 1'
_cell_length_a   5.68739319
_cell_length_b   5.68747452
_cell_length_c   4.93877276
_cell_angle_alpha   89.96011761
_cell_angle_beta   90.03955906
_cell_angle_gamma   120.00731050
_symmetry_Int_Tables_number   1
_chemical_formula_structural   SbPt3
_chemical_formula_sum   'Sb2 Pt6'
_cell_volume   138.34079188
_cell_formula_units_Z   2
loop_
 _symmetry_equiv_pos_site_id
 _symmetry_equiv_pos_as_xyz
  1  'x, y, z'
loop_
 _atom_site_type_symbol
 _atom_site_label
 _atom_site_symmetry_multiplicity
 _atom_site_fract_x
 _atom_site_fract_y
 _atom_site_fract_z
 _atom_site_occupancy
  Sb  Sb0  1  0.33335096  0.66664623  0.74997070  1
  Sb  Sb1  1  0.66664477  0.33334789  0.25003058  1
  Pt  Pt2  1  0.16527278  0.33055007  0.24993362  1
  Pt  Pt3  1  0.66943910  0.83472660  0.24992959  1
  Pt  Pt4  1  0.16529280  0.83471372  0.25007970  1
  Pt  Pt5  1  0.83471802  0.66942649  0.75007029  1
  Pt  Pt6  1  0.33057354  0.16528369  0.75006771  1
  Pt  Pt7  1  0.83470704  0.16530129  0.74991780  1
