# generated using pymatgen
data_CsSrBr3
_symmetry_space_group_name_H-M   'P 1'
_cell_length_a   6.03399177
_cell_length_b   6.04200654
_cell_length_c   6.04083335
_cell_angle_alpha   89.96720345
_cell_angle_beta   89.97185910
_cell_angle_gamma   90.00442350
_symmetry_Int_Tables_number   1
_chemical_formula_structural   CsSrBr3
_chemical_formula_sum   'Cs1 Sr1 Br3'
_cell_volume   220.23312158
_cell_formula_units_Z   1
loop_
 _symmetry_equiv_pos_site_id
 _symmetry_equiv_pos_as_xyz
  1  'x, y, z'
loop_
 _atom_site_type_symbol
 _atom_site_label
 _atom_site_symmetry_multiplicity
 _atom_site_fract_x
 _atom_site_fract_y
 _atom_site_fract_z
 _atom_site_occupancy
  Cs  Cs0  1  0.99681694  0.99774523  0.99561226  1
  Sr  Sr1  1  0.48433960  0.49842900  0.49381863  1
  Br  Br2  1  0.48557334  0.99863098  0.49541000  1
  Br  Br3  1  0.98443442  0.50757707  0.51056109  1
  Br  Br4  1  0.48883569  0.49761872  0.99459802  1
