# generated using pymatgen
data_ZnSnF4
_symmetry_space_group_name_H-M   'P 1'
_cell_length_a   5.16878876
_cell_length_b   5.57315541
_cell_length_c   7.46696371
_cell_angle_alpha   118.41828019
_cell_angle_beta   112.53301486
_cell_angle_gamma   89.87441332
_symmetry_Int_Tables_number   1
_chemical_formula_structural   ZnSnF4
_chemical_formula_sum   'Zn2 Sn2 F8'
_cell_volume   170.38260899
_cell_formula_units_Z   2
loop_
 _symmetry_equiv_pos_site_id
 _symmetry_equiv_pos_as_xyz
  1  'x, y, z'
loop_
 _atom_site_type_symbol
 _atom_site_label
 _atom_site_symmetry_multiplicity
 _atom_site_fract_x
 _atom_site_fract_y
 _atom_site_fract_z
 _atom_site_occupancy
  Zn  Zn0  1  0.24787265  0.25424916  0.50188328  1
  Zn  Zn1  1  0.75154399  0.75779763  0.50266725  1
  Sn  Sn2  1  0.03241511  0.52466457  0.04718481  1
  Sn  Sn3  1  0.47616094  0.96816421  0.96172978  1
  F  F4  1  0.74933574  0.47976785  0.18704040  1
  F  F5  1  0.75183503  0.02491296  0.81879539  1
  F  F6  1  0.02459028  0.55280301  0.62582552  1
  F  F7  1  0.13027468  0.04502685  0.63699731  1
  F  F8  1  0.47511267  0.95768396  0.37505020  1
  F  F9  1  0.36587431  0.46839659  0.36608972  1
  F  F10  1  0.92025523  0.96697462  0.19642801  1
  F  F11  1  0.57907537  0.53601459  0.80630933  1
