# generated using pymatgen
data_UCd2O5
_symmetry_space_group_name_H-M   'P 1'
_cell_length_a   5.38113896
_cell_length_b   6.36848645
_cell_length_c   8.21624390
_cell_angle_alpha   107.65118695
_cell_angle_beta   90.00000000
_cell_angle_gamma   114.99137197
_symmetry_Int_Tables_number   1
_chemical_formula_structural   UCd2O5
_chemical_formula_sum   'U2 Cd4 O10'
_cell_volume   240.50053308
_cell_formula_units_Z   2
loop_
 _symmetry_equiv_pos_site_id
 _symmetry_equiv_pos_as_xyz
  1  'x, y, z'
loop_
 _atom_site_type_symbol
 _atom_site_label
 _atom_site_symmetry_multiplicity
 _atom_site_fract_x
 _atom_site_fract_y
 _atom_site_fract_z
 _atom_site_occupancy
  U  U0  1  -0.00000000  -0.00000000  -0.00000000  1
  U  U1  1  0.00000100  -0.00000000  0.49999900  1
  Cd  Cd2  1  0.29624284  0.66770712  0.18233794  1
  Cd  Cd3  1  0.62853572  0.33229188  0.31766206  1
  Cd  Cd4  1  0.37146528  0.66770912  0.68233794  1
  Cd  Cd5  1  0.70375716  0.33229188  0.81766306  1
  O  O6  1  0.36731566  0.22544959  0.97912993  1
  O  O7  1  0.63268334  0.77454941  0.02086907  1
  O  O8  1  0.92868013  0.31091307  0.12540941  1
  O  O9  1  0.19388042  -0.00000000  0.25000000  1
  O  O10  1  0.61776805  0.68908693  0.37459159  1
  O  O11  1  0.85813494  0.22545159  0.47913193  1
  O  O12  1  0.14186706  0.77454941  0.52087007  1
  O  O13  1  0.38223295  0.31091207  0.62540841  1
  O  O14  1  0.80611658  0.99999900  0.74999900  1
  O  O15  1  0.07131887  0.68908593  0.87459059  1
