# generated using pymatgen
data_ReWO6
_symmetry_space_group_name_H-M   'P 1'
_cell_length_a   5.41843817
_cell_length_b   5.41987713
_cell_length_c   7.66403638
_cell_angle_alpha   89.96410109
_cell_angle_beta   134.97802421
_cell_angle_gamma   60.02134937
_symmetry_Int_Tables_number   1
_chemical_formula_structural   ReWO6
_chemical_formula_sum   'Re1 W1 O6'
_cell_volume   112.59513250
_cell_formula_units_Z   1
loop_
 _symmetry_equiv_pos_site_id
 _symmetry_equiv_pos_as_xyz
  1  'x, y, z'
loop_
 _atom_site_type_symbol
 _atom_site_label
 _atom_site_symmetry_multiplicity
 _atom_site_fract_x
 _atom_site_fract_y
 _atom_site_fract_z
 _atom_site_occupancy
  Re  Re0  1  0.99982456  0.96070612  0.49963258  1
  W  W1  1  0.99979414  0.96066786  0.99959086  1
  O  O2  1  0.01169420  0.95786093  0.25859138  1
  O  O3  1  0.98853575  0.96520762  0.74091380  1
  O  O4  1  0.48732584  0.46716161  0.74537111  1
  O  O5  1  0.50197575  0.96495888  0.24662161  1
  O  O6  1  0.49929439  0.95493265  0.75312145  1
  O  O7  1  0.51005137  0.45436732  0.25299522  1
