# generated using pymatgen
data_ZnNiF5
_symmetry_space_group_name_H-M   'P 1'
_cell_length_a   5.18105651
_cell_length_b   5.18104878
_cell_length_c   7.43302332
_cell_angle_alpha   98.28640323
_cell_angle_beta   108.37666397
_cell_angle_gamma   109.96381344
_symmetry_Int_Tables_number   1
_chemical_formula_structural   ZnNiF5
_chemical_formula_sum   'Zn2 Ni2 F10'
_cell_volume   170.73726209
_cell_formula_units_Z   2
loop_
 _symmetry_equiv_pos_site_id
 _symmetry_equiv_pos_as_xyz
  1  'x, y, z'
loop_
 _atom_site_type_symbol
 _atom_site_label
 _atom_site_symmetry_multiplicity
 _atom_site_fract_x
 _atom_site_fract_y
 _atom_site_fract_z
 _atom_site_occupancy
  Zn  Zn0  1  0.28905568  0.54064533  0.74999823  1
  Zn  Zn1  1  0.71142854  0.46311323  0.25082617  1
  Ni  Ni2  1  0.00142508  0.00431302  0.00072943  1
  Ni  Ni3  1  0.49977461  0.00097803  0.50034226  1
  F  F4  1  0.36422941  0.11939979  0.25189423  1
  F  F5  1  0.63566947  0.88421843  0.74936628  1
  F  F6  1  0.58667340  0.73663525  0.37021519  1
  F  F7  1  0.86305740  0.22480059  0.12323163  1
  F  F8  1  0.75643889  0.69110875  0.04519826  1
  F  F9  1  0.14071843  0.71252529  0.45931105  1
  F  F10  1  0.24970250  0.31840660  0.95847008  1
  F  F11  1  0.85916257  0.28653409  0.54224229  1
  F  F12  1  0.13461497  0.78196204  0.87279418  1
  F  F13  1  0.41260804  0.26491356  0.63053871  1
