# generated using pymatgen
data_LaPO4
_symmetry_space_group_name_H-M   'P 1'
_cell_length_a   6.05286150
_cell_length_b   6.05286150
_cell_length_c   6.05286150
_cell_angle_alpha   105.94203552
_cell_angle_beta   105.94203552
_cell_angle_gamma   116.78671268
_symmetry_Int_Tables_number   1
_chemical_formula_structural   LaPO4
_chemical_formula_sum   'La2 P2 O8'
_cell_volume   168.59801185
_cell_formula_units_Z   2
loop_
 _symmetry_equiv_pos_site_id
 _symmetry_equiv_pos_as_xyz
  1  'x, y, z'
loop_
 _atom_site_type_symbol
 _atom_site_label
 _atom_site_symmetry_multiplicity
 _atom_site_fract_x
 _atom_site_fract_y
 _atom_site_fract_z
 _atom_site_occupancy
  La  La0  1  0.12500000  0.37500000  0.25000000  1
  La  La1  1  0.87500000  0.62500000  0.75000000  1
  P  P2  1  0.37500000  0.12500000  0.75000000  1
  P  P3  1  0.62500000  0.87500000  0.25000000  1
  O  O4  1  0.35725023  0.27584067  0.58140956  1
  O  O5  1  0.77584067  0.19443111  0.41859044  1
  O  O6  1  0.77584067  0.85725023  0.08140956  1
  O  O7  1  0.69443111  0.27584067  0.91859044  1
  O  O8  1  0.64274977  0.72415933  0.41859044  1
  O  O9  1  0.22415933  0.80556889  0.58140956  1
  O  O10  1  0.22415933  0.14274977  0.91859044  1
  O  O11  1  0.30556889  0.72415933  0.08140956  1
