# generated using pymatgen
data_Te6MoW2
_symmetry_space_group_name_H-M   'P 1'
_cell_length_a   3.55884229
_cell_length_b   3.55864185
_cell_length_c   32.58644414
_cell_angle_alpha   90.00000000
_cell_angle_beta   90.00000000
_cell_angle_gamma   120.00186331
_symmetry_Int_Tables_number   1
_chemical_formula_structural   Te6MoW2
_chemical_formula_sum   'Te6 Mo1 W2'
_cell_volume   357.39829331
_cell_formula_units_Z   1
loop_
 _symmetry_equiv_pos_site_id
 _symmetry_equiv_pos_as_xyz
  1  'x, y, z'
loop_
 _atom_site_type_symbol
 _atom_site_label
 _atom_site_symmetry_multiplicity
 _atom_site_fract_x
 _atom_site_fract_y
 _atom_site_fract_z
 _atom_site_occupancy
  Te  Te0  1  0.33335164  0.66670429  0.40256074  1
  Te  Te1  1  0.66664991  0.33329882  0.05990352  1
  Te  Te2  1  0.66664556  0.33329013  0.52253787  1
  Te  Te3  1  0.66664556  0.33329013  0.17142713  1
  Te  Te4  1  0.66664991  0.33329882  0.63406048  1
  Te  Te5  1  0.33335164  0.66670429  0.29140426  1
  Mo  Mo6  1  0.66669154  0.33338308  0.34698200  1
  W  W7  1  0.33330761  0.66661522  0.11564147  1
  W  W8  1  0.33330761  0.66661522  0.57832353  1
