# generated using pymatgen
data_Ti2CoS4
_symmetry_space_group_name_H-M   'P 1'
_cell_length_a   3.38285115
_cell_length_b   5.82416113
_cell_length_c   6.49607469
_cell_angle_alpha   116.26075002
_cell_angle_beta   105.09240694
_cell_angle_gamma   90.00000000
_symmetry_Int_Tables_number   1
_chemical_formula_structural   Ti2CoS4
_chemical_formula_sum   'Ti2 Co1 S4'
_cell_volume   109.83348215
_cell_formula_units_Z   1
loop_
 _symmetry_equiv_pos_site_id
 _symmetry_equiv_pos_as_xyz
  1  'x, y, z'
loop_
 _atom_site_type_symbol
 _atom_site_label
 _atom_site_symmetry_multiplicity
 _atom_site_fract_x
 _atom_site_fract_y
 _atom_site_fract_z
 _atom_site_occupancy
  Ti  Ti0  1  0.25637502  0.26486309  0.51275004  1
  Ti  Ti1  1  0.74362498  0.73513691  0.48724996  1
  Co  Co2  1  0.00000000  0.00000000  0.00000000  1
  S  S3  1  0.11461761  0.44365715  0.22923523  1
  S  S4  1  0.88538239  0.55634285  0.77076477  1
  S  S5  1  0.37982211  0.04032249  0.75964423  1
  S  S6  1  0.62017789  0.95967751  0.24035577  1
