# generated using pymatgen
data_Ba2NbFeO6
_symmetry_space_group_name_H-M   'P 1'
_cell_length_a   5.85268098
_cell_length_b   5.85268098
_cell_length_c   19.23891083
_cell_angle_alpha   90.00000000
_cell_angle_beta   90.00000000
_cell_angle_gamma   119.99974562
_symmetry_Int_Tables_number   1
_chemical_formula_structural   Ba2NbFeO6
_chemical_formula_sum   'Ba8 Nb4 Fe4 O24'
_cell_volume   570.71847344
_cell_formula_units_Z   4
loop_
 _symmetry_equiv_pos_site_id
 _symmetry_equiv_pos_as_xyz
  1  'x, y, z'
loop_
 _atom_site_type_symbol
 _atom_site_label
 _atom_site_symmetry_multiplicity
 _atom_site_fract_x
 _atom_site_fract_y
 _atom_site_fract_z
 _atom_site_occupancy
  Ba  Ba0  1  -0.00000000  -0.00000000  0.50000000  1
  Ba  Ba1  1  -0.00000000  -0.00000000  -0.00000000  1
  Ba  Ba2  1  0.66667074  0.33332926  0.25000000  1
  Ba  Ba3  1  0.33332926  0.66667074  0.75000000  1
  Ba  Ba4  1  0.66667694  0.33332306  0.64176041  1
  Ba  Ba5  1  0.33332306  0.66667694  0.35823959  1
  Ba  Ba6  1  0.33332306  0.66667694  0.14176041  1
  Ba  Ba7  1  0.66667694  0.33332306  0.85823959  1
  Nb  Nb8  1  0.66666053  0.33333947  0.06368153  1
  Nb  Nb9  1  0.33333947  0.66666053  0.93631847  1
  Nb  Nb10  1  0.33333947  0.66666053  0.56368153  1
  Nb  Nb11  1  0.66666053  0.33333947  0.43631847  1
  Fe  Fe12  1  0.00001430  -0.00001430  0.68241496  1
  Fe  Fe13  1  -0.00001430  0.00001430  0.31758504  1
  Fe  Fe14  1  -0.00001430  0.00001430  0.18241496  1
  Fe  Fe15  1  0.00001430  -0.00001430  0.81758504  1
  O  O16  1  0.50000000  -0.00000000  0.50000000  1
  O  O17  1  0.50000000  0.50000000  0.50000000  1
  O  O18  1  -0.00000000  0.50000000  0.50000000  1
  O  O19  1  0.50000000  0.00000000  0.00000000  1
  O  O20  1  0.50000000  0.50000000  -0.00000000  1
  O  O21  1  0.00000000  0.50000000  -0.00000000  1
  O  O22  1  0.84623726  0.69244026  0.75000000  1
  O  O23  1  0.84623510  0.15376490  0.75000000  1
  O  O24  1  0.30755974  0.15376274  0.75000000  1
  O  O25  1  0.15376274  0.30755974  0.25000000  1
  O  O26  1  0.15376490  0.84623510  0.25000000  1
  O  O27  1  0.69244026  0.84623726  0.25000000  1
  O  O28  1  0.82973574  0.65948865  0.12038069  1
  O  O29  1  0.82973397  0.17026603  0.12038372  1
  O  O30  1  0.34051135  0.17026426  0.12038069  1
  O  O31  1  0.17026426  0.34051135  0.87961931  1
  O  O32  1  0.17026603  0.82973397  0.87961628  1
  O  O33  1  0.65948865  0.82973574  0.87961931  1
  O  O34  1  0.17026426  0.34051135  0.62038069  1
  O  O35  1  0.17026603  0.82973397  0.62038372  1
  O  O36  1  0.65948865  0.82973574  0.62038069  1
  O  O37  1  0.82973574  0.65948865  0.37961931  1
  O  O38  1  0.82973397  0.17026603  0.37961628  1
  O  O39  1  0.34051135  0.17026426  0.37961931  1
