# generated using pymatgen
data_Te6MoW2
_symmetry_space_group_name_H-M   'P 1'
_cell_length_a   3.55445030
_cell_length_b   3.55400467
_cell_length_c   32.58380087
_cell_angle_alpha   90.00006067
_cell_angle_beta   90.00000000
_cell_angle_gamma   120.00414786
_symmetry_Int_Tables_number   1
_chemical_formula_structural   Te6MoW2
_chemical_formula_sum   'Te6 Mo1 W2'
_cell_volume   356.45495961
_cell_formula_units_Z   1
loop_
 _symmetry_equiv_pos_site_id
 _symmetry_equiv_pos_as_xyz
  1  'x, y, z'
loop_
 _atom_site_type_symbol
 _atom_site_label
 _atom_site_symmetry_multiplicity
 _atom_site_fract_x
 _atom_site_fract_y
 _atom_site_fract_z
 _atom_site_occupancy
  Te  Te0  1  0.33334525  0.66669150  0.40273041  1
  Te  Te1  1  0.66665708  0.33331315  0.06001219  1
  Te  Te2  1  0.66665696  0.33331291  0.52255826  1
  Te  Te3  1  0.66665720  0.33331341  0.17132401  1
  Te  Te4  1  0.66665674  0.33331248  0.63404713  1
  Te  Te5  1  0.33333971  0.66668043  0.29123631  1
  Mo  Mo6  1  0.33328875  0.66657750  0.11564427  1
  W  W7  1  0.33328782  0.66657565  0.57831388  1
  W  W8  1  0.66671149  0.33342297  0.34697454  1
