# generated using pymatgen
data_SmTlCd
_symmetry_space_group_name_H-M   'P 1'
_cell_length_a   5.01551996
_cell_length_b   5.01593426
_cell_length_c   7.38776534
_cell_angle_alpha   90.00000000
_cell_angle_beta   90.00000000
_cell_angle_gamma   119.99726773
_symmetry_Int_Tables_number   1
_chemical_formula_structural   SmTlCd
_chemical_formula_sum   'Sm2 Tl2 Cd2'
_cell_volume   160.96204456
_cell_formula_units_Z   2
loop_
 _symmetry_equiv_pos_site_id
 _symmetry_equiv_pos_as_xyz
  1  'x, y, z'
loop_
 _atom_site_type_symbol
 _atom_site_label
 _atom_site_symmetry_multiplicity
 _atom_site_fract_x
 _atom_site_fract_y
 _atom_site_fract_z
 _atom_site_occupancy
  Sm  Sm0  1  0.00000000  0.00000000  0.50000000  1
  Sm  Sm1  1  0.00000000  0.00000000  0.00000000  1
  Tl  Tl2  1  0.33336057  0.66672114  0.75000000  1
  Tl  Tl3  1  0.66663943  0.33327886  0.25000000  1
  Cd  Cd4  1  0.33336471  0.66672943  0.25000000  1
  Cd  Cd5  1  0.66663529  0.33327057  0.75000000  1
