# generated using pymatgen
data_Cs2Se
_symmetry_space_group_name_H-M   'P 1'
_cell_length_a   5.63018782
_cell_length_b   9.13635150
_cell_length_c   10.93320448
_cell_angle_alpha   90.00000000
_cell_angle_beta   91.41337564
_cell_angle_gamma   90.00000000
_symmetry_Int_Tables_number   1
_chemical_formula_structural   Cs2Se
_chemical_formula_sum   'Cs8 Se4'
_cell_volume   562.22610018
_cell_formula_units_Z   4
loop_
 _symmetry_equiv_pos_site_id
 _symmetry_equiv_pos_as_xyz
  1  'x, y, z'
loop_
 _atom_site_type_symbol
 _atom_site_label
 _atom_site_symmetry_multiplicity
 _atom_site_fract_x
 _atom_site_fract_y
 _atom_site_fract_z
 _atom_site_occupancy
  Cs  Cs0  1  0.75930349  0.52342393  0.16960593  1
  Cs  Cs1  1  0.25930349  0.97657607  0.66960593  1
  Cs  Cs2  1  0.24069651  0.47657607  0.83039407  1
  Cs  Cs3  1  0.74069651  0.02342393  0.33039407  1
  Cs  Cs4  1  0.24318141  0.85540095  0.07509777  1
  Cs  Cs5  1  0.74318141  0.64459905  0.57509777  1
  Cs  Cs6  1  0.75681859  0.14459905  0.92490223  1
  Cs  Cs7  1  0.25681859  0.35540095  0.42490223  1
  Se  Se8  1  0.23400844  0.75320730  0.39097461  1
  Se  Se9  1  0.73400844  0.74679270  0.89097461  1
  Se  Se10  1  0.76599156  0.24679270  0.60902539  1
  Se  Se11  1  0.26599156  0.25320730  0.10902539  1
