# generated using pymatgen
data_Mg14CoNiO16
_symmetry_space_group_name_H-M   'P 1'
_cell_length_a   8.52219525
_cell_length_b   8.51743405
_cell_length_c   4.23618832
_cell_angle_alpha   90.00000000
_cell_angle_beta   90.00000000
_cell_angle_gamma   90.00000000
_symmetry_Int_Tables_number   1
_chemical_formula_structural   Mg14CoNiO16
_chemical_formula_sum   'Mg14 Co1 Ni1 O16'
_cell_volume   307.49320134
_cell_formula_units_Z   1
loop_
 _symmetry_equiv_pos_site_id
 _symmetry_equiv_pos_as_xyz
  1  'x, y, z'
loop_
 _atom_site_type_symbol
 _atom_site_label
 _atom_site_symmetry_multiplicity
 _atom_site_fract_x
 _atom_site_fract_y
 _atom_site_fract_z
 _atom_site_occupancy
  Mg  Mg0  1  0.50000000  0.00000000  0.00000000  1
  Mg  Mg1  1  0.50000000  0.50000000  0.00000000  1
  Mg  Mg2  1  0.00000000  0.25128817  0.50000000  1
  Mg  Mg3  1  0.00000000  0.74871183  0.50000000  1
  Mg  Mg4  1  0.50000000  0.25022631  0.50000000  1
  Mg  Mg5  1  0.50000000  0.74977369  0.50000000  1
  Mg  Mg6  1  0.25035828  0.00000000  0.50000000  1
  Mg  Mg7  1  0.24903801  0.50000000  0.50000000  1
  Mg  Mg8  1  0.74964172  0.00000000  0.50000000  1
  Mg  Mg9  1  0.75096199  0.50000000  0.50000000  1
  Mg  Mg10  1  0.24867841  0.24976932  0.00000000  1
  Mg  Mg11  1  0.24867841  0.75023068  0.00000000  1
  Mg  Mg12  1  0.75132159  0.24976932  0.00000000  1
  Mg  Mg13  1  0.75132159  0.75023068  0.00000000  1
  Co  Co14  1  0.00000000  0.00000000  0.00000000  1
  Ni  Ni15  1  0.00000000  0.50000000  0.00000000  1
  O  O16  1  0.25289493  0.00000000  0.00000000  1
  O  O17  1  0.25071909  0.50000000  0.00000000  1
  O  O18  1  0.74710507  0.00000000  0.00000000  1
  O  O19  1  0.74928091  0.50000000  0.00000000  1
  O  O20  1  0.24878839  0.24960294  0.50000000  1
  O  O21  1  0.24878839  0.75039706  0.50000000  1
  O  O22  1  0.75121161  0.24960294  0.50000000  1
  O  O23  1  0.75121161  0.75039706  0.50000000  1
  O  O24  1  0.00000000  0.00000000  0.50000000  1
  O  O25  1  0.00000000  0.50000000  0.50000000  1
  O  O26  1  0.50000000  0.00000000  0.50000000  1
  O  O27  1  0.50000000  0.50000000  0.50000000  1
  O  O28  1  0.00000000  0.25265452  0.00000000  1
  O  O29  1  0.00000000  0.74734548  0.00000000  1
  O  O30  1  0.50000000  0.25032932  0.00000000  1
  O  O31  1  0.50000000  0.74967068  0.00000000  1
