# generated using pymatgen
data_LiYMg30O32
_symmetry_space_group_name_H-M   'P 1'
_cell_length_a   8.56116560
_cell_length_b   8.56116560
_cell_length_c   8.57389032
_cell_angle_alpha   90.00000000
_cell_angle_beta   90.00000000
_cell_angle_gamma   90.00000000
_symmetry_Int_Tables_number   1
_chemical_formula_structural   LiYMg30O32
_chemical_formula_sum   'Li1 Y1 Mg30 O32'
_cell_volume   628.41091400
_cell_formula_units_Z   1
loop_
 _symmetry_equiv_pos_site_id
 _symmetry_equiv_pos_as_xyz
  1  'x, y, z'
loop_
 _atom_site_type_symbol
 _atom_site_label
 _atom_site_symmetry_multiplicity
 _atom_site_fract_x
 _atom_site_fract_y
 _atom_site_fract_z
 _atom_site_occupancy
  Li  Li0  1  0.00000000  -0.00000000  0.50000000  1
  Y  Y1  1  0.00000000  -0.00000000  0.00000000  1
  Mg  Mg2  1  0.00000000  0.50000000  0.00000000  1
  Mg  Mg3  1  0.00000000  0.50000000  0.50000000  1
  Mg  Mg4  1  0.50000000  -0.00000000  0.00000000  1
  Mg  Mg5  1  0.50000000  -0.00000000  0.50000000  1
  Mg  Mg6  1  0.50000000  0.50000000  0.00000000  1
  Mg  Mg7  1  0.50000000  0.50000000  0.50000000  1
  Mg  Mg8  1  0.00000000  0.25262414  0.25987960  1
  Mg  Mg9  1  0.00000000  0.25262414  0.74012040  1
  Mg  Mg10  1  0.00000000  0.74737586  0.25987960  1
  Mg  Mg11  1  0.00000000  0.74737586  0.74012040  1
  Mg  Mg12  1  0.50000000  0.24992475  0.25155484  1
  Mg  Mg13  1  0.50000000  0.24992475  0.74844516  1
  Mg  Mg14  1  0.50000000  0.75007525  0.25155484  1
  Mg  Mg15  1  0.50000000  0.75007525  0.74844516  1
  Mg  Mg16  1  0.25262414  -0.00000000  0.25987960  1
  Mg  Mg17  1  0.25262414  -0.00000000  0.74012040  1
  Mg  Mg18  1  0.24992475  0.50000000  0.25155484  1
  Mg  Mg19  1  0.24992475  0.50000000  0.74844516  1
  Mg  Mg20  1  0.74737586  -0.00000000  0.25987960  1
  Mg  Mg21  1  0.74737586  -0.00000000  0.74012040  1
  Mg  Mg22  1  0.75007525  0.50000000  0.25155484  1
  Mg  Mg23  1  0.75007525  0.50000000  0.74844516  1
  Mg  Mg24  1  0.25566668  0.25566668  0.00000000  1
  Mg  Mg25  1  0.24738696  0.24738696  0.50000000  1
  Mg  Mg26  1  0.25566668  0.74433332  0.00000000  1
  Mg  Mg27  1  0.24738696  0.75261304  0.50000000  1
  Mg  Mg28  1  0.74433332  0.25566668  0.00000000  1
  Mg  Mg29  1  0.75261304  0.24738696  0.50000000  1
  Mg  Mg30  1  0.74433332  0.74433332  0.00000000  1
  Mg  Mg31  1  0.75261304  0.75261304  0.50000000  1
  O  O32  1  0.25967927  -0.00000000  0.00000000  1
  O  O33  1  0.25832214  -0.00000000  0.50000000  1
  O  O34  1  0.25153427  0.50000000  0.00000000  1
  O  O35  1  0.25110407  0.50000000  0.50000000  1
  O  O36  1  0.74032073  -0.00000000  0.00000000  1
  O  O37  1  0.74167786  -0.00000000  0.50000000  1
  O  O38  1  0.74846573  0.50000000  0.00000000  1
  O  O39  1  0.74889593  0.50000000  0.50000000  1
  O  O40  1  0.24948796  0.24948796  0.24866243  1
  O  O41  1  0.24948796  0.24948796  0.75133757  1
  O  O42  1  0.24948796  0.75051204  0.24866243  1
  O  O43  1  0.24948796  0.75051204  0.75133757  1
  O  O44  1  0.75051204  0.24948796  0.24866243  1
  O  O45  1  0.75051204  0.24948796  0.75133757  1
  O  O46  1  0.75051204  0.75051204  0.24866243  1
  O  O47  1  0.75051204  0.75051204  0.75133757  1
  O  O48  1  0.00000000  -0.00000000  0.25710271  1
  O  O49  1  0.00000000  -0.00000000  0.74289729  1
  O  O50  1  0.00000000  0.50000000  0.24954268  1
  O  O51  1  0.00000000  0.50000000  0.75045732  1
  O  O52  1  0.50000000  -0.00000000  0.24954268  1
  O  O53  1  0.50000000  -0.00000000  0.75045732  1
  O  O54  1  0.50000000  0.50000000  0.24910744  1
  O  O55  1  0.50000000  0.50000000  0.75089256  1
  O  O56  1  0.00000000  0.25967927  0.00000000  1
  O  O57  1  0.00000000  0.25832214  0.50000000  1
  O  O58  1  0.00000000  0.74032073  0.00000000  1
  O  O59  1  0.00000000  0.74167786  0.50000000  1
  O  O60  1  0.50000000  0.25153427  0.00000000  1
  O  O61  1  0.50000000  0.25110407  0.50000000  1
  O  O62  1  0.50000000  0.74846573  0.00000000  1
  O  O63  1  0.50000000  0.74889593  0.50000000  1
