# generated using pymatgen
data_LiYMg30O32
_symmetry_space_group_name_H-M   'P 1'
_cell_length_a   8.56759117
_cell_length_b   8.57146002
_cell_length_c   8.57146002
_cell_angle_alpha   90.00000000
_cell_angle_beta   90.00000000
_cell_angle_gamma   90.00000000
_symmetry_Int_Tables_number   1
_chemical_formula_structural   LiYMg30O32
_chemical_formula_sum   'Li1 Y1 Mg30 O32'
_cell_volume   629.46029675
_cell_formula_units_Z   1
loop_
 _symmetry_equiv_pos_site_id
 _symmetry_equiv_pos_as_xyz
  1  'x, y, z'
loop_
 _atom_site_type_symbol
 _atom_site_label
 _atom_site_symmetry_multiplicity
 _atom_site_fract_x
 _atom_site_fract_y
 _atom_site_fract_z
 _atom_site_occupancy
  Li  Li0  1  0.00000000  0.50000000  0.50000000  1
  Y  Y1  1  0.00000000  0.00000000  0.00000000  1
  Mg  Mg2  1  0.00000000  0.00000000  0.50000000  1
  Mg  Mg3  1  0.00000000  0.50000000  0.00000000  1
  Mg  Mg4  1  0.50000000  0.00000000  0.00000000  1
  Mg  Mg5  1  0.50000000  0.00000000  0.50000000  1
  Mg  Mg6  1  0.50000000  0.50000000  0.00000000  1
  Mg  Mg7  1  0.50000000  0.50000000  0.50000000  1
  Mg  Mg8  1  0.00000000  0.25996355  0.25996355  1
  Mg  Mg9  1  0.00000000  0.25996355  0.74003645  1
  Mg  Mg10  1  0.00000000  0.74003645  0.25996355  1
  Mg  Mg11  1  0.00000000  0.74003645  0.74003645  1
  Mg  Mg12  1  0.50000000  0.25184075  0.25184075  1
  Mg  Mg13  1  0.50000000  0.25184075  0.74815925  1
  Mg  Mg14  1  0.50000000  0.74815925  0.25184075  1
  Mg  Mg15  1  0.50000000  0.74815925  0.74815925  1
  Mg  Mg16  1  0.25575914  0.00000000  0.25756981  1
  Mg  Mg17  1  0.25575914  0.00000000  0.74243019  1
  Mg  Mg18  1  0.24776611  0.50000000  0.25420737  1
  Mg  Mg19  1  0.24776611  0.50000000  0.74579263  1
  Mg  Mg20  1  0.74424086  0.00000000  0.25756981  1
  Mg  Mg21  1  0.74424086  0.00000000  0.74243019  1
  Mg  Mg22  1  0.75223389  0.50000000  0.25420737  1
  Mg  Mg23  1  0.75223389  0.50000000  0.74579263  1
  Mg  Mg24  1  0.25575914  0.25756981  0.00000000  1
  Mg  Mg25  1  0.24776611  0.25420737  0.50000000  1
  Mg  Mg26  1  0.25575914  0.74243019  0.00000000  1
  Mg  Mg27  1  0.24776611  0.74579263  0.50000000  1
  Mg  Mg28  1  0.74424086  0.25756981  0.00000000  1
  Mg  Mg29  1  0.75223389  0.25420737  0.50000000  1
  Mg  Mg30  1  0.74424086  0.74243019  0.00000000  1
  Mg  Mg31  1  0.75223389  0.74579263  0.50000000  1
  O  O32  1  0.25970684  0.00000000  0.00000000  1
  O  O33  1  0.25285388  0.00000000  0.50000000  1
  O  O34  1  0.25285388  0.50000000  0.00000000  1
  O  O35  1  0.25697754  0.50000000  0.50000000  1
  O  O36  1  0.74029316  0.00000000  0.00000000  1
  O  O37  1  0.74714612  0.00000000  0.50000000  1
  O  O38  1  0.74714612  0.50000000  0.00000000  1
  O  O39  1  0.74302246  0.50000000  0.50000000  1
  O  O40  1  0.24949962  0.24914256  0.24914256  1
  O  O41  1  0.24949962  0.24914256  0.75085744  1
  O  O42  1  0.24949962  0.75085744  0.24914256  1
  O  O43  1  0.24949962  0.75085744  0.75085744  1
  O  O44  1  0.75050038  0.24914256  0.24914256  1
  O  O45  1  0.75050038  0.24914256  0.75085744  1
  O  O46  1  0.75050038  0.75085744  0.24914256  1
  O  O47  1  0.75050038  0.75085744  0.75085744  1
  O  O48  1  0.00000000  0.00000000  0.25863146  1
  O  O49  1  0.00000000  0.00000000  0.74136854  1
  O  O50  1  0.00000000  0.50000000  0.24451359  1
  O  O51  1  0.00000000  0.50000000  0.75548641  1
  O  O52  1  0.50000000  0.00000000  0.25073300  1
  O  O53  1  0.50000000  0.00000000  0.74926700  1
  O  O54  1  0.50000000  0.50000000  0.24858519  1
  O  O55  1  0.50000000  0.50000000  0.75141481  1
  O  O56  1  0.00000000  0.25863146  0.00000000  1
  O  O57  1  0.00000000  0.24451359  0.50000000  1
  O  O58  1  0.00000000  0.74136854  0.00000000  1
  O  O59  1  0.00000000  0.75548641  0.50000000  1
  O  O60  1  0.50000000  0.25073300  0.00000000  1
  O  O61  1  0.50000000  0.24858519  0.50000000  1
  O  O62  1  0.50000000  0.74926700  0.00000000  1
  O  O63  1  0.50000000  0.75141481  0.50000000  1
