# generated using pymatgen
data_Nb5(PPd)4
_symmetry_space_group_name_H-M   'P 1'
_cell_length_a   3.64505637
_cell_length_b   7.61527173
_cell_length_c   7.61527173
_cell_angle_alpha   86.71649202
_cell_angle_beta   76.15326985
_cell_angle_gamma   76.15326985
_symmetry_Int_Tables_number   1
_chemical_formula_structural   Nb5(PPd)4
_chemical_formula_sum   'Nb5 P4 Pd4'
_cell_volume   199.27798218
_cell_formula_units_Z   1
loop_
 _symmetry_equiv_pos_site_id
 _symmetry_equiv_pos_as_xyz
  1  'x, y, z'
loop_
 _atom_site_type_symbol
 _atom_site_label
 _atom_site_symmetry_multiplicity
 _atom_site_fract_x
 _atom_site_fract_y
 _atom_site_fract_z
 _atom_site_occupancy
  P  P0  1  0.94090563  0.81609389  0.30209484  1
  P  P1  1  0.05909437  0.18390611  0.69790516  1
  P  P2  1  0.24300048  0.69790516  0.81609389  1
  P  P3  1  0.75699952  0.30209484  0.18390611  1
  Nb  Nb4  1  0.37733413  0.31001766  0.93531408  1
  Nb  Nb5  1  0.62266587  0.68998234  0.06468592  1
  Nb  Nb6  1  0.00000000  0.00000000  0.00000000  1
  Nb  Nb7  1  0.68735179  0.93531408  0.68998234  1
  Nb  Nb8  1  0.31264821  0.06468592  0.31001766  1
  Pd  Pd9  1  0.59557052  0.28877338  0.52008558  1
  Pd  Pd10  1  0.11565610  0.47991442  0.28877338  1
  Pd  Pd11  1  0.40442948  0.71122662  0.47991442  1
  Pd  Pd12  1  0.88434390  0.52008558  0.71122662  1
