# generated using pymatgen
data_CeMg2
_symmetry_space_group_name_H-M   'P 1'
_cell_length_a   13.29460260
_cell_length_b   3.17967299
_cell_length_c   7.41937050
_cell_angle_alpha   90.00000000
_cell_angle_beta   102.50332125
_cell_angle_gamma   90.00000000
_symmetry_Int_Tables_number   1
_chemical_formula_structural   CeMg2
_chemical_formula_sum   'Ce4 Mg8'
_cell_volume   306.19691315
_cell_formula_units_Z   4
loop_
 _symmetry_equiv_pos_site_id
 _symmetry_equiv_pos_as_xyz
  1  'x, y, z'
loop_
 _atom_site_type_symbol
 _atom_site_label
 _atom_site_symmetry_multiplicity
 _atom_site_fract_x
 _atom_site_fract_y
 _atom_site_fract_z
 _atom_site_occupancy
  Ce  Ce0  1  0.48366686  0.00000000  0.67426745  1
  Ce  Ce1  1  0.01633314  0.50000000  0.32573255  1
  Ce  Ce2  1  0.98366686  0.50000000  0.67426745  1
  Ce  Ce3  1  0.51633314  0.00000000  0.32573255  1
  Mg  Mg4  1  0.20589550  0.00000000  0.64781538  1
  Mg  Mg5  1  0.35130028  0.50000000  0.96892896  1
  Mg  Mg6  1  0.14869972  -0.00000000  0.03107104  1
  Mg  Mg7  1  0.29410450  0.50000000  0.35218462  1
  Mg  Mg8  1  0.70589550  0.50000000  0.64781538  1
  Mg  Mg9  1  0.85130028  -0.00000000  0.96892896  1
  Mg  Mg10  1  0.64869972  0.50000000  0.03107104  1
  Mg  Mg11  1  0.79410450  0.00000000  0.35218462  1
