# generated using pymatgen
data_YBi(WO4)2
_symmetry_space_group_name_H-M   'P 1'
_cell_length_a   5.39335140
_cell_length_b   5.74052167
_cell_length_c   10.52835314
_cell_angle_alpha   90.00157865
_cell_angle_beta   96.64238537
_cell_angle_gamma   89.99809397
_symmetry_Int_Tables_number   1
_chemical_formula_structural   YBi(WO4)2
_chemical_formula_sum   'Y2 Bi2 W4 O16'
_cell_volume   323.77661391
_cell_formula_units_Z   2
loop_
 _symmetry_equiv_pos_site_id
 _symmetry_equiv_pos_as_xyz
  1  'x, y, z'
loop_
 _atom_site_type_symbol
 _atom_site_label
 _atom_site_symmetry_multiplicity
 _atom_site_fract_x
 _atom_site_fract_y
 _atom_site_fract_z
 _atom_site_occupancy
  Y  Y0  1  0.24999331  0.72921357  0.24998993  1
  Y  Y1  1  0.75000569  0.27078543  0.75001007  1
  Bi  Bi2  1  0.74994645  0.30839227  0.25001467  1
  Bi  Bi3  1  0.25005355  0.69160673  0.74998533  1
  W  W4  1  0.24814586  0.17437337  0.49901615  1
  W  W5  1  0.25181127  0.17436522  0.00098317  1
  W  W6  1  0.75185414  0.82562663  0.50098385  1
  W  W7  1  0.74818873  0.82563478  0.99901683  1
  O  O8  1  0.37312043  0.40019029  0.12722984  1
  O  O9  1  0.12687672  0.40021775  0.37281099  1
  O  O10  1  0.62687957  0.59980871  0.87277016  1
  O  O11  1  0.87312228  0.59978125  0.62718901  1
  O  O12  1  0.48979924  0.92700195  0.61092618  1
  O  O13  1  0.01016260  0.92701372  0.88906765  1
  O  O14  1  0.51020076  0.07299805  0.38907382  1
  O  O15  1  0.98983740  0.07298628  0.11093235  1
  O  O16  1  0.88834927  0.61294608  0.13303600  1
  O  O17  1  0.61160110  0.61294497  0.36695821  1
  O  O18  1  0.11165073  0.38705492  0.86696400  1
  O  O19  1  0.38839890  0.38705603  0.63304179  1
  O  O20  1  0.47029176  0.90748741  0.10335914  1
  O  O21  1  0.52970824  0.09251359  0.89664086  1
  O  O22  1  0.02969051  0.90752501  0.39662120  1
  O  O23  1  0.97030949  0.09247599  0.60337880  1
