# generated using pymatgen
data_Mn2ZnO4
_symmetry_space_group_name_H-M   'P 1'
_cell_length_a   6.22751992
_cell_length_b   6.22718570
_cell_length_c   17.61271822
_cell_angle_alpha   61.69950302
_cell_angle_beta   61.69546774
_cell_angle_gamma   56.17300688
_symmetry_Int_Tables_number   1
_chemical_formula_structural   Mn2ZnO4
_chemical_formula_sum   'Mn12 Zn6 O24'
_cell_volume   478.49883676
_cell_formula_units_Z   6
loop_
 _symmetry_equiv_pos_site_id
 _symmetry_equiv_pos_as_xyz
  1  'x, y, z'
loop_
 _atom_site_type_symbol
 _atom_site_label
 _atom_site_symmetry_multiplicity
 _atom_site_fract_x
 _atom_site_fract_y
 _atom_site_fract_z
 _atom_site_occupancy
  Mn  Mn0  1  0.00517996  0.50409000  0.16644835  1
  Mn  Mn1  1  0.50138379  0.50151087  0.16719399  1
  Mn  Mn2  1  0.00008489  0.50013598  0.49998708  1
  Mn  Mn3  1  0.50415468  0.00520835  0.16641899  1
  Mn  Mn4  1  0.50135210  0.50159206  0.33326547  1
  Mn  Mn5  1  0.50048986  0.50044954  0.49958790  1
  Mn  Mn6  1  0.99478181  0.49437877  0.83401037  1
  Mn  Mn7  1  0.50014640  0.00005465  0.49999200  1
  Mn  Mn8  1  0.49422084  0.99486069  0.83404020  1
  Mn  Mn9  1  0.49796772  0.49762702  0.66639191  1
  Mn  Mn10  1  0.50018361  0.50005251  0.83172090  1
  Mn  Mn11  1  0.87795886  0.87792240  0.95610673  1
  Zn  Zn12  1  0.12132221  0.12141466  0.04608254  1
  Zn  Zn13  1  0.12480713  0.12488967  0.37544288  1
  Zn  Zn14  1  0.49940654  0.49951416  0.00109273  1
  Zn  Zn15  1  0.12109646  0.12078171  0.70932381  1
  Zn  Zn16  1  0.87796423  0.87824382  0.29008885  1
  Zn  Zn17  1  0.87606230  0.87589357  0.62384085  1
  O  O18  1  0.25722205  0.25715774  0.09052311  1
  O  O19  1  0.25649031  0.25641522  0.24102510  1
  O  O20  1  0.25970294  0.72322437  0.09194455  1
  O  O21  1  0.72317825  0.26011144  0.09184360  1
  O  O22  1  0.28225986  0.73214736  0.24924372  1
  O  O23  1  0.25462352  0.25453183  0.42387475  1
  O  O24  1  0.73231645  0.28255437  0.24916099  1
  O  O25  1  0.74427788  0.74426932  0.09489865  1
  O  O26  1  0.27008892  0.71987183  0.41887703  1
  O  O27  1  0.25298888  0.25290579  0.57393724  1
  O  O28  1  0.74451339  0.74464258  0.24453232  1
  O  O29  1  0.71981237  0.27048793  0.41877204  1
  O  O30  1  0.28026338  0.72896935  0.58127126  1
  O  O31  1  0.25370280  0.25364602  0.75623533  1
  O  O32  1  0.72945483  0.28011693  0.58116106  1
  O  O33  1  0.74663387  0.74668633  0.42641377  1
  O  O34  1  0.25323566  0.25345808  0.90718382  1
  O  O35  1  0.26398402  0.71493056  0.75161340  1
  O  O36  1  0.74436192  0.74439856  0.57683728  1
  O  O37  1  0.71530054  0.26409370  0.75153840  1
  O  O38  1  0.28383846  0.74278344  0.90623524  1
  O  O39  1  0.74508463  0.74515120  0.75840606  1
  O  O40  1  0.74328057  0.28384706  0.90612758  1
  O  O41  1  0.74481713  0.74498356  0.90730813  1
