# generated using pymatgen
data_CaNiAs2O7
_symmetry_space_group_name_H-M   'P 1'
_cell_length_a   7.42544597
_cell_length_b   9.06763006
_cell_length_c   9.43070905
_cell_angle_alpha   90.00000000
_cell_angle_beta   110.35342300
_cell_angle_gamma   90.00000000
_symmetry_Int_Tables_number   1
_chemical_formula_structural   CaNiAs2O7
_chemical_formula_sum   'Ca4 Ni4 As8 O28'
_cell_volume   595.33592236
_cell_formula_units_Z   4
loop_
 _symmetry_equiv_pos_site_id
 _symmetry_equiv_pos_as_xyz
  1  'x, y, z'
loop_
 _atom_site_type_symbol
 _atom_site_label
 _atom_site_symmetry_multiplicity
 _atom_site_fract_x
 _atom_site_fract_y
 _atom_site_fract_z
 _atom_site_occupancy
  Ca  Ca0  1  0.25477959  0.93454268  0.93744010  1
  Ca  Ca1  1  0.74522041  0.43454268  0.56255990  1
  Ca  Ca2  1  0.74522041  0.06545732  0.06255990  1
  Ca  Ca3  1  0.25477959  0.56545732  0.43744010  1
  Ni  Ni4  1  0.80237032  0.05783321  0.69525156  1
  Ni  Ni5  1  0.19762968  0.55783321  0.80474844  1
  Ni  Ni6  1  0.19762968  0.94216679  0.30474844  1
  Ni  Ni7  1  0.80237032  0.44216679  0.19525156  1
  As  As8  1  0.42000071  0.23904975  0.73385178  1
  As  As9  1  0.57999929  0.73904975  0.76614822  1
  As  As10  1  0.57999929  0.76095025  0.26614822  1
  As  As11  1  0.42000071  0.26095025  0.23385078  1
  As  As12  1  0.01789660  0.29859157  0.95286416  1
  As  As13  1  0.98210340  0.79859157  0.54713584  1
  As  As14  1  0.98210340  0.70140843  0.04713584  1
  As  As15  1  0.01789660  0.20140843  0.45286416  1
  O  O16  1  0.85227547  0.31277020  0.03992110  1
  O  O17  1  0.14772453  0.81277020  0.46007890  1
  O  O18  1  0.14772453  0.68722980  0.96007890  1
  O  O19  1  0.85227547  0.18722980  0.53992110  1
  O  O20  1  0.34419634  0.41765976  0.71749676  1
  O  O21  1  0.65580366  0.91765976  0.78250324  1
  O  O22  1  0.65580366  0.58234024  0.28250324  1
  O  O23  1  0.34419634  0.08234024  0.21749676  1
  O  O24  1  0.42991059  0.13927830  0.88952218  1
  O  O25  1  0.57008941  0.63927830  0.61047782  1
  O  O26  1  0.57008941  0.86072170  0.11047782  1
  O  O27  1  0.42991059  0.36072170  0.38952218  1
  O  O28  1  0.24809336  0.14252020  0.57599256  1
  O  O29  1  0.75190664  0.64252020  0.92400744  1
  O  O30  1  0.75190664  0.85747980  0.42400744  1
  O  O31  1  0.24809336  0.35747980  0.07599256  1
  O  O32  1  0.99183767  0.08744055  0.30385589  1
  O  O33  1  0.00816233  0.58744055  0.19614411  1
  O  O34  1  0.00816233  0.91255945  0.69614411  1
  O  O35  1  0.99183767  0.41255945  0.80385589  1
  O  O36  1  0.63066658  0.26759171  0.19963381  1
  O  O37  1  0.36933342  0.76759171  0.30036619  1
  O  O38  1  0.36933342  0.73240829  0.80036619  1
  O  O39  1  0.63066658  0.23240829  0.69963381  1
  O  O40  1  0.00461545  0.38359142  0.40213180  1
  O  O41  1  0.99538455  0.88359142  0.09786820  1
  O  O42  1  0.99538455  0.61640858  0.59786820  1
  O  O43  1  0.00461545  0.11640858  0.90213180  1
