# generated using pymatgen
data_ZnNiP2O7
_symmetry_space_group_name_H-M   'P 1'
_cell_length_a   5.69647382
_cell_length_b   6.34709527
_cell_length_c   7.39107233
_cell_angle_alpha   83.05022997
_cell_angle_beta   88.21890752
_cell_angle_gamma   71.31634981
_symmetry_Int_Tables_number   1
_chemical_formula_structural   ZnNiP2O7
_chemical_formula_sum   'Zn2 Ni2 P4 O14'
_cell_volume   251.28103260
_cell_formula_units_Z   2
loop_
 _symmetry_equiv_pos_site_id
 _symmetry_equiv_pos_as_xyz
  1  'x, y, z'
loop_
 _atom_site_type_symbol
 _atom_site_label
 _atom_site_symmetry_multiplicity
 _atom_site_fract_x
 _atom_site_fract_y
 _atom_site_fract_z
 _atom_site_occupancy
  Zn  Zn0  1  0.33469414  0.65405283  0.66725606  1
  Zn  Zn1  1  0.66586088  0.34559340  0.33311295  1
  Ni  Ni2  1  0.25020511  0.15822423  0.20766932  1
  Ni  Ni3  1  0.75068889  0.84185050  0.79065419  1
  P  P4  1  0.17835646  0.68606821  0.09854772  1
  P  P5  1  0.82194873  0.31380061  0.90175020  1
  P  P6  1  0.23145827  0.19820831  0.61400743  1
  P  P7  1  0.76775176  0.80202293  0.38578237  1
  O  O8  1  0.09803910  0.69529993  0.89929111  1
  O  O9  1  0.90292891  0.30438392  0.10082843  1
  O  O10  1  0.29088148  0.86399183  0.12851499  1
  O  O11  1  0.70940938  0.13570546  0.87185364  1
  O  O12  1  0.34220386  0.44705832  0.16987301  1
  O  O13  1  0.65789004  0.55286497  0.83074802  1
  O  O14  1  0.61883370  0.63903093  0.42585963  1
  O  O15  1  0.38085107  0.36090929  0.57419073  1
  O  O16  1  0.06124354  0.20712162  0.45394835  1
  O  O17  1  0.93734450  0.79350524  0.54616215  1
  O  O18  1  0.07696756  0.27543189  0.79134881  1
  O  O19  1  0.60087373  0.04438681  0.32535553  1
  O  O20  1  0.39828483  0.95568639  0.67427383  1
  O  O21  1  0.92328605  0.72479939  0.20897254  1
