# generated using pymatgen
data_MgMo2P2O9
_symmetry_space_group_name_H-M   'P 1'
_cell_length_a   6.65639172
_cell_length_b   7.22830119
_cell_length_c   14.91539174
_cell_angle_alpha   90.00000000
_cell_angle_beta   90.00000000
_cell_angle_gamma   90.00000000
_symmetry_Int_Tables_number   1
_chemical_formula_structural   MgMo2P2O9
_chemical_formula_sum   'Mg4 Mo8 P8 O36'
_cell_volume   717.64518684
_cell_formula_units_Z   4
loop_
 _symmetry_equiv_pos_site_id
 _symmetry_equiv_pos_as_xyz
  1  'x, y, z'
loop_
 _atom_site_type_symbol
 _atom_site_label
 _atom_site_symmetry_multiplicity
 _atom_site_fract_x
 _atom_site_fract_y
 _atom_site_fract_z
 _atom_site_occupancy
  Mg  Mg0  1  0.75000000  0.92827399  0.77064021  1
  Mg  Mg1  1  0.75000000  0.57172601  0.27064021  1
  Mg  Mg2  1  0.25000100  0.42827299  0.72935979  1
  Mg  Mg3  1  0.25000100  0.07172601  0.22935979  1
  Mo  Mo4  1  0.75000000  0.37117661  0.87589542  1
  Mo  Mo5  1  0.25000100  0.62882339  0.12410458  1
  Mo  Mo6  1  0.25000100  0.87117661  0.62410458  1
  Mo  Mo7  1  0.75000000  0.12882339  0.37589542  1
  Mo  Mo8  1  0.50000000  -0.00000000  -0.00000000  1
  Mo  Mo9  1  0.50000000  0.50000000  0.50000000  1
  Mo  Mo10  1  -0.00000000  0.50000000  0.50000000  1
  Mo  Mo11  1  -0.00000000  -0.00000000  -0.00000000  1
  P  P12  1  0.25000100  0.37845617  0.92093088  1
  P  P13  1  0.75000000  0.62154383  0.07907012  1
  P  P14  1  0.75000000  0.87845617  0.57906912  1
  P  P15  1  0.25000100  0.12154483  0.42093088  1
  P  P16  1  0.75000000  0.39753355  0.69161228  1
  P  P17  1  0.75000000  0.10246645  0.19161228  1
  P  P18  1  0.25000100  0.89753355  0.80838772  1
  P  P19  1  0.25000100  0.60246545  0.30838772  1
  O  O20  1  0.05066685  0.60378673  0.36326478  1
  O  O21  1  0.55066585  0.39621227  0.63673522  1
  O  O22  1  0.94933315  0.10378673  0.13673522  1
  O  O23  1  0.44933315  0.89621327  0.86326478  1
  O  O24  1  0.94933315  0.39621227  0.63673522  1
  O  O25  1  0.44933315  0.60378673  0.36326478  1
  O  O26  1  0.05066685  0.89621327  0.86326478  1
  O  O27  1  0.55066585  0.10378673  0.13673522  1
  O  O28  1  0.25000100  0.31352959  0.47059728  1
  O  O29  1  0.75000000  0.68647141  0.52940272  1
  O  O30  1  0.75000000  0.81352859  0.02940172  1
  O  O31  1  0.25000100  0.18647141  0.97059728  1
  O  O32  1  0.75000000  0.11432648  0.93477118  1
  O  O33  1  0.25000100  0.88567352  0.06522782  1
  O  O34  1  0.25000100  0.61432648  0.56522782  1
  O  O35  1  0.75000000  0.38567452  0.43477218  1
  O  O36  1  0.75000000  0.21807841  0.75154733  1
  O  O37  1  0.25000100  0.78192159  0.24845367  1
  O  O38  1  0.25000100  0.71807841  0.74845267  1
  O  O39  1  0.75000000  0.28192259  0.25154633  1
  O  O40  1  0.42932471  0.11236972  0.35456920  1
  O  O41  1  0.92932471  0.88763028  0.64543080  1
  O  O42  1  0.57067529  0.61236872  0.14543080  1
  O  O43  1  0.07067529  0.38763028  0.85456920  1
  O  O44  1  0.57067529  0.88763028  0.64543080  1
  O  O45  1  0.07067529  0.11236972  0.35456920  1
  O  O46  1  0.42932471  0.38763028  0.85456920  1
  O  O47  1  0.92932471  0.61236872  0.14543080  1
  O  O48  1  0.75000000  0.47022628  0.00976868  1
  O  O49  1  0.25000100  0.06358286  0.74096336  1
  O  O50  1  0.25000100  0.43641614  0.24096336  1
  O  O51  1  0.75000000  0.56358286  0.75903664  1
  O  O52  1  0.75000000  0.02977372  0.50976868  1
  O  O53  1  0.25000100  0.97022628  0.49023132  1
  O  O54  1  0.25000100  0.52977272  0.99023032  1
  O  O55  1  0.75000000  0.93641714  0.25903664  1
