# generated using pymatgen
data_CaMnNiP2O9
_symmetry_space_group_name_H-M   'P 1'
_cell_length_a   6.42624520
_cell_length_b   7.40052297
_cell_length_c   14.25661587
_cell_angle_alpha   89.99123116
_cell_angle_beta   90.00706583
_cell_angle_gamma   90.00924542
_symmetry_Int_Tables_number   1
_chemical_formula_structural   CaMnNiP2O9
_chemical_formula_sum   'Ca4 Mn4 Ni4 P8 O36'
_cell_volume   678.01006004
_cell_formula_units_Z   4
loop_
 _symmetry_equiv_pos_site_id
 _symmetry_equiv_pos_as_xyz
  1  'x, y, z'
loop_
 _atom_site_type_symbol
 _atom_site_label
 _atom_site_symmetry_multiplicity
 _atom_site_fract_x
 _atom_site_fract_y
 _atom_site_fract_z
 _atom_site_occupancy
  Ca  Ca0  1  0.74990993  0.88264856  0.78180770  1
  Ca  Ca1  1  0.74991782  0.61738127  0.28173767  1
  Ca  Ca2  1  0.25005324  0.11730381  0.21822482  1
  Ca  Ca3  1  0.24997639  0.38217240  0.71826159  1
  Mn  Mn4  1  0.74996901  0.34834548  0.88002810  1
  Mn  Mn5  1  0.25002228  0.65164587  0.12001667  1
  Mn  Mn6  1  0.25007676  0.84827358  0.61993255  1
  Mn  Mn7  1  0.75003218  0.15154199  0.38005077  1
  Ni  Ni8  1  0.49991287  0.99991434  0.99996755  1
  Ni  Ni9  1  0.50006214  0.49989678  0.49997599  1
  Ni  Ni10  1  0.00010673  0.50002187  0.50000028  1
  Ni  Ni11  1  0.00002573  0.99995236  0.99995207  1
  P  P12  1  0.24999909  0.35568373  0.93869212  1
  P  P13  1  0.75001450  0.64433811  0.06126242  1
  P  P14  1  0.75002915  0.85540668  0.56137696  1
  P  P15  1  0.24996993  0.14459791  0.43869252  1
  P  P16  1  0.75001562  0.39226648  0.69337762  1
  P  P17  1  0.24995895  0.60796748  0.30668455  1
  P  P18  1  0.24999572  0.89188712  0.80645242  1
  P  P19  1  0.74990284  0.10803582  0.19339582  1
  O  O20  1  0.05198019  0.60703486  0.36622322  1
  O  O21  1  0.55198872  0.39312524  0.63384328  1
  O  O22  1  0.94791798  0.10700312  0.13374322  1
  O  O23  1  0.44791344  0.89296855  0.86619519  1
  O  O24  1  0.94799080  0.39319518  0.63385161  1
  O  O25  1  0.44794496  0.60692030  0.36625257  1
  O  O26  1  0.05199636  0.89312031  0.86611973  1
  O  O27  1  0.55199118  0.10711421  0.13364860  1
  O  O28  1  0.24982986  0.33093862  0.48691244  1
  O  O29  1  0.75007010  0.66907236  0.51317729  1
  O  O30  1  0.74993900  0.83063798  0.01274125  1
  O  O31  1  0.25002617  0.16924429  0.98713459  1
  O  O32  1  0.74993389  0.13596561  0.94304906  1
  O  O33  1  0.25001483  0.86406855  0.05684370  1
  O  O34  1  0.25007145  0.63631025  0.55657551  1
  O  O35  1  0.75024615  0.36380769  0.44333175  1
  O  O36  1  0.75002022  0.21905370  0.75973048  1
  O  O37  1  0.25006356  0.78117132  0.24038601  1
  O  O38  1  0.24997213  0.71866561  0.74028274  1
  O  O39  1  0.74988113  0.28125835  0.25960780  1
  O  O40  1  0.43810513  0.13052024  0.36931178  1
  O  O41  1  0.93828569  0.86966230  0.63082373  1
  O  O42  1  0.56198338  0.63024043  0.13065410  1
  O  O43  1  0.06175464  0.36956567  0.86933360  1
  O  O44  1  0.56182185  0.86947400  0.63079664  1
  O  O45  1  0.06191363  0.13000974  0.36929357  1
  O  O46  1  0.43824521  0.36966593  0.86935560  1
  O  O47  1  0.93804288  0.63036273  0.13067047  1
  O  O48  1  0.74969484  0.95627393  0.27060019  1
  O  O49  1  0.25018702  0.04362927  0.72922872  1
  O  O50  1  0.24992475  0.45611555  0.22938391  1
  O  O51  1  0.75004383  0.54403735  0.77069148  1
  O  O52  1  0.74999797  0.00561532  0.48919580  1
  O  O53  1  0.25021480  0.99482581  0.51120786  1
  O  O54  1  0.24999062  0.50590425  0.01078155  1
  O  O55  1  0.75004971  0.49413874  0.98913181  1
