# generated using pymatgen
data_MgMn2O4
_symmetry_space_group_name_H-M   'P 1'
_cell_length_a   6.19077806
_cell_length_b   6.18233086
_cell_length_c   17.75509625
_cell_angle_alpha   61.05259061
_cell_angle_beta   60.89784231
_cell_angle_gamma   57.04822268
_symmetry_Int_Tables_number   1
_chemical_formula_structural   MgMn2O4
_chemical_formula_sum   'Mg6 Mn12 O24'
_cell_volume   475.39753575
_cell_formula_units_Z   6
loop_
 _symmetry_equiv_pos_site_id
 _symmetry_equiv_pos_as_xyz
  1  'x, y, z'
loop_
 _atom_site_type_symbol
 _atom_site_label
 _atom_site_symmetry_multiplicity
 _atom_site_fract_x
 _atom_site_fract_y
 _atom_site_fract_z
 _atom_site_occupancy
  Mg  Mg0  1  0.11586832  0.11348614  0.04739697  1
  Mg  Mg1  1  0.12570079  0.12342885  0.38082992  1
  Mg  Mg2  1  0.50491870  0.50365304  0.33497517  1
  Mg  Mg3  1  0.12024637  0.12043087  0.70954473  1
  Mg  Mg4  1  0.49359687  0.49455830  0.00077070  1
  Mg  Mg5  1  0.87892239  0.87906908  0.62277282  1
  Mn  Mn6  1  0.49982724  0.50023496  0.16628153  1
  Mn  Mn7  1  0.49921128  0.00117937  0.16685228  1
  Mn  Mn8  1  0.50376704  0.50347860  0.49970729  1
  Mn  Mn9  1  0.00151804  0.49868813  0.16674698  1
  Mn  Mn10  1  0.50759919  0.00877858  0.49846463  1
  Mn  Mn11  1  0.49960462  0.50001543  0.66596405  1
  Mn  Mn12  1  0.88201559  0.88407455  0.28717197  1
  Mn  Mn13  1  0.49709538  0.49760597  0.83195501  1
  Mn  Mn14  1  0.00879360  0.50715714  0.49863583  1
  Mn  Mn15  1  0.49154098  0.99344795  0.83470362  1
  Mn  Mn16  1  0.99306206  0.49191598  0.83458828  1
  Mn  Mn17  1  0.87577266  0.87750400  0.95292330  1
  O  O18  1  0.25595485  0.25763187  0.09022753  1
  O  O19  1  0.25734566  0.24393794  0.24315163  1
  O  O20  1  0.25203552  0.71015489  0.09390951  1
  O  O21  1  0.70668613  0.23957353  0.09556381  1
  O  O22  1  0.26793866  0.26825277  0.41951582  1
  O  O23  1  0.29892965  0.76163024  0.23664376  1
  O  O24  1  0.25295953  0.25285914  0.57449113  1
  O  O25  1  0.74860315  0.29571880  0.23823726  1
  O  O26  1  0.74413350  0.75806221  0.09105840  1
  O  O27  1  0.27016913  0.72656327  0.42336486  1
  O  O28  1  0.72800258  0.26958353  0.42289414  1
  O  O29  1  0.74295133  0.74033286  0.24224921  1
  O  O30  1  0.25099239  0.25105461  0.75772959  1
  O  O31  1  0.28302213  0.73096933  0.58213330  1
  O  O32  1  0.73098812  0.28316911  0.58192692  1
  O  O33  1  0.24273363  0.24342961  0.91019629  1
  O  O34  1  0.75374961  0.75247182  0.42570091  1
  O  O35  1  0.26350691  0.71421943  0.75251835  1
  O  O36  1  0.71460862  0.26566212  0.75182684  1
  O  O37  1  0.74558497  0.74664580  0.57686609  1
  O  O38  1  0.27926266  0.73065442  0.90936154  1
  O  O39  1  0.73250520  0.28072182  0.90842212  1
  O  O40  1  0.74662015  0.74727667  0.75896127  1
  O  O41  1  0.73165680  0.73071530  0.91276364  1
