# generated using pymatgen
data_MoIrO6
_symmetry_space_group_name_H-M   'P 1'
_cell_length_a   5.27436242
_cell_length_b   5.35296405
_cell_length_c   7.52949632
_cell_angle_alpha   90.00000000
_cell_angle_beta   90.00313644
_cell_angle_gamma   90.00000000
_symmetry_Int_Tables_number   1
_chemical_formula_structural   MoIrO6
_chemical_formula_sum   'Mo2 Ir2 O12'
_cell_volume   212.58382636
_cell_formula_units_Z   2
loop_
 _symmetry_equiv_pos_site_id
 _symmetry_equiv_pos_as_xyz
  1  'x, y, z'
loop_
 _atom_site_type_symbol
 _atom_site_label
 _atom_site_symmetry_multiplicity
 _atom_site_fract_x
 _atom_site_fract_y
 _atom_site_fract_z
 _atom_site_occupancy
  Mo  Mo0  1  -0.00000000  0.50000000  -0.00000000  1
  Mo  Mo1  1  0.50000000  0.00000000  0.50000000  1
  Ir  Ir2  1  -0.00000000  0.50000000  0.50000000  1
  Ir  Ir3  1  0.50000000  0.00000000  0.00000000  1
  O  O4  1  0.06088798  0.49289655  0.74863917  1
  O  O5  1  0.21375328  0.21280209  0.03058752  1
  O  O6  1  0.21170674  0.21573134  0.46946145  1
  O  O7  1  0.28829326  0.71573134  0.03053855  1
  O  O8  1  0.28624672  0.71280209  0.46941248  1
  O  O9  1  0.43911202  0.99289655  0.75136083  1
  O  O10  1  0.56088798  0.00710345  0.24863917  1
  O  O11  1  0.71375328  0.28719791  0.53058752  1
  O  O12  1  0.71170674  0.28426866  0.96946145  1
  O  O13  1  0.78624672  0.78719791  0.96941248  1
  O  O14  1  0.78829326  0.78426866  0.53053855  1
  O  O15  1  0.93911202  0.50710345  0.25136083  1
