# generated using pymatgen
data_Hf2SN2
_symmetry_space_group_name_H-M   'P 1'
_cell_length_a   3.51102776
_cell_length_b   4.15367077
_cell_length_c   6.34501952
_cell_angle_alpha   109.10603944
_cell_angle_beta   106.06190555
_cell_angle_gamma   90.00000000
_symmetry_Int_Tables_number   1
_chemical_formula_structural   Hf2SN2
_chemical_formula_sum   'Hf2 S1 N2'
_cell_volume   83.60415351
_cell_formula_units_Z   1
loop_
 _symmetry_equiv_pos_site_id
 _symmetry_equiv_pos_as_xyz
  1  'x, y, z'
loop_
 _atom_site_type_symbol
 _atom_site_label
 _atom_site_symmetry_multiplicity
 _atom_site_fract_x
 _atom_site_fract_y
 _atom_site_fract_z
 _atom_site_occupancy
  Hf  Hf0  1  0.67432878  0.17432878  0.34865755  1
  Hf  Hf1  1  0.32567122  0.82567122  0.65134245  1
  S  S2  1  -0.00000000  -0.00000000  -0.00000000  1
  N  N3  1  0.27941214  0.27941214  0.55882428  1
  N  N4  1  0.72058786  0.72058786  0.44117572  1
