# generated using pymatgen
data_ZnFe(GeO3)2
_symmetry_space_group_name_H-M   'P 1'
_cell_length_a   5.39633554
_cell_length_b   6.88794251
_cell_length_c   6.88794203
_cell_angle_alpha   85.99789874
_cell_angle_beta   78.22678563
_cell_angle_gamma   78.22678720
_symmetry_Int_Tables_number   1
_chemical_formula_structural   ZnFe(GeO3)2
_chemical_formula_sum   'Zn2 Fe2 Ge4 O12'
_cell_volume   245.25779426
_cell_formula_units_Z   2
loop_
 _symmetry_equiv_pos_site_id
 _symmetry_equiv_pos_as_xyz
  1  'x, y, z'
loop_
 _atom_site_type_symbol
 _atom_site_label
 _atom_site_symmetry_multiplicity
 _atom_site_fract_x
 _atom_site_fract_y
 _atom_site_fract_z
 _atom_site_occupancy
  Zn  Zn0  1  0.75000000  0.24955549  0.75044451  1
  Zn  Zn1  1  0.25000000  0.75044451  0.24955549  1
  Fe  Fe2  1  0.75000000  0.90366783  0.09633217  1
  Fe  Fe3  1  0.25000000  0.09633217  0.90366783  1
  Ge  Ge4  1  0.75725056  0.38984907  0.21124743  1
  Ge  Ge5  1  0.74274944  0.78875257  0.61015093  1
  Ge  Ge6  1  0.24274944  0.61015093  0.78875257  1
  Ge  Ge7  1  0.25725056  0.21124743  0.38984907  1
  O  O8  1  0.53979971  0.29949179  0.41522028  1
  O  O9  1  0.96020029  0.58477972  0.70050821  1
  O  O10  1  0.46020029  0.70050821  0.58477972  1
  O  O11  1  0.03979971  0.41522028  0.29949179  1
  O  O12  1  0.11043715  0.13999410  0.62773916  1
  O  O13  1  0.38956285  0.37226084  0.86000590  1
  O  O14  1  0.88956285  0.86000590  0.37226084  1
  O  O15  1  0.61043715  0.62773916  0.13999410  1
  O  O16  1  0.85491896  0.20423157  0.03018340  1
  O  O17  1  0.64508104  0.96981660  0.79576843  1
  O  O18  1  0.14508104  0.79576843  0.96981660  1
  O  O19  1  0.35491896  0.03018340  0.20423157  1
