# generated using pymatgen
data_BaCaCoF7
_symmetry_space_group_name_H-M   'P 1'
_cell_length_a   5.81910739
_cell_length_b   9.94396017
_cell_length_c   10.43785532
_cell_angle_alpha   90.00000000
_cell_angle_beta   90.00000000
_cell_angle_gamma   92.94273322
_symmetry_Int_Tables_number   1
_chemical_formula_structural   BaCaCoF7
_chemical_formula_sum   'Ba4 Ca4 Co4 F28'
_cell_volume   603.18975742
_cell_formula_units_Z   4
loop_
 _symmetry_equiv_pos_site_id
 _symmetry_equiv_pos_as_xyz
  1  'x, y, z'
loop_
 _atom_site_type_symbol
 _atom_site_label
 _atom_site_symmetry_multiplicity
 _atom_site_fract_x
 _atom_site_fract_y
 _atom_site_fract_z
 _atom_site_occupancy
  Ba  Ba0  1  0.27022756  0.50533887  0.32589161  1
  Ba  Ba1  1  0.72977244  0.99466113  0.82589161  1
  Ba  Ba2  1  0.72977244  0.49466113  0.67410839  1
  Ba  Ba3  1  0.27022756  0.00533887  0.17410839  1
  Ca  Ca4  1  0.70532954  0.82090382  0.40867945  1
  Ca  Ca5  1  0.29467046  0.67909618  0.90867945  1
  Ca  Ca6  1  0.70532954  0.32090382  0.09132055  1
  Ca  Ca7  1  0.29467046  0.17909618  0.59132055  1
  Co  Co8  1  0.19022461  0.80762518  0.62037860  1
  Co  Co9  1  0.80977539  0.19237482  0.37962140  1
  Co  Co10  1  0.19022461  0.30762518  0.87962140  1
  Co  Co11  1  0.80977539  0.69237482  0.12037860  1
  F  F12  1  0.09715895  0.10820494  0.42017691  1
  F  F13  1  0.34247757  0.36891440  0.03777270  1
  F  F14  1  0.46900165  0.74203876  0.70609906  1
  F  F15  1  0.53099835  0.25796124  0.29390094  1
  F  F16  1  0.90076635  0.35428809  0.45802765  1
  F  F17  1  0.27781993  0.47586253  0.79948748  1
  F  F18  1  0.01238583  0.74436670  0.77374356  1
  F  F19  1  0.09923365  0.14571191  0.95802765  1
  F  F20  1  0.34247757  0.86891440  0.46222730  1
  F  F21  1  0.53099835  0.75796124  0.20609906  1
  F  F22  1  0.09715895  0.60820494  0.07982309  1
  F  F23  1  0.90284105  0.89179506  0.57982309  1
  F  F24  1  0.98761417  0.75563330  0.27374356  1
  F  F25  1  0.38746282  0.88549678  0.96040137  1
  F  F26  1  0.09923365  0.64571191  0.54197235  1
  F  F27  1  0.90076635  0.85428809  0.04197235  1
  F  F28  1  0.98761417  0.25563330  0.22625644  1
  F  F29  1  0.90284105  0.39179506  0.92017691  1
  F  F30  1  0.61253718  0.61450322  0.46040137  1
  F  F31  1  0.65752243  0.63108560  0.96222730  1
  F  F32  1  0.61253718  0.11450322  0.03959863  1
  F  F33  1  0.01238583  0.24436670  0.72625644  1
  F  F34  1  0.38746282  0.38549678  0.53959863  1
  F  F35  1  0.72218007  0.02413747  0.29948748  1
  F  F36  1  0.72218007  0.52413747  0.20051252  1
  F  F37  1  0.27781993  0.97586253  0.70051252  1
  F  F38  1  0.65752243  0.13108560  0.53777270  1
  F  F39  1  0.46900165  0.24203876  0.79390094  1
