# generated using pymatgen
data_Ca2MnWO6
_symmetry_space_group_name_H-M   'P 1'
_cell_length_a   5.73151070
_cell_length_b   5.73486498
_cell_length_c   8.03400124
_cell_angle_alpha   88.54083941
_cell_angle_beta   135.51470803
_cell_angle_gamma   121.19114587
_symmetry_Int_Tables_number   1
_chemical_formula_structural   Ca2MnWO6
_chemical_formula_sum   'Ca2 Mn1 W1 O6'
_cell_volume   129.63029846
_cell_formula_units_Z   1
loop_
 _symmetry_equiv_pos_site_id
 _symmetry_equiv_pos_as_xyz
  1  'x, y, z'
loop_
 _atom_site_type_symbol
 _atom_site_label
 _atom_site_symmetry_multiplicity
 _atom_site_fract_x
 _atom_site_fract_y
 _atom_site_fract_z
 _atom_site_occupancy
  Ca  Ca0  1  0.99660513  0.53598749  0.27620778  1
  Ca  Ca1  1  0.99878303  0.53492251  0.77546209  1
  Mn  Mn2  1  0.99751437  0.99331032  0.50492823  1
  W  W3  1  0.99730593  0.97904908  0.99743884  1
  O  O4  1  0.18265306  0.05448185  0.32178461  1
  O  O5  1  0.80033590  0.85380070  0.66205661  1
  O  O6  1  0.38891293  0.44253156  0.13687366  1
  O  O7  1  0.42469039  0.87113829  0.74752023  1
  O  O8  1  0.54265808  0.04990458  0.20866107  1
  O  O9  1  0.64364918  0.50508462  0.85814487  1
