# generated using pymatgen
data_CaCr3P3O13
_symmetry_space_group_name_H-M   'P 1'
_cell_length_a   6.36789393
_cell_length_b   7.58275292
_cell_length_c   10.34038810
_cell_angle_alpha   100.24541156
_cell_angle_beta   90.00000000
_cell_angle_gamma   90.00000000
_symmetry_Int_Tables_number   1
_chemical_formula_structural   CaCr3P3O13
_chemical_formula_sum   'Ca2 Cr6 P6 O26'
_cell_volume   491.33636946
_cell_formula_units_Z   2
loop_
 _symmetry_equiv_pos_site_id
 _symmetry_equiv_pos_as_xyz
  1  'x, y, z'
loop_
 _atom_site_type_symbol
 _atom_site_label
 _atom_site_symmetry_multiplicity
 _atom_site_fract_x
 _atom_site_fract_y
 _atom_site_fract_z
 _atom_site_occupancy
  Ca  Ca0  1  0.75000000  0.65784168  0.19540737  1
  Ca  Ca1  1  0.25000000  0.34215832  0.80459263  1
  Cr  Cr2  1  0.25000000  0.35868250  0.20031241  1
  Cr  Cr3  1  0.75000000  0.64131750  0.79968759  1
  Cr  Cr4  1  0.25000000  0.77531139  0.43950224  1
  Cr  Cr5  1  0.50000000  -0.00000000  -0.00000000  1
  Cr  Cr6  1  0.75000000  0.22468861  0.56049776  1
  Cr  Cr7  1  0.00000000  -0.00000000  -0.00000000  1
  P  P8  1  0.25000000  0.20968329  0.48573267  1
  P  P9  1  0.75000000  0.79031671  0.51426733  1
  P  P10  1  0.25000000  0.74024825  0.76404582  1
  P  P11  1  0.75000000  0.25975175  0.23595418  1
  P  P12  1  0.75000000  0.31351894  0.88688423  1
  P  P13  1  0.25000000  0.68648106  0.11311577  1
  O  O14  1  0.75000000  0.35621197  0.74342885  1
  O  O15  1  0.56068625  0.75194159  0.41698549  1
  O  O16  1  0.25000000  0.79699243  0.63053332  1
  O  O17  1  0.54705231  0.20953126  0.90515030  1
  O  O18  1  0.75000000  0.65990872  0.61166710  1
  O  O19  1  0.75000000  0.87721567  0.90526116  1
  O  O20  1  0.25000000  0.34009128  0.38833290  1
  O  O21  1  0.04705231  0.79046874  0.09484970  1
  O  O22  1  0.25000000  0.01646324  0.40747595  1
  O  O23  1  0.75000000  0.98353676  0.59252405  1
  O  O24  1  0.06212298  0.62149928  0.78859049  1
  O  O25  1  0.25000000  0.12278433  0.09473884  1
  O  O26  1  0.56212298  0.37850072  0.21140951  1
  O  O27  1  0.75000000  0.50790668  0.96515706  1
  O  O28  1  0.75000000  0.20300757  0.36946668  1
  O  O29  1  0.45294769  0.79046874  0.09484970  1
  O  O30  1  0.93931375  0.75194159  0.41698549  1
  O  O31  1  0.43931375  0.24805841  0.58301451  1
  O  O32  1  0.43787702  0.62149928  0.78859049  1
  O  O33  1  0.25000000  0.64378803  0.25657115  1
  O  O34  1  0.75000000  0.08385338  0.12685213  1
  O  O35  1  0.25000000  0.91614662  0.87314787  1
  O  O36  1  0.93787702  0.37850072  0.21140951  1
  O  O37  1  0.95294769  0.20953126  0.90515030  1
  O  O38  1  0.06068625  0.24805841  0.58301451  1
  O  O39  1  0.25000000  0.49209332  0.03484294  1
