# generated using pymatgen
data_CaFe(GeO3)2
_symmetry_space_group_name_H-M   'P 1'
_cell_length_a   5.36368583
_cell_length_b   9.26354233
_cell_length_c   10.41717728
_cell_angle_alpha   90.00000000
_cell_angle_beta   104.72236929
_cell_angle_gamma   90.00000000
_symmetry_Int_Tables_number   1
_chemical_formula_structural   CaFe(GeO3)2
_chemical_formula_sum   'Ca4 Fe4 Ge8 O24'
_cell_volume   500.60210210
_cell_formula_units_Z   4
loop_
 _symmetry_equiv_pos_site_id
 _symmetry_equiv_pos_as_xyz
  1  'x, y, z'
loop_
 _atom_site_type_symbol
 _atom_site_label
 _atom_site_symmetry_multiplicity
 _atom_site_fract_x
 _atom_site_fract_y
 _atom_site_fract_z
 _atom_site_occupancy
  Ca  Ca0  1  0.47074818  0.45276065  0.27350133  1
  Ca  Ca1  1  0.02925182  0.95276065  0.72649867  1
  Ca  Ca2  1  0.52925182  0.54723935  0.72649867  1
  Ca  Ca3  1  0.97074818  0.04723935  0.27350133  1
  Fe  Fe4  1  0.96885027  0.66091027  0.23591713  1
  Fe  Fe5  1  0.53114973  0.16091027  0.76408287  1
  Fe  Fe6  1  0.03114973  0.33908973  0.76408287  1
  Fe  Fe7  1  0.46885027  0.83908973  0.23591713  1
  Ge  Ge8  1  0.83037503  0.34621616  0.04414706  1
  Ge  Ge9  1  0.66962497  0.84621616  0.95585294  1
  Ge  Ge10  1  0.16962497  0.65378384  0.95585294  1
  Ge  Ge11  1  0.33037503  0.15378384  0.04414706  1
  Ge  Ge12  1  0.09684391  0.35116014  0.48457349  1
  Ge  Ge13  1  0.40315609  0.85116014  0.51542651  1
  Ge  Ge14  1  0.90315609  0.64883986  0.51542651  1
  Ge  Ge15  1  0.59684391  0.14883986  0.48457349  1
  O  O16  1  0.31339596  0.24629932  0.39504964  1
  O  O17  1  0.18660404  0.74629932  0.60495036  1
  O  O18  1  0.68660404  0.75370068  0.60495036  1
  O  O19  1  0.81339596  0.25370068  0.39504964  1
  O  O20  1  0.17387021  0.30842451  0.09993870  1
  O  O21  1  0.32612979  0.80842451  0.90006230  1
  O  O22  1  0.82612979  0.69157549  0.90006230  1
  O  O23  1  0.67387021  0.19157549  0.09993870  1
  O  O24  1  0.65225595  0.97684241  0.41850570  1
  O  O25  1  0.84774405  0.47684241  0.58149430  1
  O  O26  1  0.34774405  0.02315759  0.58149430  1
  O  O27  1  0.15225595  0.52315759  0.41850570  1
  O  O28  1  0.26502585  0.01252633  0.13931275  1
  O  O29  1  0.23497415  0.51252633  0.86068725  1
  O  O30  1  0.73497415  0.98747367  0.86068725  1
  O  O31  1  0.76502585  0.48747367  0.13931275  1
  O  O32  1  0.74193319  0.35161043  0.87007507  1
  O  O33  1  0.75806681  0.85161043  0.12992493  1
  O  O34  1  0.25806681  0.64838957  0.12992493  1
  O  O35  1  0.24193319  0.14838957  0.87007507  1
  O  O36  1  0.29819630  0.32764352  0.64799109  1
  O  O37  1  0.20180370  0.82764352  0.35200891  1
  O  O38  1  0.70180370  0.67235648  0.35200891  1
  O  O39  1  0.79819630  0.17235648  0.64799109  1
