# generated using pymatgen
data_Ta2Zn2NiO8
_symmetry_space_group_name_H-M   'P 1'
_cell_length_a   5.27076096
_cell_length_b   5.91286247
_cell_length_c   10.09619816
_cell_angle_alpha   107.05774011
_cell_angle_beta   89.95103948
_cell_angle_gamma   90.00903918
_symmetry_Int_Tables_number   1
_chemical_formula_structural   Ta2Zn2NiO8
_chemical_formula_sum   'Ta4 Zn4 Ni2 O16'
_cell_volume   300.80916997
_cell_formula_units_Z   2
loop_
 _symmetry_equiv_pos_site_id
 _symmetry_equiv_pos_as_xyz
  1  'x, y, z'
loop_
 _atom_site_type_symbol
 _atom_site_label
 _atom_site_symmetry_multiplicity
 _atom_site_fract_x
 _atom_site_fract_y
 _atom_site_fract_z
 _atom_site_occupancy
  Ta  Ta0  1  0.73014542  0.27269029  0.22716991  1
  Ta  Ta1  1  0.76559196  0.04442367  0.77286980  1
  Ta  Ta2  1  0.26565675  0.72914422  0.77277248  1
  Ta  Ta3  1  0.23017926  0.95841800  0.22732706  1
  Zn  Zn4  1  0.76836379  0.43683978  0.56366204  1
  Zn  Zn5  1  0.72823603  0.87327257  0.43634131  1
  Zn  Zn6  1  0.22850675  0.56627181  0.43697416  1
  Zn  Zn7  1  0.26841915  0.12814056  0.56449067  1
  Ni  Ni8  1  0.74813622  0.63886164  0.00012589  1
  Ni  Ni9  1  0.24791439  0.36432059  0.00050372  1
  O  O10  1  0.06766355  0.18783283  0.13735676  1
  O  O11  1  0.42821839  0.04876348  0.86238861  1
  O  O12  1  0.92797854  0.81423423  0.86226924  1
  O  O13  1  0.56737419  0.95354840  0.13708505  1
  O  O14  1  0.58425456  0.43581674  0.11463310  1
  O  O15  1  0.91204314  0.31936393  0.88586554  1
  O  O16  1  0.41222186  0.56716046  0.88560628  1
  O  O17  1  0.08440322  0.68300401  0.11419629  1
  O  O18  1  0.42882132  0.28159678  0.35220269  1
  O  O19  1  0.06618527  0.92651257  0.64711284  1
  O  O20  1  0.35611369  0.84482678  0.38658025  1
  O  O21  1  0.13984843  0.45592901  0.61378238  1
  O  O22  1  0.64026076  0.15853829  0.61381746  1
  O  O23  1  0.85670420  0.54511340  0.38663216  1
  O  O24  1  0.92826170  0.07402449  0.35199779  1
  O  O25  1  0.56585446  0.72094047  0.64690355  1
