# generated using pymatgen
data_ZrCu
_symmetry_space_group_name_H-M   'P 1'
_cell_length_a   3.24218859
_cell_length_b   4.13821578
_cell_length_c   5.50956323
_cell_angle_alpha   90.00000000
_cell_angle_beta   105.91044766
_cell_angle_gamma   90.00000000
_symmetry_Int_Tables_number   1
_chemical_formula_structural   ZrCu
_chemical_formula_sum   'Zr2 Cu2'
_cell_volume   71.08930713
_cell_formula_units_Z   2
loop_
 _symmetry_equiv_pos_site_id
 _symmetry_equiv_pos_as_xyz
  1  'x, y, z'
loop_
 _atom_site_type_symbol
 _atom_site_label
 _atom_site_symmetry_multiplicity
 _atom_site_fract_x
 _atom_site_fract_y
 _atom_site_fract_z
 _atom_site_occupancy
  Zr  Zr0  1  0.35259828  0.25000000  0.19367465  1
  Zr  Zr1  1  0.64740172  0.75000000  0.80632535  1
  Cu  Cu2  1  0.05921726  0.25000000  0.63769669  1
  Cu  Cu3  1  0.94078274  0.75000000  0.36230331  1
