# generated using pymatgen
data_Sr6Ca2MnFe7O24
_symmetry_space_group_name_H-M   'P 1'
_cell_length_a   7.79481715
_cell_length_b   7.79151121
_cell_length_c   7.79481715
_cell_angle_alpha   90.00000000
_cell_angle_beta   90.00566488
_cell_angle_gamma   90.00000000
_symmetry_Int_Tables_number   1
_chemical_formula_structural   Sr6Ca2MnFe7O24
_chemical_formula_sum   'Sr6 Ca2 Mn1 Fe7 O24'
_cell_volume   473.40578609
_cell_formula_units_Z   1
loop_
 _symmetry_equiv_pos_site_id
 _symmetry_equiv_pos_as_xyz
  1  'x, y, z'
loop_
 _atom_site_type_symbol
 _atom_site_label
 _atom_site_symmetry_multiplicity
 _atom_site_fract_x
 _atom_site_fract_y
 _atom_site_fract_z
 _atom_site_occupancy
  Sr  Sr0  1  0.24972150  0.25033517  0.25027850  1
  Sr  Sr1  1  0.24967614  0.25035413  0.74967614  1
  Sr  Sr2  1  0.24964492  0.74963520  0.74964492  1
  Sr  Sr3  1  0.75032386  0.25035413  0.25032386  1
  Sr  Sr4  1  0.75027850  0.25033517  0.74972150  1
  Sr  Sr5  1  0.75035508  0.74963520  0.25035508  1
  Ca  Ca6  1  0.24966769  0.74963140  0.25033231  1
  Ca  Ca7  1  0.75033231  0.74963140  0.74966769  1
  Mn  Mn8  1  -0.00000000  0.50075277  0.50000000  1
  Fe  Fe9  1  -0.00000000  0.99920606  0.00000000  1
  Fe  Fe10  1  -0.00000000  0.99903077  0.50000000  1
  Fe  Fe11  1  -0.00000000  0.50082965  0.00000000  1
  Fe  Fe12  1  0.50000000  0.99920752  0.00000000  1
  Fe  Fe13  1  0.50000000  0.99920606  0.50000000  1
  Fe  Fe14  1  0.50000000  0.50080110  -0.00000000  1
  Fe  Fe15  1  0.50000000  0.50082965  0.50000000  1
  O  O16  1  0.24936570  0.99793981  0.00155565  1
  O  O17  1  0.25092337  0.99793729  0.49841279  1
  O  O18  1  0.25091005  0.50207486  0.00156145  1
  O  O19  1  0.24869854  0.50210442  0.49839699  1
  O  O20  1  0.75063430  0.99793981  0.99844435  1
  O  O21  1  0.74907663  0.99793729  0.50158721  1
  O  O22  1  0.74908995  0.50207486  0.99843855  1
  O  O23  1  0.75130146  0.50210442  0.50160301  1
  O  O24  1  -0.00000000  0.24904322  0.00000000  1
  O  O25  1  -0.00000000  0.25135624  0.50000000  1
  O  O26  1  -0.00000000  0.75092198  0.00000000  1
  O  O27  1  -0.00000000  0.74868906  0.50000000  1
  O  O28  1  0.50000000  0.25065930  0.00000000  1
  O  O29  1  0.50000000  0.24904322  0.50000000  1
  O  O30  1  0.50000000  0.74936410  0.00000000  1
  O  O31  1  0.50000000  0.75092198  0.50000000  1
  O  O32  1  0.00158721  0.99793729  0.24907663  1
  O  O33  1  0.99841279  0.99793729  0.75092337  1
  O  O34  1  0.00160301  0.50210442  0.25130146  1
  O  O35  1  0.99839699  0.50210442  0.74869854  1
  O  O36  1  0.49844435  0.99793981  0.25063430  1
  O  O37  1  0.50155565  0.99793981  0.74936570  1
  O  O38  1  0.49843855  0.50207486  0.24908995  1
  O  O39  1  0.50156145  0.50207486  0.75091005  1
