# generated using pymatgen
data_Sr7CaFe7CoO24
_symmetry_space_group_name_H-M   'P 1'
_cell_length_a   7.79804071
_cell_length_b   7.79804071
_cell_length_c   7.79804071
_cell_angle_alpha   89.99032219
_cell_angle_beta   89.99032219
_cell_angle_gamma   90.00967781
_symmetry_Int_Tables_number   1
_chemical_formula_structural   Sr7CaFe7CoO24
_chemical_formula_sum   'Sr7 Ca1 Fe7 Co1 O24'
_cell_volume   474.19445912
_cell_formula_units_Z   1
loop_
 _symmetry_equiv_pos_site_id
 _symmetry_equiv_pos_as_xyz
  1  'x, y, z'
loop_
 _atom_site_type_symbol
 _atom_site_label
 _atom_site_symmetry_multiplicity
 _atom_site_fract_x
 _atom_site_fract_y
 _atom_site_fract_z
 _atom_site_occupancy
  Sr  Sr0  1  0.24866454  0.25143386  0.25133546  1
  Sr  Sr1  1  0.24859884  0.25133381  0.74866619  1
  Sr  Sr2  1  0.24866454  0.74866454  0.74856614  1
  Sr  Sr3  1  0.75133381  0.25133381  0.25140116  1
  Sr  Sr4  1  0.75120372  0.25120372  0.74879628  1
  Sr  Sr5  1  0.75143386  0.74866454  0.25133546  1
  Sr  Sr6  1  0.75133381  0.74859884  0.74866619  1
  Ca  Ca7  1  0.24882708  0.74882708  0.25117292  1
  Fe  Fe8  1  0.00049495  0.99951465  0.00048535  1
  Fe  Fe9  1  0.00048841  0.99940596  0.49951159  1
  Fe  Fe10  1  0.00048841  0.50048841  0.00059404  1
  Fe  Fe11  1  0.49952115  0.99952115  0.00047885  1
  Fe  Fe12  1  0.49951465  0.99951465  0.49950505  1
  Fe  Fe13  1  0.49951465  0.50049495  0.00048535  1
  Fe  Fe14  1  0.49940596  0.50048841  0.49951159  1
  Co  Co15  1  0.00044999  0.50044999  0.49955001  1
  O  O16  1  0.24899150  0.99780823  0.00219177  1
  O  O17  1  0.25099686  0.99774770  0.49769766  1
  O  O18  1  0.25099686  0.50230234  0.00225230  1
  O  O19  1  0.24595665  0.50241423  0.49758577  1
  O  O20  1  0.75102193  -0.00027233  0.00027233  1
  O  O21  1  0.74899917  0.99977643  0.49982782  1
  O  O22  1  0.74899917  0.50017218  0.00022357  1
  O  O23  1  0.75400737  0.50009727  0.49990273  1
  O  O24  1  0.00017218  0.24899917  0.00022357  1
  O  O25  1  0.00009727  0.25400737  0.49990273  1
  O  O26  1  0.00230234  0.75099686  0.00225230  1
  O  O27  1  0.00241423  0.74595665  0.49758577  1
  O  O28  1  0.49972767  0.25102193  0.00027233  1
  O  O29  1  0.49977643  0.24899917  0.49982782  1
  O  O30  1  0.49780823  0.74899150  0.00219177  1
  O  O31  1  0.49774770  0.75099686  0.49769766  1
  O  O32  1  0.00230234  0.99774770  0.24900314  1
  O  O33  1  0.00017218  0.99977643  0.75100083  1
  O  O34  1  0.00241423  0.50241423  0.25404335  1
  O  O35  1  0.00009727  0.50009727  0.74599263  1
  O  O36  1  0.49780823  0.99780823  0.25100850  1
  O  O37  1  0.49972767  -0.00027233  0.74897807  1
  O  O38  1  0.49774770  0.50230234  0.24900314  1
  O  O39  1  0.49977643  0.50017218  0.75100083  1
