# generated using pymatgen
data_LiNbO3
_symmetry_space_group_name_H-M   'P 1'
_cell_length_a   5.28484730
_cell_length_b   5.28484730
_cell_length_c   5.72653535
_cell_angle_alpha   62.52025699
_cell_angle_beta   62.52025695
_cell_angle_gamma   59.99999720
_symmetry_Int_Tables_number   1
_chemical_formula_structural   LiNbO3
_chemical_formula_sum   'Li2 Nb2 O6'
_cell_volume   117.21289892
_cell_formula_units_Z   2
loop_
 _symmetry_equiv_pos_site_id
 _symmetry_equiv_pos_as_xyz
  1  'x, y, z'
loop_
 _atom_site_type_symbol
 _atom_site_label
 _atom_site_symmetry_multiplicity
 _atom_site_fract_x
 _atom_site_fract_y
 _atom_site_fract_z
 _atom_site_occupancy
  Li  Li0  1  0.36218957  0.36218957  0.91343129  1
  Li  Li1  1  0.63781043  0.63781043  0.08656871  1
  Nb  Nb2  1  0.14439088  0.14439088  0.56682735  1
  Nb  Nb3  1  0.85560912  0.85560912  0.43317265  1
  O  O4  1  0.95416301  0.21608372  0.26760396  1
  O  O5  1  0.21608372  0.56214930  0.26760396  1
  O  O6  1  0.56214930  0.95416301  0.26760396  1
  O  O7  1  0.04583699  0.78391628  0.73239604  1
  O  O8  1  0.78391628  0.43785070  0.73239604  1
  O  O9  1  0.43785070  0.04583699  0.73239604  1
