# generated using pymatgen
data_BaZnBO3F
_symmetry_space_group_name_H-M   'P 1'
_cell_length_a   4.36380324
_cell_length_b   5.12729017
_cell_length_c   5.12725161
_cell_angle_alpha   120.00057922
_cell_angle_beta   90.00000000
_cell_angle_gamma   90.00000000
_symmetry_Int_Tables_number   1
_chemical_formula_structural   BaZnBO3F
_chemical_formula_sum   'Ba1 Zn1 B1 O3 F1'
_cell_volume   99.34952235
_cell_formula_units_Z   1
loop_
 _symmetry_equiv_pos_site_id
 _symmetry_equiv_pos_as_xyz
  1  'x, y, z'
loop_
 _atom_site_type_symbol
 _atom_site_label
 _atom_site_symmetry_multiplicity
 _atom_site_fract_x
 _atom_site_fract_y
 _atom_site_fract_z
 _atom_site_occupancy
  Ba  Ba0  1  0.50000000  0.66664741  0.33332321  1
  Zn  Zn1  1  0.00000000  0.33334418  0.66667133  1
  B  B2  1  0.00000000  0.00000761  -0.00001063  1
  O  O3  1  -0.00000000  0.97564279  0.25784381  1
  O  O4  1  -0.00000000  0.74218647  0.71781026  1
  O  O5  1  -0.00000000  0.28219910  0.02437391  1
  F  F6  1  0.50000000  0.33337243  0.66668812  1
