# generated using pymatgen
data_Nd3Al
_symmetry_space_group_name_H-M   'P 1'
_cell_length_a   5.44378364
_cell_length_b   7.09093321
_cell_length_c   7.09093321
_cell_angle_alpha   120.00324395
_cell_angle_beta   90.00000000
_cell_angle_gamma   90.00000000
_symmetry_Int_Tables_number   1
_chemical_formula_structural   Nd3Al
_chemical_formula_sum   'Nd6 Al2'
_cell_volume   237.04133247
_cell_formula_units_Z   2
loop_
 _symmetry_equiv_pos_site_id
 _symmetry_equiv_pos_as_xyz
  1  'x, y, z'
loop_
 _atom_site_type_symbol
 _atom_site_label
 _atom_site_symmetry_multiplicity
 _atom_site_fract_x
 _atom_site_fract_y
 _atom_site_fract_z
 _atom_site_occupancy
  Nd  Nd0  1  0.75000000  0.17792720  0.35589968  1
  Nd  Nd1  1  0.75000000  0.17796098  0.82203902  1
  Nd  Nd2  1  0.75000000  0.64410032  0.82207280  1
  Nd  Nd3  1  0.25000000  0.82207280  0.64410032  1
  Nd  Nd4  1  0.25000000  0.82203902  0.17796098  1
  Nd  Nd5  1  0.25000000  0.35589968  0.17792720  1
  Al  Al6  1  0.75000000  0.66668105  0.33331895  1
  Al  Al7  1  0.25000000  0.33331895  0.66668105  1
