# generated using pymatgen
data_Li(SeO3)2
_symmetry_space_group_name_H-M   'P 1'
_cell_length_a   6.10178090
_cell_length_b   8.24594631
_cell_length_c   6.29790678
_cell_angle_alpha   90.00000000
_cell_angle_beta   90.00000000
_cell_angle_gamma   95.09973142
_symmetry_Int_Tables_number   1
_chemical_formula_structural   Li(SeO3)2
_chemical_formula_sum   'Li2 Se4 O12'
_cell_volume   315.62454220
_cell_formula_units_Z   2
loop_
 _symmetry_equiv_pos_site_id
 _symmetry_equiv_pos_as_xyz
  1  'x, y, z'
loop_
 _atom_site_type_symbol
 _atom_site_label
 _atom_site_symmetry_multiplicity
 _atom_site_fract_x
 _atom_site_fract_y
 _atom_site_fract_z
 _atom_site_occupancy
  Li  Li0  1  0.91190865  0.31609795  0.80449919  1
  Li  Li1  1  0.41190865  0.81609795  0.19550081  1
  Se  Se2  1  0.51457858  0.82774594  0.71116929  1
  Se  Se3  1  0.01457858  0.32774594  0.28883071  1
  Se  Se4  1  0.89491515  0.68887111  0.07151708  1
  Se  Se5  1  0.39491515  0.18887111  0.92848292  1
  O  O6  1  0.34647212  0.67438809  0.79098497  1
  O  O7  1  0.84647212  0.17438809  0.20901503  1
  O  O8  1  0.08788265  0.80338295  0.20084725  1
  O  O9  1  0.58788265  0.30338295  0.79915275  1
  O  O10  1  0.78447657  0.79828568  0.73212105  1
  O  O11  1  0.28447657  0.29828568  0.26787895  1
  O  O12  1  0.65956752  0.67405625  0.20217163  1
  O  O13  1  0.15956752  0.17405625  0.79782837  1
  O  O14  1  0.46645908  0.91909909  0.48640700  1
  O  O15  1  0.96645908  0.41909909  0.51359300  1
  O  O16  1  0.98873968  0.47307294  0.07009316  1
  O  O17  1  0.48873968  0.97307294  0.92990684  1
