# generated using pymatgen
data_TaMnSi
_symmetry_space_group_name_H-M   'P 1'
_cell_length_a   3.47673083
_cell_length_b   6.40747426
_cell_length_c   6.40715605
_cell_angle_alpha   120.00164751
_cell_angle_beta   90.00000000
_cell_angle_gamma   90.00000000
_symmetry_Int_Tables_number   1
_chemical_formula_structural   TaMnSi
_chemical_formula_sum   'Ta3 Mn3 Si3'
_cell_volume   123.60802343
_cell_formula_units_Z   3
loop_
 _symmetry_equiv_pos_site_id
 _symmetry_equiv_pos_as_xyz
  1  'x, y, z'
loop_
 _atom_site_type_symbol
 _atom_site_label
 _atom_site_symmetry_multiplicity
 _atom_site_fract_x
 _atom_site_fract_y
 _atom_site_fract_z
 _atom_site_occupancy
  Ta  Ta0  1  0.50000000  0.58936021  1.00000000  1
  Ta  Ta1  1  0.50000000  0.41068481  0.41070864  1
  Ta  Ta2  1  0.50000000  0.99997617  0.58929136  1
  Mn  Mn3  1  -0.00000000  0.24644403  1.00000000  1
  Mn  Mn4  1  0.00000000  0.75350196  0.75351050  1
  Mn  Mn5  1  0.00000000  0.99999145  0.24648950  1
  Si  Si6  1  -0.00000000  0.33331681  0.66668110  1
  Si  Si7  1  -0.00000000  0.66663570  0.33331890  1
  Si  Si8  1  0.50000000  0.99998887  0.00000000  1
