# generated using pymatgen
data_Mg18Al11
_symmetry_space_group_name_H-M   'P 1'
_cell_length_a   10.44413299
_cell_length_b   14.97654289
_cell_length_c   9.17363365
_cell_angle_alpha   90.00000000
_cell_angle_beta   124.51479905
_cell_angle_gamma   90.00000000
_symmetry_Int_Tables_number   1
_chemical_formula_structural   Mg18Al11
_chemical_formula_sum   'Mg36 Al22'
_cell_volume   1182.33884626
_cell_formula_units_Z   2
loop_
 _symmetry_equiv_pos_site_id
 _symmetry_equiv_pos_as_xyz
  1  'x, y, z'
loop_
 _atom_site_type_symbol
 _atom_site_label
 _atom_site_symmetry_multiplicity
 _atom_site_fract_x
 _atom_site_fract_y
 _atom_site_fract_z
 _atom_site_occupancy
  Mg  Mg0  1  0.00172684  0.00000000  0.00152816  1
  Mg  Mg1  1  0.54020646  0.14351788  0.99967860  1
  Mg  Mg2  1  0.82820733  0.17408528  0.00049008  1
  Mg  Mg3  1  0.82820733  0.82591472  0.00049008  1
  Mg  Mg4  1  0.54020646  0.85648212  0.99967860  1
  Mg  Mg5  1  0.63257340  0.00000000  0.81967371  1
  Mg  Mg6  1  0.31003573  0.00000000  0.71104845  1
  Mg  Mg7  1  0.69871342  0.69873893  0.68340361  1
  Mg  Mg8  1  0.69871342  0.30126107  0.68340361  1
  Mg  Mg9  1  0.00109444  0.00000000  0.65422792  1
  Mg  Mg10  1  0.44192483  0.15949051  0.60066564  1
  Mg  Mg11  1  0.44192483  0.84050949  0.60066564  1
  Mg  Mg12  1  0.84155058  0.15820902  0.39842471  1
  Mg  Mg13  1  0.84155058  0.84179098  0.39842471  1
  Mg  Mg14  1  0.34596054  0.00000000  0.34536710  1
  Mg  Mg15  1  0.51472113  0.19852116  0.31611318  1
  Mg  Mg16  1  0.51472113  0.80147884  0.31611318  1
  Mg  Mg17  1  0.60218513  0.00000000  0.28633189  1
  Mg  Mg18  1  0.50172684  0.50000000  0.00152816  1
  Mg  Mg19  1  0.04020646  0.64351788  0.99967860  1
  Mg  Mg20  1  0.32820733  0.67408528  0.00049008  1
  Mg  Mg21  1  0.32820733  0.32591472  0.00049008  1
  Mg  Mg22  1  0.04020646  0.35648212  0.99967860  1
  Mg  Mg23  1  0.13257340  0.50000000  0.81967371  1
  Mg  Mg24  1  0.81003573  0.50000000  0.71104845  1
  Mg  Mg25  1  0.19871342  0.19873893  0.68340361  1
  Mg  Mg26  1  0.19871342  0.80126107  0.68340361  1
  Mg  Mg27  1  0.50109444  0.50000000  0.65422792  1
  Mg  Mg28  1  0.94192483  0.65949051  0.60066564  1
  Mg  Mg29  1  0.94192483  0.34050949  0.60066564  1
  Mg  Mg30  1  0.34155058  0.65820902  0.39842471  1
  Mg  Mg31  1  0.34155058  0.34179098  0.39842471  1
  Mg  Mg32  1  0.84596054  0.50000000  0.34536710  1
  Mg  Mg33  1  0.01472113  0.69852116  0.31611318  1
  Mg  Mg34  1  0.01472113  0.30147884  0.31611318  1
  Mg  Mg35  1  0.10218513  0.50000000  0.28633189  1
  Al  Al36  1  0.27537331  0.09065413  0.00133334  1
  Al  Al37  1  0.27537331  0.90934587  0.00133334  1
  Al  Al38  1  0.49888617  0.68336973  0.81536876  1
  Al  Al39  1  0.49888617  0.31663027  0.81536876  1
  Al  Al40  1  0.72609084  0.09366679  0.62585641  1
  Al  Al41  1  0.72609084  0.90633321  0.62585641  1
  Al  Al42  1  0.09500839  0.09277669  0.37072260  1
  Al  Al43  1  0.59500839  0.40722331  0.37072260  1
  Al  Al44  1  0.68325595  0.68228091  0.18494027  1
  Al  Al45  1  0.68325595  0.31771909  0.18494027  1
  Al  Al46  1  0.81854811  0.00000000  0.18782840  1
  Al  Al47  1  0.77537331  0.59065413  0.00133334  1
  Al  Al48  1  0.77537331  0.40934587  0.00133334  1
  Al  Al49  1  0.99888617  0.18336973  0.81536876  1
  Al  Al50  1  0.99888617  0.81663027  0.81536876  1
  Al  Al51  1  0.22609084  0.59366679  0.62585641  1
  Al  Al52  1  0.22609084  0.40633321  0.62585641  1
  Al  Al53  1  0.59500839  0.59277669  0.37072260  1
  Al  Al54  1  0.09500839  0.90722331  0.37072260  1
  Al  Al55  1  0.18325595  0.18228091  0.18494027  1
  Al  Al56  1  0.18325595  0.81771909  0.18494027  1
  Al  Al57  1  0.31854811  0.50000000  0.18782840  1
