# generated using pymatgen
data_Mg2Cd
_symmetry_space_group_name_H-M   'P 1'
_cell_length_a   5.04828780
_cell_length_b   3.20359223
_cell_length_c   16.43897354
_cell_angle_alpha   90.00000000
_cell_angle_beta   90.00000000
_cell_angle_gamma   90.00000000
_symmetry_Int_Tables_number   1
_chemical_formula_structural   Mg2Cd
_chemical_formula_sum   'Mg8 Cd4'
_cell_volume   265.86185700
_cell_formula_units_Z   4
loop_
 _symmetry_equiv_pos_site_id
 _symmetry_equiv_pos_as_xyz
  1  'x, y, z'
loop_
 _atom_site_type_symbol
 _atom_site_label
 _atom_site_symmetry_multiplicity
 _atom_site_fract_x
 _atom_site_fract_y
 _atom_site_fract_z
 _atom_site_occupancy
  Mg  Mg0  1  0.00000000  -0.00000000  0.99925145  1
  Mg  Mg1  1  -0.00000000  0.50000000  0.16704777  1
  Mg  Mg2  1  0.00000000  -0.00000000  0.33367805  1
  Mg  Mg3  1  0.50000000  0.50000000  0.05516497  1
  Mg  Mg4  1  0.00000000  0.50000000  0.49925145  1
  Mg  Mg5  1  -0.00000000  -0.00000000  0.66704777  1
  Mg  Mg6  1  0.00000000  0.50000000  0.83367805  1
  Mg  Mg7  1  0.50000000  -0.00000000  0.55516497  1
  Cd  Cd8  1  0.50000000  0.50000000  0.39030529  1
  Cd  Cd9  1  0.50000000  -0.00000000  0.22121947  1
  Cd  Cd10  1  0.50000000  0.00000000  0.89030529  1
  Cd  Cd11  1  0.50000000  0.50000000  0.72121947  1
