# generated using pymatgen
data_BaWO4
_symmetry_space_group_name_H-M   'P 1'
_cell_length_a   8.13762287
_cell_length_b   8.13762287
_cell_length_c   6.82721881
_cell_angle_alpha   126.58174877
_cell_angle_beta   126.58174877
_cell_angle_gamma   90.00000000
_symmetry_Int_Tables_number   1
_chemical_formula_structural   BaWO4
_chemical_formula_sum   'Ba2 W2 O8'
_cell_volume   243.31530927
_cell_formula_units_Z   2
loop_
 _symmetry_equiv_pos_site_id
 _symmetry_equiv_pos_as_xyz
  1  'x, y, z'
loop_
 _atom_site_type_symbol
 _atom_site_label
 _atom_site_symmetry_multiplicity
 _atom_site_fract_x
 _atom_site_fract_y
 _atom_site_fract_z
 _atom_site_occupancy
  Ba  Ba0  1  0.62500000  0.87500000  0.25000000  1
  Ba  Ba1  1  0.37500000  0.12500000  0.75000000  1
  W  W2  1  0.12500000  0.37500000  0.25000000  1
  W  W3  1  0.87500000  0.62500000  0.75000000  1
  O  O4  1  0.84954212  0.78012105  0.05300587  1
  O  O5  1  0.20346375  0.77288482  0.05300587  1
  O  O6  1  0.28012105  0.70346375  0.55300587  1
  O  O7  1  0.27288482  0.34954212  0.55300587  1
  O  O8  1  0.15045788  0.21987895  0.94699413  1
  O  O9  1  0.79653625  0.22711518  0.94699413  1
  O  O10  1  0.71987895  0.29653625  0.44699413  1
  O  O11  1  0.72711518  0.65045788  0.44699413  1
