# generated using pymatgen
data_MgGa5
_symmetry_space_group_name_H-M   'P 1'
_cell_length_a   5.00534401
_cell_length_b   3.19231791
_cell_length_c   14.24979835
_cell_angle_alpha   90.00000000
_cell_angle_beta   90.00000000
_cell_angle_gamma   90.00000000
_symmetry_Int_Tables_number   1
_chemical_formula_structural   MgGa5
_chemical_formula_sum   'Mg2 Ga10'
_cell_volume   227.69253084
_cell_formula_units_Z   2
loop_
 _symmetry_equiv_pos_site_id
 _symmetry_equiv_pos_as_xyz
  1  'x, y, z'
loop_
 _atom_site_type_symbol
 _atom_site_label
 _atom_site_symmetry_multiplicity
 _atom_site_fract_x
 _atom_site_fract_y
 _atom_site_fract_z
 _atom_site_occupancy
  Mg  Mg0  1  0.50000000  0.50000000  0.72132823  1
  Mg  Mg1  1  0.50000000  -0.00000000  0.22132823  1
  Ga  Ga2  1  0.00000000  0.00000000  0.00046485  1
  Ga  Ga3  1  0.00000000  0.00000000  0.66548606  1
  Ga  Ga4  1  0.00000000  0.50000000  0.83522994  1
  Ga  Ga5  1  0.50000000  -0.00000000  0.89168832  1
  Ga  Ga6  1  0.50000000  -0.00000000  0.55246961  1
  Ga  Ga7  1  -0.00000000  0.50000000  0.50046485  1
  Ga  Ga8  1  -0.00000000  0.50000000  0.16548606  1
  Ga  Ga9  1  0.00000000  0.00000000  0.33522994  1
  Ga  Ga10  1  0.50000000  0.50000000  0.39168832  1
  Ga  Ga11  1  0.50000000  0.50000000  0.05246961  1
