# generated using pymatgen
data_LaCo4B
_symmetry_space_group_name_H-M   'P 1'
_cell_length_a   5.12377434
_cell_length_b   5.12253537
_cell_length_c   6.83388714
_cell_angle_alpha   90.00000000
_cell_angle_beta   90.00000000
_cell_angle_gamma   120.00800058
_symmetry_Int_Tables_number   1
_chemical_formula_structural   LaCo4B
_chemical_formula_sum   'La2 Co8 B2'
_cell_volume   155.32393208
_cell_formula_units_Z   2
loop_
 _symmetry_equiv_pos_site_id
 _symmetry_equiv_pos_as_xyz
  1  'x, y, z'
loop_
 _atom_site_type_symbol
 _atom_site_label
 _atom_site_symmetry_multiplicity
 _atom_site_fract_x
 _atom_site_fract_y
 _atom_site_fract_z
 _atom_site_occupancy
  La  La0  1  0.99999155  0.00000000  0.00000000  1
  La  La1  1  0.99999278  0.00000000  0.50000000  1
  Co  Co2  1  0.33327170  0.66663062  0.50000000  1
  Co  Co3  1  0.66664108  0.33336938  0.50000000  1
  Co  Co4  1  0.49999803  0.00000000  0.21039288  1
  Co  Co5  1  0.49999594  0.50000278  0.21038016  1
  Co  Co6  1  -0.00000684  0.49999722  0.21038016  1
  Co  Co7  1  0.49999803  0.00000000  0.78960712  1
  Co  Co8  1  0.49999594  0.50000278  0.78961984  1
  Co  Co9  1  -0.00000684  0.49999722  0.78961984  1
  B  B10  1  0.33329405  0.66665951  0.00000000  1
  B  B11  1  0.66663454  0.33334049  0.00000000  1
