# generated using pymatgen
data_K5Na3Ta2Nb6O24
_symmetry_space_group_name_H-M   'P 1'
_cell_length_a   8.05972439
_cell_length_b   8.05972439
_cell_length_c   8.05815461
_cell_angle_alpha   90.00000000
_cell_angle_beta   90.00000000
_cell_angle_gamma   89.99679502
_symmetry_Int_Tables_number   1
_chemical_formula_structural   K5Na3Ta2Nb6O24
_chemical_formula_sum   'K5 Na3 Ta2 Nb6 O24'
_cell_volume   523.45093199
_cell_formula_units_Z   1
loop_
 _symmetry_equiv_pos_site_id
 _symmetry_equiv_pos_as_xyz
  1  'x, y, z'
loop_
 _atom_site_type_symbol
 _atom_site_label
 _atom_site_symmetry_multiplicity
 _atom_site_fract_x
 _atom_site_fract_y
 _atom_site_fract_z
 _atom_site_occupancy
  K  K0  1  0.25009787  0.25009787  0.25000000  1
  K  K1  1  0.25008213  0.74992022  0.25000000  1
  K  K2  1  0.74992022  0.25008213  0.25000000  1
  K  K3  1  0.74990814  0.74990814  0.25000000  1
  K  K4  1  0.74991329  0.74991329  0.75000000  1
  Na  Na5  1  0.24999844  0.24999844  0.75000000  1
  Na  Na6  1  0.25000398  0.74999713  0.75000000  1
  Na  Na7  1  0.74999713  0.25000398  0.75000000  1
  Ta  Ta8  1  0.00023405  0.00023405  0.99930523  1
  Ta  Ta9  1  0.00023405  0.00023405  0.50069477  1
  Nb  Nb10  1  0.00021823  0.49978263  0.99933353  1
  Nb  Nb11  1  0.00021823  0.49978263  0.50066647  1
  Nb  Nb12  1  0.49978263  0.00021823  0.99933353  1
  Nb  Nb13  1  0.49978263  0.00021823  0.50066647  1
  Nb  Nb14  1  0.49977767  0.49977767  0.99933818  1
  Nb  Nb15  1  0.49977767  0.49977767  0.50066182  1
  O  O16  1  0.24881997  0.00008438  0.99835149  1
  O  O17  1  0.24881997  0.00008438  0.50164851  1
  O  O18  1  0.24989443  0.49991843  0.99836232  1
  O  O19  1  0.24989443  0.49991843  0.50163768  1
  O  O20  1  0.75119697  0.00078914  0.99903372  1
  O  O21  1  0.75119697  0.00078914  0.50096628  1
  O  O22  1  0.75010627  0.49921457  0.99905099  1
  O  O23  1  0.75010627  0.49921457  0.50094901  1
  O  O24  1  0.00008438  0.24881997  0.99835149  1
  O  O25  1  0.00008438  0.24881997  0.50164851  1
  O  O26  1  0.00078914  0.75119697  0.99903372  1
  O  O27  1  0.00078914  0.75119697  0.50096628  1
  O  O28  1  0.49991843  0.24989443  0.99836232  1
  O  O29  1  0.49991843  0.24989443  0.50163768  1
  O  O30  1  0.49921457  0.75010627  0.99905099  1
  O  O31  1  0.49921457  0.75010627  0.50094901  1
  O  O32  1  0.00009213  0.00009213  0.25000000  1
  O  O33  1  0.00077585  0.00077585  0.75000000  1
  O  O34  1  0.00008409  0.49991126  0.25000000  1
  O  O35  1  0.00076429  0.49923337  0.75000000  1
  O  O36  1  0.49991126  0.00008409  0.25000000  1
  O  O37  1  0.49923337  0.00076429  0.75000000  1
  O  O38  1  0.49991678  0.49991678  0.25000000  1
  O  O39  1  0.49922756  0.49922756  0.75000000  1
