# generated using pymatgen
data_NaMnPCO7
_symmetry_space_group_name_H-M   'P 1'
_cell_length_a   8.17167350
_cell_length_b   8.17167350
_cell_length_c   10.62143748
_cell_angle_alpha   70.37302298
_cell_angle_beta   109.62697702
_cell_angle_gamma   79.56549063
_symmetry_Int_Tables_number   1
_chemical_formula_structural   NaMnPCO7
_chemical_formula_sum   'Na4 Mn4 P4 C4 O28'
_cell_volume   593.69726099
_cell_formula_units_Z   4
loop_
 _symmetry_equiv_pos_site_id
 _symmetry_equiv_pos_as_xyz
  1  'x, y, z'
loop_
 _atom_site_type_symbol
 _atom_site_label
 _atom_site_symmetry_multiplicity
 _atom_site_fract_x
 _atom_site_fract_y
 _atom_site_fract_z
 _atom_site_occupancy
  Na  Na0  1  0.02289475  0.01524227  0.75356075  1
  Na  Na1  1  0.73475873  0.72710525  0.75356075  1
  Na  Na2  1  0.74406373  0.75811626  0.23410219  1
  Na  Na3  1  0.99188374  0.00593627  0.23410219  1
  Mn  Mn4  1  0.58698354  0.16301646  0.65125743  1
  Mn  Mn5  1  0.10758229  0.64241771  0.66646955  1
  Mn  Mn6  1  0.90475666  0.34588401  0.34282735  1
  Mn  Mn7  1  0.40411599  0.84524334  0.34282735  1
  P  P8  1  0.77011630  0.48253883  0.56888772  1
  P  P9  1  0.26746117  0.97988370  0.56888772  1
  P  P10  1  0.73570040  0.01429960  0.43020227  1
  P  P11  1  0.22923851  0.52076149  0.43269786  1
  C  C12  1  0.69884146  0.05115854  0.91727227  1
  C  C13  1  0.20496254  0.54503746  0.93276099  1
  C  C14  1  0.79627553  0.45234419  0.07698595  1
  C  C15  1  0.29765581  0.95372447  0.07698595  1
  O  O16  1  0.24924273  0.00935906  0.94289855  1
  O  O17  1  0.74064094  0.50075727  0.94289855  1
  O  O18  1  0.28563112  0.46436888  0.87085270  1
  O  O19  1  0.77769896  0.97230104  0.85241313  1
  O  O20  1  0.55446603  0.19553397  0.81869019  1
  O  O21  1  0.05759706  0.69240294  0.82672025  1
  O  O22  1  0.94385950  0.49811768  0.67530622  1
  O  O23  1  0.75954392  0.29657880  0.66457073  1
  O  O24  1  0.45342120  0.99045608  0.66457073  1
  O  O25  1  0.25188232  0.80614050  0.67530622  1
  O  O26  1  0.73198347  0.01801653  0.57429626  1
  O  O27  1  0.10240910  0.14921444  0.52681783  1
  O  O28  1  0.60078556  0.64759090  0.52681783  1
  O  O29  1  0.22736084  0.52263916  0.57581776  1
  O  O30  1  0.78006565  0.48232985  0.42685617  1
  O  O31  1  0.90286257  0.84713743  0.47090541  1
  O  O32  1  0.39477961  0.35522039  0.47212874  1
  O  O33  1  0.26767015  0.96993435  0.42685617  1
  O  O34  1  0.55713968  0.99811576  0.33020381  1
  O  O35  1  0.75188424  0.19286032  0.33020381  1
  O  O36  1  0.04440905  0.51378600  0.33043752  1
  O  O37  1  0.23621400  0.70559095  0.33043752  1
  O  O38  1  0.94329966  0.30794855  0.17890892  1
  O  O39  1  0.44205145  0.80670034  0.17890892  1
  O  O40  1  0.72022241  0.53328387  0.14161366  1
  O  O41  1  0.21671613  0.02977759  0.14161366  1
  O  O42  1  0.75512364  0.99487636  0.05360758  1
  O  O43  1  0.25374685  0.49625315  0.06595694  1
