# generated using pymatgen
data_Cu3Mo2(HO5)2
_symmetry_space_group_name_H-M   'P 1'
_cell_length_a   5.86853357
_cell_length_b   5.73694280
_cell_length_c   7.85002825
_cell_angle_alpha   103.47644568
_cell_angle_beta   111.61979896
_cell_angle_gamma   94.00059295
_symmetry_Int_Tables_number   1
_chemical_formula_structural   Cu3Mo2(HO5)2
_chemical_formula_sum   'Cu3 Mo2 H2 O10'
_cell_volume   235.36522596
_cell_formula_units_Z   1
loop_
 _symmetry_equiv_pos_site_id
 _symmetry_equiv_pos_as_xyz
  1  'x, y, z'
loop_
 _atom_site_type_symbol
 _atom_site_label
 _atom_site_symmetry_multiplicity
 _atom_site_fract_x
 _atom_site_fract_y
 _atom_site_fract_z
 _atom_site_occupancy
  Cu  Cu0  1  0.24804590  0.08530784  0.13800576  1
  Cu  Cu1  1  0.75195410  0.91469216  0.86199424  1
  Cu  Cu2  1  -0.00000000  0.50000000  -0.00000000  1
  Mo  Mo3  1  0.67774049  0.70748987  0.30495821  1
  Mo  Mo4  1  0.32225951  0.29251013  0.69504179  1
  H  H5  1  0.94762767  0.70567471  0.66304173  1
  H  H6  1  0.05237233  0.29432529  0.33695827  1
  O  O7  1  0.79125890  0.73403411  0.57015151  1
  O  O8  1  0.20874110  0.26596589  0.42984849  1
  O  O9  1  0.92853404  0.67748564  0.23290330  1
  O  O10  1  0.07146596  0.32251436  0.76709670  1
  O  O11  1  0.55159523  0.97287026  0.26143523  1
  O  O12  1  0.44840477  0.02712974  0.73856477  1
  O  O13  1  0.44217910  0.44735694  0.17754385  1
  O  O14  1  0.55782090  0.55264306  0.82245615  1
  O  O15  1  0.94345881  0.20719806  0.05754661  1
  O  O16  1  0.05654119  0.79280194  0.94245339  1
