# generated using pymatgen
data_BaMgF4
_symmetry_space_group_name_H-M   'P 1'
_cell_length_a   4.21102430
_cell_length_b   5.84129645
_cell_length_c   7.51977946
_cell_angle_alpha   90.00000000
_cell_angle_beta   106.25999757
_cell_angle_gamma   90.00000000
_symmetry_Int_Tables_number   1
_chemical_formula_structural   BaMgF4
_chemical_formula_sum   'Ba2 Mg2 F8'
_cell_volume   177.57171521
_cell_formula_units_Z   2
loop_
 _symmetry_equiv_pos_site_id
 _symmetry_equiv_pos_as_xyz
  1  'x, y, z'
loop_
 _atom_site_type_symbol
 _atom_site_label
 _atom_site_symmetry_multiplicity
 _atom_site_fract_x
 _atom_site_fract_y
 _atom_site_fract_z
 _atom_site_occupancy
  Ba  Ba0  1  0.14200986  0.25000000  0.28401971  1
  Ba  Ba1  1  0.85799014  0.75000000  0.71598029  1
  Mg  Mg2  1  0.59184615  0.75000000  0.18369230  1
  Mg  Mg3  1  0.40815385  0.25000000  0.81630770  1
  F  F4  1  0.68692933  0.99019172  0.37385866  1
  F  F5  1  0.31307067  0.00980828  0.62614134  1
  F  F6  1  0.68692933  0.50980828  0.37385866  1
  F  F7  1  0.31307067  0.49019172  0.62614134  1
  F  F8  1  0.50000000  -0.00000000  0.00000000  1
  F  F9  1  0.50000000  0.50000000  0.00000000  1
  F  F10  1  0.08200111  0.75000000  0.16400222  1
  F  F11  1  0.91799889  0.25000000  0.83599778  1
