# generated using pymatgen
data_TlPd2
_symmetry_space_group_name_H-M   'P 1'
_cell_length_a   4.26705980
_cell_length_b   5.85359002
_cell_length_c   8.60005957
_cell_angle_alpha   90.00000000
_cell_angle_beta   90.00000000
_cell_angle_gamma   90.00000000
_symmetry_Int_Tables_number   1
_chemical_formula_structural   TlPd2
_chemical_formula_sum   'Tl4 Pd8'
_cell_volume   214.80900839
_cell_formula_units_Z   4
loop_
 _symmetry_equiv_pos_site_id
 _symmetry_equiv_pos_as_xyz
  1  'x, y, z'
loop_
 _atom_site_type_symbol
 _atom_site_label
 _atom_site_symmetry_multiplicity
 _atom_site_fract_x
 _atom_site_fract_y
 _atom_site_fract_z
 _atom_site_occupancy
  Tl  Tl0  1  0.75000000  0.67847029  0.89787367  1
  Tl  Tl1  1  0.75000000  0.17847029  0.60212633  1
  Tl  Tl2  1  0.25000000  0.32152971  0.10212633  1
  Tl  Tl3  1  0.25000000  0.82152971  0.39787367  1
  Pd  Pd4  1  0.75000000  0.65698159  0.57203583  1
  Pd  Pd5  1  0.75000000  0.15698159  0.92796417  1
  Pd  Pd6  1  0.25000000  0.34301841  0.42796417  1
  Pd  Pd7  1  0.25000000  0.84301841  0.07203583  1
  Pd  Pd8  1  0.75000000  0.56947948  0.23422307  1
  Pd  Pd9  1  0.75000000  0.06947948  0.26577693  1
  Pd  Pd10  1  0.25000000  0.43052052  0.76577693  1
  Pd  Pd11  1  0.25000000  0.93052052  0.73422307  1
