# generated using pymatgen
data_Zn(FeO2)2
_symmetry_space_group_name_H-M   'P 1'
_cell_length_a   6.05165560
_cell_length_b   6.05165562
_cell_length_c   36.27807412
_cell_angle_alpha   59.97094459
_cell_angle_beta   59.97094449
_cell_angle_gamma   60.00000176
_symmetry_Int_Tables_number   1
_chemical_formula_structural   Zn(FeO2)2
_chemical_formula_sum   'Zn12 Fe24 O48'
_cell_volume   939.04579318
_cell_formula_units_Z   12
loop_
 _symmetry_equiv_pos_site_id
 _symmetry_equiv_pos_as_xyz
  1  'x, y, z'
loop_
 _atom_site_type_symbol
 _atom_site_label
 _atom_site_symmetry_multiplicity
 _atom_site_fract_x
 _atom_site_fract_y
 _atom_site_fract_z
 _atom_site_occupancy
  Zn  Zn0  1  0.12261854  0.12261854  0.02202373  1
  Zn  Zn1  1  0.49822252  0.49822252  0.00088874  1
  Zn  Zn2  1  0.12164821  0.12164821  0.18917589  1
  Zn  Zn3  1  0.49808559  0.49808559  0.16762420  1
  Zn  Zn4  1  0.12488716  0.12488716  0.35422342  1
  Zn  Zn5  1  0.12533061  0.12533061  0.52066769  1
  Zn  Zn6  1  0.87601754  0.87601754  0.31199123  1
  Zn  Zn7  1  0.12541663  0.12541663  0.68729169  1
  Zn  Zn8  1  0.87539782  0.87539782  0.47896809  1
  Zn  Zn9  1  0.12549202  0.12549202  0.85392099  1
  Zn  Zn10  1  0.87561845  0.87561845  0.64552378  1
  Zn  Zn11  1  0.87563317  0.87563317  0.81218342  1
  Fe  Fe12  1  0.49773294  0.49773294  0.08316000  1
  Fe  Fe13  1  0.49773294  0.00557215  0.08316000  1
  Fe  Fe14  1  0.49837415  0.49837415  0.24987342  1
  Fe  Fe15  1  0.00557215  0.49773294  0.08316000  1
  Fe  Fe16  1  0.87665648  0.87665648  0.14500476  1
  Fe  Fe17  1  0.50125556  0.50125556  0.33270522  1
  Fe  Fe18  1  0.49837415  0.00401117  0.24987342  1
  Fe  Fe19  1  0.00401117  0.49837415  0.24987342  1
  Fe  Fe20  1  0.50051196  0.50051196  0.41622541  1
  Fe  Fe21  1  0.50097661  0.50097661  0.49951170  1
  Fe  Fe22  1  0.50051196  0.00162563  0.41622541  1
  Fe  Fe23  1  0.50024197  0.50024197  0.58313061  1
  Fe  Fe24  1  0.00162563  0.50051196  0.41622541  1
  Fe  Fe25  1  0.00067329  0.50030854  0.74978494  1
  Fe  Fe26  1  0.50024197  0.00073042  0.58313061  1
  Fe  Fe27  1  0.50078557  0.50078557  0.66627421  1
  Fe  Fe28  1  0.50030854  0.50030854  0.74978494  1
  Fe  Fe29  1  0.00073042  0.50024197  0.58313061  1
  Fe  Fe30  1  0.50058466  0.50058466  0.83304067  1
  Fe  Fe31  1  0.50030854  0.00067329  0.74978494  1
  Fe  Fe32  1  0.49900867  0.49900867  0.91670924  1
  Fe  Fe33  1  0.49900867  0.00172924  0.91670924  1
  Fe  Fe34  1  0.00172924  0.49900867  0.91670924  1
  Fe  Fe35  1  0.87553895  0.87553895  0.97889752  1
  O  O36  1  0.25470104  0.25470104  0.04484400  1
  O  O37  1  0.25953263  0.25953263  0.12023369  1
  O  O38  1  0.25470104  0.72153594  0.04484400  1
  O  O39  1  0.72153594  0.25470104  0.04484400  1
  O  O40  1  0.25346125  0.25346125  0.21190064  1
  O  O41  1  0.27039305  0.74859120  0.12207076  1
  O  O42  1  0.74364172  0.74364172  0.04484614  1
  O  O43  1  0.74859120  0.27039305  0.12207076  1
  O  O44  1  0.25949131  0.25949131  0.28692134  1
  O  O45  1  0.25346125  0.72167164  0.21190064  1
  O  O46  1  0.72167164  0.25346125  0.21190064  1
  O  O47  1  0.74859120  0.74859120  0.12207076  1
  O  O48  1  0.26121958  0.26121958  0.37640117  1
  O  O49  1  0.28283463  0.73787847  0.29023507  1
  O  O50  1  0.74489508  0.74489508  0.21088546  1
  O  O51  1  0.73787847  0.28283463  0.29023507  1
  O  O52  1  0.26018840  0.26018840  0.45323880  1
  O  O53  1  0.26121958  0.71915383  0.37640117  1
  O  O54  1  0.71915383  0.26121958  0.37640117  1
  O  O55  1  0.73787847  0.73787847  0.29023507  1
  O  O56  1  0.25968164  0.25968164  0.54359242  1
  O  O57  1  0.28062582  0.73958290  0.45670106  1
  O  O58  1  0.73970451  0.73970451  0.38014774  1
  O  O59  1  0.73958290  0.28062582  0.45670106  1
  O  O60  1  0.25968164  0.71908421  0.54359242  1
  O  O61  1  0.26006219  0.26006219  0.61996891  1
  O  O62  1  0.71908421  0.25968164  0.54359242  1
  O  O63  1  0.73958290  0.73958290  0.45670106  1
  O  O64  1  0.25976005  0.25976005  0.71022403  1
  O  O65  1  0.28050558  0.73927231  0.62349163  1
  O  O66  1  0.73927231  0.28050558  0.62349163  1
  O  O67  1  0.73946445  0.73946445  0.54693477  1
  O  O68  1  0.26010700  0.26010700  0.78661350  1
  O  O69  1  0.25976005  0.71913373  0.71022403  1
  O  O70  1  0.71913373  0.25976005  0.71022403  1
  O  O71  1  0.73927231  0.73927231  0.62349163  1
  O  O72  1  0.26043233  0.26043233  0.87679891  1
  O  O73  1  0.28026200  0.73943471  0.79014510  1
  O  O74  1  0.26043233  0.71834187  0.87679891  1
  O  O75  1  0.73952890  0.73952890  0.71356855  1
  O  O76  1  0.25986402  0.25986402  0.95340099  1
  O  O77  1  0.73943471  0.28026200  0.79014510  1
  O  O78  1  0.71834187  0.26043233  0.87679891  1
  O  O79  1  0.73943471  0.73943471  0.79014510  1
  O  O80  1  0.26691588  0.75012044  0.95547354  1
  O  O81  1  0.73792534  0.73792534  0.88103733  1
  O  O82  1  0.75012044  0.26691588  0.95547354  1
  O  O83  1  0.75012044  0.75012044  0.95547354  1
