# generated using pymatgen
data_NiPtO2
_symmetry_space_group_name_H-M   'P 1'
_cell_length_a   2.92288936
_cell_length_b   6.31493930
_cell_length_c   2.92288947
_cell_angle_alpha   103.38107069
_cell_angle_beta   60.00000119
_cell_angle_gamma   103.38107387
_symmetry_Int_Tables_number   1
_chemical_formula_structural   NiPtO2
_chemical_formula_sum   'Ni1 Pt1 O2'
_cell_volume   45.02319964
_cell_formula_units_Z   1
loop_
 _symmetry_equiv_pos_site_id
 _symmetry_equiv_pos_as_xyz
  1  'x, y, z'
loop_
 _atom_site_type_symbol
 _atom_site_label
 _atom_site_symmetry_multiplicity
 _atom_site_fract_x
 _atom_site_fract_y
 _atom_site_fract_z
 _atom_site_occupancy
  Ni  Ni0  1  0.50000000  0.50000000  0.50000000  1
  Pt  Pt1  1  -0.00000000  -0.00000000  -0.00000000  1
  O  O2  1  0.10754811  0.32264434  0.10754811  1
  O  O3  1  0.89245189  0.67735566  0.89245189  1
