# generated using pymatgen
data_LiCo2(PO3)5
_symmetry_space_group_name_H-M   'P 1'
_cell_length_a   12.93955400
_cell_length_b   8.46434640
_cell_length_c   5.27682025
_cell_angle_alpha   90.00000000
_cell_angle_beta   95.11173308
_cell_angle_gamma   90.00000000
_symmetry_Int_Tables_number   1
_chemical_formula_structural   LiCo2(PO3)5
_chemical_formula_sum   'Li2 Co4 P10 O30'
_cell_volume   575.64446631
_cell_formula_units_Z   2
loop_
 _symmetry_equiv_pos_site_id
 _symmetry_equiv_pos_as_xyz
  1  'x, y, z'
loop_
 _atom_site_type_symbol
 _atom_site_label
 _atom_site_symmetry_multiplicity
 _atom_site_fract_x
 _atom_site_fract_y
 _atom_site_fract_z
 _atom_site_occupancy
  Li  Li0  1  0.46917368  0.99447291  0.52405472  1
  Li  Li1  1  0.96917368  0.00552809  0.02405472  1
  Co  Co2  1  0.96753843  0.31469144  0.90191597  1
  Co  Co3  1  0.53940093  0.30884151  0.60039260  1
  Co  Co4  1  0.46753743  0.68530756  0.40191597  1
  Co  Co5  1  0.03940093  0.69115849  0.10039260  1
  P  P6  1  0.60198134  0.82176727  0.96541255  1
  P  P7  1  0.64194419  0.49150912  0.13980032  1
  P  P8  1  0.74946458  0.05766140  0.75129625  1
  P  P9  1  0.86106013  0.49326770  0.35911781  1
  P  P10  1  0.10198134  0.17823373  0.46541155  1
  P  P11  1  0.14194419  0.50849188  0.63980132  1
  P  P12  1  0.24946458  0.94233860  0.25129725  1
  P  P13  1  0.36106013  0.50673230  0.85911881  1
  P  P14  1  0.39409223  0.17713528  0.03948294  1
  P  P15  1  0.89409223  0.82286472  0.53948294  1
  O  O16  1  0.34011817  0.86638371  0.40527228  1
  O  O17  1  0.92493172  0.51241941  0.13279152  1
  O  O18  1  0.58351702  0.51050639  0.37615077  1
  O  O19  1  0.95245947  0.86307879  0.31364418  1
  O  O20  1  0.04749520  0.14183144  0.69823643  1
  O  O21  1  0.03960073  0.18955420  0.21095434  1
  O  O22  1  0.08351802  0.48949361  0.87615077  1
  O  O23  1  0.09850561  0.61907458  0.44110176  1
  O  O24  1  0.16763542  0.34113825  0.51897398  1
  O  O25  1  0.16614753  0.85020091  0.10348411  1
  O  O26  1  0.19845511  0.06109588  0.44923068  1
  O  O27  1  0.25295724  0.57371061  0.74030016  1
  O  O28  1  0.29582257  0.06258850  0.04708772  1
  O  O29  1  0.95208659  0.81070022  0.79920338  1
  O  O30  1  0.33059364  0.33917336  0.97179026  1
  O  O31  1  0.39941748  0.61385087  0.06930629  1
  O  O32  1  0.42493172  0.48757959  0.63278952  1
  O  O33  1  0.45245947  0.13692121  0.81364418  1
  O  O34  1  0.83059364  0.66082764  0.47179026  1
  O  O35  1  0.53960073  0.81044480  0.71095534  1
  O  O36  1  0.54749520  0.85816856  0.19823643  1
  O  O37  1  0.89941848  0.38614913  0.56930529  1
  O  O38  1  0.59850561  0.38092642  0.94110176  1
  O  O39  1  0.66763542  0.65886075  0.01897198  1
  O  O40  1  0.66614753  0.14979809  0.60348511  1
  O  O41  1  0.69845511  0.93890512  0.94923068  1
  O  O42  1  0.75295724  0.42628839  0.24029916  1
  O  O43  1  0.79582257  0.93741050  0.54708772  1
  O  O44  1  0.84011817  0.13361729  0.90527228  1
  O  O45  1  0.45208659  0.18929978  0.29920238  1
