# generated using pymatgen
data_Sr5W3O14
_symmetry_space_group_name_H-M   'P 1'
_cell_length_a   10.91169082
_cell_length_b   10.82182928
_cell_length_c   11.06534170
_cell_angle_alpha   90.00000000
_cell_angle_beta   90.00000000
_cell_angle_gamma   90.00000000
_symmetry_Int_Tables_number   1
_chemical_formula_structural   Sr5W3O14
_chemical_formula_sum   'Sr20 W12 O56'
_cell_volume   1306.64484636
_cell_formula_units_Z   4
loop_
 _symmetry_equiv_pos_site_id
 _symmetry_equiv_pos_as_xyz
  1  'x, y, z'
loop_
 _atom_site_type_symbol
 _atom_site_label
 _atom_site_symmetry_multiplicity
 _atom_site_fract_x
 _atom_site_fract_y
 _atom_site_fract_z
 _atom_site_occupancy
  Sr  Sr0  1  -0.00000000  0.00000000  0.50000000  1
  Sr  Sr1  1  -0.00000000  0.50000000  -0.00000000  1
  Sr  Sr2  1  0.00277935  0.25058166  0.22393442  1
  Sr  Sr3  1  0.00277935  0.24941834  0.72393442  1
  Sr  Sr4  1  0.24173662  0.51446989  0.25684337  1
  Sr  Sr5  1  0.24173662  0.98553011  0.75684337  1
  Sr  Sr6  1  0.25826338  0.48553011  0.75684337  1
  Sr  Sr7  1  0.25826338  0.01446989  0.25684337  1
  Sr  Sr8  1  0.49722065  0.75058166  0.22393442  1
  Sr  Sr9  1  0.49722065  0.74941834  0.72393442  1
  Sr  Sr10  1  0.50000000  0.50000000  0.50000000  1
  Sr  Sr11  1  0.50000000  0.00000000  -0.00000000  1
  Sr  Sr12  1  0.50277935  0.25058166  0.27606558  1
  Sr  Sr13  1  0.50277935  0.24941834  0.77606558  1
  Sr  Sr14  1  0.74173662  0.98553011  0.74315663  1
  Sr  Sr15  1  0.74173662  0.51446989  0.24315663  1
  Sr  Sr16  1  0.75826338  0.01446989  0.24315663  1
  Sr  Sr17  1  0.75826338  0.48553011  0.74315663  1
  Sr  Sr18  1  0.99722065  0.74941834  0.77606558  1
  Sr  Sr19  1  0.99722065  0.75058166  0.27606558  1
  W  W20  1  -0.00000000  0.00000000  -0.00000000  1
  W  W21  1  -0.00000000  0.50000000  0.50000000  1
  W  W22  1  0.24707068  0.74605813  0.00233584  1
  W  W23  1  0.24707068  0.75394187  0.50233584  1
  W  W24  1  0.25292932  0.24605813  0.00233584  1
  W  W25  1  0.25292932  0.25394187  0.50233584  1
  W  W26  1  0.50000000  0.00000000  0.50000000  1
  W  W27  1  0.50000000  0.50000000  -0.00000000  1
  W  W28  1  0.74707068  0.75394187  0.99766416  1
  W  W29  1  0.74707068  0.74605813  0.49766416  1
  W  W30  1  0.75292932  0.25394187  0.99766416  1
  W  W31  1  0.75292932  0.24605813  0.49766416  1
  O  O32  1  0.00866891  0.45504315  0.33273248  1
  O  O33  1  0.00866891  0.04495685  0.83273248  1
  O  O34  1  0.12178182  0.62665365  0.45949085  1
  O  O35  1  0.12178182  0.87334635  0.95949085  1
  O  O36  1  0.12993539  0.11732059  0.04816866  1
  O  O37  1  0.12993539  0.38267941  0.54816866  1
  O  O38  1  0.14307328  0.67520335  0.12634290  1
  O  O39  1  0.14307328  0.82479665  0.62634290  1
  O  O40  1  0.15262167  0.18437816  0.37574293  1
  O  O41  1  0.15262167  0.31562184  0.87574293  1
  O  O42  1  0.16238451  0.86505927  0.39129827  1
  O  O43  1  0.16238451  0.63494073  0.89129827  1
  O  O44  1  0.17064762  0.35949580  0.11093321  1
  O  O45  1  0.17064762  0.14050420  0.61093321  1
  O  O46  1  0.32935238  0.64050420  0.61093321  1
  O  O47  1  0.32935238  0.85949580  0.11093321  1
  O  O48  1  0.33761549  0.13494073  0.89129827  1
  O  O49  1  0.33761549  0.36505927  0.39129827  1
  O  O50  1  0.34737833  0.81562184  0.87574293  1
  O  O51  1  0.34737833  0.68437816  0.37574293  1
  O  O52  1  0.35692672  0.32479665  0.62634290  1
  O  O53  1  0.35692672  0.17520335  0.12634290  1
  O  O54  1  0.37006461  0.61732059  0.04816866  1
  O  O55  1  0.37006461  0.88267941  0.54816866  1
  O  O56  1  0.37821818  0.12665365  0.45949085  1
  O  O57  1  0.37821818  0.37334635  0.95949085  1
  O  O58  1  0.49133109  0.54495685  0.83273248  1
  O  O59  1  0.49133109  0.95504315  0.33273248  1
  O  O60  1  0.50866891  0.45504315  0.16726852  1
  O  O61  1  0.50866891  0.04495685  0.66726752  1
  O  O62  1  0.62178182  0.62665365  0.04050915  1
  O  O63  1  0.62178182  0.87334635  0.54050915  1
  O  O64  1  0.62993539  0.11732059  0.45183134  1
  O  O65  1  0.62993539  0.38267941  0.95183134  1
  O  O66  1  0.64307328  0.67520335  0.37365710  1
  O  O67  1  0.64307328  0.82479665  0.87365710  1
  O  O68  1  0.65262167  0.18437816  0.12425707  1
  O  O69  1  0.65262167  0.31562184  0.62425707  1
  O  O70  1  0.66238451  0.63494073  0.60870173  1
  O  O71  1  0.66238451  0.86505927  0.10870173  1
  O  O72  1  0.67064762  0.35949580  0.38906679  1
  O  O73  1  0.67064762  0.14050420  0.88906679  1
  O  O74  1  0.82935238  0.64050420  0.88906679  1
  O  O75  1  0.82935238  0.85949580  0.38906679  1
  O  O76  1  0.83761549  0.13494073  0.60870173  1
  O  O77  1  0.83761549  0.36505927  0.10870173  1
  O  O78  1  0.84737833  0.68437816  0.12425707  1
  O  O79  1  0.84737833  0.81562184  0.62425707  1
  O  O80  1  0.85692672  0.17520335  0.37365710  1
  O  O81  1  0.85692672  0.32479665  0.87365710  1
  O  O82  1  0.87006461  0.61732059  0.45183134  1
  O  O83  1  0.87006461  0.88267941  0.95183134  1
  O  O84  1  0.87821818  0.12665365  0.04050915  1
  O  O85  1  0.87821818  0.37334635  0.54050915  1
  O  O86  1  0.99133109  0.95504315  0.16726852  1
  O  O87  1  0.99133109  0.54495685  0.66726752  1
