# generated using pymatgen
data_Ca5Pt3
_symmetry_space_group_name_H-M   'P 1'
_cell_length_a   5.93301837
_cell_length_b   8.65640055
_cell_length_c   8.65640055
_cell_angle_alpha   83.25560900
_cell_angle_beta   69.95881845
_cell_angle_gamma   69.95881845
_symmetry_Int_Tables_number   1
_chemical_formula_structural   Ca5Pt3
_chemical_formula_sum   'Ca10 Pt6'
_cell_volume   392.36885989
_cell_formula_units_Z   2
loop_
 _symmetry_equiv_pos_site_id
 _symmetry_equiv_pos_as_xyz
  1  'x, y, z'
loop_
 _atom_site_type_symbol
 _atom_site_label
 _atom_site_symmetry_multiplicity
 _atom_site_fract_x
 _atom_site_fract_y
 _atom_site_fract_z
 _atom_site_occupancy
  Ca  Ca0  1  0.71134766  0.87106088  0.70624381  1
  Ca  Ca1  1  0.28865234  0.12893912  0.29375619  1
  Ca  Ca2  1  0.78865234  0.29375619  0.12893912  1
  Ca  Ca3  1  0.21134766  0.70624381  0.87106088  1
  Ca  Ca4  1  0.58240854  0.70624381  0.12893912  1
  Ca  Ca5  1  0.41759146  0.29375619  0.87106088  1
  Ca  Ca6  1  0.08240854  0.12893912  0.70624381  1
  Ca  Ca7  1  0.91759146  0.87106088  0.29375619  1
  Ca  Ca8  1  0.75000000  0.50000000  0.50000000  1
  Ca  Ca9  1  0.25000000  0.50000000  0.50000000  1
  Pt  Pt10  1  0.15583023  0.50000000  0.18833955  1
  Pt  Pt11  1  0.84416977  0.50000000  0.81166045  1
  Pt  Pt12  1  0.34416977  0.81166045  0.50000000  1
  Pt  Pt13  1  0.65583023  0.18833955  0.50000000  1
  Pt  Pt14  1  0.25000000  -0.00000000  -0.00000000  1
  Pt  Pt15  1  0.75000000  -0.00000000  -0.00000000  1
