# generated using pymatgen
data_CsSb2F7
_symmetry_space_group_name_H-M   'P 1'
_cell_length_a   6.97409206
_cell_length_b   7.74735621
_cell_length_c   9.32557027
_cell_angle_alpha   114.54340263
_cell_angle_beta   90.12770632
_cell_angle_gamma   90.00000000
_symmetry_Int_Tables_number   1
_chemical_formula_structural   CsSb2F7
_chemical_formula_sum   'Cs2 Sb4 F14'
_cell_volume   458.34038564
_cell_formula_units_Z   2
loop_
 _symmetry_equiv_pos_site_id
 _symmetry_equiv_pos_as_xyz
  1  'x, y, z'
loop_
 _atom_site_type_symbol
 _atom_site_label
 _atom_site_symmetry_multiplicity
 _atom_site_fract_x
 _atom_site_fract_y
 _atom_site_fract_z
 _atom_site_occupancy
  Cs  Cs0  1  0.25000000  0.27362900  0.00000000  1
  Cs  Cs1  1  0.75000000  0.72637100  0.00000000  1
  Sb  Sb2  1  0.21487463  0.59034641  0.64429393  1
  Sb  Sb3  1  0.28512537  0.94605248  0.35570607  1
  Sb  Sb4  1  0.78512537  0.40965359  0.35570607  1
  Sb  Sb5  1  0.71487463  0.05394752  0.64429393  1
  F  F6  1  -0.00000000  -0.00000000  0.50000000  1
  F  F7  1  0.50000000  0.50000000  0.50000000  1
  F  F8  1  0.31266290  0.56462938  0.83251673  1
  F  F9  1  0.18733710  0.73211265  0.16748327  1
  F  F10  1  0.68733710  0.43537062  0.16748327  1
  F  F11  1  0.81266290  0.26788735  0.83251673  1
  F  F12  1  0.14837027  0.85890567  0.78051048  1
  F  F13  1  0.35162973  0.07839519  0.21948952  1
  F  F14  1  0.85162973  0.14109433  0.21948952  1
  F  F15  1  0.64837027  0.92160481  0.78051048  1
  F  F16  1  0.44906616  0.17129915  0.67345114  1
  F  F17  1  0.05093384  0.49784801  0.32654886  1
  F  F18  1  0.55093384  0.82870085  0.32654886  1
  F  F19  1  0.94906616  0.50215199  0.67345114  1
