# generated using pymatgen
data_CsPSO2
_symmetry_space_group_name_H-M   'P 1'
_cell_length_a   8.01388409
_cell_length_b   8.18938843
_cell_length_c   8.84241140
_cell_angle_alpha   83.41541750
_cell_angle_beta   65.41646960
_cell_angle_gamma   74.47129049
_symmetry_Int_Tables_number   1
_chemical_formula_structural   CsPSO2
_chemical_formula_sum   'Cs4 P4 S4 O8'
_cell_volume   508.44747270
_cell_formula_units_Z   4
loop_
 _symmetry_equiv_pos_site_id
 _symmetry_equiv_pos_as_xyz
  1  'x, y, z'
loop_
 _atom_site_type_symbol
 _atom_site_label
 _atom_site_symmetry_multiplicity
 _atom_site_fract_x
 _atom_site_fract_y
 _atom_site_fract_z
 _atom_site_occupancy
  Cs  Cs0  1  0.33844775  0.64629720  0.83988423  1
  Cs  Cs1  1  0.66155225  0.35370280  0.16011577  1
  Cs  Cs2  1  0.85906379  0.83462308  0.36229615  1
  Cs  Cs3  1  0.14093621  0.16537692  0.63770385  1
  P  P4  1  0.78046579  0.80415890  0.91771543  1
  P  P5  1  0.21953421  0.19584110  0.08228457  1
  P  P6  1  0.57277267  0.09141318  0.76865066  1
  P  P7  1  0.42722733  0.90858682  0.23134934  1
  S  S8  1  0.84830281  0.61625257  0.76563593  1
  S  S9  1  0.15169719  0.38374743  0.23436407  1
  S  S10  1  0.67708888  0.25602759  0.59759780  1
  S  S11  1  0.32291112  0.74397241  0.40240220  1
  O  O12  1  0.91125783  0.81350026  0.99600847  1
  O  O13  1  0.08874217  0.18649974  0.00399153  1
  O  O14  1  0.51754520  0.02918238  0.26729239  1
  O  O15  1  0.48245480  0.97081762  0.73270761  1
  O  O16  1  0.25695845  0.01056970  0.17342230  1
  O  O17  1  0.74304155  0.98943030  0.82657770  1
  O  O18  1  0.43127156  0.19929383  0.94044144  1
  O  O19  1  0.56872844  0.80070617  0.05955856  1
