# generated using pymatgen
data_Pr2Al
_symmetry_space_group_name_H-M   'P 1'
_cell_length_a   5.31084481
_cell_length_b   6.82017251
_cell_length_c   9.92515383
_cell_angle_alpha   90.00000000
_cell_angle_beta   90.00000000
_cell_angle_gamma   90.00000000
_symmetry_Int_Tables_number   1
_chemical_formula_structural   Pr2Al
_chemical_formula_sum   'Pr8 Al4'
_cell_volume   359.49778380
_cell_formula_units_Z   4
loop_
 _symmetry_equiv_pos_site_id
 _symmetry_equiv_pos_as_xyz
  1  'x, y, z'
loop_
 _atom_site_type_symbol
 _atom_site_label
 _atom_site_symmetry_multiplicity
 _atom_site_fract_x
 _atom_site_fract_y
 _atom_site_fract_z
 _atom_site_occupancy
  Pr  Pr0  1  0.75000000  0.69383583  0.57706769  1
  Pr  Pr1  1  0.75000000  0.19383583  0.92293231  1
  Pr  Pr2  1  0.25000000  0.30616417  0.42293231  1
  Pr  Pr3  1  0.25000000  0.80616417  0.07706769  1
  Pr  Pr4  1  0.75000000  0.52272001  0.20198563  1
  Pr  Pr5  1  0.75000000  0.02272001  0.29801437  1
  Pr  Pr6  1  0.25000000  0.47727999  0.79801437  1
  Pr  Pr7  1  0.25000000  0.97727999  0.70198563  1
  Al  Al8  1  0.75000000  0.21089335  0.60197757  1
  Al  Al9  1  0.75000000  0.71089335  0.89802243  1
  Al  Al10  1  0.25000000  0.78910665  0.39802243  1
  Al  Al11  1  0.25000000  0.28910665  0.10197757  1
