# generated using pymatgen
data_Eu2ZnGe3
_symmetry_space_group_name_H-M   'P 1'
_cell_length_a   6.13399813
_cell_length_b   6.13399813
_cell_length_c   8.54422630
_cell_angle_alpha   110.28029514
_cell_angle_beta   110.28029514
_cell_angle_gamma   91.97049884
_symmetry_Int_Tables_number   1
_chemical_formula_structural   Eu2ZnGe3
_chemical_formula_sum   'Eu4 Zn2 Ge6'
_cell_volume   278.46465497
_cell_formula_units_Z   2
loop_
 _symmetry_equiv_pos_site_id
 _symmetry_equiv_pos_as_xyz
  1  'x, y, z'
loop_
 _atom_site_type_symbol
 _atom_site_label
 _atom_site_symmetry_multiplicity
 _atom_site_fract_x
 _atom_site_fract_y
 _atom_site_fract_z
 _atom_site_occupancy
  Eu  Eu0  1  0.75536770  0.24463230  -0.00000000  1
  Eu  Eu1  1  0.24463230  0.75536770  -0.00000000  1
  Eu  Eu2  1  0.25000000  0.75000000  0.50000000  1
  Eu  Eu3  1  0.75000000  0.25000000  0.50000000  1
  Zn  Zn4  1  0.33353725  0.33353725  0.66707449  1
  Zn  Zn5  1  0.66646275  0.66646275  0.33292551  1
  Ge  Ge6  1  0.16888877  0.16888877  0.33777753  1
  Ge  Ge7  1  0.83111123  0.83111123  0.66222247  1
  Ge  Ge8  1  0.33829254  0.33829254  0.16865539  1
  Ge  Ge9  1  0.16963714  0.16963714  0.83134461  1
  Ge  Ge10  1  0.83036286  0.83036286  0.16865539  1
  Ge  Ge11  1  0.66170746  0.66170746  0.83134461  1
