# generated using pymatgen
data_TmFe2
_symmetry_space_group_name_H-M   'P 1'
_cell_length_a   5.09262428
_cell_length_b   5.09262428
_cell_length_c   8.27425566
_cell_angle_alpha   90.00000000
_cell_angle_beta   90.00000000
_cell_angle_gamma   119.99404652
_symmetry_Int_Tables_number   1
_chemical_formula_structural   TmFe2
_chemical_formula_sum   'Tm4 Fe8'
_cell_volume   185.85270668
_cell_formula_units_Z   4
loop_
 _symmetry_equiv_pos_site_id
 _symmetry_equiv_pos_as_xyz
  1  'x, y, z'
loop_
 _atom_site_type_symbol
 _atom_site_label
 _atom_site_symmetry_multiplicity
 _atom_site_fract_x
 _atom_site_fract_y
 _atom_site_fract_z
 _atom_site_occupancy
  Tm  Tm0  1  0.66670931  0.33329069  0.56220144  1
  Tm  Tm1  1  0.33329069  0.66670931  0.43779856  1
  Tm  Tm2  1  0.33329069  0.66670931  0.06220144  1
  Tm  Tm3  1  0.66670931  0.33329069  0.93779856  1
  Fe  Fe4  1  0.00000000  0.00000000  0.50000000  1
  Fe  Fe5  1  0.00000000  0.00000000  -0.00000000  1
  Fe  Fe6  1  0.16604760  0.33205112  0.75000000  1
  Fe  Fe7  1  0.16608513  0.83391487  0.75000000  1
  Fe  Fe8  1  0.66794888  0.83395240  0.75000000  1
  Fe  Fe9  1  0.83395240  0.66794888  0.25000000  1
  Fe  Fe10  1  0.83391487  0.16608513  0.25000000  1
  Fe  Fe11  1  0.33205112  0.16604760  0.25000000  1
