# generated using pymatgen
data_Ba3SrNb2O9
_symmetry_space_group_name_H-M   'P 1'
_cell_length_a   6.04945126
_cell_length_b   6.04938807
_cell_length_c   7.69933051
_cell_angle_alpha   90.00014890
_cell_angle_beta   89.99943461
_cell_angle_gamma   119.99942467
_symmetry_Int_Tables_number   1
_chemical_formula_structural   Ba3SrNb2O9
_chemical_formula_sum   'Ba3 Sr1 Nb2 O9'
_cell_volume   244.01332328
_cell_formula_units_Z   1
loop_
 _symmetry_equiv_pos_site_id
 _symmetry_equiv_pos_as_xyz
  1  'x, y, z'
loop_
 _atom_site_type_symbol
 _atom_site_label
 _atom_site_symmetry_multiplicity
 _atom_site_fract_x
 _atom_site_fract_y
 _atom_site_fract_z
 _atom_site_occupancy
  Ba  Ba0  1  -0.00000000  0.00000000  -0.00000000  1
  Ba  Ba1  1  0.33334821  0.66667407  0.70017659  1
  Ba  Ba2  1  0.66665179  0.33332593  0.29982341  1
  Sr  Sr3  1  -0.00000000  0.00000000  0.50000000  1
  Nb  Nb4  1  0.33333057  0.66666523  0.16840013  1
  Nb  Nb5  1  0.66666943  0.33333477  0.83159987  1
  O  O6  1  0.64569931  0.82284512  0.30068946  1
  O  O7  1  0.17716256  0.82285301  0.30069343  1
  O  O8  1  0.17715973  0.35430340  0.30069252  1
  O  O9  1  0.35430069  0.17715488  0.69931054  1
  O  O10  1  0.82283744  0.17714699  0.69930657  1
  O  O11  1  0.82284027  0.64569660  0.69930748  1
  O  O12  1  0.50000000  0.50000000  -0.00000000  1
  O  O13  1  0.50000000  0.00000000  -0.00000000  1
  O  O14  1  -0.00000000  0.50000000  -0.00000000  1
