# generated using pymatgen
data_Rb2AgMoCl6
_symmetry_space_group_name_H-M   'P 1'
_cell_length_a   7.36299582
_cell_length_b   7.36299610
_cell_length_c   7.36299608
_cell_angle_alpha   59.99999904
_cell_angle_beta   59.99999859
_cell_angle_gamma   59.99999863
_symmetry_Int_Tables_number   1
_chemical_formula_structural   Rb2AgMoCl6
_chemical_formula_sum   'Rb2 Ag1 Mo1 Cl6'
_cell_volume   282.25957515
_cell_formula_units_Z   1
loop_
 _symmetry_equiv_pos_site_id
 _symmetry_equiv_pos_as_xyz
  1  'x, y, z'
loop_
 _atom_site_type_symbol
 _atom_site_label
 _atom_site_symmetry_multiplicity
 _atom_site_fract_x
 _atom_site_fract_y
 _atom_site_fract_z
 _atom_site_occupancy
  Rb  Rb0  1  0.25000000  0.25000000  0.25000000  1
  Rb  Rb1  1  0.75000000  0.75000000  0.75000000  1
  Ag  Ag2  1  0.50000000  0.50000000  0.50000000  1
  Mo  Mo3  1  0.00000000  -0.00000000  -0.00000000  1
  Cl  Cl4  1  0.23721606  0.76278394  0.23721606  1
  Cl  Cl5  1  0.76278394  0.76278394  0.23721606  1
  Cl  Cl6  1  0.76278394  0.23721606  0.76278394  1
  Cl  Cl7  1  0.76278394  0.23721606  0.23721606  1
  Cl  Cl8  1  0.23721606  0.76278394  0.76278394  1
  Cl  Cl9  1  0.23721606  0.23721606  0.76278394  1
