# generated using pymatgen
data_ScAgSe2
_symmetry_space_group_name_H-M   'P 1'
_cell_length_a   4.03336991
_cell_length_b   6.77933467
_cell_length_c   13.32838605
_cell_angle_alpha   90.00000000
_cell_angle_beta   90.00000000
_cell_angle_gamma   90.00000000
_symmetry_Int_Tables_number   1
_chemical_formula_structural   ScAgSe2
_chemical_formula_sum   'Sc4 Ag4 Se8'
_cell_volume   364.44558321
_cell_formula_units_Z   4
loop_
 _symmetry_equiv_pos_site_id
 _symmetry_equiv_pos_as_xyz
  1  'x, y, z'
loop_
 _atom_site_type_symbol
 _atom_site_label
 _atom_site_symmetry_multiplicity
 _atom_site_fract_x
 _atom_site_fract_y
 _atom_site_fract_z
 _atom_site_occupancy
  Sc  Sc0  1  0.27415873  0.71017771  0.62881974  1
  Sc  Sc1  1  0.77415873  0.78982229  0.37118026  1
  Sc  Sc2  1  0.72584127  0.21017771  0.87118026  1
  Sc  Sc3  1  0.22584127  0.28982229  0.12881974  1
  Ag  Ag4  1  0.50177095  0.70521346  0.87640643  1
  Ag  Ag5  1  0.00177095  0.79478654  0.12359357  1
  Ag  Ag6  1  0.49822905  0.20521346  0.62359357  1
  Ag  Ag7  1  -0.00177095  0.29478654  0.37640643  1
  Se  Se8  1  0.78106185  0.91051070  0.72655078  1
  Se  Se9  1  0.28106185  0.58948930  0.27344922  1
  Se  Se10  1  0.21893815  0.41051070  0.77344922  1
  Se  Se11  1  0.71893815  0.08948930  0.22655078  1
  Se  Se12  1  0.76851302  0.52574929  0.52873656  1
  Se  Se13  1  0.26851302  0.97425071  0.47126344  1
  Se  Se14  1  0.23148698  0.02574929  0.97126344  1
  Se  Se15  1  0.73148698  0.47425071  0.02873656  1
