# generated using pymatgen
data_K3MoHS4O
_symmetry_space_group_name_H-M   'P 1'
_cell_length_a   6.50913564
_cell_length_b   8.28441872
_cell_length_c   9.74186449
_cell_angle_alpha   90.00000000
_cell_angle_beta   90.00000000
_cell_angle_gamma   90.00000000
_symmetry_Int_Tables_number   1
_chemical_formula_structural   K3MoHS4O
_chemical_formula_sum   'K6 Mo2 H2 S8 O2'
_cell_volume   525.32424765
_cell_formula_units_Z   2
loop_
 _symmetry_equiv_pos_site_id
 _symmetry_equiv_pos_as_xyz
  1  'x, y, z'
loop_
 _atom_site_type_symbol
 _atom_site_label
 _atom_site_symmetry_multiplicity
 _atom_site_fract_x
 _atom_site_fract_y
 _atom_site_fract_z
 _atom_site_occupancy
  K  K0  1  0.89452483  0.74011832  0.77172276  1
  K  K1  1  0.89452483  0.74011832  0.22827724  1
  K  K2  1  0.10547517  0.24011832  0.72827724  1
  K  K3  1  0.10547517  0.24011832  0.27172276  1
  K  K4  1  0.50114898  0.49846117  0.50000000  1
  K  K5  1  0.49885102  0.99846117  0.00000000  1
  Mo  Mo6  1  0.49944500  0.99025496  0.50000000  1
  Mo  Mo7  1  0.50055500  0.49025496  0.00000000  1
  H  H8  1  0.09106647  0.66623692  0.50000000  1
  H  H9  1  0.90893353  0.16623692  0.00000000  1
  S  S10  1  0.40641642  0.85139059  0.68561672  1
  S  S11  1  0.40641642  0.85139059  0.31438328  1
  S  S12  1  0.59358358  0.35139059  0.81438328  1
  S  S13  1  0.59358358  0.35139059  0.18561672  1
  S  S14  1  0.83876492  0.02162620  0.50000000  1
  S  S15  1  0.16123508  0.52162620  -0.00000000  1
  S  S16  1  0.99728966  0.52029475  0.50000000  1
  S  S17  1  0.00271034  0.02029475  -0.00000000  1
  O  O18  1  0.37134413  0.17927818  0.50000000  1
  O  O19  1  0.62865587  0.67927818  -0.00000000  1
