# generated using pymatgen
data_BiI3
_symmetry_space_group_name_H-M   'P 1'
_cell_length_a   9.12818316
_cell_length_b   8.03166710
_cell_length_c   13.27631250
_cell_angle_alpha   90.00000000
_cell_angle_beta   90.00000000
_cell_angle_gamma   114.25604760
_symmetry_Int_Tables_number   1
_chemical_formula_structural   BiI3
_chemical_formula_sum   'Bi4 I12'
_cell_volume   887.41827397
_cell_formula_units_Z   4
loop_
 _symmetry_equiv_pos_site_id
 _symmetry_equiv_pos_as_xyz
  1  'x, y, z'
loop_
 _atom_site_type_symbol
 _atom_site_label
 _atom_site_symmetry_multiplicity
 _atom_site_fract_x
 _atom_site_fract_y
 _atom_site_fract_z
 _atom_site_occupancy
  Bi  Bi0  1  0.97387911  0.41478189  0.33189597  1
  Bi  Bi1  1  0.02612089  0.08521811  0.83189597  1
  Bi  Bi2  1  0.02612089  0.58521811  0.66810403  1
  Bi  Bi3  1  0.97387911  0.91478189  0.16810403  1
  I  I4  1  0.78007516  0.28442532  0.52939530  1
  I  I5  1  0.21992484  0.21557468  0.02939530  1
  I  I6  1  0.21992484  0.71557468  0.47060470  1
  I  I7  1  0.78007516  0.78442532  0.97060470  1
  I  I8  1  0.16777646  0.17376594  0.34542546  1
  I  I9  1  0.83222354  0.32623406  0.84542546  1
  I  I10  1  0.83222354  0.82623406  0.65457454  1
  I  I11  1  0.16777646  0.67376594  0.15457454  1
  I  I12  1  0.73283821  0.09154942  0.21036433  1
  I  I13  1  0.26716179  0.40845058  0.71036433  1
  I  I14  1  0.26716179  0.90845058  0.78963567  1
  I  I15  1  0.73283821  0.59154942  0.28963567  1
