# generated using pymatgen
data_Sr5Fe3F19
_symmetry_space_group_name_H-M   'P 1'
_cell_length_a   7.41489369
_cell_length_b   10.85784642
_cell_length_c   10.95662079
_cell_angle_alpha   84.64336877
_cell_angle_beta   71.98386625
_cell_angle_gamma   72.30726561
_symmetry_Int_Tables_number   1
_chemical_formula_structural   Sr5Fe3F19
_chemical_formula_sum   'Sr10 Fe6 F38'
_cell_volume   799.18605084
_cell_formula_units_Z   2
loop_
 _symmetry_equiv_pos_site_id
 _symmetry_equiv_pos_as_xyz
  1  'x, y, z'
loop_
 _atom_site_type_symbol
 _atom_site_label
 _atom_site_symmetry_multiplicity
 _atom_site_fract_x
 _atom_site_fract_y
 _atom_site_fract_z
 _atom_site_occupancy
  Sr  Sr0  1  0.08048314  0.67835194  0.17763430  1
  Sr  Sr1  1  0.28163224  0.27543262  0.16050308  1
  Sr  Sr2  1  0.26631068  0.49372209  0.47564567  1
  Sr  Sr3  1  0.26087722  0.81771009  0.67460333  1
  Sr  Sr4  1  0.45006847  0.83516350  0.27415782  1
  Sr  Sr5  1  0.54699064  0.17534771  0.71991104  1
  Sr  Sr6  1  0.73228881  0.18743614  0.32060845  1
  Sr  Sr7  1  0.72736002  0.51218251  0.51830653  1
  Sr  Sr8  1  0.73280139  0.72009494  0.82887876  1
  Sr  Sr9  1  0.92327332  0.32355774  0.80854265  1
  Fe  Fe10  1  0.28638431  0.99629612  0.99198579  1
  Fe  Fe11  1  0.15164677  0.16343659  0.51136816  1
  Fe  Fe12  1  0.78663067  0.00508912  0.00015443  1
  Fe  Fe13  1  0.31668902  0.51863497  0.83678976  1
  Fe  Fe14  1  0.68876529  0.48226427  0.15512519  1
  Fe  Fe15  1  0.84183747  0.83978526  0.48349464  1
  F  F16  1  0.02978402  0.19095741  0.37328011  1
  F  F17  1  0.28120704  0.03907688  0.16162311  1
  F  F18  1  0.03989124  0.35253841  0.54359984  1
  F  F19  1  0.15259168  0.46412843  0.29257523  1
  F  F20  1  0.24928888  0.48542420  0.01765578  1
  F  F21  1  0.08113565  0.84775864  0.34471226  1
  F  F22  1  0.25634388  0.16489915  0.65535185  1
  F  F23  1  0.29056763  0.17168914  0.94071455  1
  F  F24  1  0.07031265  0.65671930  0.85052010  1
  F  F25  1  0.37481004  0.21204773  0.38590516  1
  F  F26  1  0.29567082  0.82495799  0.05913126  1
  F  F27  1  0.22212534  0.38569832  0.79188079  1
  F  F28  1  0.43017867  0.61708613  0.19414947  1
  F  F29  1  0.61954861  0.07979209  0.16637140  1
  F  F30  1  0.57619039  0.34442910  0.14777627  1
  F  F31  1  0.26766672  0.97865665  0.48690237  1
  F  F32  1  0.37515113  0.56356906  0.65141251  1
  F  F33  1  0.41556037  0.69134635  0.45312901  1
  F  F34  1  0.57287080  0.31244169  0.53639941  1
  F  F35  1  0.62083066  0.44232235  0.34135067  1
  F  F36  1  0.72678156  0.02476594  0.51354932  1
  F  F37  1  0.43288707  0.65593187  0.84355766  1
  F  F38  1  0.58241691  0.38978736  0.78520596  1
  F  F39  1  0.78243519  0.61517099  0.19976107  1
  F  F40  1  0.35673176  0.94437603  0.81659854  1
  F  F41  1  0.70599361  0.17068943  0.91809228  1
  F  F42  1  0.62475322  0.78261714  0.61110752  1
  F  F43  1  0.93144432  0.33857078  0.14808009  1
  F  F44  1  0.82481942  0.83746983  0.08123716  1
  F  F45  1  0.72163346  0.85027628  0.34897365  1
  F  F46  1  0.90952585  0.15882179  0.64764519  1
  F  F47  1  0.76336681  0.51127868  0.97190481  1
  F  F48  1  0.86568843  0.53658877  0.69569522  1
  F  F49  1  0.95505974  0.65165168  0.44406777  1
  F  F50  1  0.99599329  0.05552166  0.04317871  1
  F  F51  1  0.58679992  0.94821255  0.94503378  1
  F  F52  1  0.95576964  0.81101413  0.62612249  1
  F  F53  1  0.96463412  0.93531050  0.83973803  1
