# generated using pymatgen
data_Li3InBr6
_symmetry_space_group_name_H-M   'P 1'
_cell_length_a   13.81219205
_cell_length_b   6.83925892
_cell_length_c   6.83925909
_cell_angle_alpha   119.78859595
_cell_angle_beta   99.37229784
_cell_angle_gamma   99.37229868
_symmetry_Int_Tables_number   1
_chemical_formula_structural   Li3InBr6
_chemical_formula_sum   'Li6 In2 Br12'
_cell_volume   530.32957207
_cell_formula_units_Z   2
loop_
 _symmetry_equiv_pos_site_id
 _symmetry_equiv_pos_as_xyz
  1  'x, y, z'
loop_
 _atom_site_type_symbol
 _atom_site_label
 _atom_site_symmetry_multiplicity
 _atom_site_fract_x
 _atom_site_fract_y
 _atom_site_fract_z
 _atom_site_occupancy
  Li  Li0  1  0.00038677  0.32149835  0.66089462  1
  Li  Li1  1  0.25000000  0.15699838  0.84300162  1
  Li  Li2  1  0.49961323  0.33910538  0.67850165  1
  Li  Li3  1  0.50038677  0.66089462  0.32149835  1
  Li  Li4  1  0.75000000  0.84300162  0.15699838  1
  Li  Li5  1  0.99961323  0.67850165  0.33910538  1
  In  In6  1  0.00000000  0.00000000  0.00000000  1
  In  In7  1  0.50000000  0.00000000  0.00000000  1
  Br  Br8  1  0.11788490  0.75697356  0.74951252  1
  Br  Br9  1  0.11944198  0.39733291  0.06853095  1
  Br  Br10  1  0.11915698  0.07878998  0.41024117  1
  Br  Br11  1  0.38084302  0.58975883  0.92121002  1
  Br  Br12  1  0.38055802  0.93146905  0.60266709  1
  Br  Br13  1  0.38211510  0.25048748  0.24302644  1
  Br  Br14  1  0.61788490  0.74951252  0.75697356  1
  Br  Br15  1  0.61915698  0.41024117  0.07878998  1
  Br  Br16  1  0.61944198  0.06853095  0.39733291  1
  Br  Br17  1  0.88084302  0.92121002  0.58975883  1
  Br  Br18  1  0.88055802  0.60266709  0.93146905  1
  Br  Br19  1  0.88211510  0.24302644  0.25048748  1
