# generated using pymatgen
data_MoWO6
_symmetry_space_group_name_H-M   'P 1'
_cell_length_a   5.49010897
_cell_length_b   5.48887373
_cell_length_c   7.79002413
_cell_angle_alpha   89.58075256
_cell_angle_beta   134.73350787
_cell_angle_gamma   59.87599170
_symmetry_Int_Tables_number   1
_chemical_formula_structural   MoWO6
_chemical_formula_sum   'Mo1 W1 O6'
_cell_volume   116.79813433
_cell_formula_units_Z   1
loop_
 _symmetry_equiv_pos_site_id
 _symmetry_equiv_pos_as_xyz
  1  'x, y, z'
loop_
 _atom_site_type_symbol
 _atom_site_label
 _atom_site_symmetry_multiplicity
 _atom_site_fract_x
 _atom_site_fract_y
 _atom_site_fract_z
 _atom_site_occupancy
  Mo  Mo0  1  0.01254734  0.97342629  0.52303150  1
  W  W1  1  0.01070909  0.97358510  0.02176691  1
  O  O2  1  0.98978585  0.95330424  0.24479804  1
  O  O3  1  0.00305065  0.94919780  0.75024043  1
  O  O4  1  0.48547077  0.45452887  0.73786480  1
  O  O5  1  0.49841725  0.95113813  0.24946407  1
  O  O6  1  0.50088213  0.94719087  0.74700441  1
  O  O7  1  0.49420592  0.45094370  0.24491383  1
