# generated using pymatgen
data_Mg2Al4Zn3
_symmetry_space_group_name_H-M   'P 1'
_cell_length_a   4.98352159
_cell_length_b   4.98352159
_cell_length_c   14.86742507
_cell_angle_alpha   90.00000000
_cell_angle_beta   90.00000000
_cell_angle_gamma   120.07956829
_symmetry_Int_Tables_number   1
_chemical_formula_structural   Mg2Al4Zn3
_chemical_formula_sum   'Mg4 Al8 Zn6'
_cell_volume   319.51430769
_cell_formula_units_Z   2
loop_
 _symmetry_equiv_pos_site_id
 _symmetry_equiv_pos_as_xyz
  1  'x, y, z'
loop_
 _atom_site_type_symbol
 _atom_site_label
 _atom_site_symmetry_multiplicity
 _atom_site_fract_x
 _atom_site_fract_y
 _atom_site_fract_z
 _atom_site_occupancy
  Mg  Mg0  1  0.66675862  0.33324138  0.14237277  1
  Mg  Mg1  1  0.33324138  0.66675862  0.85762723  1
  Mg  Mg2  1  0.33324138  0.66675862  0.64237277  1
  Mg  Mg3  1  0.66675862  0.33324138  0.35762723  1
  Al  Al4  1  0.66674353  0.33325647  0.56065230  1
  Al  Al5  1  0.33325647  0.66674353  0.43934770  1
  Al  Al6  1  0.33325647  0.66674353  0.06065230  1
  Al  Al7  1  0.66674353  0.33325647  0.93934770  1
  Al  Al8  1  0.99991027  0.00008973  0.58753087  1
  Al  Al9  1  0.00008973  0.99991027  0.41246913  1
  Al  Al10  1  0.00008973  0.99991027  0.08753087  1
  Al  Al11  1  0.99991027  0.00008973  0.91246913  1
  Zn  Zn12  1  0.83198342  0.66389314  0.75000000  1
  Zn  Zn13  1  0.83185145  0.16814855  0.75000000  1
  Zn  Zn14  1  0.33610686  0.16801658  0.75000000  1
  Zn  Zn15  1  0.16801658  0.33610686  0.25000000  1
  Zn  Zn16  1  0.16814855  0.83185145  0.25000000  1
  Zn  Zn17  1  0.66389314  0.83198342  0.25000000  1
