# generated using pymatgen
data_Li4Mn3O7
_symmetry_space_group_name_H-M   'P 1'
_cell_length_a   5.07510936
_cell_length_b   5.09273933
_cell_length_c   10.68063534
_cell_angle_alpha   106.00487223
_cell_angle_beta   79.50658728
_cell_angle_gamma   100.68733408
_symmetry_Int_Tables_number   1
_chemical_formula_structural   Li4Mn3O7
_chemical_formula_sum   'Li8 Mn6 O14'
_cell_volume   258.23122233
_cell_formula_units_Z   2
loop_
 _symmetry_equiv_pos_site_id
 _symmetry_equiv_pos_as_xyz
  1  'x, y, z'
loop_
 _atom_site_type_symbol
 _atom_site_label
 _atom_site_symmetry_multiplicity
 _atom_site_fract_x
 _atom_site_fract_y
 _atom_site_fract_z
 _atom_site_occupancy
  Li  Li0  1  0.69452581  0.50713481  0.07813867  1
  Li  Li1  1  0.56925810  0.49688705  0.35227479  1
  Li  Li2  1  0.16261719  0.49286519  0.20757633  1
  Li  Li3  1  0.00817228  0.49254487  0.49406511  1
  Li  Li4  1  0.42857100  0.50000000  0.64285700  1
  Li  Li5  1  0.84897072  0.50745513  0.79164889  1
  Li  Li6  1  0.28788490  0.50311295  0.93343921  1
  Li  Li7  1  0.42857100  -0.00000000  0.14285700  1
  Mn  Mn8  1  0.99353920  0.01297154  0.00898736  1
  Mn  Mn9  1  0.86360380  0.98702846  0.27672664  1
  Mn  Mn10  1  0.72008906  0.99744298  0.56919075  1
  Mn  Mn11  1  0.56147299  0.01339754  0.86821799  1
  Mn  Mn12  1  0.29567001  0.98660246  0.41749601  1
  Mn  Mn13  1  0.13705394  0.00255702  0.71652425  1
  O  O14  1  0.90786029  0.23660146  0.90318307  1
  O  O15  1  0.80985805  0.21578872  0.17016824  1
  O  O16  1  0.32642010  0.24283023  0.03695216  1
  O  O17  1  0.20022147  0.22571567  0.32699518  1
  O  O18  1  0.65727577  0.20885716  0.44714861  1
  O  O19  1  0.05829008  0.23453302  0.61415903  1
  O  O20  1  0.48162729  0.23271702  0.75393071  1
  O  O21  1  0.53072290  0.75716977  0.24876284  1
  O  O22  1  0.37551571  0.76728298  0.53178329  1
  O  O23  1  0.94928271  0.76339854  0.38253193  1
  O  O24  1  0.79885292  0.76546698  0.67155497  1
  O  O25  1  0.19986623  0.79114284  0.83856539  1
  O  O26  1  0.65692153  0.77428433  0.95871882  1
  O  O27  1  0.04728495  0.78421128  0.11554576  1
