# generated using pymatgen
data_Na2LiMnPCO7
_symmetry_space_group_name_H-M   'P 1'
_cell_length_a   8.87919045
_cell_length_b   6.79246798
_cell_length_c   10.28883060
_cell_angle_alpha   90.18738687
_cell_angle_beta   89.13633881
_cell_angle_gamma   88.99395859
_symmetry_Int_Tables_number   1
_chemical_formula_structural   Na2LiMnPCO7
_chemical_formula_sum   'Na8 Li4 Mn4 P4 C4 O28'
_cell_volume   620.36598875
_cell_formula_units_Z   4
loop_
 _symmetry_equiv_pos_site_id
 _symmetry_equiv_pos_as_xyz
  1  'x, y, z'
loop_
 _atom_site_type_symbol
 _atom_site_label
 _atom_site_symmetry_multiplicity
 _atom_site_fract_x
 _atom_site_fract_y
 _atom_site_fract_z
 _atom_site_occupancy
  Na  Na0  1  0.08193877  0.23474915  0.87877280  1
  Na  Na1  1  0.08445204  0.24714434  0.37902231  1
  Na  Na2  1  0.25262303  0.50160738  0.62659630  1
  Na  Na3  1  0.25653496  0.99922836  0.12554278  1
  Na  Na4  1  0.25741660  0.50044940  0.12432238  1
  Na  Na5  1  0.74706182  0.50130638  0.87375302  1
  Na  Na6  1  0.74476532  0.50327474  0.37758192  1
  Na  Na7  1  0.74592686  0.99717242  0.37540697  1
  Li  Li8  1  0.28068035  0.03698752  0.60941352  1
  Li  Li9  1  0.72473417  0.97029519  0.88832270  1
  Li  Li10  1  0.91197803  0.77787496  0.63042207  1
  Li  Li11  1  0.90031387  0.75548207  0.12263827  1
  Mn  Mn12  1  0.35996373  0.74997464  0.88333957  1
  Mn  Mn13  1  0.36452070  0.75453746  0.39443272  1
  Mn  Mn14  1  0.64634733  0.24749745  0.61685155  1
  Mn  Mn15  1  0.64127498  0.24438479  0.10705150  1
  P  P16  1  0.41330178  0.23848266  0.85008597  1
  P  P17  1  0.41430745  0.25195355  0.35880221  1
  P  P18  1  0.59349689  0.75862766  0.65090456  1
  P  P19  1  0.59227709  0.74720664  0.14262499  1
  C  C20  1  0.04240672  0.75995647  0.86744891  1
  C  C21  1  0.05173075  0.75068093  0.36291555  1
  C  C22  1  0.94888362  0.23981690  0.63225615  1
  C  C23  1  0.94017818  0.24853145  0.13279251  1
  O  O24  1  0.09409279  0.22397273  0.64077092  1
  O  O25  1  0.08467856  0.25457795  0.14430069  1
  O  O26  1  0.07626752  0.75382883  0.99004909  1
  O  O27  1  0.07893512  0.74865983  0.48661694  1
  O  O28  1  0.14801705  0.74730302  0.77848932  1
  O  O29  1  0.16305663  0.75859104  0.27872269  1
  O  O30  1  0.31753084  0.06521827  0.90112159  1
  O  O31  1  0.32797012  0.43159991  0.89028116  1
  O  O32  1  0.32128146  0.07326898  0.40837612  1
  O  O33  1  0.32048459  0.43928400  0.39817890  1
  O  O34  1  0.42408648  0.22772143  0.69795035  1
  O  O35  1  0.43004039  0.76997401  0.59642992  1
  O  O36  1  0.43014731  0.24216816  0.20718702  1
  O  O37  1  0.43352598  0.74724042  0.08253901  1
  O  O38  1  0.57712218  0.23016562  0.90251966  1
  O  O39  1  0.57894694  0.77222781  0.80246629  1
  O  O40  1  0.57362776  0.25274503  0.41660954  1
  O  O41  1  0.57263820  0.75767693  0.29355409  1
  O  O42  1  0.67796211  0.56478267  0.61226881  1
  O  O43  1  0.69498606  0.92751289  0.60076433  1
  O  O44  1  0.68770289  0.56096220  0.10458302  1
  O  O45  1  0.68987246  0.92299513  0.09438659  1
  O  O46  1  0.86418519  0.24957169  0.73621577  1
  O  O47  1  0.85322647  0.24216328  0.23574263  1
  O  O48  1  0.88446457  0.24634149  0.51942324  1
  O  O49  1  0.87897266  0.24795297  0.01902318  1
  O  O50  1  0.90343299  0.77872478  0.83064226  1
  O  O51  1  0.91562666  0.74554745  0.31948167  1
