# generated using pymatgen
data_LaYbO3
_symmetry_space_group_name_H-M   'P 1'
_cell_length_a   5.87062478
_cell_length_b   6.09925361
_cell_length_c   8.54254072
_cell_angle_alpha   90.00000000
_cell_angle_beta   90.00000000
_cell_angle_gamma   90.00000000
_symmetry_Int_Tables_number   1
_chemical_formula_structural   LaYbO3
_chemical_formula_sum   'La4 Yb4 O12'
_cell_volume   305.87788104
_cell_formula_units_Z   4
loop_
 _symmetry_equiv_pos_site_id
 _symmetry_equiv_pos_as_xyz
  1  'x, y, z'
loop_
 _atom_site_type_symbol
 _atom_site_label
 _atom_site_symmetry_multiplicity
 _atom_site_fract_x
 _atom_site_fract_y
 _atom_site_fract_z
 _atom_site_occupancy
  La  La0  1  0.52075500  0.56167477  0.25000000  1
  La  La1  1  0.97924500  0.06167477  0.25000000  1
  La  La2  1  0.47924500  0.43832523  0.75000000  1
  La  La3  1  0.02075500  0.93832523  0.75000000  1
  Yb  Yb4  1  0.50000000  -0.00000000  -0.00000000  1
  Yb  Yb5  1  -0.00000000  0.50000000  0.50000000  1
  Yb  Yb6  1  0.50000000  -0.00000000  0.50000000  1
  Yb  Yb7  1  0.00000000  0.50000000  -0.00000000  1
  O  O8  1  0.35933679  0.92739829  0.25000000  1
  O  O9  1  0.14066321  0.42739829  0.25000000  1
  O  O10  1  0.64066321  0.07260171  0.75000000  1
  O  O11  1  0.85933679  0.57260171  0.75000000  1
  O  O12  1  0.81057517  0.80965814  0.07589344  1
  O  O13  1  0.68942483  0.30965814  0.42410656  1
  O  O14  1  0.18942483  0.19034186  0.57589344  1
  O  O15  1  0.31057517  0.69034186  0.92410656  1
  O  O16  1  0.18942483  0.19034186  0.92410656  1
  O  O17  1  0.31057517  0.69034186  0.57589344  1
  O  O18  1  0.81057517  0.80965814  0.42410656  1
  O  O19  1  0.68942483  0.30965814  0.07589344  1
