# generated using pymatgen
data_Sr4La6Mn5In5O30
_symmetry_space_group_name_H-M   'P 1'
_cell_length_a   5.76085773
_cell_length_b   5.68482245
_cell_length_c   40.43132955
_cell_angle_alpha   89.94556316
_cell_angle_beta   89.82664600
_cell_angle_gamma   89.96693349
_symmetry_Int_Tables_number   1
_chemical_formula_structural   Sr4La6Mn5In5O30
_chemical_formula_sum   'Sr8 La12 Mn10 In10 O60'
_cell_volume   1324.09706453
_cell_formula_units_Z   2
loop_
 _symmetry_equiv_pos_site_id
 _symmetry_equiv_pos_as_xyz
  1  'x, y, z'
loop_
 _atom_site_type_symbol
 _atom_site_label
 _atom_site_symmetry_multiplicity
 _atom_site_fract_x
 _atom_site_fract_y
 _atom_site_fract_z
 _atom_site_occupancy
  Sr  Sr0  1  0.02904331  0.00693509  0.14891263  1
  Sr  Sr1  1  0.03377424  0.00663302  0.35004227  1
  Sr  Sr2  1  0.03162144  0.00569043  0.54436839  1
  Sr  Sr3  1  0.03861056  0.01225916  0.74846196  1
  Sr  Sr4  1  0.03425956  0.00983577  0.95312730  1
  Sr  Sr5  1  0.46919432  0.50294253  0.05228428  1
  Sr  Sr6  1  0.46638248  0.50855026  0.24928824  1
  Sr  Sr7  1  0.46570414  0.50004159  0.44958573  1
  La  La8  1  0.45284584  0.51053459  0.85229677  1
  La  La9  1  0.45304710  0.50922950  0.64876460  1
  La  La10  1  0.54449545  0.48619286  0.34988269  1
  La  La11  1  0.54479556  0.49263478  0.14874294  1
  La  La12  1  0.54093425  0.49014582  0.54431747  1
  La  La13  1  0.54963968  0.48705568  0.74888488  1
  La  La14  1  0.55108721  0.49240077  0.95299257  1
  La  La15  1  0.96042106  0.98582046  0.05226142  1
  La  La16  1  0.95564212  0.98880887  0.24922096  1
  La  La17  1  0.94985589  0.98651478  0.64870138  1
  La  La18  1  0.95702369  0.99025729  0.44965603  1
  La  La19  1  0.95148630  0.98636487  0.85249591  1
  Mn  Mn20  1  0.49826252  0.99830749  0.10070073  1
  Mn  Mn21  1  0.50099256  0.99980657  0.29987769  1
  Mn  Mn22  1  0.49551051  0.99598228  0.49758704  1
  Mn  Mn23  1  0.00452182  0.49835108  0.10050823  1
  Mn  Mn24  1  0.00170792  0.49992585  0.00245951  1
  Mn  Mn25  1  0.99972732  0.50045526  0.19885543  1
  Mn  Mn26  1  0.99932559  0.50217827  0.49699443  1
  Mn  Mn27  1  0.99896430  0.49825210  0.69923165  1
  Mn  Mn28  1  0.99817677  0.50180208  0.40021112  1
  Mn  Mn29  1  0.00170126  0.49559565  0.90298737  1
  In  In30  1  0.00022965  0.49695962  0.59740682  1
  In  In31  1  0.49431627  0.99936727  0.00270448  1
  In  In32  1  0.49416348  0.00264954  0.90252878  1
  In  In33  1  0.49239325  0.00287005  0.19968350  1
  In  In34  1  0.49372850  0.99943473  0.69948617  1
  In  In35  1  0.49712231  0.00264489  0.59664090  1
  In  In36  1  0.49350667  0.99603293  0.39929197  1
  In  In37  1  0.49799684  0.00101310  0.80018867  1
  In  In38  1  0.00691945  0.49862672  0.29957847  1
  In  In39  1  0.00176037  0.50118602  0.79979738  1
  O  O40  1  0.01420306  0.41781735  0.05044737  1
  O  O41  1  0.01824993  0.40849322  0.24699911  1
  O  O42  1  0.01476777  0.41582968  0.44904790  1
  O  O43  1  0.03098079  0.40001903  0.65272199  1
  O  O44  1  0.03098500  0.40080874  0.85596072  1
  O  O45  1  0.18897946  0.78081900  0.01105898  1
  O  O46  1  0.18989160  0.78267561  0.20803282  1
  O  O47  1  0.18998369  0.77807976  0.40845579  1
  O  O48  1  0.21755797  0.78080723  0.09266310  1
  O  O49  1  0.19917968  0.80131023  0.61018880  1
  O  O50  1  0.21976987  0.81195116  0.29039041  1
  O  O51  1  0.19835521  0.80214651  0.81410948  1
  O  O52  1  0.21460457  0.78041074  0.48942154  1
  O  O53  1  0.19541370  0.77063839  0.68799270  1
  O  O54  1  0.19518394  0.77341884  0.89191558  1
  O  O55  1  0.28154699  0.31373755  0.18992383  1
  O  O56  1  0.28277330  0.28339529  0.10789737  1
  O  O57  1  0.30928834  0.27971375  0.30917867  1
  O  O58  1  0.32530769  0.32940068  0.58900061  1
  O  O59  1  0.27922038  0.31018262  0.39130681  1
  O  O60  1  0.28069164  0.28040060  0.50523961  1
  O  O61  1  0.27862254  0.31505548  0.70945025  1
  O  O62  1  0.28387676  0.31852101  0.91217137  1
  O  O63  1  0.28089180  0.31218459  0.99345830  1
  O  O64  1  0.32093380  0.32596283  0.79212123  1
  O  O65  1  0.48178104  0.90724935  0.34696072  1
  O  O66  1  0.48697795  0.91909648  0.14705265  1
  O  O67  1  0.47973027  0.91007790  0.54387691  1
  O  O68  1  0.47182815  0.89565041  0.74915854  1
  O  O69  1  0.48193693  0.90604804  0.95225332  1
  O  O70  1  0.52623250  0.06291821  0.05449825  1
  O  O71  1  0.53039863  0.07298568  0.25277699  1
  O  O72  1  0.52023418  0.06276378  0.45141045  1
  O  O73  1  0.52570710  0.09594592  0.64948416  1
  O  O74  1  0.52904777  0.09752338  0.85257754  1
  O  O75  1  0.73143268  0.70078802  0.00997003  1
  O  O76  1  0.73132733  0.72662100  0.09378965  1
  O  O77  1  0.72874510  0.70420328  0.20742323  1
  O  O78  1  0.72716781  0.72806695  0.48979206  1
  O  O79  1  0.69982255  0.69802928  0.60928127  1
  O  O80  1  0.72589046  0.69434833  0.68794334  1
  O  O81  1  0.70617857  0.73048091  0.29190528  1
  O  O82  1  0.73085433  0.70248223  0.40865207  1
  O  O83  1  0.72533842  0.69303527  0.89246885  1
  O  O84  1  0.70195620  0.69861817  0.81309586  1
  O  O85  1  0.79417185  0.23199278  0.19148867  1
  O  O86  1  0.77357446  0.23109805  0.10789655  1
  O  O87  1  0.76903499  0.20346545  0.30927895  1
  O  O88  1  0.76880513  0.22681039  0.50429458  1
  O  O89  1  0.81410763  0.18650031  0.58974380  1
  O  O90  1  0.79523838  0.22948589  0.39304543  1
  O  O91  1  0.79645733  0.23151937  0.70819837  1
  O  O92  1  0.80038656  0.23054825  0.91163509  1
  O  O93  1  0.79684841  0.23145114  0.99464089  1
  O  O94  1  0.80734085  0.19568134  0.79124627  1
  O  O95  1  0.97464683  0.56738335  0.15112727  1
  O  O96  1  0.97085479  0.56952985  0.35302377  1
  O  O97  1  0.96936182  0.56845715  0.54337894  1
  O  O98  1  0.96377702  0.58715752  0.74554630  1
  O  O99  1  0.97065493  0.57791706  0.95092085  1
