# generated using pymatgen
data_Li3Mn2O5
_symmetry_space_group_name_H-M   'P 1'
_cell_length_a   5.07701331
_cell_length_b   5.23200087
_cell_length_c   7.64468532
_cell_angle_alpha   109.97016759
_cell_angle_beta   102.77908206
_cell_angle_gamma   97.81890135
_symmetry_Int_Tables_number   1
_chemical_formula_structural   Li3Mn2O5
_chemical_formula_sum   'Li6 Mn4 O10'
_cell_volume   181.10063037
_cell_formula_units_Z   2
loop_
 _symmetry_equiv_pos_site_id
 _symmetry_equiv_pos_as_xyz
  1  'x, y, z'
loop_
 _atom_site_type_symbol
 _atom_site_label
 _atom_site_symmetry_multiplicity
 _atom_site_fract_x
 _atom_site_fract_y
 _atom_site_fract_z
 _atom_site_occupancy
  Li  Li0  1  0.50074316  0.19878611  0.90422008  1
  Li  Li1  1  0.51166916  0.79935131  0.10451637  1
  Li  Li2  1  0.50000000  0.60000000  0.70000000  1
  Li  Li3  1  0.49925684  0.00121389  0.49577992  1
  Li  Li4  1  0.48833084  0.40064869  0.29548363  1
  Li  Li5  1  0.00000000  0.60000000  0.20000000  1
  Mn  Mn6  1  0.99981518  -0.00006211  0.00125211  1
  Mn  Mn7  1  0.00018482  0.20006211  0.39874789  1
  Mn  Mn8  1  0.99915442  0.79832660  0.59678383  1
  Mn  Mn9  1  0.00084558  0.40167340  0.80321617  1
  O  O10  1  0.23104572  0.81877299  0.85047697  1
  O  O11  1  0.21966639  0.36673762  0.03387814  1
  O  O12  1  0.23345185  0.21399599  0.64299851  1
  O  O13  1  0.21620991  0.57470798  0.45301796  1
  O  O14  1  0.22827729  0.01929267  0.24565451  1
  O  O15  1  0.78379009  0.62529202  0.94698204  1
  O  O16  1  0.77172271  0.18070733  0.15434549  1
  O  O17  1  0.76654815  0.98600401  0.75700149  1
  O  O18  1  0.76895428  0.38122701  0.54952303  1
  O  O19  1  0.78033361  0.83326238  0.36612186  1
