# generated using pymatgen
data_Na2FePCO7
_symmetry_space_group_name_H-M   'P 1'
_cell_length_a   8.95433244
_cell_length_b   5.24834657
_cell_length_c   19.59544236
_cell_angle_alpha   89.99155924
_cell_angle_beta   89.94522493
_cell_angle_gamma   89.64297903
_symmetry_Int_Tables_number   1
_chemical_formula_structural   Na2FePCO7
_chemical_formula_sum   'Na12 Fe6 P6 C6 O42'
_cell_volume   920.87812594
_cell_formula_units_Z   6
loop_
 _symmetry_equiv_pos_site_id
 _symmetry_equiv_pos_as_xyz
  1  'x, y, z'
loop_
 _atom_site_type_symbol
 _atom_site_label
 _atom_site_symmetry_multiplicity
 _atom_site_fract_x
 _atom_site_fract_y
 _atom_site_fract_z
 _atom_site_occupancy
  Na  Na0  1  0.08438547  0.76457216  0.07992179  1
  Na  Na1  1  0.08104697  0.76393375  0.41360514  1
  Na  Na2  1  0.09599819  0.78036833  0.75118169  1
  Na  Na3  1  0.26410164  0.25073626  0.49514332  1
  Na  Na4  1  0.26494625  0.25147746  0.16167251  1
  Na  Na5  1  0.73687268  0.74557711  0.83585738  1
  Na  Na6  1  0.73441066  0.74969350  0.65887888  1
  Na  Na7  1  0.73891727  0.74609085  0.00093507  1
  Na  Na8  1  0.73593141  0.74875410  0.32853169  1
  Na  Na9  1  0.92126342  0.23693329  0.58031472  1
  Na  Na10  1  0.91913262  0.23611504  0.24696325  1
  Na  Na11  1  0.93481419  0.24594211  0.91709354  1
  Fe  Fe12  1  0.34552207  0.78287248  0.25375179  1
  Fe  Fe13  1  0.34548027  0.78273759  0.58746157  1
  Fe  Fe14  1  0.33981523  0.78799124  0.91743152  1
  Fe  Fe15  1  0.65393243  0.21746741  0.08732268  1
  Fe  Fe16  1  0.65437023  0.21693297  0.42020839  1
  Fe  Fe17  1  0.64775456  0.21794414  0.75088047  1
  P  P18  1  0.42234901  0.70746767  0.75123451  1
  P  P19  1  0.42453626  0.71101709  0.41760710  1
  P  P20  1  0.42420064  0.71129161  0.08343204  1
  P  P21  1  0.57544272  0.28885971  0.25089031  1
  P  P22  1  0.57412155  0.28716794  0.91786093  1
  P  P23  1  0.57593089  0.28818339  0.58345814  1
  C  C24  1  0.06606137  0.72923176  0.58201841  1
  C  C25  1  0.06583156  0.72953519  0.24882490  1
  C  C26  1  0.06092993  0.73008886  0.91691472  1
  C  C27  1  0.93426434  0.27047422  0.41541291  1
  C  C28  1  0.93486003  0.26897512  0.08261902  1
  C  C29  1  0.93010285  0.27148858  0.74959494  1
  O  O30  1  0.07496979  0.29533482  0.08739753  1
  O  O31  1  0.07437072  0.29701212  0.42061735  1
  O  O32  1  0.06819284  0.30178345  0.74940150  1
  O  O33  1  0.12956320  0.95471258  0.58017559  1
  O  O34  1  0.12948137  0.95491238  0.24694692  1
  O  O35  1  0.12416670  0.95329540  0.91708240  1
  O  O36  1  0.15926579  0.53528940  0.58001901  1
  O  O37  1  0.15878186  0.53528275  0.24661102  1
  O  O38  1  0.14933166  0.53472226  0.91704638  1
  O  O39  1  0.32284144  0.76283987  0.35504516  1
  O  O40  1  0.32527481  0.75922385  0.02018883  1
  O  O41  1  0.32464302  0.77569259  0.14641759  1
  O  O42  1  0.32721164  0.76553279  0.81461870  1
  O  O43  1  0.32593289  0.77586257  0.48070347  1
  O  O44  1  0.32471359  0.76923071  0.68827766  1
  O  O45  1  0.43206314  0.12742381  0.24777206  1
  O  O46  1  0.43258735  0.12736935  0.58069173  1
  O  O47  1  0.43317899  0.12552727  0.91740295  1
  O  O48  1  0.46941276  0.42390466  0.42102170  1
  O  O49  1  0.47045272  0.42464653  0.08773643  1
  O  O50  1  0.47314065  0.42519263  0.75003491  1
  O  O51  1  0.53026314  0.57585027  0.25424846  1
  O  O52  1  0.53143322  0.57519957  0.58759748  1
  O  O53  1  0.53727240  0.57964739  0.91682728  1
  O  O54  1  0.56764801  0.87354487  0.08166876  1
  O  O55  1  0.56988001  0.86619165  0.74995542  1
  O  O56  1  0.56808596  0.87195001  0.41450882  1
  O  O57  1  0.67758288  0.23720470  0.18845673  1
  O  O58  1  0.67401926  0.22421883  0.31393379  1
  O  O59  1  0.67624814  0.23033141  0.98072282  1
  O  O60  1  0.67796924  0.23737706  0.52104548  1
  O  O61  1  0.67578586  0.21961496  0.64606024  1
  O  O62  1  0.67748106  0.22556315  0.85499656  1
  O  O63  1  0.84240542  0.46371673  0.08084950  1
  O  O64  1  0.84150086  0.46474235  0.41307797  1
  O  O65  1  0.83241783  0.46456980  0.74948776  1
  O  O66  1  0.87110908  0.04390941  0.08036188  1
  O  O67  1  0.87079057  0.04506644  0.41340245  1
  O  O68  1  0.86549760  0.04379424  0.75008988  1
  O  O69  1  0.92609084  0.70231473  0.58645110  1
  O  O70  1  0.92581758  0.70300472  0.25382793  1
  O  O71  1  0.91683943  0.70831401  0.91691146  1
