# generated using pymatgen
data_NaLa5Mg4(WO6)4
_symmetry_space_group_name_H-M   'P 1'
_cell_length_a   11.24648416
_cell_length_b   7.93892697
_cell_length_c   9.75102591
_cell_angle_alpha   65.90793943
_cell_angle_beta   54.81617259
_cell_angle_gamma   44.89306489
_symmetry_Int_Tables_number   1
_chemical_formula_structural   NaLa5Mg4(WO6)4
_chemical_formula_sum   'Na1 La5 Mg4 W4 O24'
_cell_volume   502.21230453
_cell_formula_units_Z   1
loop_
 _symmetry_equiv_pos_site_id
 _symmetry_equiv_pos_as_xyz
  1  'x, y, z'
loop_
 _atom_site_type_symbol
 _atom_site_label
 _atom_site_symmetry_multiplicity
 _atom_site_fract_x
 _atom_site_fract_y
 _atom_site_fract_z
 _atom_site_occupancy
  Na  Na0  1  0.01910248  0.74994358  0.99797830  1
  La  La1  1  0.25321660  0.25072169  0.49723821  1
  La  La2  1  0.25296766  0.74998401  0.50067389  1
  La  La3  1  0.51154370  0.74998701  0.00234261  1
  La  La4  1  0.75392420  0.24927797  0.49728489  1
  La  La5  1  0.75080486  0.75001282  0.50615127  1
  Mg  Mg6  1  0.12632034  0.25462168  0.24259239  1
  Mg  Mg7  1  0.63098119  0.24536063  0.24257719  1
  Mg  Mg8  1  0.37115363  0.75000099  0.75888250  1
  Mg  Mg9  1  0.87647900  0.74997805  0.75776837  1
  W  W10  1  0.12775116  0.74995448  0.24138951  1
  W  W11  1  0.36754811  0.25375326  0.76134152  1
  W  W12  1  0.63380301  0.75000125  0.23982226  1
  W  W13  1  0.87130175  0.24628137  0.76130638  1
  O  O14  1  0.10436930  0.98803119  0.30296013  1
  O  O15  1  0.23878178  0.22546278  0.98978891  1
  O  O16  1  0.03223396  0.25783993  0.50680621  1
  O  O17  1  0.39376664  0.98075488  0.22820652  1
  O  O18  1  0.13310961  0.51003731  0.23404161  1
  O  O19  1  0.16061470  0.48717763  0.69709648  1
  O  O20  1  0.59847495  0.99235503  0.30184029  1
  O  O21  1  0.34247090  0.51201101  0.30289634  1
  O  O22  1  0.71427144  0.27450160  0.98979686  1
  O  O23  1  0.54000555  0.24230011  0.50681017  1
  O  O24  1  0.35503750  0.50092821  0.76736740  1
  O  O25  1  0.10601711  0.99922423  0.76728780  1
  O  O26  1  0.89311204  0.98987687  0.23410794  1
  O  O27  1  0.62465279  0.51917811  0.22810728  1
  O  O28  1  0.46856072  0.74993891  0.49356368  1
  O  O29  1  0.28826279  0.75001895  0.01336709  1
  O  O30  1  0.65813374  0.49427458  0.69730061  1
  O  O31  1  0.40244477  0.00571002  0.69729052  1
  O  O32  1  0.84084804  0.50766710  0.30184290  1
  O  O33  1  0.84353242  0.51351465  0.77142680  1
  O  O34  1  0.60707188  0.98659659  0.77137055  1
  O  O35  1  0.97027355  0.74989930  0.49676905  1
  O  O36  1  0.77540361  0.75004029  0.01089523  1
  O  O37  1  0.89785253  0.01278195  0.69711036  1
