# generated using pymatgen
data_Li7Mn5O12
_symmetry_space_group_name_H-M   'P 1'
_cell_length_a   5.07722473
_cell_length_b   5.27586125
_cell_length_c   8.62732636
_cell_angle_alpha   89.99969963
_cell_angle_beta   106.52702846
_cell_angle_gamma   97.38956977
_symmetry_Int_Tables_number   1
_chemical_formula_structural   Li7Mn5O12
_chemical_formula_sum   'Li7 Mn5 O12'
_cell_volume   219.54746139
_cell_formula_units_Z   1
loop_
 _symmetry_equiv_pos_site_id
 _symmetry_equiv_pos_as_xyz
  1  'x, y, z'
loop_
 _atom_site_type_symbol
 _atom_site_label
 _atom_site_symmetry_multiplicity
 _atom_site_fract_x
 _atom_site_fract_y
 _atom_site_fract_z
 _atom_site_occupancy
  Li  Li0  1  0.49749091  0.24888273  0.91855481  1
  Li  Li1  1  0.51313098  0.74651756  0.08743388  1
  Li  Li2  1  0.50575321  0.74734908  0.75121461  1
  Li  Li3  1  0.49424679  0.25265092  0.58211839  1
  Li  Li4  1  0.50250909  0.75111727  0.41477919  1
  Li  Li5  1  0.48686902  0.25348244  0.24589912  1
  Li  Li6  1  0.00000000  0.50000000  0.16666700  1
  Mn  Mn7  1  0.00009093  0.99967541  0.00149788  1
  Mn  Mn8  1  0.99990907  0.00032459  0.33183512  1
  Mn  Mn9  1  0.99959702  0.49976198  0.49654869  1
  Mn  Mn10  1  0.00000000  0.00000000  0.66666700  1
  Mn  Mn11  1  0.00040298  0.50023802  0.83678431  1
  O  O12  1  0.23149780  0.89361250  0.87427390  1
  O  O13  1  0.21846734  0.34673936  0.02954740  1
  O  O14  1  0.23277821  0.39375535  0.70630487  1
  O  O15  1  0.23314683  0.89298996  0.53631164  1
  O  O16  1  0.21486446  0.34535794  0.37576949  1
  O  O17  1  0.22890930  0.89655917  0.20483235  1
  O  O18  1  0.78513554  0.65464206  0.95756451  1
  O  O19  1  0.77109070  0.10344083  0.12850065  1
  O  O20  1  0.76685317  0.10701004  0.79702136  1
  O  O21  1  0.76722179  0.60624465  0.62702813  1
  O  O22  1  0.76850220  0.10638750  0.45906010  1
  O  O23  1  0.78153266  0.65326064  0.30378560  1
