# generated using pymatgen
data_Nb24Ge7Te48
_symmetry_space_group_name_H-M   'P 1'
_cell_length_a   13.10483767
_cell_length_b   13.40765216
_cell_length_c   15.85147260
_cell_angle_alpha   78.24873284
_cell_angle_beta   65.58370491
_cell_angle_gamma   60.48191977
_symmetry_Int_Tables_number   1
_chemical_formula_structural   Nb24Ge7Te48
_chemical_formula_sum   'Nb24 Ge7 Te48'
_cell_volume   2206.91039080
_cell_formula_units_Z   1
loop_
 _symmetry_equiv_pos_site_id
 _symmetry_equiv_pos_as_xyz
  1  'x, y, z'
loop_
 _atom_site_type_symbol
 _atom_site_label
 _atom_site_symmetry_multiplicity
 _atom_site_fract_x
 _atom_site_fract_y
 _atom_site_fract_z
 _atom_site_occupancy
  Nb  Nb0  1  0.04840660  0.18581850  0.24977631  1
  Nb  Nb1  1  0.00781545  0.53234848  0.25017441  1
  Nb  Nb2  1  0.23443601  0.31393115  0.25010032  1
  Nb  Nb3  1  0.13944327  0.17323796  0.75000000  1
  Nb  Nb4  1  0.04230715  0.96754516  0.24988927  1
  Nb  Nb5  1  0.20524127  0.66509838  0.24977784  1
  Nb  Nb6  1  0.54818291  0.18581850  0.25022369  1
  Nb  Nb7  1  0.29311225  0.33245692  0.75000000  1
  Nb  Nb8  1  0.45847730  0.03591360  0.75000000  1
  Nb  Nb9  1  0.50798986  0.53234848  0.24982559  1
  Nb  Nb10  1  0.37093198  0.83437642  0.24986782  1
  Nb  Nb11  1  0.25623165  0.68704046  0.75000000  1
  Nb  Nb12  1  0.73453633  0.31393115  0.24989968  1
  Nb  Nb13  1  0.63082498  0.16576835  0.75000000  1
  Nb  Nb14  1  0.48858340  0.46999393  0.75000000  1
  Nb  Nb15  1  0.54219643  0.96754516  0.25011073  1
  Nb  Nb16  1  0.70501911  0.66509838  0.25022216  1
  Nb  Nb17  1  0.45836241  0.81494998  0.75000000  1
  Nb  Nb18  1  0.79730424  0.33351900  0.75000000  1
  Nb  Nb19  1  0.96007985  0.02444592  0.75000000  1
  Nb  Nb20  1  0.87079980  0.83437642  0.25013218  1
  Nb  Nb21  1  0.76354926  0.68694460  0.75000000  1
  Nb  Nb22  1  0.99054837  0.46740974  0.75000000  1
  Nb  Nb23  1  0.95022375  0.81286977  0.75000000  1
  Ge  Ge24  1  0.29901740  0.07462019  0.24974212  1
  Ge  Ge25  1  0.37421533  0.42450478  0.24977136  1
  Ge  Ge26  1  0.12591667  0.57332813  0.75000000  1
  Ge  Ge27  1  0.79875952  0.07462019  0.25025788  1
  Ge  Ge28  1  0.87398669  0.42450478  0.25022864  1
  Ge  Ge29  1  0.62605415  0.57420732  0.75000000  1
  Ge  Ge30  1  0.70094127  0.92475930  0.75000000  1
  Te  Te31  1  0.12703504  0.34148327  0.11902031  1
  Te  Te32  1  0.03427949  0.17715760  0.62249858  1
  Te  Te33  1  0.25122424  0.50524459  0.12266897  1
  Te  Te34  1  0.12416650  0.50509254  0.37738642  1
  Te  Te35  1  0.10296982  0.81719906  0.11849251  1
  Te  Te36  1  0.33707587  0.15771887  0.38149564  1
  Te  Te37  1  0.46834004  0.15841932  0.11875864  1
  Te  Te38  1  0.00248619  0.65889289  0.61908668  1
  Te  Te39  1  0.07763381  0.32073809  0.88593620  1
  Te  Te40  1  0.21357001  0.32073809  0.61406380  1
  Te  Te41  1  0.24268492  0.00166466  0.86976297  1
  Te  Te42  1  0.36244788  0.00166466  0.63023703  1
  Te  Te43  1  0.12946165  0.99513320  0.37786095  1
  Te  Te44  1  0.25697243  0.99485777  0.12180905  1
  Te  Te45  1  0.28841825  0.68325445  0.38146626  1
  Te  Te46  1  0.41998380  0.68324080  0.11777401  1
  Te  Te47  1  0.49605535  0.34148327  0.38097969  1
  Te  Te48  1  0.62733458  0.34090178  0.11872261  1
  Te  Te49  1  0.16349956  0.84135863  0.62164150  1
  Te  Te50  1  0.03514106  0.84135863  0.87835850  1
  Te  Te51  1  0.52909688  0.18296785  0.61821273  1
  Te  Te52  1  0.39730961  0.18296785  0.88178727  1
  Te  Te53  1  0.24893575  0.49276653  0.87727494  1
  Te  Te54  1  0.37621069  0.49276653  0.62272506  1
  Te  Te55  1  0.75155291  0.50509254  0.12261358  1
  Te  Te56  1  0.62389320  0.50524459  0.37733103  1
  Te  Te57  1  0.60369554  0.81677473  0.11837150  1
  Te  Te58  1  0.47146233  0.81719906  0.38150749  1
  Te  Te59  1  0.96857151  0.15771887  0.11850436  1
  Te  Te60  1  0.83709868  0.15841932  0.38124136  1
  Te  Te61  1  0.36652934  0.66660550  0.87853730  1
  Te  Te62  1  0.49506665  0.66660550  0.62146270  1
  Te  Te63  1  0.58137612  0.31768007  0.88047012  1
  Te  Te64  1  0.71184624  0.31768007  0.61952988  1
  Te  Te65  1  0.74214319  0.00376766  0.87773866  1
  Te  Te66  1  0.86988184  0.00376766  0.62226134  1
  Te  Te67  1  0.62878148  0.99485777  0.37819095  1
  Te  Te68  1  0.75732260  0.99513320  0.12213905  1
  Te  Te69  1  0.78775781  0.68324080  0.38222599  1
  Te  Te70  1  0.91988451  0.68325445  0.11853374  1
  Te  Te71  1  0.99605718  0.34090178  0.38127739  1
  Te  Te72  1  0.66441991  0.84431709  0.61739597  1
  Te  Te73  1  0.53181588  0.84431709  0.88260403  1
  Te  Te74  1  0.90677807  0.17715760  0.87750142  1
  Te  Te75  1  0.74854458  0.49360249  0.87750284  1
  Te  Te76  1  0.87604741  0.49360249  0.62249716  1
  Te  Te77  1  0.97206703  0.81677473  0.38162850  1
  Te  Te78  1  0.87157287  0.65889289  0.88091332  1
