# generated using pymatgen
data_Li8Fe7Te(PO4)12
_symmetry_space_group_name_H-M   'P 1'
_cell_length_a   8.65254760
_cell_length_b   8.78329405
_cell_length_c   12.19854682
_cell_angle_alpha   90.34626275
_cell_angle_beta   90.02139092
_cell_angle_gamma   90.06600374
_symmetry_Int_Tables_number   1
_chemical_formula_structural   Li8Fe7Te(PO4)12
_chemical_formula_sum   'Li8 Fe7 Te1 P12 O48'
_cell_volume   927.04596139
_cell_formula_units_Z   1
loop_
 _symmetry_equiv_pos_site_id
 _symmetry_equiv_pos_as_xyz
  1  'x, y, z'
loop_
 _atom_site_type_symbol
 _atom_site_label
 _atom_site_symmetry_multiplicity
 _atom_site_fract_x
 _atom_site_fract_y
 _atom_site_fract_z
 _atom_site_occupancy
  Li  Li0  1  0.21773861  0.72258458  0.18056547  1
  Li  Li1  1  0.21960972  0.77912839  0.82067312  1
  Li  Li2  1  0.28138562  0.22176263  0.31743887  1
  Li  Li3  1  0.27980757  0.27680865  0.68321998  1
  Li  Li4  1  0.71549711  0.72495780  0.31551935  1
  Li  Li5  1  0.71830677  0.79065543  0.68376109  1
  Li  Li6  1  0.78557970  0.22199131  0.17914798  1
  Li  Li7  1  0.78699938  0.27235036  0.82852339  1
  Fe  Fe8  1  0.24702000  0.96109279  0.61308686  1
  Fe  Fe9  1  0.24872073  0.54167898  0.38317374  1
  Fe  Fe10  1  0.25137090  0.04146633  0.11233569  1
  Fe  Fe11  1  0.25270624  0.45681121  0.89098348  1
  Fe  Fe12  1  0.74904290  0.53993423  0.11141304  1
  Fe  Fe13  1  0.74665863  0.96202853  0.89202702  1
  Fe  Fe14  1  0.74955699  0.03633701  0.38331414  1
  Te  Te15  1  0.75286005  0.46106571  0.61282485  1
  P  P16  1  0.04282549  0.24575093  0.49683036  1
  P  P17  1  0.46089700  0.74955459  0.00006252  1
  P  P18  1  0.53980322  0.25035533  0.00094929  1
  P  P19  1  0.96285878  0.75053710  0.49641426  1
  P  P20  1  0.10462030  0.39351609  0.14734412  1
  P  P21  1  0.10642284  0.10584334  0.85238997  1
  P  P22  1  0.38908751  0.60212094  0.64509645  1
  P  P23  1  0.39332790  0.89433301  0.35414209  1
  P  P24  1  0.60257740  0.10388777  0.64321423  1
  P  P25  1  0.60433004  0.39198321  0.34848389  1
  P  P26  1  0.89758001  0.61217511  0.85182101  1
  P  P27  1  0.89503613  0.89233327  0.14726959  1
  O  O28  1  0.05363997  0.63579957  0.43075674  1
  O  O29  1  0.05283336  0.85316932  0.57354326  1
  O  O30  1  0.07336130  0.89509875  0.15602755  1
  O  O31  1  0.07267967  0.60413979  0.83841028  1
  O  O32  1  0.14347712  0.16398488  0.58137515  1
  O  O33  1  0.14569702  0.33955048  0.42129911  1
  O  O34  1  0.15439210  0.43425699  0.03057103  1
  O  O35  1  0.15674274  0.06561470  0.96883308  1
  O  O36  1  0.16232333  0.23343355  0.18038123  1
  O  O37  1  0.16279719  0.26691982  0.81959385  1
  O  O38  1  0.17496609  0.51471811  0.22620897  1
  O  O39  1  0.17515029  0.98501766  0.77238192  1
  O  O40  1  0.32536831  0.01446584  0.27527659  1
  O  O41  1  0.32897412  0.48239800  0.72461067  1
  O  O42  1  0.34704534  0.76497550  0.68033678  1
  O  O43  1  0.33605497  0.73326705  0.32057610  1
  O  O44  1  0.34882207  0.56496751  0.52756697  1
  O  O45  1  0.34238049  0.93384272  0.47160429  1
  O  O46  1  0.35130087  0.83687651  0.07914769  1
  O  O47  1  0.35107652  0.66176910  0.92106987  1
  O  O48  1  0.42720711  0.11103262  0.65604458  1
  O  O49  1  0.42797353  0.39364050  0.34673509  1
  O  O50  1  0.44346264  0.14220061  0.07050228  1
  O  O51  1  0.44510631  0.35770702  0.92915554  1
  O  O52  1  0.55760789  0.64241500  0.07058708  1
  O  O53  1  0.55688626  0.85674607  0.92886862  1
  O  O54  1  0.57991717  0.60156015  0.65601167  1
  O  O55  1  0.57210154  0.89507638  0.34545032  1
  O  O56  1  0.64835490  0.33829846  0.08048710  1
  O  O57  1  0.64863657  0.16286213  0.92112972  1
  O  O58  1  0.65675279  0.07358825  0.52783226  1
  O  O59  1  0.65362971  0.43537177  0.47353803  1
  O  O60  1  0.66565709  0.23367801  0.32063937  1
  O  O61  1  0.66480045  0.27464396  0.68070009  1
  O  O62  1  0.67650370  0.51624954  0.27810191  1
  O  O63  1  0.67633185  0.99430344  0.72481939  1
  O  O64  1  0.82573788  0.01338888  0.22646850  1
  O  O65  1  0.82229745  0.48123996  0.76838336  1
  O  O66  1  0.83673321  0.73187316  0.17941652  1
  O  O67  1  0.83439151  0.76694188  0.81650725  1
  O  O68  1  0.84053013  0.55883037  0.96239357  1
  O  O69  1  0.84438091  0.93234467  0.03077654  1
  O  O70  1  0.84903489  0.65958675  0.58384123  1
  O  O71  1  0.84749915  0.83333149  0.42301093  1
  O  O72  1  0.92752766  0.10334066  0.84396666  1
  O  O73  1  0.92596032  0.39665686  0.15603612  1
  O  O74  1  0.93785536  0.14336266  0.43123265  1
  O  O75  1  0.94580761  0.36241724  0.57576965  1
