# generated using pymatgen
data_MnFeCo(PO4)3
_symmetry_space_group_name_H-M   'P 1'
_cell_length_a   9.86114579
_cell_length_b   5.99434343
_cell_length_c   14.66399487
_cell_angle_alpha   90.00000000
_cell_angle_beta   89.74184643
_cell_angle_gamma   90.00000000
_symmetry_Int_Tables_number   1
_chemical_formula_structural   MnFeCo(PO4)3
_chemical_formula_sum   'Mn4 Fe4 Co4 P12 O48'
_cell_volume   866.79598782
_cell_formula_units_Z   4
loop_
 _symmetry_equiv_pos_site_id
 _symmetry_equiv_pos_as_xyz
  1  'x, y, z'
loop_
 _atom_site_type_symbol
 _atom_site_label
 _atom_site_symmetry_multiplicity
 _atom_site_fract_x
 _atom_site_fract_y
 _atom_site_fract_z
 _atom_site_occupancy
  Mn  Mn0  1  0.21255988  0.75000000  0.47698994  1
  Mn  Mn1  1  0.21187950  0.75000000  0.14487064  1
  Mn  Mn2  1  0.28353675  0.25000000  0.97739063  1
  Mn  Mn3  1  0.28492071  0.25000000  0.30936810  1
  Fe  Fe4  1  0.22441781  0.75000000  0.81787483  1
  Fe  Fe5  1  0.28102626  0.25000000  0.65061860  1
  Fe  Fe6  1  0.72660051  0.75000000  0.34718613  1
  Fe  Fe7  1  0.72747723  0.75000000  0.01249230  1
  Co  Co8  1  0.72910203  0.75000000  0.67680611  1
  Co  Co9  1  0.77467635  0.25000000  0.51393478  1
  Co  Co10  1  0.77216316  0.25000000  0.84294486  1
  Co  Co11  1  0.77189404  0.25000000  0.17787521  1
  P  P12  1  0.09949744  0.25000000  0.80439842  1
  P  P13  1  0.09702540  0.25000000  0.47165296  1
  P  P14  1  0.09660149  0.25000000  0.13782334  1
  P  P15  1  0.40094501  0.75000000  0.97109744  1
  P  P16  1  0.39998354  0.75000000  0.30327067  1
  P  P17  1  0.40460802  0.75000000  0.63685730  1
  P  P18  1  0.60215212  0.25000000  0.69956007  1
  P  P19  1  0.60048128  0.25000000  0.36282048  1
  P  P20  1  0.59893270  0.25000000  0.02783325  1
  P  P21  1  0.89870230  0.75000000  0.86220259  1
  P  P22  1  0.90243985  0.75000000  0.53202311  1
  P  P23  1  0.90075184  0.75000000  0.19803680  1
  O  O24  1  0.05570180  0.75000000  0.55323715  1
  O  O25  1  0.05412138  0.75000000  0.21927878  1
  O  O26  1  0.05159755  0.75000000  0.87981619  1
  O  O27  1  0.12104159  0.25000000  0.90844355  1
  O  O28  1  0.11988580  0.25000000  0.24132475  1
  O  O29  1  0.12217491  0.25000000  0.57434307  1
  O  O30  1  0.16570812  0.04846807  0.42194685  1
  O  O31  1  0.16570812  0.45153193  0.42194685  1
  O  O32  1  0.16565331  0.04871421  0.08821995  1
  O  O33  1  0.16565331  0.45128579  0.08821995  1
  O  O34  1  0.17197660  0.45030110  0.75566277  1
  O  O35  1  0.17197660  0.04969890  0.75566277  1
  O  O36  1  0.32720331  0.55152869  0.92096550  1
  O  O37  1  0.32720331  0.94847131  0.92096550  1
  O  O38  1  0.33564647  0.54546745  0.58990210  1
  O  O39  1  0.33564647  0.95453255  0.58990210  1
  O  O40  1  0.32838741  0.54903642  0.25468380  1
  O  O41  1  0.32838741  0.95096358  0.25468380  1
  O  O42  1  0.38070331  0.75000000  0.74039326  1
  O  O43  1  0.37631997  0.75000000  0.40718276  1
  O  O44  1  0.37580771  0.75000000  0.07427591  1
  O  O45  1  0.44958598  0.25000000  0.71748082  1
  O  O46  1  0.44694830  0.25000000  0.38118828  1
  O  O47  1  0.44531314  0.25000000  0.04911813  1
  O  O48  1  0.56003666  0.75000000  0.61904155  1
  O  O49  1  0.55224538  0.75000000  0.95156559  1
  O  O50  1  0.55266645  0.75000000  0.28479020  1
  O  O51  1  0.62079835  0.25000000  0.92410223  1
  O  O52  1  0.62908331  0.25000000  0.59540204  1
  O  O53  1  0.62536263  0.25000000  0.25839242  1
  O  O54  1  0.67238827  0.04856298  0.74856398  1
  O  O55  1  0.67238827  0.45143702  0.74856398  1
  O  O56  1  0.67096579  0.04767953  0.41090425  1
  O  O57  1  0.67096579  0.45232047  0.41090425  1
  O  O58  1  0.67013478  0.04812162  0.07653970  1
  O  O59  1  0.67013478  0.45187838  0.07653970  1
  O  O60  1  0.83133553  0.54856621  0.58153694  1
  O  O61  1  0.83133553  0.95143379  0.58153694  1
  O  O62  1  0.82779426  0.54990596  0.91249028  1
  O  O63  1  0.82779426  0.95009404  0.91249028  1
  O  O64  1  0.82935017  0.54964688  0.24757225  1
  O  O65  1  0.82935017  0.95035312  0.24757225  1
  O  O66  1  0.87527139  0.75000000  0.75853868  1
  O  O67  1  0.88050201  0.75000000  0.42898893  1
  O  O68  1  0.88000548  0.75000000  0.09482380  1
  O  O69  1  0.94172724  0.25000000  0.12111771  1
  O  O70  1  0.94176414  0.25000000  0.45407744  1
  O  O71  1  0.94558723  0.25000000  0.78783947  1
