# generated using pymatgen
data_Li6V3P8O29
_symmetry_space_group_name_H-M   'P 1'
_cell_length_a   9.84357309
_cell_length_b   9.85104996
_cell_length_c   14.01260279
_cell_angle_alpha   90.03281554
_cell_angle_beta   90.02823894
_cell_angle_gamma   59.89037199
_symmetry_Int_Tables_number   1
_chemical_formula_structural   Li6V3P8O29
_chemical_formula_sum   'Li12 V6 P16 O58'
_cell_volume   1175.44911260
_cell_formula_units_Z   2
loop_
 _symmetry_equiv_pos_site_id
 _symmetry_equiv_pos_as_xyz
  1  'x, y, z'
loop_
 _atom_site_type_symbol
 _atom_site_label
 _atom_site_symmetry_multiplicity
 _atom_site_fract_x
 _atom_site_fract_y
 _atom_site_fract_z
 _atom_site_occupancy
  Li  Li0  1  0.77226582  0.90606612  0.56301256  1
  Li  Li1  1  0.91025916  0.31835908  0.56142072  1
  Li  Li2  1  0.66513453  0.67364807  0.88652670  1
  Li  Li3  1  0.76722833  0.32190623  0.05959315  1
  Li  Li4  1  0.32118932  0.90424074  0.05732739  1
  Li  Li5  1  0.68196058  0.22617346  0.44198671  1
  Li  Li6  1  0.32241805  0.76963276  0.56445385  1
  Li  Li7  1  0.33377376  0.33807457  0.10969443  1
  Li  Li8  1  0.09311740  0.67890803  0.43926077  1
  Li  Li9  1  0.22900025  0.08905010  0.44180728  1
  Li  Li10  1  0.09172555  0.22976612  0.93803144  1
  Li  Li11  1  0.97395444  0.94824851  0.00127545  1
  V  V12  1  0.56799461  0.43439476  0.25108635  1
  V  V13  1  0.43117477  0.56509182  0.75610980  1
  V  V14  1  0.56842925  0.00342343  0.75112442  1
  V  V15  1  0.43770278  0.99825361  0.24655035  1
  V  V16  1  0.99708688  0.57315022  0.24671639  1
  V  V17  1  0.00142351  0.43752566  0.75033402  1
  P  P18  1  0.91132076  0.77687404  0.83979649  1
  P  P19  1  0.76708465  0.91427947  0.34251504  1
  P  P20  1  0.91558162  0.32055565  0.34044604  1
  P  P21  1  0.66637640  0.66712479  0.12672502  1
  P  P22  1  0.66598920  0.66545098  0.62959979  1
  P  P23  1  0.77501751  0.31637271  0.84391140  1
  P  P24  1  0.68060560  0.23417758  0.65996822  1
  P  P25  1  0.31805670  0.90981258  0.84250922  1
  P  P26  1  0.69024762  0.08828551  0.15838749  1
  P  P27  1  0.31846914  0.76836807  0.34395810  1
  P  P28  1  0.22402950  0.68759717  0.15968581  1
  P  P29  1  0.33436364  0.33171272  0.37000668  1
  P  P30  1  0.33272172  0.33410966  0.87154271  1
  P  P31  1  0.08821403  0.68148384  0.65662793  1
  P  P32  1  0.23323284  0.08619258  0.65894217  1
  P  P33  1  0.09020441  0.22877916  0.15639667  1
  O  O34  1  0.00019689  0.75640911  0.56583630  1
  O  O35  1  0.91773894  0.75068800  0.33929491  1
  O  O36  1  0.78873296  0.00567703  0.07514273  1
  O  O37  1  0.73975322  0.91663804  0.83290717  1
  O  O38  1  0.89787726  0.62593957  0.83134991  1
  O  O39  1  0.80725457  0.67370610  0.16973969  1
  O  O40  1  0.90724113  0.47802490  0.31985798  1
  O  O41  1  0.99623910  0.23716043  0.06937478  1
  O  O42  1  0.92188296  0.33510085  0.84029653  1
  O  O43  1  0.67173600  0.81358926  0.66534959  1
  O  O44  1  0.62120470  0.89964247  0.32316259  1
  O  O45  1  0.81812104  0.51532663  0.67349235  1
  O  O46  1  0.65785136  0.67124620  0.01978146  1
  O  O47  1  0.66901269  0.65296901  0.52352145  1
  O  O48  1  0.66945708  0.51607556  0.16430036  1
  O  O49  1  0.48149813  0.89440446  0.83038963  1
  O  O50  1  0.51103574  0.81814280  0.16619585  1
  O  O51  1  0.75050277  0.33740362  0.34064599  1
  O  O52  1  0.79043554  0.21250245  0.75105909  1
  O  O53  1  0.76095124  0.24312237  0.57043665  1
  O  O54  1  0.77452329  0.23457809  0.93341217  1
  O  O55  1  0.62724937  0.48223558  0.83021845  1
  O  O56  1  0.51727814  0.66753326  0.67367394  1
  O  O57  1  0.65916665  0.26126853  0.16333065  1
  O  O58  1  0.47754532  0.61821141  0.32062110  1
  O  O59  1  0.33603450  0.91453169  0.34111868  1
  O  O60  1  0.78506453  0.01141063  0.25596921  1
  O  O61  1  0.75517037  -0.00005479  0.43377301  1
  O  O62  1  0.24731306  0.99546244  0.56933158  1
  O  O63  1  0.66572786  0.08487169  0.65949289  1
  O  O64  1  0.52162386  0.38262057  0.67600607  1
  O  O65  1  0.33812155  0.74592314  0.84149969  1
  O  O66  1  0.48848703  0.32689397  0.33213782  1
  O  O67  1  0.37422317  0.52434085  0.16812522  1
  O  O68  1  0.21308027  0.78963172  0.07806418  1
  O  O69  1  0.24886425  0.75138118  0.43532348  1
  O  O70  1  0.20507992  0.78399510  0.25742783  1
  O  O71  1  0.25107161  0.66742814  0.65988266  1
  O  O72  1  0.47755366  0.19114066  0.82890464  1
  O  O73  1  0.52608597  0.10148129  0.16629488  1
  O  O74  1  0.33083399  0.48406146  0.83071749  1
  O  O75  1  0.32528876  0.33460651  0.97817760  1
  O  O76  1  0.33571576  0.31957928  0.47590222  1
  O  O77  1  0.18732350  0.48457028  0.33166495  1
  O  O78  1  0.38397485  0.09273260  0.67861691  1
  O  O79  1  0.33448471  0.18274625  0.32275343  1
  O  O80  1  0.08287726  0.65891340  0.16345927  1
  O  O81  1  0.99147015  0.79473102  0.74392784  1
  O  O82  1  0.99646168  0.78592793  0.92379464  1
  O  O83  1  0.10127470  0.52123250  0.67464793  1
  O  O84  1  0.17997540  0.33568003  0.83229611  1
  O  O85  1  0.11047161  0.37311566  0.17041758  1
  O  O86  1  0.25351394  0.07963986  0.15495746  1
  O  O87  1  0.23092113  0.00259918  0.93004337  1
  O  O88  1  0.21210283  0.99871035  0.74990911  1
  O  O89  1  0.08728154  0.25081887  0.65796971  1
  O  O90  1  0.00405975  0.24421619  0.43047472  1
  O  O91  1  0.00460948  0.20971981  0.25007996  1
