# generated using pymatgen
data_Mn13Cu11O32
_symmetry_space_group_name_H-M   'P 1'
_cell_length_a   6.03267728
_cell_length_b   6.03267728
_cell_length_c   19.68232266
_cell_angle_alpha   96.47347001
_cell_angle_beta   96.47347001
_cell_angle_gamma   58.74643504
_symmetry_Int_Tables_number   1
_chemical_formula_structural   Mn13Cu11O32
_chemical_formula_sum   'Mn13 Cu11 O32'
_cell_volume   607.20609550
_cell_formula_units_Z   1
loop_
 _symmetry_equiv_pos_site_id
 _symmetry_equiv_pos_as_xyz
  1  'x, y, z'
loop_
 _atom_site_type_symbol
 _atom_site_label
 _atom_site_symmetry_multiplicity
 _atom_site_fract_x
 _atom_site_fract_y
 _atom_site_fract_z
 _atom_site_occupancy
  Mn  Mn0  1  0.21927345  0.71967988  0.15693908  1
  Mn  Mn1  1  0.34462928  0.34462928  0.03069854  1
  Mn  Mn2  1  0.71967988  0.21927345  0.15693908  1
  Mn  Mn3  1  0.96884744  0.96884744  0.40552534  1
  Mn  Mn4  1  0.21865256  0.21865256  0.15697466  1
  Mn  Mn5  1  0.46782012  0.96822655  0.40556092  1
  Mn  Mn6  1  0.96822655  0.46782012  0.40556092  1
  Mn  Mn7  1  0.84287072  0.84287072  0.53180146  1
  Mn  Mn8  1  0.21912352  0.71978216  0.65685438  1
  Mn  Mn9  1  0.71978216  0.21912352  0.65685438  1
  Mn  Mn10  1  0.59375000  0.59375000  0.78125000  1
  Mn  Mn11  1  0.46771784  0.96837648  0.90564562  1
  Mn  Mn12  1  0.96837648  0.46771784  0.90564562  1
  Cu  Cu13  1  0.69081276  0.69081276  0.06215005  1
  Cu  Cu14  1  0.74491278  0.74491278  0.24767309  1
  Cu  Cu15  1  0.99289945  0.99289945  0.99791629  1
  Cu  Cu16  1  0.44258722  0.44258722  0.31482691  1
  Cu  Cu17  1  0.09375000  0.09375000  0.28125000  1
  Cu  Cu18  1  0.49668724  0.49668724  0.50034995  1
  Cu  Cu19  1  0.71870629  0.71870629  0.65696298  1
  Cu  Cu20  1  0.19460055  0.19460055  0.56458371  1
  Cu  Cu21  1  0.94317260  0.94317260  0.81381305  1
  Cu  Cu22  1  0.24432740  0.24432740  0.74868695  1
  Cu  Cu23  1  0.46879371  0.46879371  0.90553702  1
  O  O24  1  0.37212327  0.91230702  0.21213748  1
  O  O25  1  0.91250409  0.91250409  0.21286910  1
  O  O26  1  0.07065784  0.52222653  0.09867589  1
  O  O27  1  0.52396980  0.52396980  0.09965486  1
  O  O28  1  0.52222653  0.07065784  0.09867589  1
  O  O29  1  0.41203310  0.41203310  0.21330446  1
  O  O30  1  0.27519298  0.81537673  0.35036252  1
  O  O31  1  0.77546690  0.77546690  0.34919554  1
  O  O32  1  0.91230702  0.37212327  0.21213748  1
  O  O33  1  0.02629238  0.02629238  0.10054134  1
  O  O34  1  0.66353020  0.66353020  0.46284514  1
  O  O35  1  0.11684216  0.66527347  0.46382411  1
  O  O36  1  0.81537673  0.27519298  0.35036252  1
  O  O37  1  0.27499591  0.27499591  0.34963090  1
  O  O38  1  0.90911463  0.90911463  0.71187137  1
  O  O39  1  0.16120862  0.16120862  0.46195866  1
  O  O40  1  0.02931878  0.57062036  0.59783901  1
  O  O41  1  0.66527347  0.11684216  0.46382411  1
  O  O42  1  0.40840977  0.86919822  0.71526613  1
  O  O43  1  0.52826384  0.52826384  0.60140733  1
  O  O44  1  0.86919822  0.40840977  0.71526613  1
  O  O45  1  0.41334974  0.41334974  0.71385967  1
  O  O46  1  0.77415026  0.77415026  0.84864033  1
  O  O47  1  0.02528400  0.02528400  0.60037429  1
  O  O48  1  0.31830178  0.77909023  0.84723387  1
  O  O49  1  0.57062036  0.02931878  0.59783901  1
  O  O50  1  0.65923616  0.65923616  0.96109267  1
  O  O51  1  0.77909023  0.31830178  0.84723387  1
  O  O52  1  0.27838537  0.27838537  0.85062863  1
  O  O53  1  0.15818122  0.61687964  0.96466099  1
  O  O54  1  0.16221600  0.16221600  0.96212571  1
  O  O55  1  0.61687964  0.15818122  0.96466099  1
