# generated using pymatgen
data_Li7V3P8O29
_symmetry_space_group_name_H-M   'P 1'
_cell_length_a   9.83500309
_cell_length_b   9.86402776
_cell_length_c   13.86968408
_cell_angle_alpha   89.89143398
_cell_angle_beta   90.09670781
_cell_angle_gamma   60.07341263
_symmetry_Int_Tables_number   1
_chemical_formula_structural   Li7V3P8O29
_chemical_formula_sum   'Li14 V6 P16 O58'
_cell_volume   1166.12202758
_cell_formula_units_Z   2
loop_
 _symmetry_equiv_pos_site_id
 _symmetry_equiv_pos_as_xyz
  1  'x, y, z'
loop_
 _atom_site_type_symbol
 _atom_site_label
 _atom_site_symmetry_multiplicity
 _atom_site_fract_x
 _atom_site_fract_y
 _atom_site_fract_z
 _atom_site_occupancy
  Li  Li0  1  0.90087691  0.76713043  0.06655162  1
  Li  Li1  1  0.76992433  0.90609380  0.55814506  1
  Li  Li2  1  0.90691060  0.31999974  0.55773570  1
  Li  Li3  1  0.66341337  0.66239439  0.88245107  1
  Li  Li4  1  0.76768216  0.32969370  0.06543594  1
  Li  Li5  1  0.33229766  0.90278704  0.06474843  1
  Li  Li6  1  0.67953759  0.22824400  0.43988817  1
  Li  Li7  1  0.32361154  0.77013122  0.56039260  1
  Li  Li8  1  0.66155964  0.10369048  0.93949982  1
  Li  Li9  1  0.23615275  0.66306025  0.93896866  1
  Li  Li10  1  0.09437763  0.67716696  0.43709715  1
  Li  Li11  1  0.22580785  0.09514031  0.43750236  1
  Li  Li12  1  0.10331951  0.23499689  0.94169257  1
  Li  Li13  1  0.99865162  0.00523083  0.00443658  1
  V  V14  1  0.56317289  0.43564312  0.25045826  1
  V  V15  1  0.43255134  0.56616432  0.74935512  1
  V  V16  1  0.56674934  0.00295105  0.74727729  1
  V  V17  1  0.43332538  0.00113045  0.25074388  1
  V  V18  1  0.99933926  0.56650609  0.24996920  1
  V  V19  1  0.00233215  0.43392966  0.74996102  1
  P  P20  1  0.90967200  0.77417424  0.84165338  1
  P  P21  1  0.76864587  0.91358971  0.34220738  1
  P  P22  1  0.91068463  0.31873573  0.34235961  1
  P  P23  1  0.66251507  0.66784024  0.12511498  1
  P  P24  1  0.66794829  0.66918730  0.62713759  1
  P  P25  1  0.77651331  0.31412848  0.84408693  1
  P  P26  1  0.68012618  0.23259028  0.65762414  1
  P  P27  1  0.31604916  0.91140747  0.84446800  1
  P  P28  1  0.68463395  0.08867922  0.15677540  1
  P  P29  1  0.32011963  0.76951598  0.34131066  1
  P  P30  1  0.22698029  0.68744606  0.15630955  1
  P  P31  1  0.33509049  0.33326026  0.37313830  1
  P  P32  1  0.33291424  0.33267581  0.87456089  1
  P  P33  1  0.08533694  0.68287395  0.65526757  1
  P  P34  1  0.23044573  0.08737592  0.65791791  1
  P  P35  1  0.08818639  0.22607956  0.15846397  1
  O  O36  1  0.99132544  0.75979389  0.56607068  1
  O  O37  1  0.91517029  0.75244742  0.34438449  1
  O  O38  1  0.77640711  0.00059683  0.06711674  1
  O  O39  1  0.74236017  0.92032266  0.84193318  1
  O  O40  1  0.89319675  0.62645228  0.83171021  1
  O  O41  1  0.80703046  0.67803637  0.15969220  1
  O  O42  1  0.89526507  0.47794901  0.32493291  1
  O  O43  1  0.00437434  0.21378735  0.06858182  1
  O  O44  1  0.92611655  0.32788967  0.84364904  1
  O  O45  1  0.67666786  0.81465017  0.66916908  1
  O  O46  1  0.61861528  0.90288145  0.32097267  1
  O  O47  1  0.81674456  0.51649719  0.67210270  1
  O  O48  1  0.65847167  0.66262928  0.01587172  1
  O  O49  1  0.67642159  0.66734047  0.51987063  1
  O  O50  1  0.67144571  0.51276152  0.16563289  1
  O  O51  1  0.47931816  0.89608153  0.83158381  1
  O  O52  1  0.50839190  0.81171864  0.16295517  1
  O  O53  1  0.74805100  0.33040996  0.34163459  1
  O  O54  1  0.78971081  0.21146387  0.75085848  1
  O  O55  1  0.76461850  0.23723925  0.56861343  1
  O  O56  1  0.77783273  0.22197810  0.93282277  1
  O  O57  1  0.63176024  0.47798555  0.83519578  1
  O  O58  1  0.51656318  0.67555212  0.66660188  1
  O  O59  1  0.66631687  0.25282038  0.15671256  1
  O  O60  1  0.48069218  0.62295484  0.32404366  1
  O  O61  1  0.33489313  0.91857849  0.34221574  1
  O  O62  1  0.79142886  0.00099059  0.25001443  1
  O  O63  1  0.74763411  0.00749739  0.43174269  1
  O  O64  1  0.24646864  0.99698878  0.56762176  1
  O  O65  1  0.66848317  0.08027043  0.65938864  1
  O  O66  1  0.52017768  0.37651983  0.67216921  1
  O  O67  1  0.33131278  0.74915492  0.84593933  1
  O  O68  1  0.48753304  0.32948407  0.32753586  1
  O  O69  1  0.37969428  0.53074555  0.16761185  1
  O  O70  1  0.22629672  0.77765650  0.06640486  1
  O  O71  1  0.24217819  0.75712518  0.43173058  1
  O  O72  1  0.20845042  0.79368094  0.24956666  1
  O  O73  1  0.24587215  0.67135811  0.65497979  1
  O  O74  1  0.48497743  0.18910252  0.83234533  1
  O  O75  1  0.52893497  0.09211826  0.16873620  1
  O  O76  1  0.32174071  0.48716442  0.83796823  1
  O  O77  1  0.32958011  0.32270068  0.98207612  1
  O  O78  1  0.35092703  0.32131811  0.48035971  1
  O  O79  1  0.19032075  0.48668155  0.33696934  1
  O  O80  1  0.38080736  0.09718024  0.67839228  1
  O  O81  1  0.32829618  0.18688553  0.33132358  1
  O  O82  1  0.08093038  0.67018424  0.15601266  1
  O  O83  1  0.99552787  0.79219724  0.74914492  1
  O  O84  1  0.99731952  0.77447203  0.93177059  1
  O  O85  1  0.09737923  0.52329205  0.67450350  1
  O  O86  1  0.18272580  0.32875222  0.83130417  1
  O  O87  1  0.09490745  0.37528476  0.16570295  1
  O  O88  1  0.25562464  0.07847898  0.16147449  1
  O  O89  1  0.22741153  0.00442454  0.93272134  1
  O  O90  1  0.21126879  0.99900567  0.75035252  1
  O  O91  1  0.08416520  0.25062731  0.65736833  1
  O  O92  1  0.00170177  0.23710202  0.43223239  1
  O  O93  1  0.00110101  0.20578912  0.25074207  1
