# generated using pymatgen
data_LiV2(SO4)3
_symmetry_space_group_name_H-M   'P 1'
_cell_length_a   8.56340679
_cell_length_b   8.89327089
_cell_length_c   12.18312228
_cell_angle_alpha   90.00000000
_cell_angle_beta   89.40004729
_cell_angle_gamma   90.00000000
_symmetry_Int_Tables_number   1
_chemical_formula_structural   LiV2(SO4)3
_chemical_formula_sum   'Li4 V8 S12 O48'
_cell_volume   927.77547822
_cell_formula_units_Z   4
loop_
 _symmetry_equiv_pos_site_id
 _symmetry_equiv_pos_as_xyz
  1  'x, y, z'
loop_
 _atom_site_type_symbol
 _atom_site_label
 _atom_site_symmetry_multiplicity
 _atom_site_fract_x
 _atom_site_fract_y
 _atom_site_fract_z
 _atom_site_occupancy
  Li  Li0  1  0.19018454  0.71938544  0.81998473  1
  Li  Li1  1  0.30981546  0.21938544  0.68001527  1
  Li  Li2  1  0.69018454  0.78061456  0.31998473  1
  Li  Li3  1  0.80981546  0.28061456  0.18001527  1
  V  V4  1  0.24559640  0.96579203  0.38327470  1
  V  V5  1  0.24627808  0.53737930  0.61029003  1
  V  V6  1  0.25440360  0.46579203  0.11672530  1
  V  V7  1  0.25372192  0.03737930  0.88970997  1
  V  V8  1  0.74627808  0.96262070  0.11029003  1
  V  V9  1  0.74559640  0.53420797  0.88327470  1
  V  V10  1  0.75372192  0.46262070  0.38970997  1
  V  V11  1  0.75440360  0.03420797  0.61672530  1
  S  S12  1  0.03828410  0.24545070  0.50782510  1
  S  S13  1  0.10322298  0.12176721  0.15275808  1
  S  S14  1  0.10898912  0.39306225  0.85595333  1
  S  S15  1  0.39101088  0.89306225  0.64404667  1
  S  S16  1  0.39677702  0.62176721  0.34724192  1
  S  S17  1  0.46171590  0.74545070  0.99217490  1
  S  S18  1  0.53828410  0.25454930  0.00782510  1
  S  S19  1  0.60322298  0.37823279  0.65275808  1
  S  S20  1  0.60898912  0.10693775  0.35595333  1
  S  S21  1  0.89101088  0.60693775  0.14404667  1
  S  S22  1  0.89677702  0.87823279  0.84724192  1
  S  S23  1  0.96171590  0.75454930  0.49217490  1
  O  O24  1  0.03723297  0.63838973  0.55767342  1
  O  O25  1  0.06171557  0.61509437  0.12204729  1
  O  O26  1  0.06429611  0.90893051  0.82096191  1
  O  O27  1  0.06973967  0.81398892  0.40433609  1
  O  O28  1  0.08989428  0.12378608  0.43322074  1
  O  O29  1  0.12206197  0.28671994  0.17217794  1
  O  O30  1  0.13898329  0.08208087  0.03902677  1
  O  O31  1  0.14315045  0.51205442  0.77315559  1
  O  O32  1  0.17644745  0.30933323  0.56553451  1
  O  O33  1  0.16664355  0.24583067  0.81458126  1
  O  O34  1  0.19460199  0.43404406  0.95690211  1
  O  O35  1  0.20540236  0.03176763  0.22650064  1
  O  O36  1  0.29459764  0.53176763  0.27349936  1
  O  O37  1  0.30539801  0.93404406  0.54309789  1
  O  O38  1  0.33335645  0.74583067  0.68541874  1
  O  O39  1  0.32355255  0.80933323  0.93446549  1
  O  O40  1  0.36101671  0.58208087  0.46097323  1
  O  O41  1  0.35684955  0.01205442  0.72684441  1
  O  O42  1  0.37793803  0.78671994  0.32782206  1
  O  O43  1  0.41010572  0.62378608  0.06677926  1
  O  O44  1  0.43026033  0.31398892  0.09566391  1
  O  O45  1  0.43828443  0.11509437  0.37795271  1
  O  O46  1  0.43570389  0.40893051  0.67903809  1
  O  O47  1  0.46276703  0.13838973  0.94232658  1
  O  O48  1  0.53723297  0.86161027  0.05767342  1
  O  O49  1  0.56429611  0.59106949  0.32096191  1
  O  O50  1  0.56171557  0.88490563  0.62204729  1
  O  O51  1  0.56973967  0.68601108  0.90433609  1
  O  O52  1  0.58989428  0.37621392  0.93322074  1
  O  O53  1  0.62206197  0.21328006  0.67217794  1
  O  O54  1  0.64315045  0.98794558  0.27315559  1
  O  O55  1  0.63898329  0.41791913  0.53902677  1
  O  O56  1  0.67644745  0.19066677  0.06553451  1
  O  O57  1  0.66664355  0.25416933  0.31458126  1
  O  O58  1  0.69460199  0.06595594  0.45690211  1
  O  O59  1  0.70540236  0.46823237  0.72650064  1
  O  O60  1  0.79459764  0.96823237  0.77349936  1
  O  O61  1  0.80539801  0.56595594  0.04309789  1
  O  O62  1  0.83335645  0.75416933  0.18541874  1
  O  O63  1  0.82355255  0.69066677  0.43446549  1
  O  O64  1  0.85684955  0.48794558  0.22684441  1
  O  O65  1  0.86101671  0.91791913  0.96097323  1
  O  O66  1  0.87793803  0.71328006  0.82782206  1
  O  O67  1  0.91010572  0.87621392  0.56677926  1
  O  O68  1  0.93026033  0.18601108  0.59566391  1
  O  O69  1  0.93570389  0.09106949  0.17903809  1
  O  O70  1  0.93828443  0.38490563  0.87795271  1
  O  O71  1  0.96276703  0.36161027  0.44232658  1
