# generated using pymatgen
data_Li8Mn7Sb(PO4)12
_symmetry_space_group_name_H-M   'P 1'
_cell_length_a   8.54303704
_cell_length_b   8.76257155
_cell_length_c   12.30193448
_cell_angle_alpha   90.15350736
_cell_angle_beta   90.69537498
_cell_angle_gamma   89.64942267
_symmetry_Int_Tables_number   1
_chemical_formula_structural   Li8Mn7Sb(PO4)12
_chemical_formula_sum   'Li8 Mn7 Sb1 P12 O48'
_cell_volume   920.82200109
_cell_formula_units_Z   1
loop_
 _symmetry_equiv_pos_site_id
 _symmetry_equiv_pos_as_xyz
  1  'x, y, z'
loop_
 _atom_site_type_symbol
 _atom_site_label
 _atom_site_symmetry_multiplicity
 _atom_site_fract_x
 _atom_site_fract_y
 _atom_site_fract_z
 _atom_site_occupancy
  Li  Li0  1  0.22170093  0.71926608  0.18131483  1
  Li  Li1  1  0.22055714  0.77714085  0.81764256  1
  Li  Li2  1  0.28049279  0.22240285  0.31687182  1
  Li  Li3  1  0.27770335  0.27703510  0.68719991  1
  Li  Li4  1  0.71773742  0.72554453  0.31168916  1
  Li  Li5  1  0.72223324  0.78983662  0.68254076  1
  Li  Li6  1  0.77903516  0.22253181  0.18317549  1
  Li  Li7  1  0.78336440  0.27608879  0.82956451  1
  Mn  Mn8  1  0.24714280  0.95964706  0.61257735  1
  Mn  Mn9  1  0.24934712  0.53521130  0.38613945  1
  Mn  Mn10  1  0.25311097  0.03820420  0.11277655  1
  Mn  Mn11  1  0.24920968  0.46385475  0.89011941  1
  Mn  Mn12  1  0.74931594  0.53865516  0.11010253  1
  Mn  Mn13  1  0.75129903  0.96438381  0.89074804  1
  Mn  Mn14  1  0.74734253  0.03456127  0.38661985  1
  Sb  Sb15  1  0.75352132  0.45929625  0.61328642  1
  P  P16  1  0.03930136  0.23790310  0.49803366  1
  P  P17  1  0.46662661  0.75618961  0.99915810  1
  P  P18  1  0.53214474  0.25312075  0.00159319  1
  P  P19  1  0.96478451  0.74518718  0.49702381  1
  P  P20  1  0.10242384  0.39484512  0.14629243  1
  P  P21  1  0.10579797  0.10222982  0.85818951  1
  P  P22  1  0.39125046  0.60541833  0.64343261  1
  P  P23  1  0.39530334  0.89818540  0.34887634  1
  P  P24  1  0.60445536  0.10531058  0.64438067  1
  P  P25  1  0.60173202  0.39685664  0.35277207  1
  P  P26  1  0.89939442  0.60445116  0.85026751  1
  P  P27  1  0.89821445  0.89539668  0.14783994  1
  O  O28  1  0.05735669  0.63213371  0.42834852  1
  O  O29  1  0.05526607  0.85112438  0.57195501  1
  O  O30  1  0.08099370  0.89617878  0.15779113  1
  O  O31  1  0.08001417  0.59940928  0.83847027  1
  O  O32  1  0.14110687  0.15206287  0.58382550  1
  O  O33  1  0.14466513  0.32401710  0.42091507  1
  O  O34  1  0.15282515  0.44243977  0.03384821  1
  O  O35  1  0.15200432  0.06574863  0.97698720  1
  O  O36  1  0.15701642  0.22999279  0.17781811  1
  O  O37  1  0.15550486  0.26393713  0.82287627  1
  O  O38  1  0.17438182  0.51104667  0.22842691  1
  O  O39  1  0.17472627  0.98125083  0.78244789  1
  O  O40  1  0.32479196  0.01986254  0.26813425  1
  O  O41  1  0.32799265  0.48750441  0.72246081  1
  O  O42  1  0.34220370  0.77030283  0.67579986  1
  O  O43  1  0.34459873  0.73689958  0.31549130  1
  O  O44  1  0.34747889  0.56546561  0.52715631  1
  O  O45  1  0.34375313  0.94462514  0.46152252  1
  O  O46  1  0.36024794  0.84466789  0.08220478  1
  O  O47  1  0.35590244  0.67077264  0.92079555  1
  O  O48  1  0.42537844  0.11169882  0.65544681  1
  O  O49  1  0.42031423  0.39634986  0.34617647  1
  O  O50  1  0.43826930  0.14546725  0.07501485  1
  O  O51  1  0.43538691  0.36079449  0.92806251  1
  O  O52  1  0.56130338  0.64751179  0.07276314  1
  O  O53  1  0.56292652  0.86141763  0.92673400  1
  O  O54  1  0.57907345  0.60623841  0.65520456  1
  O  O55  1  0.57833447  0.90047453  0.33985899  1
  O  O56  1  0.63813297  0.34017728  0.08367401  1
  O  O57  1  0.63830311  0.16818316  0.92087325  1
  O  O58  1  0.65535519  0.06912549  0.52930570  1
  O  O59  1  0.64742849  0.42821092  0.47462456  1
  O  O60  1  0.65815754  0.23634041  0.31952755  1
  O  O61  1  0.66611135  0.27097312  0.68059450  1
  O  O62  1  0.67169336  0.52076962  0.28287209  1
  O  O63  1  0.67898120  0.99211939  0.72484261  1
  O  O64  1  0.82621275  0.01455210  0.22733445  1
  O  O65  1  0.83046465  0.47809339  0.76757931  1
  O  O66  1  0.84582732  0.73232310  0.17818524  1
  O  O67  1  0.84293978  0.76307187  0.81471426  1
  O  O68  1  0.84525631  0.55392949  0.96005145  1
  O  O69  1  0.84581788  0.94235582  0.03383150  1
  O  O70  1  0.85408063  0.65723148  0.58023815  1
  O  O71  1  0.85131849  0.82743288  0.41862712  1
  O  O72  1  0.92223659  0.10144798  0.84968500  1
  O  O73  1  0.92024784  0.39675999  0.15596835  1
  O  O74  1  0.93544352  0.13510758  0.42861648  1
  O  O75  1  0.94763356  0.35364778  0.57208812  1
