# generated using pymatgen
data_LiMnF5
_symmetry_space_group_name_H-M   'P 1'
_cell_length_a   7.61470385
_cell_length_b   7.09813374
_cell_length_c   6.86448003
_cell_angle_alpha   90.00000000
_cell_angle_beta   90.00000000
_cell_angle_gamma   90.00000000
_symmetry_Int_Tables_number   1
_chemical_formula_structural   LiMnF5
_chemical_formula_sum   'Li4 Mn4 F20'
_cell_volume   371.02642460
_cell_formula_units_Z   4
loop_
 _symmetry_equiv_pos_site_id
 _symmetry_equiv_pos_as_xyz
  1  'x, y, z'
loop_
 _atom_site_type_symbol
 _atom_site_label
 _atom_site_symmetry_multiplicity
 _atom_site_fract_x
 _atom_site_fract_y
 _atom_site_fract_z
 _atom_site_occupancy
  Li  Li0  1  0.01700773  0.25000000  0.75134338  1
  Li  Li1  1  0.48299227  0.75000000  0.25134338  1
  Li  Li2  1  0.51700773  0.25000000  0.74865662  1
  Li  Li3  1  0.98299227  0.75000000  0.24865662  1
  Mn  Mn4  1  0.11950721  0.75000000  0.74696620  1
  Mn  Mn5  1  0.38049279  0.25000000  0.24696620  1
  Mn  Mn6  1  0.61950721  0.75000000  0.75303380  1
  Mn  Mn7  1  0.88049279  0.25000000  0.25303380  1
  F  F8  1  0.11551758  0.75000000  0.01193704  1
  F  F9  1  0.12492106  0.75000000  0.48158637  1
  F  F10  1  0.12913715  0.25000000  0.25845833  1
  F  F11  1  0.12244657  0.00609457  0.74615010  1
  F  F12  1  0.12244657  0.49390543  0.74615010  1
  F  F13  1  0.37755343  0.50609457  0.24615010  1
  F  F14  1  0.37755343  0.99390543  0.24615010  1
  F  F15  1  0.37086285  0.75000000  0.75845833  1
  F  F16  1  0.37507894  0.25000000  0.98158637  1
  F  F17  1  0.38448242  0.25000000  0.51193704  1
  F  F18  1  0.61551758  0.75000000  0.48806296  1
  F  F19  1  0.62492106  0.75000000  0.01841363  1
  F  F20  1  0.62913715  0.25000000  0.24154167  1
  F  F21  1  0.62244657  0.00609457  0.75384990  1
  F  F22  1  0.62244657  0.49390543  0.75384990  1
  F  F23  1  0.87755343  0.50609457  0.25384990  1
  F  F24  1  0.87755343  0.99390543  0.25384990  1
  F  F25  1  0.87086285  0.75000000  0.74154167  1
  F  F26  1  0.87507894  0.25000000  0.51841363  1
  F  F27  1  0.88448242  0.25000000  0.98806296  1
