# generated using pymatgen
data_CdTcO3
_symmetry_space_group_name_H-M   'P 1'
_cell_length_a   5.45780095
_cell_length_b   5.54841365
_cell_length_c   7.89116437
_cell_angle_alpha   90.00000000
_cell_angle_beta   90.00000000
_cell_angle_gamma   90.00000000
_symmetry_Int_Tables_number   1
_chemical_formula_structural   CdTcO3
_chemical_formula_sum   'Cd4 Tc4 O12'
_cell_volume   238.96132283
_cell_formula_units_Z   4
loop_
 _symmetry_equiv_pos_site_id
 _symmetry_equiv_pos_as_xyz
  1  'x, y, z'
loop_
 _atom_site_type_symbol
 _atom_site_label
 _atom_site_symmetry_multiplicity
 _atom_site_fract_x
 _atom_site_fract_y
 _atom_site_fract_z
 _atom_site_occupancy
  Cd  Cd0  1  0.50789695  0.54541036  0.25000000  1
  Cd  Cd1  1  0.99210305  0.04541036  0.25000000  1
  Cd  Cd2  1  0.49210305  0.45458964  0.75000000  1
  Cd  Cd3  1  0.00789695  0.95458964  0.75000000  1
  Tc  Tc4  1  0.00000000  0.50000000  -0.00000000  1
  Tc  Tc5  1  0.50000000  0.00000000  0.50000000  1
  Tc  Tc6  1  -0.00000000  0.50000000  0.50000000  1
  Tc  Tc7  1  0.50000000  0.00000000  -0.00000000  1
  O  O8  1  0.80653458  0.80454474  0.05378911  1
  O  O9  1  0.69346542  0.30454474  0.44621089  1
  O  O10  1  0.19346542  0.19545526  0.55378911  1
  O  O11  1  0.30653458  0.69545526  0.94621089  1
  O  O12  1  0.19346542  0.19545526  0.94621089  1
  O  O13  1  0.30653458  0.69545526  0.55378911  1
  O  O14  1  0.80653458  0.80454474  0.44621089  1
  O  O15  1  0.69346542  0.30454474  0.05378911  1
  O  O16  1  0.39901407  0.95663570  0.25000000  1
  O  O17  1  0.10098593  0.45663570  0.25000000  1
  O  O18  1  0.60098593  0.04336430  0.75000000  1
  O  O19  1  0.89901407  0.54336430  0.75000000  1
