# generated using pymatgen
data_Li6V3P8O29
_symmetry_space_group_name_H-M   'P 1'
_cell_length_a   9.84919559
_cell_length_b   9.84499919
_cell_length_c   13.95420312
_cell_angle_alpha   90.15009570
_cell_angle_beta   90.12961514
_cell_angle_gamma   59.90439452
_symmetry_Int_Tables_number   1
_chemical_formula_structural   Li6V3P8O29
_chemical_formula_sum   'Li12 V6 P16 O58'
_cell_volume   1170.66104874
_cell_formula_units_Z   2
loop_
 _symmetry_equiv_pos_site_id
 _symmetry_equiv_pos_as_xyz
  1  'x, y, z'
loop_
 _atom_site_type_symbol
 _atom_site_label
 _atom_site_symmetry_multiplicity
 _atom_site_fract_x
 _atom_site_fract_y
 _atom_site_fract_z
 _atom_site_occupancy
  Li  Li0  1  0.90773284  0.77506496  0.06187794  1
  Li  Li1  1  0.90551511  0.32077341  0.56016085  1
  Li  Li2  1  0.66685975  0.66629613  0.88421779  1
  Li  Li3  1  0.77810471  0.31510747  0.05992454  1
  Li  Li4  1  0.31208833  0.91495657  0.06131396  1
  Li  Li5  1  0.68538123  0.22206476  0.43990387  1
  Li  Li6  1  0.31801362  0.77285229  0.55932476  1
  Li  Li7  1  0.67913980  0.09465971  0.93974793  1
  Li  Li8  1  0.22696998  0.68213765  0.94073973  1
  Li  Li9  1  0.33363703  0.33318779  0.61564892  1
  Li  Li10  1  0.08477488  0.68764232  0.43863128  1
  Li  Li11  1  0.22511461  0.09225299  0.43817589  1
  V  V12  1  0.56838401  0.43135230  0.25043093  1
  V  V13  1  0.43430885  0.56575964  0.74997103  1
  V  V14  1  0.56898437  0.99578307  0.74613400  1
  V  V15  1  0.43296744  0.00159105  0.25146112  1
  V  V16  1  0.99803832  0.56741122  0.24812141  1
  V  V17  1  0.00433707  0.43089434  0.75388449  1
  P  P18  1  0.91153689  0.76993208  0.84096356  1
  P  P19  1  0.76885752  0.91388678  0.34058762  1
  P  P20  1  0.91248664  0.32071659  0.34328522  1
  P  P21  1  0.66459626  0.66659173  0.12593654  1
  P  P22  1  0.66799922  0.66312253  0.62723753  1
  P  P23  1  0.77099977  0.32007976  0.84193501  1
  P  P24  1  0.67997812  0.22893398  0.65804204  1
  P  P25  1  0.32034040  0.91071479  0.84481104  1
  P  P26  1  0.67942841  0.08776543  0.15704005  1
  P  P27  1  0.32046323  0.76767484  0.34103988  1
  P  P28  1  0.23227249  0.67879495  0.15846100  1
  P  P29  1  0.33285581  0.33568424  0.37376980  1
  P  P30  1  0.33677330  0.33212367  0.87274997  1
  P  P31  1  0.08934195  0.67968075  0.65520598  1
  P  P32  1  0.23015642  0.08831142  0.65905018  1
  P  P33  1  0.08621886  0.23108328  0.15957192  1
  O  O34  1  0.00396348  0.75538433  0.56545110  1
  O  O35  1  0.91365646  0.74554139  0.33797182  1
  O  O36  1  0.75747689  0.00178210  0.06581830  1
  O  O37  1  0.74859408  0.91962058  0.84187225  1
  O  O38  1  0.88745035  0.62649625  0.82641560  1
  O  O39  1  0.81281122  0.67339148  0.16375957  1
  O  O40  1  0.89815862  0.47993564  0.32419082  1
  O  O41  1  0.99483107  0.23775104  0.07347909  1
  O  O42  1  0.91531260  0.33891693  0.83989815  1
  O  O43  1  0.66039126  0.81443797  0.67293282  1
  O  O44  1  0.61738695  0.90494433  0.32267683  1
  O  O45  1  0.81935290  0.51704533  0.66896408  1
  O  O46  1  0.66705260  0.66555529  0.01761956  1
  O  O47  1  0.66182796  0.66405932  0.52097239  1
  O  O48  1  0.67264159  0.51254929  0.16387084  1
  O  O49  1  0.48598496  0.88966260  0.82726109  1
  O  O50  1  0.51253901  0.81337219  0.16456681  1
  O  O51  1  0.74894093  0.33345391  0.34061408  1
  O  O52  1  0.78610061  0.21377791  0.75002095  1
  O  O53  1  0.75642394  0.24643686  0.56949409  1
  O  O54  1  0.75344346  0.24379427  0.93052829  1
  O  O55  1  0.62418603  0.48628525  0.82674721  1
  O  O56  1  0.51808375  0.66219470  0.66974281  1
  O  O57  1  0.66529953  0.25231772  0.16038162  1
  O  O58  1  0.48021746  0.61901067  0.32275027  1
  O  O59  1  0.33541285  0.91659588  0.34123515  1
  O  O60  1  0.79320254  0.99328004  0.24518727  1
  O  O61  1  0.76168491  0.00546711  0.42670135  1
  O  O62  1  0.24609997  0.99612509  0.56932846  1
  O  O63  1  0.66093327  0.08471853  0.66006045  1
  O  O64  1  0.51381373  0.37582354  0.67319807  1
  O  O65  1  0.33470967  0.74642836  0.84097524  1
  O  O66  1  0.48757726  0.32768962  0.33608178  1
  O  O67  1  0.37839296  0.51927897  0.17747401  1
  O  O68  1  0.24304952  0.75775588  0.06877180  1
  O  O69  1  0.24287186  0.75594057  0.43104896  1
  O  O70  1  0.20979435  0.79038561  0.24986571  1
  O  O71  1  0.25354143  0.66538835  0.65904410  1
  O  O72  1  0.48285739  0.18070432  0.83102121  1
  O  O73  1  0.52028886  0.10209806  0.17581480  1
  O  O74  1  0.33788004  0.48192872  0.83023288  1
  O  O75  1  0.33568436  0.33815655  0.97901806  1
  O  O76  1  0.33484609  0.33323199  0.48208056  1
  O  O77  1  0.18615981  0.48770613  0.33550851  1
  O  O78  1  0.37343303  0.11253727  0.67361077  1
  O  O79  1  0.32717583  0.18698024  0.33604226  1
  O  O80  1  0.08178370  0.66616775  0.15873296  1
  O  O81  1  0.00045201  0.78467436  0.74907023  1
  O  O82  1  0.00364060  0.75410532  0.93063859  1
  O  O83  1  0.11046269  0.51392457  0.67269676  1
  O  O84  1  0.18555365  0.33968321  0.82702389  1
  O  O85  1  0.09543463  0.38250243  0.17709878  1
  O  O86  1  0.25469626  0.08607785  0.16221784  1
  O  O87  1  0.24462246  0.99623314  0.93454990  1
  O  O88  1  0.21538741  0.99939925  0.75091512  1
  O  O89  1  0.08048213  0.25128145  0.65811175  1
  O  O90  1  0.99950912  0.24281149  0.43431406  1
  O  O91  1  0.00708664  0.20679154  0.25497247  1
