# generated using pymatgen
data_Li3V2P4(HO8)2
_symmetry_space_group_name_H-M   'P 1'
_cell_length_a   13.78249345
_cell_length_b   8.09605728
_cell_length_c   7.88667269
_cell_angle_alpha   90.09731450
_cell_angle_beta   100.21363484
_cell_angle_gamma   89.71317353
_symmetry_Int_Tables_number   1
_chemical_formula_structural   Li3V2P4(HO8)2
_chemical_formula_sum   'Li9 V6 P12 H6 O48'
_cell_volume   866.06883131
_cell_formula_units_Z   3
loop_
 _symmetry_equiv_pos_site_id
 _symmetry_equiv_pos_as_xyz
  1  'x, y, z'
loop_
 _atom_site_type_symbol
 _atom_site_label
 _atom_site_symmetry_multiplicity
 _atom_site_fract_x
 _atom_site_fract_y
 _atom_site_fract_z
 _atom_site_occupancy
  Li  Li0  1  0.17925595  0.86759987  0.02270253  1
  Li  Li1  1  0.14790945  0.13421439  0.30512791  1
  Li  Li2  1  0.15224648  0.37005698  0.80127054  1
  Li  Li3  1  0.48712490  0.36716220  0.14334382  1
  Li  Li4  1  0.51455241  0.86974581  0.36647623  1
  Li  Li5  1  0.51799315  0.63423528  0.85999271  1
  Li  Li6  1  0.85242406  0.63279015  0.20358242  1
  Li  Li7  1  0.84809710  0.86795910  0.69264873  1
  Li  Li8  1  0.81577167  0.13294317  0.97412828  1
  V  V9  1  0.16652722  0.50407506  0.17760985  1
  V  V10  1  0.16719703  0.99701104  0.66385837  1
  V  V11  1  0.49849834  0.49529505  0.50268653  1
  V  V12  1  0.50119347  0.00322761  0.98897958  1
  V  V13  1  0.83412670  0.00447393  0.33324911  1
  V  V14  1  0.83176299  0.49712502  0.83027852  1
  P  P15  1  0.04429354  0.84765855  0.27334558  1
  P  P16  1  0.04420996  0.65025277  0.78426725  1
  P  P17  1  0.28980850  0.15661843  0.05452954  1
  P  P18  1  0.37662518  0.65692696  0.11134601  1
  P  P19  1  0.28736447  0.34988154  0.55533119  1
  P  P20  1  0.37910822  0.85022523  0.61248804  1
  P  P21  1  0.62122511  0.15114043  0.37905616  1
  P  P22  1  0.71187257  0.65249432  0.45128692  1
  P  P23  1  0.62293135  0.34704979  0.89386741  1
  P  P24  1  0.71259268  0.84756564  0.94180747  1
  P  P25  1  0.95440168  0.35299912  0.22011118  1
  P  P26  1  0.95605741  0.15792808  0.72240768  1
  H  H27  1  0.00666987  0.51029800  0.51871738  1
  H  H28  1  0.32910315  0.01052003  0.32436612  1
  H  H29  1  0.33746720  0.51045742  0.84249795  1
  H  H30  1  0.67470243  0.50600628  0.19143100  1
  H  H31  1  0.65620151  0.01073803  0.63773818  1
  H  H32  1  0.99427066  0.00911761  0.98524624  1
  O  O33  1  0.06279635  0.94394388  0.11266452  1
  O  O34  1  0.06610888  0.33049613  0.20680531  1
  O  O35  1  0.09187389  0.67460924  0.27012427  1
  O  O36  1  0.09332543  0.95253024  0.42931898  1
  O  O37  1  0.06138086  0.54714339  0.62582863  1
  O  O38  1  0.23605862  0.32444596  0.05129064  1
  O  O39  1  0.06722102  0.17556692  0.72099346  1
  O  O40  1  0.26520611  0.67810353  0.11603856  1
  O  O41  1  0.09546590  0.81798215  0.78984696  1
  O  O42  1  0.27246605  0.06296587  0.22145769  1
  O  O43  1  0.09486337  0.54518018  0.94258822  1
  O  O44  1  0.23799967  0.45197765  0.38645823  1
  O  O45  1  0.23088178  0.18509323  0.53915776  1
  O  O46  1  0.40098065  0.17777259  0.04854728  1
  O  O47  1  0.27034688  0.83418622  0.62738866  1
  O  O48  1  0.27102116  0.43897775  0.71893126  1
  O  O49  1  0.43036027  0.82436199  0.11494878  1
  O  O50  1  0.24043809  0.04683098  0.90418932  1
  O  O51  1  0.42550498  0.54732383  0.26233620  1
  O  O52  1  0.39519648  0.93903316  0.44849808  1
  O  O53  1  0.39639939  0.33315449  0.54127828  1
  O  O54  1  0.43590080  0.68503994  0.62767106  1
  O  O55  1  0.60550330  0.44295218  0.05477763  1
  O  O56  1  0.42864051  0.95230967  0.78054635  1
  O  O57  1  0.56909304  0.04377562  0.22140968  1
  O  O58  1  0.39442414  0.56302466  0.94461817  1
  O  O59  1  0.56760214  0.31716274  0.37367343  1
  O  O60  1  0.60056744  0.67161913  0.45009669  1
  O  O61  1  0.60120591  0.04808370  0.53733951  1
  O  O62  1  0.57366335  0.45064953  0.73750032  1
  O  O63  1  0.76031847  0.95310520  0.09803254  1
  O  O64  1  0.57766450  0.17276530  0.89714260  1
  O  O65  1  0.73064189  0.56155322  0.28557824  1
  O  O66  1  0.73075418  0.16733723  0.37321351  1
  O  O67  1  0.60048717  0.82666526  0.95001914  1
  O  O68  1  0.76867124  0.81544236  0.45927601  1
  O  O69  1  0.75738610  0.55025059  0.61577297  1
  O  O70  1  0.90492041  0.45607648  0.05458536  1
  O  O71  1  0.72990887  0.93932953  0.77951767  1
  O  O72  1  0.90394223  0.18367878  0.20762269  1
  O  O73  1  0.73481148  0.32665700  0.88301597  1
  O  O74  1  0.93326735  0.82855379  0.28059954  1
  O  O75  1  0.76342424  0.67497053  0.95183878  1
  O  O76  1  0.93905664  0.45643435  0.37394907  1
  O  O77  1  0.90673891  0.04986142  0.57077774  1
  O  O78  1  0.90618871  0.32722079  0.72929202  1
  O  O79  1  0.93242252  0.67121104  0.78985610  1
  O  O80  1  0.93656226  0.05913074  0.88575169  1
