# generated using pymatgen
data_Li6V3P8O29
_symmetry_space_group_name_H-M   'P 1'
_cell_length_a   9.86335580
_cell_length_b   9.80243077
_cell_length_c   13.99941407
_cell_angle_alpha   90.49963679
_cell_angle_beta   90.43972030
_cell_angle_gamma   60.16547641
_symmetry_Int_Tables_number   1
_chemical_formula_structural   Li6V3P8O29
_chemical_formula_sum   'Li12 V6 P16 O58'
_cell_volume   1174.08895211
_cell_formula_units_Z   2
loop_
 _symmetry_equiv_pos_site_id
 _symmetry_equiv_pos_as_xyz
  1  'x, y, z'
loop_
 _atom_site_type_symbol
 _atom_site_label
 _atom_site_symmetry_multiplicity
 _atom_site_fract_x
 _atom_site_fract_y
 _atom_site_fract_z
 _atom_site_occupancy
  Li  Li0  1  0.77381997  0.90824969  0.55893478  1
  Li  Li1  1  0.90795182  0.32233320  0.56409518  1
  Li  Li2  1  0.67366538  0.66948776  0.88645382  1
  Li  Li3  1  0.76863025  0.32604373  0.05871750  1
  Li  Li4  1  0.32389701  0.90608325  0.05853183  1
  Li  Li5  1  0.68135800  0.22792643  0.43981977  1
  Li  Li6  1  0.32222819  0.77022386  0.56546787  1
  Li  Li7  1  0.67721328  0.09244236  0.93810117  1
  Li  Li8  1  0.31924893  0.34000070  0.10903146  1
  Li  Li9  1  0.09242601  0.67866706  0.43931853  1
  Li  Li10  1  0.22549494  0.09134752  0.44379999  1
  Li  Li11  1  0.03514122  0.94710868  0.99383312  1
  V  V12  1  0.56815916  0.43606508  0.25175870  1
  V  V13  1  0.42879869  0.56663186  0.75053347  1
  V  V14  1  0.56432980  0.00085163  0.75046672  1
  V  V15  1  0.43414693  0.99954558  0.24785904  1
  V  V16  1  0.99707725  0.57095243  0.24496066  1
  V  V17  1  0.00360917  0.43145722  0.75640503  1
  P  P18  1  0.91349218  0.78095991  0.84438484  1
  P  P19  1  0.76754027  0.91265781  0.33936950  1
  P  P20  1  0.91694730  0.32014908  0.34258690  1
  P  P21  1  0.66583755  0.66835559  0.12676064  1
  P  P22  1  0.66584627  0.66512978  0.62914420  1
  P  P23  1  0.77180191  0.31980632  0.84096795  1
  P  P24  1  0.68188881  0.23139951  0.65718577  1
  P  P25  1  0.31700821  0.90859286  0.84233996  1
  P  P26  1  0.68096252  0.09239854  0.15699879  1
  P  P27  1  0.31749435  0.76913790  0.34512623  1
  P  P28  1  0.22454733  0.68688273  0.16007026  1
  P  P29  1  0.33441691  0.33356615  0.37025620  1
  P  P30  1  0.33501041  0.33134109  0.87202502  1
  P  P31  1  0.08307895  0.68128825  0.65849497  1
  P  P32  1  0.23067022  0.08915676  0.66030633  1
  P  P33  1  0.08583701  0.22190775  0.15683573  1
  O  O34  1  0.99801279  0.75460832  0.56677155  1
  O  O35  1  0.91861297  0.75011350  0.33799479  1
  O  O36  1  0.76279026  0.01713116  0.06634022  1
  O  O37  1  0.74448387  0.92238661  0.84130180  1
  O  O38  1  0.90038787  0.62929681  0.83430730  1
  O  O39  1  0.80683098  0.67585057  0.16934511  1
  O  O40  1  0.90839088  0.47803638  0.31975849  1
  O  O41  1  0.98750055  0.21723750  0.07690844  1
  O  O42  1  0.91652460  0.34115866  0.83932849  1
  O  O43  1  0.66494140  0.81718725  0.67425047  1
  O  O44  1  0.62132004  0.89821744  0.32216968  1
  O  O45  1  0.81262001  0.51691775  0.67157485  1
  O  O46  1  0.65653935  0.67241936  0.01963525  1
  O  O47  1  0.66978413  0.67117069  0.52288482  1
  O  O48  1  0.66953637  0.51686735  0.16445591  1
  O  O49  1  0.48025873  0.89473693  0.83211609  1
  O  O50  1  0.51120421  0.81865366  0.16632640  1
  O  O51  1  0.75140764  0.33830016  0.34095654  1
  O  O52  1  0.79042136  0.21166452  0.74891358  1
  O  O53  1  0.75877474  0.24473826  0.56809337  1
  O  O54  1  0.76750690  0.23371892  0.92859550  1
  O  O55  1  0.62605511  0.48370513  0.82864309  1
  O  O56  1  0.51195054  0.67149274  0.66529471  1
  O  O57  1  0.65929005  0.26188995  0.16436347  1
  O  O58  1  0.47707710  0.62040130  0.32158833  1
  O  O59  1  0.33408807  0.91655210  0.34327053  1
  O  O60  1  0.78615216  0.00415568  0.24880169  1
  O  O61  1  0.75676611  0.00223782  0.42948772  1
  O  O62  1  0.24164587  0.99804269  0.57064628  1
  O  O63  1  0.66391325  0.08456561  0.65618703  1
  O  O64  1  0.52473223  0.38187311  0.67682974  1
  O  O65  1  0.34260239  0.73955241  0.83234227  1
  O  O66  1  0.48856802  0.32830767  0.33310457  1
  O  O67  1  0.37482512  0.52480341  0.16839380  1
  O  O68  1  0.21490093  0.78972920  0.07926687  1
  O  O69  1  0.24912882  0.75017653  0.43602262  1
  O  O70  1  0.20461176  0.78436868  0.25805999  1
  O  O71  1  0.24832773  0.66276140  0.65942193  1
  O  O72  1  0.48747902  0.17867890  0.83204760  1
  O  O73  1  0.51705686  0.10873594  0.16913929  1
  O  O74  1  0.33499352  0.47560958  0.82909425  1
  O  O75  1  0.34825476  0.32219238  0.97875774  1
  O  O76  1  0.33487914  0.32328839  0.47629446  1
  O  O77  1  0.18836720  0.48414007  0.33007266  1
  O  O78  1  0.37696041  0.10342812  0.67643159  1
  O  O79  1  0.33388885  0.18319061  0.32394004  1
  O  O80  1  0.08499604  0.65588628  0.16202043  1
  O  O81  1  0.99020375  0.79634398  0.74511199  1
  O  O82  1  0.00264587  0.79401208  0.92611282  1
  O  O83  1  0.09128369  0.52280617  0.67856346  1
  O  O84  1  0.19024967  0.32612142  0.83212626  1
  O  O85  1  0.10172360  0.37135566  0.16646749  1
  O  O86  1  0.25250418  0.07773071  0.15597487  1
  O  O87  1  0.23216183  0.98360349  0.93270156  1
  O  O88  1  0.21181928  0.99885118  0.75108247  1
  O  O89  1  0.08032836  0.25164546  0.66181745  1
  O  O90  1  0.00117830  0.24946028  0.43466242  1
  O  O91  1  0.01199558  0.20355403  0.25678494  1
