# generated using pymatgen
data_Li6MnV3(PO4)6
_symmetry_space_group_name_H-M   'P 1'
_cell_length_a   8.72693585
_cell_length_b   8.76024034
_cell_length_c   12.26272171
_cell_angle_alpha   89.95410124
_cell_angle_beta   90.76144540
_cell_angle_gamma   90.19576242
_symmetry_Int_Tables_number   1
_chemical_formula_structural   Li6MnV3(PO4)6
_chemical_formula_sum   'Li12 Mn2 V6 P12 O48'
_cell_volume   937.39722918
_cell_formula_units_Z   2
loop_
 _symmetry_equiv_pos_site_id
 _symmetry_equiv_pos_as_xyz
  1  'x, y, z'
loop_
 _atom_site_type_symbol
 _atom_site_label
 _atom_site_symmetry_multiplicity
 _atom_site_fract_x
 _atom_site_fract_y
 _atom_site_fract_z
 _atom_site_occupancy
  Li  Li0  1  0.07630636  0.09691748  0.69762163  1
  Li  Li1  1  0.08258512  0.70445406  0.75861365  1
  Li  Li2  1  0.21087389  0.77238540  0.17856115  1
  Li  Li3  1  0.28942414  0.27308075  0.32117033  1
  Li  Li4  1  0.41905519  0.20476484  0.74102878  1
  Li  Li5  1  0.42394246  0.59682718  0.80256670  1
  Li  Li6  1  0.57907578  0.40477971  0.19758255  1
  Li  Li7  1  0.58440485  0.79489494  0.25875310  1
  Li  Li8  1  0.71086283  0.72664926  0.67807971  1
  Li  Li9  1  0.78766496  0.22778227  0.82074799  1
  Li  Li10  1  0.91555787  0.29718471  0.24038923  1
  Li  Li11  1  0.92252812  0.90172956  0.30222631  1
  Mn  Mn12  1  0.74598686  0.04288593  0.61028732  1
  Mn  Mn13  1  0.75591377  0.46706943  0.39333270  1
  V  V14  1  0.24633265  0.53041930  0.61045852  1
  V  V15  1  0.24649853  0.45890219  0.11140974  1
  V  V16  1  0.25414705  0.03114024  0.88989422  1
  V  V17  1  0.25309496  0.95729763  0.38886170  1
  V  V18  1  0.74620699  0.96929050  0.10939226  1
  V  V19  1  0.75291788  0.54165808  0.88843608  1
  P  P20  1  0.03867178  0.24722965  0.49326601  1
  P  P21  1  0.10500512  0.38758627  0.85304865  1
  P  P22  1  0.10628535  0.09844623  0.14876571  1
  P  P23  1  0.39480936  0.88806942  0.64685311  1
  P  P24  1  0.39580421  0.59829339  0.35183319  1
  P  P25  1  0.46095755  0.74811933  0.00630761  1
  P  P26  1  0.53885086  0.25233348  0.99396981  1
  P  P27  1  0.60384699  0.40267311  0.65189994  1
  P  P28  1  0.60700736  0.11309272  0.35505158  1
  P  P29  1  0.89291159  0.90191161  0.84965380  1
  P  P30  1  0.89470784  0.61208695  0.14474584  1
  P  P31  1  0.95993453  0.74795300  0.50629537  1
  O  O32  1  0.04901737  0.86283260  0.43396517  1
  O  O33  1  0.06511944  0.67045636  0.59265205  1
  O  O34  1  0.06952881  0.59527615  0.16592124  1
  O  O35  1  0.07153824  0.89630334  0.84712809  1
  O  O36  1  0.11522976  0.35674415  0.57521462  1
  O  O37  1  0.14749025  0.41373058  0.97283248  1
  O  O38  1  0.14933076  0.22159748  0.81870393  1
  O  O39  1  0.15080114  0.97529031  0.23716270  1
  O  O40  1  0.15842729  0.25994092  0.18744110  1
  O  O41  1  0.16599225  0.16390237  0.42934923  1
  O  O42  1  0.17145503  0.05115035  0.04085500  1
  O  O43  1  0.19295928  0.50803600  0.78270176  1
  O  O44  1  0.30728450  0.00809439  0.71678707  1
  O  O45  1  0.32969084  0.55109497  0.45962861  1
  O  O46  1  0.33308679  0.66643055  0.07048565  1
  O  O47  1  0.34268645  0.76054008  0.31378539  1
  O  O48  1  0.35027066  0.72230109  0.68128916  1
  O  O49  1  0.34977627  0.47593179  0.26348821  1
  O  O50  1  0.35211494  0.91459914  0.52686609  1
  O  O51  1  0.38411286  0.85790197  0.92401817  1
  O  O52  1  0.42504150  0.39616333  0.65340228  1
  O  O53  1  0.43219783  0.09506083  0.33489896  1
  O  O54  1  0.43612066  0.17337904  0.90670388  1
  O  O55  1  0.44925075  0.36496502  0.06604652  1
  O  O56  1  0.55016903  0.63522649  0.93479064  1
  O  O57  1  0.56393995  0.82731884  0.09368180  1
  O  O58  1  0.57003124  0.90496913  0.66655729  1
  O  O59  1  0.57463780  0.60680647  0.34819945  1
  O  O60  1  0.61559892  0.14212830  0.07625390  1
  O  O61  1  0.64345976  0.08874010  0.47650032  1
  O  O62  1  0.64778394  0.52753401  0.73909191  1
  O  O63  1  0.65198462  0.27981581  0.32049925  1
  O  O64  1  0.65346412  0.24262926  0.69224225  1
  O  O65  1  0.66710378  0.33448279  0.93053291  1
  O  O66  1  0.67073044  0.44945662  0.54425396  1
  O  O67  1  0.69409932  0.99358949  0.28430436  1
  O  O68  1  0.80575975  0.49049833  0.21145643  1
  O  O69  1  0.82808073  0.94939810  0.95788132  1
  O  O70  1  0.83286294  0.82648715  0.56978120  1
  O  O71  1  0.84173098  0.74022067  0.81187608  1
  O  O72  1  0.84775068  0.02545139  0.76087466  1
  O  O73  1  0.85053890  0.77829311  0.18015230  1
  O  O74  1  0.85536827  0.58972742  0.02409333  1
  O  O75  1  0.88925144  0.63826664  0.41924239  1
  O  O76  1  0.92767228  0.10487789  0.15177486  1
  O  O77  1  0.93058025  0.40495976  0.83281087  1
  O  O78  1  0.93762564  0.32587729  0.40482645  1
  O  O79  1  0.94907976  0.13361357  0.56589237  1
