# generated using pymatgen
data_Li4Fe2P4H3O16
_symmetry_space_group_name_H-M   'P 1'
_cell_length_a   4.92624430
_cell_length_b   8.34875220
_cell_length_c   7.68120793
_cell_angle_alpha   88.60214259
_cell_angle_beta   103.26673027
_cell_angle_gamma   88.96492716
_symmetry_Int_Tables_number   1
_chemical_formula_structural   Li4Fe2P4H3O16
_chemical_formula_sum   'Li4 Fe2 P4 H3 O16'
_cell_volume   307.29926564
_cell_formula_units_Z   1
loop_
 _symmetry_equiv_pos_site_id
 _symmetry_equiv_pos_as_xyz
  1  'x, y, z'
loop_
 _atom_site_type_symbol
 _atom_site_label
 _atom_site_symmetry_multiplicity
 _atom_site_fract_x
 _atom_site_fract_y
 _atom_site_fract_z
 _atom_site_occupancy
  Li  Li0  1  0.12056848  0.35236183  0.67987248  1
  Li  Li1  1  0.39453131  0.87213302  0.85247734  1
  Li  Li2  1  0.58499175  0.12292420  0.15108019  1
  Li  Li3  1  0.88229906  0.64948195  0.31923803  1
  Fe  Fe4  1  0.99914265  0.99677644  0.49633503  1
  Fe  Fe5  1  0.49729030  0.50141998  0.00217339  1
  P  P6  1  0.10935957  0.33103810  0.25419846  1
  P  P7  1  0.37665711  0.84884909  0.23931640  1
  P  P8  1  0.62313083  0.15267136  0.75364344  1
  P  P9  1  0.88531034  0.66890496  0.74677461  1
  H  H10  1  0.45781719  0.39636571  0.47241825  1
  H  H11  1  0.54137814  0.61962689  0.51912131  1
  H  H12  1  0.95554744  0.01458281  0.97711825  1
  O  O13  1  0.11260644  0.54394823  0.82571614  1
  O  O14  1  0.98568150  0.17283705  0.30374185  1
  O  O15  1  0.15777953  0.82751647  0.35748720  1
  O  O16  1  0.25378422  0.40965577  0.44637129  1
  O  O17  1  0.38290636  0.04733370  0.65796090  1
  O  O18  1  0.51670739  0.31433315  0.80144268  1
  O  O19  1  0.25712944  0.94545388  0.06350499  1
  O  O20  1  0.33550649  0.30917707  0.15077906  1
  O  O21  1  0.66096108  0.69187991  0.85134920  1
  O  O22  1  0.75189021  0.05728418  0.93902918  1
  O  O23  1  0.48309395  0.68161776  0.20287333  1
  O  O24  1  0.62269297  0.94770474  0.34777729  1
  O  O25  1  0.74045584  0.58865892  0.55561606  1
  O  O26  1  0.84848943  0.17149832  0.64388830  1
  O  O27  1  0.00738420  0.82755616  0.69657334  1
  O  O28  1  0.88378777  0.45631036  0.17402204  1
