# generated using pymatgen
data_Li6V3P8O29
_symmetry_space_group_name_H-M   'P 1'
_cell_length_a   9.80872586
_cell_length_b   9.81995834
_cell_length_c   13.94888589
_cell_angle_alpha   89.83983808
_cell_angle_beta   89.86447963
_cell_angle_gamma   59.81921029
_symmetry_Int_Tables_number   1
_chemical_formula_structural   Li6V3P8O29
_chemical_formula_sum   'Li12 V6 P16 O58'
_cell_volume   1161.43889450
_cell_formula_units_Z   2
loop_
 _symmetry_equiv_pos_site_id
 _symmetry_equiv_pos_as_xyz
  1  'x, y, z'
loop_
 _atom_site_type_symbol
 _atom_site_label
 _atom_site_symmetry_multiplicity
 _atom_site_fract_x
 _atom_site_fract_y
 _atom_site_fract_z
 _atom_site_occupancy
  Li  Li0  1  0.90515483  0.76358692  0.06056795  1
  Li  Li1  1  0.77000109  0.90728279  0.56439543  1
  Li  Li2  1  0.90866586  0.32031048  0.56078260  1
  Li  Li3  1  0.66362396  0.67049003  0.88301127  1
  Li  Li4  1  0.76615058  0.32463530  0.06056946  1
  Li  Li5  1  0.32633165  0.90408727  0.06002462  1
  Li  Li6  1  0.67814243  0.22824814  0.44141885  1
  Li  Li7  1  0.32332473  0.77001217  0.56330342  1
  Li  Li8  1  0.09480558  0.67806610  0.44106244  1
  Li  Li9  1  0.22926832  0.09276076  0.43998395  1
  Li  Li10  1  0.09841204  0.23382010  0.93894814  1
  Li  Li11  1  0.98681105  0.97146062  0.99365394  1
  V  V12  1  0.56531932  0.43479975  0.24781209  1
  V  V13  1  0.43280639  0.56281020  0.75499103  1
  V  V14  1  0.56255551  0.00581010  0.75264773  1
  V  V15  1  0.43520220  0.99883861  0.24824283  1
  V  V16  1  0.99982691  0.56852639  0.24976500  1
  V  V17  1  0.00165369  0.43649267  0.74911415  1
  P  P18  1  0.90850082  0.77633303  0.84333622  1
  P  P19  1  0.76671630  0.91307520  0.34414849  1
  P  P20  1  0.91112608  0.32054969  0.34098130  1
  P  P21  1  0.66754510  0.66585904  0.12488898  1
  P  P22  1  0.66456280  0.66857363  0.62916935  1
  P  P23  1  0.77727909  0.31315946  0.84439771  1
  P  P24  1  0.68305087  0.23098770  0.65869969  1
  P  P25  1  0.31455690  0.91025356  0.84151229  1
  P  P26  1  0.69168064  0.08409096  0.15823778  1
  P  P27  1  0.31990767  0.76781163  0.34304178  1
  P  P28  1  0.22321116  0.69265873  0.15781118  1
  P  P29  1  0.33352090  0.33308099  0.36943765  1
  P  P30  1  0.33178043  0.33282624  0.87265348  1
  P  P31  1  0.08923782  0.68241259  0.65882842  1
  P  P32  1  0.23067587  0.08818850  0.65616357  1
  P  P33  1  0.08811942  0.22969113  0.15749654  1
  O  O34  1  0.99761759  0.76100674  0.56915750  1
  O  O35  1  0.91618881  0.74806489  0.34265972  1
  O  O36  1  0.79921334  0.99290369  0.07731247  1
  O  O37  1  0.74127842  0.91745996  0.83845420  1
  O  O38  1  0.89674038  0.62408176  0.83142496  1
  O  O39  1  0.81068335  0.67878363  0.16341655  1
  O  O40  1  0.90004283  0.48116581  0.32135626  1
  O  O41  1  0.00249511  0.22692222  0.06845236  1
  O  O42  1  0.92344585  0.33361290  0.84131231  1
  O  O43  1  0.66805019  0.81610779  0.67000750  1
  O  O44  1  0.61879048  0.89977876  0.32229804  1
  O  O45  1  0.81671552  0.51667826  0.67107975  1
  O  O46  1  0.66826365  0.66503400  0.01658004  1
  O  O47  1  0.66576486  0.66515632  0.52228453  1
  O  O48  1  0.68071130  0.50971126  0.16402921  1
  O  O49  1  0.48023760  0.89411338  0.82999076  1
  O  O50  1  0.51069384  0.80956219  0.16335872  1
  O  O51  1  0.74634784  0.33683527  0.34135214  1
  O  O52  1  0.79197499  0.21061574  0.75103337  1
  O  O53  1  0.76405148  0.24018090  0.56897581  1
  O  O54  1  0.77897597  0.22826368  0.93423988  1
  O  O55  1  0.62796633  0.47976552  0.83161593  1
  O  O56  1  0.51624731  0.66820635  0.67257789  1
  O  O57  1  0.66307020  0.25527766  0.16050350  1
  O  O58  1  0.48125104  0.61927246  0.32119088  1
  O  O59  1  0.33542798  0.91685119  0.34081237  1
  O  O60  1  0.78764499  0.00815185  0.25751744  1
  O  O61  1  0.75114208  0.99987870  0.43571877  1
  O  O62  1  0.23998790  0.99682381  0.56738240  1
  O  O63  1  0.66804446  0.08231560  0.65927134  1
  O  O64  1  0.52315294  0.38116978  0.67397551  1
  O  O65  1  0.33629326  0.74530661  0.84131859  1
  O  O66  1  0.48705911  0.32690907  0.32847720  1
  O  O67  1  0.37954589  0.53706517  0.16577160  1
  O  O68  1  0.20427895  0.79984342  0.07607948  1
  O  O69  1  0.24840907  0.75281635  0.43499208  1
  O  O70  1  0.20326939  0.78848395  0.25684868  1
  O  O71  1  0.25254238  0.66834980  0.65939451  1
  O  O72  1  0.47875896  0.18607932  0.82670537  1
  O  O73  1  0.53584988  0.08472366  0.16685425  1
  O  O74  1  0.33326996  0.48004884  0.82898457  1
  O  O75  1  0.32680307  0.32809191  0.97861841  1
  O  O76  1  0.33485054  0.33145119  0.47657307  1
  O  O77  1  0.18566540  0.48902024  0.33084200  1
  O  O78  1  0.38055645  0.09723840  0.67122483  1
  O  O79  1  0.32638164  0.18654465  0.32861285  1
  O  O80  1  0.08096830  0.66320826  0.16123751  1
  O  O81  1  0.00020734  0.79003495  0.75104410  1
  O  O82  1  0.99072818  0.77815124  0.93343822  1
  O  O83  1  0.10347486  0.52035767  0.67410419  1
  O  O84  1  0.18166194  0.33203505  0.82985529  1
  O  O85  1  0.09528025  0.37987179  0.17104294  1
  O  O86  1  0.25587694  0.08143322  0.16013346  1
  O  O87  1  0.22874322  0.00236001  0.93014815  1
  O  O88  1  0.20951529  0.00088114  0.74923640  1
  O  O89  1  0.08173639  0.25262633  0.65637257  1
  O  O90  1  0.00145742  0.24414682  0.43099432  1
  O  O91  1  0.00059931  0.20894541  0.25028291  1
