# generated using pymatgen
data_Li4Fe3Cu(PO4)4
_symmetry_space_group_name_H-M   'P 1'
_cell_length_a   4.75713520
_cell_length_b   10.33610630
_cell_length_c   6.09773310
_cell_angle_alpha   90.00000000
_cell_angle_beta   90.00000000
_cell_angle_gamma   91.12611036
_symmetry_Int_Tables_number   1
_chemical_formula_structural   Li4Fe3Cu(PO4)4
_chemical_formula_sum   'Li4 Fe3 Cu1 P4 O16'
_cell_volume   299.76918354
_cell_formula_units_Z   1
loop_
 _symmetry_equiv_pos_site_id
 _symmetry_equiv_pos_as_xyz
  1  'x, y, z'
loop_
 _atom_site_type_symbol
 _atom_site_label
 _atom_site_symmetry_multiplicity
 _atom_site_fract_x
 _atom_site_fract_y
 _atom_site_fract_z
 _atom_site_occupancy
  Li  Li0  1  0.99675525  0.99620525  0.00009554  1
  Li  Li1  1  0.99675525  0.99620525  0.49990446  1
  Li  Li2  1  0.50066973  0.50208565  0.49852650  1
  Li  Li3  1  0.50066973  0.50208565  0.00147350  1
  Fe  Fe4  1  0.47370863  0.21801512  0.75000000  1
  Fe  Fe5  1  0.51915723  0.78013303  0.25000000  1
  Fe  Fe6  1  0.97295247  0.28091558  0.25000000  1
  Cu  Cu7  1  0.04857325  0.71398132  0.75000000  1
  P  P8  1  0.07869458  0.59366044  0.25000000  1
  P  P9  1  0.41346387  0.09462572  0.25000000  1
  P  P10  1  0.58340394  0.90095034  0.75000000  1
  P  P11  1  0.92358421  0.40917022  0.75000000  1
  O  O12  1  0.20536269  0.45626452  0.25000000  1
  O  O13  1  0.21648963  0.66697100  0.04980815  1
  O  O14  1  0.21648963  0.66697100  0.45019185  1
  O  O15  1  0.24598236  0.40566340  0.75000000  1
  O  O16  1  0.25589182  0.89286012  0.75000000  1
  O  O17  1  0.28270411  0.16597670  0.04744668  1
  O  O18  1  0.28270411  0.16597670  0.45255332  1
  O  O19  1  0.28600794  0.95585426  0.25000000  1
  O  O20  1  0.69796029  0.04335275  0.75000000  1
  O  O21  1  0.71400951  0.83563811  0.54434762  1
  O  O22  1  0.71400951  0.83563811  0.95565238  1
  O  O23  1  0.73717018  0.09783068  0.25000000  1
  O  O24  1  0.75732646  0.59379927  0.25000000  1
  O  O25  1  0.78439019  0.33924307  0.54793157  1
  O  O26  1  0.78439019  0.33924307  0.95206843  1
  O  O27  1  0.81072027  0.55068369  0.75000000  1
