# generated using pymatgen
data_Li3V2P4(HO8)2
_symmetry_space_group_name_H-M   'P 1'
_cell_length_a   13.76384842
_cell_length_b   8.07557402
_cell_length_c   7.88652603
_cell_angle_alpha   90.08142164
_cell_angle_beta   100.15941527
_cell_angle_gamma   89.66756087
_symmetry_Int_Tables_number   1
_chemical_formula_structural   Li3V2P4(HO8)2
_chemical_formula_sum   'Li9 V6 P12 H6 O48'
_cell_volume   862.83616357
_cell_formula_units_Z   3
loop_
 _symmetry_equiv_pos_site_id
 _symmetry_equiv_pos_as_xyz
  1  'x, y, z'
loop_
 _atom_site_type_symbol
 _atom_site_label
 _atom_site_symmetry_multiplicity
 _atom_site_fract_x
 _atom_site_fract_y
 _atom_site_fract_z
 _atom_site_occupancy
  Li  Li0  1  0.17930092  0.86738238  0.02416324  1
  Li  Li1  1  0.14741683  0.12881364  0.30319668  1
  Li  Li2  1  0.15177347  0.36585989  0.79777430  1
  Li  Li3  1  0.51489789  0.86935153  0.35989412  1
  Li  Li4  1  0.48361945  0.13654757  0.63672423  1
  Li  Li5  1  0.51702144  0.63784289  0.87015618  1
  Li  Li6  1  0.85025981  0.62915520  0.19755967  1
  Li  Li7  1  0.81806991  0.37239415  0.47101760  1
  Li  Li8  1  0.84787349  0.86728699  0.70146309  1
  V  V9  1  0.16542249  0.50154816  0.17734509  1
  V  V10  1  0.16953874  0.99275879  0.66419637  1
  V  V11  1  0.50022391  0.50302035  0.49598346  1
  V  V12  1  0.49920019  0.00874282  0.00162411  1
  V  V13  1  0.83405346  0.00242644  0.32251145  1
  V  V14  1  0.83228305  0.49567889  0.83582925  1
  P  P15  1  0.04445909  0.84699279  0.27391672  1
  P  P16  1  0.04537959  0.64977188  0.78578706  1
  P  P17  1  0.28889943  0.15709992  0.05319416  1
  P  P18  1  0.37678398  0.65519717  0.11755387  1
  P  P19  1  0.28799805  0.35098300  0.55389163  1
  P  P20  1  0.38011630  0.85117151  0.61143728  1
  P  P21  1  0.62432641  0.15848911  0.38923108  1
  P  P22  1  0.71245093  0.65500296  0.44367618  1
  P  P23  1  0.62173259  0.35097281  0.88407187  1
  P  P24  1  0.71207211  0.85012086  0.94670057  1
  P  P25  1  0.95576270  0.34636473  0.22622254  1
  P  P26  1  0.95446291  0.14981402  0.71277696  1
  H  H27  1  0.00867046  0.50680511  0.52627543  1
  H  H28  1  0.32823053  0.01268759  0.31825272  1
  H  H29  1  0.33855814  0.51014251  0.85031990  1
  H  H30  1  0.65958167  0.49475390  0.14469801  1
  H  H31  1  0.66318878  0.00828772  0.65718936  1
  H  H32  1  0.99072791  0.00824157  0.97213042  1
  O  O33  1  0.06366467  0.94562286  0.11639652  1
  O  O34  1  0.06843263  0.32757685  0.21750541  1
  O  O35  1  0.08877113  0.67089732  0.26934613  1
  O  O36  1  0.09361298  0.94640491  0.43283103  1
  O  O37  1  0.06410290  0.54306109  0.62929774  1
  O  O38  1  0.23424559  0.32489436  0.05176155  1
  O  O39  1  0.06549893  0.16945885  0.71033137  1
  O  O40  1  0.26532676  0.67401205  0.12330479  1
  O  O41  1  0.09862025  0.81512231  0.79000411  1
  O  O42  1  0.27053920  0.06144754  0.21960386  1
  O  O43  1  0.09570549  0.54324490  0.94451552  1
  O  O44  1  0.24075398  0.45416751  0.38812649  1
  O  O45  1  0.23419489  0.18393402  0.53897852  1
  O  O46  1  0.39844450  0.17551878  0.04750449  1
  O  O47  1  0.27097950  0.82936881  0.62349803  1
  O  O48  1  0.27380976  0.43894774  0.71899556  1
  O  O49  1  0.43079469  0.82076255  0.12382851  1
  O  O50  1  0.23657168  0.04837999  0.90336940  1
  O  O51  1  0.42543140  0.55319745  0.27986290  1
  O  O52  1  0.39768604  0.94509768  0.44888284  1
  O  O53  1  0.39955536  0.33152751  0.53986606  1
  O  O54  1  0.43441968  0.68020593  0.61856741  1
  O  O55  1  0.60347160  0.45523091  0.04269018  1
  O  O56  1  0.43081772  0.95762084  0.76617175  1
  O  O57  1  0.57330643  0.05238486  0.23799037  1
  O  O58  1  0.39377622  0.56537140  0.95022025  1
  O  O59  1  0.57559080  0.32915126  0.39989031  1
  O  O60  1  0.59968016  0.67627321  0.45099689  1
  O  O61  1  0.60639331  0.05915195  0.55269676  1
  O  O62  1  0.56801054  0.45843030  0.72573895  1
  O  O63  1  0.75922007  0.95402813  0.11284672  1
  O  O64  1  0.56809228  0.18585024  0.87746727  1
  O  O65  1  0.73012203  0.55866786  0.28369140  1
  O  O66  1  0.73539322  0.17715354  0.38087943  1
  O  O67  1  0.60160071  0.83082503  0.95875020  1
  O  O68  1  0.76355084  0.82657895  0.44944767  1
  O  O69  1  0.75999801  0.55147406  0.60170196  1
  O  O70  1  0.90665026  0.44643898  0.06763081  1
  O  O71  1  0.72753472  0.93991973  0.78322601  1
  O  O72  1  0.91191799  0.17078590  0.23062411  1
  O  O73  1  0.73044316  0.33235067  0.87308543  1
  O  O74  1  0.93200687  0.82810930  0.28147478  1
  O  O75  1  0.76748567  0.68377347  0.96128769  1
  O  O76  1  0.93728340  0.44494900  0.38453920  1
  O  O77  1  0.90474318  0.04243752  0.55480618  1
  O  O78  1  0.90067830  0.31567200  0.70790124  1
  O  O79  1  0.93445770  0.67092566  0.78924546  1
  O  O80  1  0.93550220  0.04421742  0.86980315  1
