# generated using pymatgen
data_Li8Fe9CoO20
_symmetry_space_group_name_H-M   'P 1'
_cell_length_a   21.35881386
_cell_length_b   2.95617140
_cell_length_c   5.96841909
_cell_angle_alpha   90.00000000
_cell_angle_beta   82.30724529
_cell_angle_gamma   90.00000000
_symmetry_Int_Tables_number   1
_chemical_formula_structural   Li8Fe9CoO20
_chemical_formula_sum   'Li8 Fe9 Co1 O20'
_cell_volume   373.45627945
_cell_formula_units_Z   1
loop_
 _symmetry_equiv_pos_site_id
 _symmetry_equiv_pos_as_xyz
  1  'x, y, z'
loop_
 _atom_site_type_symbol
 _atom_site_label
 _atom_site_symmetry_multiplicity
 _atom_site_fract_x
 _atom_site_fract_y
 _atom_site_fract_z
 _atom_site_occupancy
  Li  Li0  1  0.10087432  0.50000000  0.20080163  1
  Li  Li1  1  0.20145472  -0.00000000  0.39873603  1
  Li  Li2  1  0.30244298  0.50000000  0.60374002  1
  Li  Li3  1  0.49755702  0.50000000  0.99625998  1
  Li  Li4  1  0.59854528  -0.00000000  0.20126397  1
  Li  Li5  1  0.69912568  0.50000000  0.39919837  1
  Li  Li6  1  0.80489186  -0.00000000  0.60255168  1
  Li  Li7  1  0.99510814  -0.00000000  0.99744832  1
  Fe  Fe8  1  0.09909829  0.50000000  0.69737865  1
  Fe  Fe9  1  0.19878603  0.00000000  0.90028315  1
  Fe  Fe10  1  0.30135056  0.50000000  0.08977963  1
  Fe  Fe11  1  0.40000000  -0.00000000  0.30000000  1
  Fe  Fe12  1  0.49864944  0.50000000  0.51022037  1
  Fe  Fe13  1  0.60121397  -0.00000000  0.69971685  1
  Fe  Fe14  1  0.70090171  0.50000000  0.90262135  1
  Fe  Fe15  1  0.80481752  -0.00000000  0.08524514  1
  Fe  Fe16  1  0.99518248  -0.00000000  0.51475486  1
  Co  Co17  1  0.90000000  0.50000000  0.30000000  1
  O  O18  1  0.00324988  0.50000000  0.73727573  1
  O  O19  1  0.09410649  -0.00000000  0.46121688  1
  O  O20  1  0.10163212  -0.00000000  0.93677447  1
  O  O21  1  0.20225106  0.50000000  0.13603880  1
  O  O22  1  0.19590957  0.50000000  0.66265148  1
  O  O23  1  0.30248568  -0.00000000  0.32930615  1
  O  O24  1  0.29436869  -0.00000000  0.86246238  1
  O  O25  1  0.39838770  0.50000000  0.08409398  1
  O  O26  1  0.40161230  0.50000000  0.51590602  1
  O  O27  1  0.49751432  -0.00000000  0.27069385  1
  O  O28  1  0.50563131  -0.00000000  0.73753762  1
  O  O29  1  0.59774894  0.50000000  0.46396120  1
  O  O30  1  0.60409043  0.50000000  0.93734852  1
  O  O31  1  0.70589351  -0.00000000  0.13878312  1
  O  O32  1  0.69836788  -0.00000000  0.66322553  1
  O  O33  1  0.80999044  0.50000000  0.32662982  1
  O  O34  1  0.79675012  0.50000000  0.86272427  1
  O  O35  1  0.89965051  -0.00000000  0.09461200  1
  O  O36  1  0.90034949  -0.00000000  0.50538800  1
  O  O37  1  0.99000956  0.50000000  0.27337018  1
