# generated using pymatgen
data_Li6V3P8O29
_symmetry_space_group_name_H-M   'P 1'
_cell_length_a   9.84540819
_cell_length_b   9.84008613
_cell_length_c   13.93896778
_cell_angle_alpha   90.09501792
_cell_angle_beta   89.96738546
_cell_angle_gamma   60.03894615
_symmetry_Int_Tables_number   1
_chemical_formula_structural   Li6V3P8O29
_chemical_formula_sum   'Li12 V6 P16 O58'
_cell_volume   1169.93844888
_cell_formula_units_Z   2
loop_
 _symmetry_equiv_pos_site_id
 _symmetry_equiv_pos_as_xyz
  1  'x, y, z'
loop_
 _atom_site_type_symbol
 _atom_site_label
 _atom_site_symmetry_multiplicity
 _atom_site_fract_x
 _atom_site_fract_y
 _atom_site_fract_z
 _atom_site_occupancy
  Li  Li0  1  0.90651503  0.77339049  0.06559030  1
  Li  Li1  1  0.77140564  0.91340807  0.55698892  1
  Li  Li2  1  0.90641171  0.31983568  0.55510753  1
  Li  Li3  1  0.66708344  0.66641322  0.88474667  1
  Li  Li4  1  0.77355790  0.31943807  0.06635366  1
  Li  Li5  1  0.32027533  0.90574616  0.06548505  1
  Li  Li6  1  0.32186223  0.77156431  0.55728875  1
  Li  Li7  1  0.68106839  0.09383743  0.94333796  1
  Li  Li8  1  0.22706927  0.67775878  0.94244160  1
  Li  Li9  1  0.09411458  0.67813548  0.43650569  1
  Li  Li10  1  0.22647773  0.09685475  0.43707843  1
  Li  Li11  1  0.09438575  0.22590874  0.94221334  1
  V  V12  1  0.56442635  0.43052952  0.25448662  1
  V  V13  1  0.43383003  0.56395437  0.74672856  1
  V  V14  1  0.56412182  0.00277086  0.74940065  1
  V  V15  1  0.43420980  0.00003003  0.25144238  1
  V  V16  1  0.00001198  0.56635260  0.25082649  1
  V  V17  1  0.00073935  0.43323227  0.74987638  1
  P  P18  1  0.91039082  0.77119492  0.84275924  1
  P  P19  1  0.76879816  0.91223434  0.34208732  1
  P  P20  1  0.91094492  0.31910983  0.34086160  1
  P  P21  1  0.66600778  0.66516484  0.12614696  1
  P  P22  1  0.66669132  0.66811003  0.62735147  1
  P  P23  1  0.76950242  0.31952287  0.84350750  1
  P  P24  1  0.68679079  0.22899956  0.65682468  1
  P  P25  1  0.31956473  0.90921055  0.84123824  1
  P  P26  1  0.68063461  0.08781488  0.15813615  1
  P  P27  1  0.31966507  0.76885853  0.34116807  1
  P  P28  1  0.23273695  0.67922716  0.15868571  1
  P  P29  1  0.33112817  0.33497975  0.37298297  1
  P  P30  1  0.33186487  0.33374205  0.87324055  1
  P  P31  1  0.08684316  0.68069619  0.65806558  1
  P  P32  1  0.23118692  0.08773208  0.65722389  1
  P  P33  1  0.09002569  0.23117740  0.15839586  1
  O  O34  1  0.99802072  0.75877194  0.56856645  1
  O  O35  1  0.91652400  0.74622490  0.33881388  1
  O  O36  1  0.76144567  0.99739089  0.06820158  1
  O  O37  1  0.74759790  0.92022461  0.84348761  1
  O  O38  1  0.88769590  0.62713425  0.82575658  1
  O  O39  1  0.81256110  0.67276272  0.16333273  1
  O  O40  1  0.90567822  0.47811969  0.32270458  1
  O  O41  1  0.00240233  0.23723782  0.06828528  1
  O  O42  1  0.91938679  0.33344466  0.84244888  1
  O  O43  1  0.66809823  0.81748771  0.67117031  1
  O  O44  1  0.61834197  0.90141679  0.32182064  1
  O  O45  1  0.81574717  0.51710083  0.66932989  1
  O  O46  1  0.66668122  0.66379311  0.01729912  1
  O  O47  1  0.66903871  0.67018527  0.52091241  1
  O  O48  1  0.67074261  0.51275043  0.16504158  1
  O  O49  1  0.48559302  0.88772553  0.82635550  1
  O  O50  1  0.51244180  0.81242411  0.16337788  1
  O  O51  1  0.74723307  0.34194474  0.33922425  1
  O  O52  1  0.78602773  0.20976525  0.75420484  1
  O  O53  1  0.76995493  0.24136190  0.57213120  1
  O  O54  1  0.75654097  0.24377153  0.93377091  1
  O  O55  1  0.62705207  0.48549913  0.82540121  1
  O  O56  1  0.51420416  0.67242677  0.66691366  1
  O  O57  1  0.66705190  0.25028655  0.15878087  1
  O  O58  1  0.48044867  0.62295389  0.32458508  1
  O  O59  1  0.33316362  0.91896860  0.34135192  1
  O  O60  1  0.78999657  0.99837361  0.24982089  1
  O  O61  1  0.75926413  0.99410417  0.43318179  1
  O  O62  1  0.24282592  0.99726324  0.56785065  1
  O  O63  1  0.66404479  0.08555623  0.65820671  1
  O  O64  1  0.52570604  0.38251013  0.67639105  1
  O  O65  1  0.33586764  0.74351427  0.84008171  1
  O  O66  1  0.48001367  0.33305103  0.32714116  1
  O  O67  1  0.38166517  0.52178529  0.17261013  1
  O  O68  1  0.23779555  0.76126276  0.06845827  1
  O  O69  1  0.24067980  0.75797309  0.43113936  1
  O  O70  1  0.20889936  0.79100937  0.24989798  1
  O  O71  1  0.25114620  0.66566633  0.65946951  1
  O  O72  1  0.48306881  0.18232046  0.83065721  1
  O  O73  1  0.52192296  0.09854708  0.17465852  1
  O  O74  1  0.32899192  0.48322528  0.83273717  1
  O  O75  1  0.33444843  0.32816711  0.97975872  1
  O  O76  1  0.32926890  0.33752865  0.47969826  1
  O  O77  1  0.18477534  0.48928803  0.33287735  1
  O  O78  1  0.37922054  0.09975245  0.67424980  1
  O  O79  1  0.32664989  0.18637324  0.33352638  1
  O  O80  1  0.08400070  0.66230691  0.16023666  1
  O  O81  1  0.99913673  0.78943632  0.75064282  1
  O  O82  1  0.00254634  0.75502697  0.93198209  1
  O  O83  1  0.09774785  0.52111157  0.67531145  1
  O  O84  1  0.18244702  0.32995687  0.83221537  1
  O  O85  1  0.10167313  0.37823079  0.17433720  1
  O  O86  1  0.25496937  0.08189371  0.16030075  1
  O  O87  1  0.24229000  0.99852561  0.93123221  1
  O  O88  1  0.21243648  0.99769792  0.75005028  1
  O  O89  1  0.08193359  0.25017844  0.65938681  1
  O  O90  1  0.00288139  0.24316057  0.43030844  1
  O  O91  1  0.00187261  0.20912508  0.24948070  1
