# generated using pymatgen
data_Li6MnV3(PO4)6
_symmetry_space_group_name_H-M   'P 1'
_cell_length_a   8.71987101
_cell_length_b   12.23566486
_cell_length_c   8.73978187
_cell_angle_alpha   90.39989034
_cell_angle_beta   89.78956784
_cell_angle_gamma   91.13436427
_symmetry_Int_Tables_number   1
_chemical_formula_structural   Li6MnV3(PO4)6
_chemical_formula_sum   'Li12 Mn2 V6 P12 O48'
_cell_volume   932.26593009
_cell_formula_units_Z   2
loop_
 _symmetry_equiv_pos_site_id
 _symmetry_equiv_pos_as_xyz
  1  'x, y, z'
loop_
 _atom_site_type_symbol
 _atom_site_label
 _atom_site_symmetry_multiplicity
 _atom_site_fract_x
 _atom_site_fract_y
 _atom_site_fract_z
 _atom_site_occupancy
  Li  Li0  1  0.07447603  0.69731689  0.08201960  1
  Li  Li1  1  0.08309103  0.76217824  0.69742776  1
  Li  Li2  1  0.20862807  0.17357600  0.78009888  1
  Li  Li3  1  0.29020782  0.32408615  0.28131773  1
  Li  Li4  1  0.41620983  0.73846258  0.19725471  1
  Li  Li5  1  0.42605006  0.80375854  0.58384173  1
  Li  Li6  1  0.57512256  0.19801742  0.42071352  1
  Li  Li7  1  0.58425409  0.26093996  0.80132391  1
  Li  Li8  1  0.70705577  0.67414897  0.71666054  1
  Li  Li9  1  0.79268208  0.82576088  0.21809425  1
  Li  Li10  1  0.91885952  0.23656848  0.30383188  1
  Li  Li11  1  0.92566366  0.30175192  0.91703092  1
  Mn  Mn12  1  0.24722151  0.10776780  0.46145677  1
  Mn  Mn13  1  0.75446314  0.39411336  0.46630638  1
  V  V14  1  0.24790925  0.60908410  0.53020809  1
  V  V15  1  0.25266964  0.89154126  0.03032364  1
  V  V16  1  0.25205280  0.38937163  0.96003316  1
  V  V17  1  0.74665681  0.61042433  0.03810932  1
  V  V18  1  0.75285501  0.89029673  0.53872594  1
  V  V19  1  0.74699459  0.10922299  0.97039461  1
  P  P20  1  0.03620083  0.49331557  0.24774972  1
  P  P21  1  0.10388266  0.85255985  0.38348048  1
  P  P22  1  0.10478217  0.15066214  0.10193980  1
  P  P23  1  0.39602253  0.35090796  0.60289532  1
  P  P24  1  0.39597389  0.64785282  0.88311646  1
  P  P25  1  0.46415777  0.00664438  0.75202713  1
  P  P26  1  0.53641363  0.99216591  0.25365753  1
  P  P27  1  0.60310274  0.35266157  0.11745546  1
  P  P28  1  0.60410796  0.65164523  0.39577646  1
  P  P29  1  0.89447979  0.85091101  0.89500756  1
  P  P30  1  0.89714622  0.14551499  0.61589444  1
  P  P31  1  0.96251207  0.50671333  0.75050652  1
  O  O32  1  0.04752883  0.43445543  0.86625161  1
  O  O33  1  0.07335932  0.85224663  0.88531350  1
  O  O34  1  0.06879341  0.59664947  0.68119821  1
  O  O35  1  0.07242312  0.16775541  0.59568800  1
  O  O36  1  0.10682422  0.57200720  0.36631487  1
  O  O37  1  0.14337394  0.81810397  0.21534046  1
  O  O38  1  0.13902429  0.97481399  0.40854042  1
  O  O39  1  0.14401173  0.23941726  0.97706439  1
  O  O40  1  0.15655005  0.19219093  0.26091118  1
  O  O41  1  0.16918256  0.43218109  0.16795553  1
  O  O42  1  0.17313588  0.04367267  0.05059070  1
  O  O43  1  0.19508103  0.78315531  0.50116668  1
  O  O44  1  0.30429999  0.71841982  0.00097335  1
  O  O45  1  0.32896364  0.45742931  0.55150104  1
  O  O46  1  0.33140630  0.06734980  0.67862510  1
  O  O47  1  0.34081604  0.31363146  0.76460752  1
  O  O48  1  0.35244277  0.52776397  0.91153569  1
  O  O49  1  0.35753581  0.68118767  0.71513519  1
  O  O50  1  0.35480336  0.25992170  0.48113246  1
  O  O51  1  0.39758599  0.92526950  0.86983967  1
  O  O52  1  0.43030912  0.90245290  0.18384963  1
  O  O53  1  0.42514045  0.64962256  0.38489313  1
  O  O54  1  0.42903928  0.33174224  0.09549580  1
  O  O55  1  0.45108958  0.06621882  0.36976580  1
  O  O56  1  0.54877807  0.93488305  0.63398692  1
  O  O57  1  0.57012285  0.66828634  0.90373211  1
  O  O58  1  0.57545961  0.35199857  0.61404222  1
  O  O59  1  0.57274490  0.09621776  0.82196247  1
  O  O60  1  0.60765468  0.07083030  0.13601308  1
  O  O61  1  0.64173834  0.74329360  0.51746146  1
  O  O62  1  0.64144997  0.31967386  0.28634273  1
  O  O63  1  0.64633632  0.47243631  0.08947210  1
  O  O64  1  0.65905393  0.68886060  0.23394802  1
  O  O65  1  0.66993574  0.93228666  0.33267509  1
  O  O66  1  0.67290383  0.54769927  0.45150574  1
  O  O67  1  0.69439487  0.28155966  0.99984036  1
  O  O68  1  0.80491699  0.21106366  0.49721049  1
  O  O69  1  0.82628888  0.95695462  0.94922691  1
  O  O70  1  0.82933645  0.56730382  0.82991116  1
  O  O71  1  0.84009984  0.81229030  0.73352550  1
  O  O72  1  0.85487280  0.76048328  0.01668948  1
  O  O73  1  0.85827410  0.02397534  0.59253097  1
  O  O74  1  0.85830748  0.18082736  0.78391149  1
  O  O75  1  0.89583852  0.42417607  0.63240173  1
  O  O76  1  0.92953873  0.83084828  0.40424204  1
  O  O77  1  0.93052426  0.40210651  0.31732109  1
  O  O78  1  0.92557262  0.14862669  0.11048915  1
  O  O79  1  0.95123199  0.56571293  0.13318657  1
