# generated using pymatgen
data_Li2MnCo3O8
_symmetry_space_group_name_H-M   'P 1'
_cell_length_a   8.12766325
_cell_length_b   8.11419466
_cell_length_c   8.11717427
_cell_angle_alpha   89.91389484
_cell_angle_beta   89.91071697
_cell_angle_gamma   89.96817588
_symmetry_Int_Tables_number   1
_chemical_formula_structural   Li2MnCo3O8
_chemical_formula_sum   'Li8 Mn4 Co12 O32'
_cell_volume   535.32177567
_cell_formula_units_Z   4
loop_
 _symmetry_equiv_pos_site_id
 _symmetry_equiv_pos_as_xyz
  1  'x, y, z'
loop_
 _atom_site_type_symbol
 _atom_site_label
 _atom_site_symmetry_multiplicity
 _atom_site_fract_x
 _atom_site_fract_y
 _atom_site_fract_z
 _atom_site_occupancy
  Li  Li0  1  0.99734897  0.99641925  0.99911560  1
  Li  Li1  1  0.25180448  0.25075006  0.25386058  1
  Li  Li2  1  0.24746110  0.74861877  0.75137040  1
  Li  Li3  1  0.50232704  0.00107459  0.49601297  1
  Li  Li4  1  0.49706954  0.50495548  0.00426378  1
  Li  Li5  1  0.75369778  0.24554098  0.74594179  1
  Li  Li6  1  0.74812799  0.75344543  0.24921018  1
  Li  Li7  1  0.00222463  0.49876394  0.50065709  1
  Mn  Mn8  1  0.12498762  0.87512463  0.37507429  1
  Mn  Mn9  1  0.37506060  0.12169560  0.87487685  1
  Mn  Mn10  1  0.62506969  0.62728288  0.62286978  1
  Mn  Mn11  1  0.87534464  0.37497231  0.12900812  1
  Co  Co12  1  0.12389298  0.12429790  0.62439836  1
  Co  Co13  1  0.12424560  0.37500809  0.87456232  1
  Co  Co14  1  0.12568690  0.62524628  0.12581572  1
  Co  Co15  1  0.37513770  0.37554778  0.62285838  1
  Co  Co16  1  0.37452829  0.62569995  0.37432948  1
  Co  Co17  1  0.37453584  0.87448802  0.12557827  1
  Co  Co18  1  0.62496688  0.37518666  0.37479518  1
  Co  Co19  1  0.62504711  0.12435853  0.12605264  1
  Co  Co20  1  0.62523744  0.87503603  0.87511300  1
  Co  Co21  1  0.87557885  0.12440807  0.37542151  1
  Co  Co22  1  0.87544478  0.87546208  0.62481199  1
  Co  Co23  1  0.87538251  0.62662074  0.87480836  1
  O  O24  1  0.11187686  0.11263749  0.38905926  1
  O  O25  1  0.11180985  0.88816450  0.61280550  1
  O  O26  1  0.11045208  0.60783110  0.88887247  1
  O  O27  1  0.13622941  0.14089035  0.86346803  1
  O  O28  1  0.11154189  0.38631833  0.10968347  1
  O  O29  1  0.14054479  0.36014925  0.64128335  1
  O  O30  1  0.13840493  0.63721561  0.36138047  1
  O  O31  1  0.13784073  0.86115437  0.13733396  1
  O  O32  1  0.36287893  0.14161080  0.63654906  1
  O  O33  1  0.35877054  0.36477987  0.85953360  1
  O  O34  1  0.35934723  0.64004272  0.14022567  1
  O  O35  1  0.38799852  0.60867228  0.61463914  1
  O  O36  1  0.36230620  0.86157328  0.36134972  1
  O  O37  1  0.38925189  0.38666183  0.39308670  1
  O  O38  1  0.39065836  0.11369784  0.11186525  1
  O  O39  1  0.38756973  0.88792865  0.88682303  1
  O  O40  1  0.61010078  0.38759988  0.61172909  1
  O  O41  1  0.61259910  0.61214067  0.38750673  1
  O  O42  1  0.61145747  0.89248833  0.11211801  1
  O  O43  1  0.63929265  0.36075518  0.13598328  1
  O  O44  1  0.61173227  0.11384055  0.88947825  1
  O  O45  1  0.63947436  0.13809979  0.35782303  1
  O  O46  1  0.63745108  0.86256480  0.63802222  1
  O  O47  1  0.64067632  0.63892358  0.86287446  1
  O  O48  1  0.86263583  0.36365731  0.36035265  1
  O  O49  1  0.85939013  0.13941949  0.13629727  1
  O  O50  1  0.85991905  0.85728248  0.86349900  1
  O  O51  1  0.88758200  0.88864709  0.38855236  1
  O  O52  1  0.86297848  0.63467241  0.64215110  1
  O  O53  1  0.89049897  0.10972520  0.60975375  1
  O  O54  1  0.89131647  0.38902078  0.88690737  1
  O  O55  1  0.88520413  0.61196812  0.10832811  1
