# generated using pymatgen
data_K3TlPCO7
_symmetry_space_group_name_H-M   'P 1'
_cell_length_a   10.16954923
_cell_length_b   7.47971497
_cell_length_c   5.76042081
_cell_angle_alpha   90.00000000
_cell_angle_beta   91.23130187
_cell_angle_gamma   90.00000000
_symmetry_Int_Tables_number   1
_chemical_formula_structural   K3TlPCO7
_chemical_formula_sum   'K6 Tl2 P2 C2 O14'
_cell_volume   438.06713125
_cell_formula_units_Z   2
loop_
 _symmetry_equiv_pos_site_id
 _symmetry_equiv_pos_as_xyz
  1  'x, y, z'
loop_
 _atom_site_type_symbol
 _atom_site_label
 _atom_site_symmetry_multiplicity
 _atom_site_fract_x
 _atom_site_fract_y
 _atom_site_fract_z
 _atom_site_occupancy
  K  K0  1  0.08180933  0.25000000  0.76170077  1
  K  K1  1  0.25818823  0.00028183  0.25131469  1
  K  K2  1  0.25818823  0.49971817  0.25131469  1
  K  K3  1  0.74181177  0.50028183  0.74868531  1
  K  K4  1  0.74181177  0.99971817  0.74868531  1
  K  K5  1  0.91819067  0.75000000  0.23829923  1
  Tl  Tl6  1  0.37046228  0.75000000  0.76887323  1
  Tl  Tl7  1  0.62953772  0.25000000  0.23112677  1
  P  P8  1  0.41139353  0.25000000  0.70557030  1
  P  P9  1  0.58860647  0.75000000  0.29442970  1
  C  C10  1  0.06509287  0.75000000  0.73878619  1
  C  C11  1  0.93490713  0.25000000  0.26121381  1
  O  O12  1  0.06267480  0.25000000  0.27296576  1
  O  O13  1  0.12577104  0.75000000  0.94122571  1
  O  O14  1  0.13258575  0.75000000  0.54792243  1
  O  O15  1  0.32874582  0.08447645  0.78359131  1
  O  O16  1  0.32874582  0.41552355  0.78359131  1
  O  O17  1  0.41871981  0.25000000  0.43419201  1
  O  O18  1  0.44624391  0.75000000  0.19077432  1
  O  O19  1  0.55375609  0.25000000  0.80922568  1
  O  O20  1  0.58128019  0.75000000  0.56580799  1
  O  O21  1  0.67125418  0.58447645  0.21640869  1
  O  O22  1  0.67125418  0.91552355  0.21640869  1
  O  O23  1  0.86741425  0.25000000  0.45207757  1
  O  O24  1  0.87422896  0.25000000  0.05877429  1
  O  O25  1  0.93732520  0.75000000  0.72703424  1
