# generated using pymatgen
data_KTiF4
_symmetry_space_group_name_H-M   'P 1'
_cell_length_a   8.04886505
_cell_length_b   8.57887897
_cell_length_c   12.43862053
_cell_angle_alpha   90.00000000
_cell_angle_beta   90.00000000
_cell_angle_gamma   90.00000000
_symmetry_Int_Tables_number   1
_chemical_formula_structural   KTiF4
_chemical_formula_sum   'K8 Ti8 F32'
_cell_volume   858.88972179
_cell_formula_units_Z   8
loop_
 _symmetry_equiv_pos_site_id
 _symmetry_equiv_pos_as_xyz
  1  'x, y, z'
loop_
 _atom_site_type_symbol
 _atom_site_label
 _atom_site_symmetry_multiplicity
 _atom_site_fract_x
 _atom_site_fract_y
 _atom_site_fract_z
 _atom_site_occupancy
  K  K0  1  0.12340576  0.25000000  0.94100862  1
  K  K1  1  0.12241275  0.25000000  0.55466247  1
  K  K2  1  0.37758725  0.75000000  0.05466247  1
  K  K3  1  0.37659424  0.75000000  0.44100862  1
  K  K4  1  0.62340576  0.25000000  0.55899138  1
  K  K5  1  0.62241275  0.25000000  0.94533753  1
  K  K6  1  0.87758725  0.75000000  0.44533753  1
  K  K7  1  0.87659424  0.75000000  0.05899138  1
  Ti  Ti8  1  0.12710763  0.05735501  0.24911645  1
  Ti  Ti9  1  0.12710763  0.44264499  0.24911645  1
  Ti  Ti10  1  0.37289237  0.55735501  0.74911645  1
  Ti  Ti11  1  0.37289237  0.94264499  0.74911645  1
  Ti  Ti12  1  0.62710763  0.05735501  0.25088355  1
  Ti  Ti13  1  0.62710763  0.44264499  0.25088355  1
  Ti  Ti14  1  0.87289237  0.55735501  0.75088355  1
  Ti  Ti15  1  0.87289237  0.94264499  0.75088355  1
  F  F16  1  0.12265375  0.25000000  0.34756524  1
  F  F17  1  0.13057783  0.92799537  0.12389461  1
  F  F18  1  0.13057783  0.57200463  0.12389461  1
  F  F19  1  0.12294853  0.55145913  0.75416255  1
  F  F20  1  0.12294853  0.94854087  0.75416255  1
  F  F21  1  0.12344416  0.92755820  0.37407123  1
  F  F22  1  0.12344416  0.57244180  0.37407123  1
  F  F23  1  0.13185340  0.25000000  0.14975801  1
  F  F24  1  0.36814660  0.75000000  0.64975801  1
  F  F25  1  0.37655584  0.42755820  0.87407123  1
  F  F26  1  0.37655584  0.07244180  0.87407123  1
  F  F27  1  0.37705147  0.05145913  0.25416255  1
  F  F28  1  0.37705147  0.44854087  0.25416255  1
  F  F29  1  0.36942217  0.42799537  0.62389461  1
  F  F30  1  0.36942217  0.07200463  0.62389461  1
  F  F31  1  0.37734625  0.75000000  0.84756524  1
  F  F32  1  0.62265375  0.25000000  0.15243476  1
  F  F33  1  0.63057783  0.92799537  0.37610539  1
  F  F34  1  0.63057783  0.57200463  0.37610539  1
  F  F35  1  0.62294853  0.55145913  0.74583745  1
  F  F36  1  0.62294853  0.94854087  0.74583745  1
  F  F37  1  0.62344416  0.92755820  0.12592877  1
  F  F38  1  0.62344416  0.57244180  0.12592877  1
  F  F39  1  0.63185340  0.25000000  0.35024199  1
  F  F40  1  0.86814660  0.75000000  0.85024199  1
  F  F41  1  0.87655584  0.42755820  0.62592877  1
  F  F42  1  0.87655584  0.07244180  0.62592877  1
  F  F43  1  0.87705147  0.05145913  0.24583745  1
  F  F44  1  0.87705147  0.44854087  0.24583745  1
  F  F45  1  0.86942217  0.42799537  0.87610539  1
  F  F46  1  0.86942217  0.07200463  0.87610539  1
  F  F47  1  0.87734625  0.75000000  0.65243476  1
