# generated using pymatgen
data_Li2MnVP2(O4F)2
_symmetry_space_group_name_H-M   'P 1'
_cell_length_a   5.22968665
_cell_length_b   10.51744583
_cell_length_c   10.41699226
_cell_angle_alpha   78.63235506
_cell_angle_beta   80.10877572
_cell_angle_gamma   83.05581352
_symmetry_Int_Tables_number   1
_chemical_formula_structural   Li2MnVP2(O4F)2
_chemical_formula_sum   'Li6 Mn3 V3 P6 O24 F6'
_cell_volume   551.12349649
_cell_formula_units_Z   3
loop_
 _symmetry_equiv_pos_site_id
 _symmetry_equiv_pos_as_xyz
  1  'x, y, z'
loop_
 _atom_site_type_symbol
 _atom_site_label
 _atom_site_symmetry_multiplicity
 _atom_site_fract_x
 _atom_site_fract_y
 _atom_site_fract_z
 _atom_site_occupancy
  Li  Li0  1  0.00420955  0.26890782  0.08038080  1
  Li  Li1  1  0.33132600  0.39871497  0.58622427  1
  Li  Li2  1  0.66521903  0.06553892  0.25396381  1
  Li  Li3  1  0.33346944  0.93455135  0.74678127  1
  Li  Li4  1  0.66737308  0.60209222  0.41228766  1
  Li  Li5  1  0.99688550  0.73103699  0.92009782  1
  Mn  Mn6  1  0.49815947  0.50082552  0.00016437  1
  Mn  Mn7  1  0.33138973  0.66731376  0.66664457  1
  Mn  Mn8  1  0.83356478  0.16650153  0.66663851  1
  V  V9  1  0.00305988  0.99857738  0.00104900  1
  V  V10  1  0.16824676  0.83285036  0.33245971  1
  V  V11  1  0.66662389  0.33376744  0.33315300  1
  P  P12  1  0.18379776  0.13438792  0.37252315  1
  P  P13  1  0.14949058  0.53219252  0.29443789  1
  P  P14  1  0.51897034  0.79969040  0.03806479  1
  P  P15  1  0.48581007  0.19941430  0.96134393  1
  P  P16  1  0.85014434  0.46876687  0.70620746  1
  P  P17  1  0.81283134  0.86547354  0.62722640  1
  O  O18  1  0.25903325  0.11340447  0.02510588  1
  O  O19  1  0.02560456  0.66794419  0.32226594  1
  O  O20  1  0.11454714  0.13323140  0.52267379  1
  O  O21  1  0.21903225  0.53229236  0.14511770  1
  O  O22  1  0.07826604  0.55528695  0.64075822  1
  O  O23  1  0.05527085  0.81692376  0.70086348  1
  O  O24  1  0.40844292  0.22133239  0.30859615  1
  O  O25  1  0.38986903  0.48541778  0.36819515  1
  O  O26  1  0.30708741  0.99908946  0.34342245  1
  O  O27  1  0.45238526  0.79956349  0.18642104  1
  O  O28  1  0.36401054  0.33490266  0.99269816  1
  O  O29  1  0.72533234  0.15001435  0.03515641  1
  O  O30  1  0.27858899  0.84857994  0.96458238  1
  O  O31  1  0.63942596  0.66377019  0.00722207  1
  O  O32  1  0.55350560  0.20036109  0.81149135  1
  O  O33  1  0.69390744  0.00078685  0.66015441  1
  O  O34  1  0.60918467  0.51819532  0.63158796  1
  O  O35  1  0.58565244  0.77847876  0.69260154  1
  O  O36  1  0.94273228  0.18120640  0.29946898  1
  O  O37  1  0.92461727  0.44535315  0.35876830  1
  O  O38  1  0.78063219  0.46677640  0.85510565  1
  O  O39  1  0.88028014  0.86701922  0.47896904  1
  O  O40  1  0.97028524  0.33343301  0.67361487  1
  O  O41  1  0.74526888  0.88593039  0.97451707  1
  F  F42  1  0.07380723  0.05998675  0.80615952  1
  F  F43  1  0.25158809  0.60424065  0.86861141  1
  F  F44  1  0.40397918  0.73246606  0.45995518  1
  F  F45  1  0.59203322  0.27337776  0.52866228  1
  F  F46  1  0.74149397  0.39317103  0.13826534  1
  F  F47  1  0.93356307  0.93686496  0.19933485  1
