# generated using pymatgen
data_Li2Cr3(CuO6)2
_symmetry_space_group_name_H-M   'P 1'
_cell_length_a   13.49263673
_cell_length_b   8.94833912
_cell_length_c   8.82681300
_cell_angle_alpha   90.00000000
_cell_angle_beta   90.00000000
_cell_angle_gamma   90.00000000
_symmetry_Int_Tables_number   1
_chemical_formula_structural   Li2Cr3(CuO6)2
_chemical_formula_sum   'Li8 Cr12 Cu8 O48'
_cell_volume   1065.72017677
_cell_formula_units_Z   4
loop_
 _symmetry_equiv_pos_site_id
 _symmetry_equiv_pos_as_xyz
  1  'x, y, z'
loop_
 _atom_site_type_symbol
 _atom_site_label
 _atom_site_symmetry_multiplicity
 _atom_site_fract_x
 _atom_site_fract_y
 _atom_site_fract_z
 _atom_site_occupancy
  Li  Li0  1  0.19087088  0.22845078  0.27029079  1
  Li  Li1  1  0.19087088  0.77154922  0.77029079  1
  Li  Li2  1  0.30912912  0.27154922  0.77029079  1
  Li  Li3  1  0.30912912  0.72845078  0.27029079  1
  Li  Li4  1  0.69087088  0.27154922  0.72970921  1
  Li  Li5  1  0.69087088  0.72845078  0.22970921  1
  Li  Li6  1  0.80912912  0.22845078  0.22970921  1
  Li  Li7  1  0.80912912  0.77154922  0.72970921  1
  Cr  Cr8  1  0.00000000  0.46328892  0.25000000  1
  Cr  Cr9  1  0.00000000  0.53671108  0.75000000  1
  Cr  Cr10  1  0.14177174  0.09664597  0.60880979  1
  Cr  Cr11  1  0.14177174  0.90335403  0.10880979  1
  Cr  Cr12  1  0.35822826  0.40335403  0.10880979  1
  Cr  Cr13  1  0.35822826  0.59664597  0.60880979  1
  Cr  Cr14  1  0.50000000  0.03671108  0.75000000  1
  Cr  Cr15  1  0.50000000  0.96328892  0.25000000  1
  Cr  Cr16  1  0.64177174  0.40335403  0.39119021  1
  Cr  Cr17  1  0.64177174  0.59664597  0.89119021  1
  Cr  Cr18  1  0.85822826  0.09664597  0.89119021  1
  Cr  Cr19  1  0.85822826  0.90335403  0.39119021  1
  Cu  Cu20  1  0.11171460  0.25133509  0.96606641  1
  Cu  Cu21  1  0.11171460  0.74866491  0.46606641  1
  Cu  Cu22  1  0.38828540  0.24866491  0.46606641  1
  Cu  Cu23  1  0.38828540  0.75133509  0.96606641  1
  Cu  Cu24  1  0.61171460  0.24866491  0.03393359  1
  Cu  Cu25  1  0.61171460  0.75133509  0.53393359  1
  Cu  Cu26  1  0.88828540  0.25133509  0.53393359  1
  Cu  Cu27  1  0.88828540  0.74866491  0.03393359  1
  O  O28  1  0.02632094  0.13634513  0.57265397  1
  O  O29  1  0.02632094  0.86365487  0.07265397  1
  O  O30  1  0.06188847  0.56758894  0.37204260  1
  O  O31  1  0.06188847  0.43241106  0.87204260  1
  O  O32  1  0.08496948  0.35339044  0.16311405  1
  O  O33  1  0.08496948  0.64660956  0.66311405  1
  O  O34  1  0.15834996  0.09222021  0.10464037  1
  O  O35  1  0.15834996  0.90777979  0.60464037  1
  O  O36  1  0.17556057  0.16920000  0.77943871  1
  O  O37  1  0.17556057  0.83080000  0.27943871  1
  O  O38  1  0.21326154  0.17001839  0.47691111  1
  O  O39  1  0.21326154  0.82998161  0.97691111  1
  O  O40  1  0.28673846  0.32998161  0.97691111  1
  O  O41  1  0.28673846  0.67001839  0.47691111  1
  O  O42  1  0.32443943  0.66920000  0.77943871  1
  O  O43  1  0.32443943  0.33080000  0.27943871  1
  O  O44  1  0.34165004  0.40777979  0.60464037  1
  O  O45  1  0.34165004  0.59222021  0.10464037  1
  O  O46  1  0.41503052  0.14660956  0.66311405  1
  O  O47  1  0.41503052  0.85339044  0.16311405  1
  O  O48  1  0.43811153  0.06758894  0.37204260  1
  O  O49  1  0.43811153  0.93241106  0.87204260  1
  O  O50  1  0.47367906  0.63634513  0.57265397  1
  O  O51  1  0.47367906  0.36365487  0.07265397  1
  O  O52  1  0.52632094  0.36365487  0.42734603  1
  O  O53  1  0.52632094  0.63634513  0.92734603  1
  O  O54  1  0.56188847  0.06758894  0.12795740  1
  O  O55  1  0.56188847  0.93241106  0.62795740  1
  O  O56  1  0.58496948  0.14660956  0.83688595  1
  O  O57  1  0.58496948  0.85339044  0.33688595  1
  O  O58  1  0.65834996  0.40777979  0.89535963  1
  O  O59  1  0.65834996  0.59222021  0.39535963  1
  O  O60  1  0.67556057  0.33080000  0.22056129  1
  O  O61  1  0.67556057  0.66920000  0.72056129  1
  O  O62  1  0.71326154  0.32998161  0.52308889  1
  O  O63  1  0.71326154  0.67001839  0.02308889  1
  O  O64  1  0.78673846  0.17001839  0.02308889  1
  O  O65  1  0.78673846  0.82998161  0.52308889  1
  O  O66  1  0.82443943  0.16920000  0.72056129  1
  O  O67  1  0.82443943  0.83080000  0.22056129  1
  O  O68  1  0.84165004  0.09222021  0.39535963  1
  O  O69  1  0.84165004  0.90777979  0.89535963  1
  O  O70  1  0.91503052  0.35339044  0.33688595  1
  O  O71  1  0.91503052  0.64660956  0.83688595  1
  O  O72  1  0.93811153  0.43241106  0.62795740  1
  O  O73  1  0.93811153  0.56758894  0.12795740  1
  O  O74  1  0.97367906  0.13634513  0.92734603  1
  O  O75  1  0.97367906  0.86365487  0.42734603  1
