# generated using pymatgen
data_Li24TiCr11O36
_symmetry_space_group_name_H-M   'P 1'
_cell_length_a   5.07162537
_cell_length_b   13.20807374
_cell_length_c   9.71117305
_cell_angle_alpha   91.76172382
_cell_angle_beta   99.21438746
_cell_angle_gamma   78.93108225
_symmetry_Int_Tables_number   1
_chemical_formula_structural   Li24TiCr11O36
_chemical_formula_sum   'Li24 Ti1 Cr11 O36'
_cell_volume   630.17690478
_cell_formula_units_Z   1
loop_
 _symmetry_equiv_pos_site_id
 _symmetry_equiv_pos_as_xyz
  1  'x, y, z'
loop_
 _atom_site_type_symbol
 _atom_site_label
 _atom_site_symmetry_multiplicity
 _atom_site_fract_x
 _atom_site_fract_y
 _atom_site_fract_z
 _atom_site_occupancy
  Li  Li0  1  0.21820047  0.06034704  0.00107455  1
  Li  Li1  1  0.16739861  0.16693045  0.49943131  1
  Li  Li2  1  0.72145149  0.06034704  0.49892545  1
  Li  Li3  1  0.41686651  0.16626698  0.25000000  1
  Li  Li4  1  0.11950369  0.27347421  0.00104076  1
  Li  Li5  1  0.66566994  0.16693045  0.00056869  1
  Li  Li6  1  0.91616589  0.16766823  0.75000000  1
  Li  Li7  1  0.60702210  0.27347421  0.49895924  1
  Li  Li8  1  0.05519792  0.39428618  0.50086276  1
  Li  Li9  1  0.55051591  0.39428618  0.99913724  1
  Li  Li10  1  0.00071812  0.50034352  0.99983656  1
  Li  Li11  1  0.24911050  0.50177901  0.75000000  1
  Li  Li12  1  0.49893736  0.50034352  0.50016344  1
  Li  Li13  1  0.74950870  0.50098259  0.25000000  1
  Li  Li14  1  0.44433668  0.60630871  0.99871610  1
  Li  Li15  1  0.94935461  0.60630871  0.50128390  1
  Li  Li16  1  0.38573848  0.72670392  0.50166176  1
  Li  Li17  1  0.08353534  0.83292933  0.25000000  1
  Li  Li18  1  0.88755760  0.72670392  0.99833824  1
  Li  Li19  1  0.33371498  0.83283105  0.99950125  1
  Li  Li20  1  0.58376201  0.83247497  0.75000000  1
  Li  Li21  1  0.28008460  0.93829169  0.49869675  1
  Li  Li22  1  0.83345297  0.83283105  0.50049875  1
  Li  Li23  1  0.78162371  0.93829169  0.00130325  1
  Ti  Ti24  1  0.86182989  0.27634023  0.25000000  1
  Cr  Cr25  1  0.47388394  0.05223212  0.75000000  1
  Cr  Cr26  1  0.97478328  0.05043444  0.25000000  1
  Cr  Cr27  1  0.35944427  0.28111146  0.75000000  1
  Cr  Cr28  1  0.30495177  0.39009646  0.25000000  1
  Cr  Cr29  1  0.80728006  0.38544088  0.75000000  1
  Cr  Cr30  1  0.19223749  0.61552501  0.25000000  1
  Cr  Cr31  1  0.13908226  0.72183449  0.75000000  1
  Cr  Cr32  1  0.69426109  0.61147782  0.75000000  1
  Cr  Cr33  1  0.64017027  0.71965945  0.25000000  1
  Cr  Cr34  1  0.02591901  0.94816097  0.75000000  1
  Cr  Cr35  1  0.52663392  0.94673216  0.25000000  1
  O  O36  1  0.11246316  0.04586982  0.63622741  1
  O  O37  1  0.34159072  0.04550132  0.36317197  1
  O  O38  1  0.84166702  0.04586982  0.86377259  1
  O  O39  1  0.02309029  0.16426378  0.13430379  1
  O  O40  1  0.61290796  0.04550132  0.13682803  1
  O  O41  1  0.31098453  0.16625280  0.86265797  1
  O  O42  1  0.52276267  0.16625280  0.63734203  1
  O  O43  1  0.21532002  0.28522813  0.36449025  1
  O  O44  1  0.81264593  0.16426378  0.36569621  1
  O  O45  1  0.17538108  0.37919277  0.86340076  1
  O  O46  1  0.72227003  0.28722344  0.86377086  1
  O  O47  1  0.49945086  0.28522813  0.13550975  1
  O  O48  1  0.44542616  0.37919277  0.63659924  1
  O  O49  1  0.99050653  0.28722344  0.63622914  1
  O  O50  1  0.65910024  0.38352341  0.36272660  1
  O  O51  1  0.14131605  0.50128030  0.36392920  1
  O  O52  1  0.35740364  0.50128030  0.13607080  1
  O  O53  1  0.95737635  0.38352341  0.13727340  1
  O  O54  1  0.05057068  0.61855293  0.86380592  1
  O  O55  1  0.64523106  0.49997954  0.86366547  1
  O  O56  1  0.85478940  0.49997954  0.63633453  1
  O  O57  1  0.33087638  0.61855293  0.63619408  1
  O  O58  1  0.00724576  0.71343958  0.36350006  1
  O  O59  1  0.55348610  0.62174775  0.36352959  1
  O  O60  1  0.49789916  0.71427123  0.86136870  1
  O  O61  1  0.27931465  0.71343958  0.13649994  1
  O  O62  1  0.82476515  0.62174775  0.13647041  1
  O  O63  1  0.18956157  0.83420485  0.63582152  1
  O  O64  1  0.78782961  0.71427123  0.63863130  1
  O  O65  1  0.47751220  0.83355800  0.36379463  1
  O  O66  1  0.68892981  0.83355800  0.13620537  1
  O  O67  1  0.38785820  0.95358341  0.86329927  1
  O  O68  1  0.97623259  0.83420485  0.86417848  1
  O  O69  1  0.15946145  0.95223638  0.13638289  1
  O  O70  1  0.65855739  0.95358341  0.63670073  1
  O  O71  1  0.88830117  0.95223638  0.36361711  1
