# generated using pymatgen
data_Li2VF6
_symmetry_space_group_name_H-M   'P 1'
_cell_length_a   8.53739431
_cell_length_b   8.58975557
_cell_length_c   10.23533779
_cell_angle_alpha   85.87784345
_cell_angle_beta   94.79424676
_cell_angle_gamma   118.59251538
_symmetry_Int_Tables_number   1
_chemical_formula_structural   Li2VF6
_chemical_formula_sum   'Li12 V6 F36'
_cell_volume   656.31850506
_cell_formula_units_Z   6
loop_
 _symmetry_equiv_pos_site_id
 _symmetry_equiv_pos_as_xyz
  1  'x, y, z'
loop_
 _atom_site_type_symbol
 _atom_site_label
 _atom_site_symmetry_multiplicity
 _atom_site_fract_x
 _atom_site_fract_y
 _atom_site_fract_z
 _atom_site_occupancy
  Li  Li0  1  0.12494483  0.45799921  0.45350425  1
  Li  Li1  1  0.52778919  0.88150922  0.95144978  1
  Li  Li2  1  0.32638440  0.36038123  0.96960535  1
  Li  Li3  1  0.37926643  0.33654625  0.52601924  1
  Li  Li4  1  0.28317929  0.99773155  0.77972330  1
  Li  Li5  1  0.69860645  0.99233026  0.22856571  1
  Li  Li6  1  0.80219290  0.80443679  0.74540488  1
  Li  Li7  1  0.67797162  0.62822245  0.03607242  1
  Li  Li8  1  0.86764327  0.54791262  0.54552752  1
  Li  Li9  1  0.64868787  0.05175914  0.56349586  1
  Li  Li10  1  0.00136370  0.71745368  0.27552668  1
  Li  Li11  1  0.95067041  0.35648847  0.06522775  1
  V  V12  1  0.00869496  0.00544679  0.49556656  1
  V  V13  1  0.33208966  0.66130284  0.70625628  1
  V  V14  1  -0.00040449  -0.00003988  -0.00085417  1
  V  V15  1  0.33558580  0.66045839  0.20965750  1
  V  V16  1  0.66963078  0.33836886  0.79564397  1
  V  V17  1  0.65353681  0.32517185  0.29126328  1
  F  F18  1  0.06833028  0.92903147  0.66192372  1
  F  F19  1  0.06466665  0.92226166  0.15423978  1
  F  F20  1  0.10919224  0.58074912  0.60770913  1
  F  F21  1  0.11958313  0.58482235  0.11277968  1
  F  F22  1  0.27479999  0.77335454  0.83540372  1
  F  F23  1  0.22751774  0.72664830  0.33311180  1
  F  F24  1  0.09043234  0.23892498  0.55195636  1
  F  F25  1  0.41974685  0.88027075  0.61805747  1
  F  F26  1  0.25605920  0.45859306  0.80785081  1
  F  F27  1  0.08725736  0.23748164  0.05252442  1
  F  F28  1  0.43078747  0.88329852  0.11562271  1
  F  F29  1  0.25216547  0.44460698  0.30785846  1
  F  F30  1  0.39743518  0.56321340  0.57483525  1
  F  F31  1  0.22625897  0.08697208  0.92928424  1
  F  F32  1  0.56291086  0.75328744  0.80306591  1
  F  F33  1  0.42877334  0.58437900  0.07174791  1
  F  F34  1  0.23866955  0.08963272  0.44915144  1
  F  F35  1  0.55142954  0.75094097  0.30072063  1
  F  F36  1  0.44694289  0.24886104  0.69978011  1
  F  F37  1  0.78195199  0.92575639  0.57188051  1
  F  F38  1  0.57405813  0.42094429  0.92254339  1
  F  F39  1  0.45052624  0.26223774  0.19803638  1
  F  F40  1  0.76313981  0.91889900  0.06610443  1
  F  F41  1  0.59102600  0.41362960  0.43069158  1
  F  F42  1  0.75216212  0.56027239  0.70015430  1
  F  F43  1  0.57653138  0.11019159  0.87728081  1
  F  F44  1  0.89744210  0.76618257  0.93424524  1
  F  F45  1  0.75972100  0.55312315  0.19613203  1
  F  F46  1  0.60070206  0.11386181  0.38776180  1
  F  F47  1  0.93483494  0.77166952  0.43636282  1
  F  F48  1  0.75307604  0.26854714  0.65704588  1
  F  F49  1  0.75276502  0.23672455  0.17129167  1
  F  F50  1  0.87546970  0.40610057  0.89504682  1
  F  F51  1  0.88700942  0.42886088  0.38456954  1
  F  F52  1  0.91362522  0.05448290  0.84482593  1
  F  F53  1  0.91447992  0.05867216  0.34239017  1
