# generated using pymatgen
data_Li2TiCr3O8
_symmetry_space_group_name_H-M   'P 1'
_cell_length_a   5.91510722
_cell_length_b   5.91510702
_cell_length_c   5.91510725
_cell_angle_alpha   60.58746242
_cell_angle_beta   60.58746737
_cell_angle_gamma   60.58746624
_symmetry_Int_Tables_number   1
_chemical_formula_structural   Li2TiCr3O8
_chemical_formula_sum   'Li2 Ti1 Cr3 O8'
_cell_volume   148.28513916
_cell_formula_units_Z   1
loop_
 _symmetry_equiv_pos_site_id
 _symmetry_equiv_pos_as_xyz
  1  'x, y, z'
loop_
 _atom_site_type_symbol
 _atom_site_label
 _atom_site_symmetry_multiplicity
 _atom_site_fract_x
 _atom_site_fract_y
 _atom_site_fract_z
 _atom_site_occupancy
  Li  Li0  1  0.12544554  0.12544554  0.12544554  1
  Li  Li1  1  0.87455446  0.87455446  0.87455446  1
  Ti  Ti2  1  0.50000000  0.50000000  0.50000000  1
  Cr  Cr3  1  0.00000000  0.50000000  0.50000000  1
  Cr  Cr4  1  0.50000000  0.00000000  0.50000000  1
  Cr  Cr5  1  0.50000000  0.50000000  -0.00000000  1
  O  O6  1  0.26285779  0.26285779  0.26285779  1
  O  O7  1  0.26409771  0.26409771  0.71204793  1
  O  O8  1  0.26409771  0.71204793  0.26409771  1
  O  O9  1  0.71204793  0.26409771  0.26409771  1
  O  O10  1  0.28795207  0.73590229  0.73590229  1
  O  O11  1  0.73590229  0.28795207  0.73590229  1
  O  O12  1  0.73590229  0.73590229  0.28795207  1
  O  O13  1  0.73714221  0.73714221  0.73714221  1
