# generated using pymatgen
data_Li2V3FeO8
_symmetry_space_group_name_H-M   'P 1'
_cell_length_a   8.51480003
_cell_length_b   8.40693243
_cell_length_c   8.43925628
_cell_angle_alpha   90.02615382
_cell_angle_beta   90.08136092
_cell_angle_gamma   89.98603635
_symmetry_Int_Tables_number   1
_chemical_formula_structural   Li2V3FeO8
_chemical_formula_sum   'Li8 V12 Fe4 O32'
_cell_volume   604.10953352
_cell_formula_units_Z   4
loop_
 _symmetry_equiv_pos_site_id
 _symmetry_equiv_pos_as_xyz
  1  'x, y, z'
loop_
 _atom_site_type_symbol
 _atom_site_label
 _atom_site_symmetry_multiplicity
 _atom_site_fract_x
 _atom_site_fract_y
 _atom_site_fract_z
 _atom_site_occupancy
  Li  Li0  1  0.00213211  0.00185954  0.00455323  1
  Li  Li1  1  0.24744990  0.24695620  0.24772321  1
  Li  Li2  1  0.25297121  0.75524851  0.74791321  1
  Li  Li3  1  0.49708216  0.99864384  0.50347485  1
  Li  Li4  1  0.50199137  0.49764335  0.99508068  1
  Li  Li5  1  0.74691532  0.25290665  0.75175585  1
  Li  Li6  1  0.75211495  0.74494944  0.25063490  1
  Li  Li7  1  0.99650068  0.50105515  0.49767436  1
  V  V8  1  0.12310258  0.12764796  0.62842728  1
  V  V9  1  0.12676194  0.38032963  0.87299309  1
  V  V10  1  0.12632908  0.62591238  0.12279977  1
  V  V11  1  0.37261243  0.37716810  0.62211378  1
  V  V12  1  0.37612669  0.62241693  0.36881297  1
  V  V13  1  0.37652937  0.87290771  0.12482892  1
  V  V14  1  0.62214517  0.37148837  0.37318644  1
  V  V15  1  0.62506430  0.11836989  0.12833426  1
  V  V16  1  0.62398709  0.87473486  0.87827551  1
  V  V17  1  0.87149365  0.12149727  0.37994076  1
  V  V18  1  0.87557292  0.87720807  0.62813529  1
  V  V19  1  0.87759949  0.62959958  0.87674685  1
  Fe  Fe20  1  0.12773020  0.87799484  0.37385246  1
  Fe  Fe21  1  0.37640852  0.12390644  0.87277270  1
  Fe  Fe22  1  0.62737175  0.62592146  0.62458514  1
  Fe  Fe23  1  0.87696468  0.37453974  0.12733577  1
  O  O24  1  0.10945862  0.12099359  0.39773103  1
  O  O25  1  0.11245095  0.89025948  0.61190634  1
  O  O26  1  0.11330787  0.62739040  0.89493018  1
  O  O27  1  0.13472811  0.13102520  0.85119361  1
  O  O28  1  0.11471992  0.38928200  0.11133434  1
  O  O29  1  0.13863120  0.36522378  0.63393563  1
  O  O30  1  0.13523851  0.63194046  0.34928437  1
  O  O31  1  0.14234601  0.86465782  0.13478632  1
  O  O32  1  0.36026688  0.14570837  0.63066870  1
  O  O33  1  0.36276134  0.36278375  0.85932876  1
  O  O34  1  0.36280784  0.64461264  0.12233091  1
  O  O35  1  0.38478174  0.60071906  0.61769678  1
  O  O36  1  0.36454551  0.86206542  0.35949176  1
  O  O37  1  0.38746383  0.38243497  0.38503280  1
  O  O38  1  0.38457870  0.10086800  0.11629160  1
  O  O39  1  0.39314610  0.88284097  0.88608958  1
  O  O40  1  0.60994890  0.37992968  0.60335673  1
  O  O41  1  0.61132783  0.60932978  0.38692846  1
  O  O42  1  0.61079143  0.87246565  0.10879622  1
  O  O43  1  0.63346476  0.36784769  0.15005771  1
  O  O44  1  0.61610073  0.10667688  0.88645294  1
  O  O45  1  0.63716715  0.13382392  0.36744668  1
  O  O46  1  0.63720975  0.86903788  0.64592610  1
  O  O47  1  0.64159573  0.64042073  0.86621419  1
  O  O48  1  0.85912863  0.35302884  0.37046098  1
  O  O49  1  0.86049789  0.13645886  0.14129634  1
  O  O50  1  0.86195551  0.85626137  0.87513446  1
  O  O51  1  0.88499738  0.89886053  0.38029523  1
  O  O52  1  0.86455180  0.63829828  0.64032755  1
  O  O53  1  0.88892742  0.11753693  0.61663490  1
  O  O54  1  0.88456268  0.40154222  0.88274482  1
  O  O55  1  0.89358270  0.61490887  0.11408570  1
