# generated using pymatgen
data_HoH9C5(NO4)2
_symmetry_space_group_name_H-M   'P 1'
_cell_length_a   6.64731128
_cell_length_b   6.69827252
_cell_length_c   6.69827252
_cell_angle_alpha   65.81347554
_cell_angle_beta   75.35886181
_cell_angle_gamma   75.35886181
_symmetry_Int_Tables_number   1
_chemical_formula_structural   HoH9C5(NO4)2
_chemical_formula_sum   'Ho1 H9 C5 N2 O8'
_cell_volume   259.43998660
_cell_formula_units_Z   1
loop_
 _symmetry_equiv_pos_site_id
 _symmetry_equiv_pos_as_xyz
  1  'x, y, z'
loop_
 _atom_site_type_symbol
 _atom_site_label
 _atom_site_symmetry_multiplicity
 _atom_site_fract_x
 _atom_site_fract_y
 _atom_site_fract_z
 _atom_site_occupancy
  Ho  Ho0  1  -0.00000000  0.90732436  0.09267564  1
  H  H1  1  0.42135495  0.54891962  0.89647535  1
  H  H2  1  0.57864505  0.10352465  0.45108038  1
  H  H3  1  0.53962517  0.64133151  0.61290971  1
  H  H4  1  0.46037483  0.38709029  0.35866849  1
  H  H5  1  0.81781130  0.36728318  0.65401340  1
  H  H6  1  0.18218870  0.34598660  0.63271682  1
  H  H7  1  0.12546055  0.74628948  0.62948043  1
  H  H8  1  0.87453945  0.37051957  0.25371052  1
  H  H9  1  0.50000000  0.98988372  0.01011628  1
  C  C10  1  0.70650799  0.36806503  0.80696298  1
  C  C11  1  0.29349201  0.19303702  0.63193497  1
  C  C12  1  0.96633841  0.85042313  0.62180519  1
  C  C13  1  0.03366159  0.37819481  0.14957687  1
  C  C14  1  0.50000000  0.83874308  0.16125692  1
  N  N15  1  0.54363344  0.53261543  0.77239516  1
  N  N16  1  0.45636656  0.22760484  0.46738457  1
  O  O17  1  0.73827826  0.22327039  0.99265736  1
  O  O18  1  0.26172174  0.00734264  0.77672961  1
  O  O19  1  0.33266258  0.75264252  0.23869201  1
  O  O20  1  0.66733742  0.76130799  0.24735748  1
  O  O21  1  0.88568361  0.89421580  0.45151692  1
  O  O22  1  0.11431639  0.54848308  0.10578420  1
  O  O23  1  0.12238526  0.22159059  0.08328933  1
  O  O24  1  0.87761474  0.91671067  0.77840941  1
