# generated using pymatgen
data_CaEu4O5
_symmetry_space_group_name_H-M   'P 1'
_cell_length_a   5.04796533
_cell_length_b   6.17650306
_cell_length_c   6.17650306
_cell_angle_alpha   99.61278895
_cell_angle_beta   114.11959750
_cell_angle_gamma   65.88040250
_symmetry_Int_Tables_number   1
_chemical_formula_structural   CaEu4O5
_chemical_formula_sum   'Ca1 Eu4 O5'
_cell_volume   160.41778396
_cell_formula_units_Z   1
loop_
 _symmetry_equiv_pos_site_id
 _symmetry_equiv_pos_as_xyz
  1  'x, y, z'
loop_
 _atom_site_type_symbol
 _atom_site_label
 _atom_site_symmetry_multiplicity
 _atom_site_fract_x
 _atom_site_fract_y
 _atom_site_fract_z
 _atom_site_occupancy
  Ca  Ca0  1  -0.00000000  -0.00000000  -0.00000000  1
  Eu  Eu1  1  0.59993314  0.19950234  0.39936861  1
  Eu  Eu2  1  0.79943547  0.60063139  0.19950234  1
  Eu  Eu3  1  0.20056453  0.39936861  0.80049766  1
  Eu  Eu4  1  0.40006686  0.80049766  0.60063139  1
  O  O5  1  0.50000000  -0.00000000  -0.00000000  1
  O  O6  1  0.09847851  0.19431812  0.39127413  1
  O  O7  1  0.29279663  0.60872587  0.19431812  1
  O  O8  1  0.70720437  0.39127413  0.80568188  1
  O  O9  1  0.90152149  0.80568188  0.60872587  1
