# generated using pymatgen
data_Ca5Pb3
_symmetry_space_group_name_H-M   'P 1'
_cell_length_a   9.46693435
_cell_length_b   9.46693430
_cell_length_c   6.91950946
_cell_angle_alpha   90.00000000
_cell_angle_beta   90.00000000
_cell_angle_gamma   119.69476711
_symmetry_Int_Tables_number   1
_chemical_formula_structural   Ca5Pb3
_chemical_formula_sum   'Ca10 Pb6'
_cell_volume   538.70652995
_cell_formula_units_Z   2
loop_
 _symmetry_equiv_pos_site_id
 _symmetry_equiv_pos_as_xyz
  1  'x, y, z'
loop_
 _atom_site_type_symbol
 _atom_site_label
 _atom_site_symmetry_multiplicity
 _atom_site_fract_x
 _atom_site_fract_y
 _atom_site_fract_z
 _atom_site_occupancy
  Ca  Ca0  1  0.66655589  0.33345135  0.50000011  1
  Ca  Ca1  1  0.33345135  0.66655589  0.50000011  1
  Ca  Ca2  1  0.33344411  0.66654865  0.00000011  1
  Ca  Ca3  1  0.66654865  0.33344411  0.00000011  1
  Ca  Ca4  1  0.73543889  0.73543889  0.24999183  1
  Ca  Ca5  1  0.26451916  0.00024671  0.25000124  1
  Ca  Ca6  1  0.00024671  0.26451916  0.25000124  1
  Ca  Ca7  1  0.26456111  0.26456111  0.74999183  1
  Ca  Ca8  1  0.73548084  0.99975329  0.75000124  1
  Ca  Ca9  1  0.99975329  0.73548084  0.75000124  1
  Pb  Pb10  1  0.39033733  0.39033733  0.25000284  1
  Pb  Pb11  1  0.61015074  0.00036772  0.25000132  1
  Pb  Pb12  1  0.00036772  0.61015074  0.25000132  1
  Pb  Pb13  1  0.60966267  0.60966267  0.75000284  1
  Pb  Pb14  1  0.38984926  0.99963228  0.75000132  1
  Pb  Pb15  1  0.99963228  0.38984926  0.75000132  1
