# generated using pymatgen
data_BaO
_symmetry_space_group_name_H-M   'P 1'
_cell_length_a   6.83559743
_cell_length_b   52.66088287
_cell_length_c   3.92531547
_cell_angle_alpha   90.00000000
_cell_angle_beta   90.00000000
_cell_angle_gamma   90.00000000
_symmetry_Int_Tables_number   1
_chemical_formula_structural   BaO
_chemical_formula_sum   'Ba32 O32'
_cell_volume   1412.99029705
_cell_formula_units_Z   32
loop_
 _symmetry_equiv_pos_site_id
 _symmetry_equiv_pos_as_xyz
  1  'x, y, z'
loop_
 _atom_site_type_symbol
 _atom_site_label
 _atom_site_symmetry_multiplicity
 _atom_site_fract_x
 _atom_site_fract_y
 _atom_site_fract_z
 _atom_site_occupancy
  Ba  Ba0  1  0.03075159  0.25000000  0.74817806  1
  Ba  Ba1  1  0.03449219  0.56273935  0.24972545  1
  Ba  Ba2  1  0.03449219  0.93726065  0.24972545  1
  Ba  Ba3  1  0.16938311  0.62521293  0.74835350  1
  Ba  Ba4  1  0.16938311  0.87478707  0.74835350  1
  Ba  Ba5  1  0.19026309  0.18750490  0.25064227  1
  Ba  Ba6  1  0.19026309  0.31249510  0.25064227  1
  Ba  Ba7  1  0.25000000  0.00000000  0.75133649  1
  Ba  Ba8  1  0.25000000  0.50000000  0.75133649  1
  Ba  Ba9  1  0.30973691  0.68750490  0.25064227  1
  Ba  Ba10  1  0.30973691  0.81249510  0.25064227  1
  Ba  Ba11  1  0.33061689  0.12521293  0.74835350  1
  Ba  Ba12  1  0.33061689  0.37478707  0.74835350  1
  Ba  Ba13  1  0.46550781  0.06273935  0.24972545  1
  Ba  Ba14  1  0.46550781  0.43726065  0.24972545  1
  Ba  Ba15  1  0.46924841  0.75000000  0.74817806  1
  Ba  Ba16  1  0.53075159  0.25000000  0.25182194  1
  Ba  Ba17  1  0.53449219  0.93726065  0.75027455  1
  Ba  Ba18  1  0.53449219  0.56273935  0.75027455  1
  Ba  Ba19  1  0.66938311  0.62521293  0.25164650  1
  Ba  Ba20  1  0.66938311  0.87478707  0.25164650  1
  Ba  Ba21  1  0.69026309  0.18750490  0.74935773  1
  Ba  Ba22  1  0.69026309  0.31249510  0.74935773  1
  Ba  Ba23  1  0.75000000  0.00000000  0.24866351  1
  Ba  Ba24  1  0.75000000  0.50000000  0.24866351  1
  Ba  Ba25  1  0.80973691  0.68750490  0.74935773  1
  Ba  Ba26  1  0.80973691  0.81249510  0.74935773  1
  Ba  Ba27  1  0.83061689  0.12521293  0.25164650  1
  Ba  Ba28  1  0.83061689  0.37478707  0.25164650  1
  Ba  Ba29  1  0.96550781  0.43726065  0.75027455  1
  Ba  Ba30  1  0.96550781  0.06273935  0.75027455  1
  Ba  Ba31  1  0.96924841  0.75000000  0.25182194  1
  O  O32  1  0.08914801  0.03074563  0.25033107  1
  O  O33  1  0.15844275  0.09438602  0.24363270  1
  O  O34  1  0.01095171  0.15632115  0.76745129  1
  O  O35  1  0.15844275  0.40561398  0.24363270  1
  O  O36  1  0.01095171  0.34367885  0.76745129  1
  O  O37  1  0.08914801  0.46925437  0.25033107  1
  O  O38  1  0.13982982  0.71832824  0.75831328  1
  O  O39  1  0.13982982  0.78167176  0.75831328  1
  O  O40  1  0.36017018  0.21832824  0.75831328  1
  O  O41  1  0.41085199  0.53074563  0.25033107  1
  O  O42  1  0.41085199  0.96925437  0.25033107  1
  O  O43  1  0.48904829  0.65632115  0.76745129  1
  O  O44  1  0.36017018  0.28167176  0.75831328  1
  O  O45  1  0.34155725  0.59438602  0.24363270  1
  O  O46  1  0.34155725  0.90561398  0.24363270  1
  O  O47  1  0.48904829  0.84367885  0.76745129  1
  O  O48  1  0.51095171  0.15632115  0.23254871  1
  O  O49  1  0.51095171  0.34367885  0.23254871  1
  O  O50  1  0.63982982  0.71832824  0.24168672  1
  O  O51  1  0.58914801  0.03074563  0.74966893  1
  O  O52  1  0.63982982  0.78167176  0.24168672  1
  O  O53  1  0.65844275  0.40561398  0.75636730  1
  O  O54  1  0.58914801  0.46925437  0.74966893  1
  O  O55  1  0.65844275  0.09438602  0.75636730  1
  O  O56  1  0.86017018  0.21832824  0.24168672  1
  O  O57  1  0.86017018  0.28167176  0.24168672  1
  O  O58  1  0.84155725  0.59438602  0.75636730  1
  O  O59  1  0.98904829  0.65632115  0.23254871  1
  O  O60  1  0.98904829  0.84367885  0.23254871  1
  O  O61  1  0.84155725  0.90561398  0.75636730  1
  O  O62  1  0.91085199  0.96925437  0.74966893  1
  O  O63  1  0.91085199  0.53074563  0.74966893  1
