# generated using pymatgen
data_TiO2
_symmetry_space_group_name_H-M   'P 1'
_cell_length_a   4.84383177
_cell_length_b   4.99585611
_cell_length_c   9.44241010
_cell_angle_alpha   90.00000000
_cell_angle_beta   90.00000000
_cell_angle_gamma   90.00000000
_symmetry_Int_Tables_number   1
_chemical_formula_structural   TiO2
_chemical_formula_sum   'Ti8 O16'
_cell_volume   228.49769919
_cell_formula_units_Z   8
loop_
 _symmetry_equiv_pos_site_id
 _symmetry_equiv_pos_as_xyz
  1  'x, y, z'
loop_
 _atom_site_type_symbol
 _atom_site_label
 _atom_site_symmetry_multiplicity
 _atom_site_fract_x
 _atom_site_fract_y
 _atom_site_fract_z
 _atom_site_occupancy
  Ti  Ti0  1  0.74995628  0.95815208  0.61499986  1
  Ti  Ti1  1  0.25004372  0.54184792  0.11499986  1
  Ti  Ti2  1  0.75004372  0.45815208  0.38500014  1
  Ti  Ti3  1  0.24995628  0.04184792  0.88500014  1
  Ti  Ti4  1  0.25004372  0.04184792  0.38500014  1
  Ti  Ti5  1  0.74995628  0.45815208  0.88500014  1
  Ti  Ti6  1  0.24995628  0.54184792  0.61499986  1
  Ti  Ti7  1  0.75004372  0.95815208  0.11499986  1
  O  O8  1  0.63836386  0.62359516  0.71070939  1
  O  O9  1  0.36163614  0.87640484  0.21070939  1
  O  O10  1  0.86163614  0.12359516  0.28929061  1
  O  O11  1  0.13836386  0.37640484  0.78929061  1
  O  O12  1  0.36163614  0.37640484  0.28929061  1
  O  O13  1  0.63836386  0.12359516  0.78929061  1
  O  O14  1  0.13836386  0.87640484  0.71070939  1
  O  O15  1  0.86163614  0.62359516  0.21070939  1
  O  O16  1  0.99577464  0.26270436  0.52570405  1
  O  O17  1  0.00422536  0.23729564  0.02570405  1
  O  O18  1  0.50422536  0.76270436  0.47429595  1
  O  O19  1  0.49577464  0.73729564  0.97429595  1
  O  O20  1  0.00422536  0.73729564  0.47429595  1
  O  O21  1  0.99577464  0.76270436  0.97429595  1
  O  O22  1  0.49577464  0.23729564  0.52570405  1
  O  O23  1  0.50422536  0.26270436  0.02570405  1
