# generated using pymatgen
data_Eu2Mg3H10
_symmetry_space_group_name_H-M   'P 1'
_cell_length_a   5.64452514
_cell_length_b   7.30441109
_cell_length_c   9.12648697
_cell_angle_alpha   110.04891014
_cell_angle_beta   108.01335146
_cell_angle_gamma   90.00000000
_symmetry_Int_Tables_number   1
_chemical_formula_structural   Eu2Mg3H10
_chemical_formula_sum   'Eu4 Mg6 H20'
_cell_volume   333.78029625
_cell_formula_units_Z   2
loop_
 _symmetry_equiv_pos_site_id
 _symmetry_equiv_pos_as_xyz
  1  'x, y, z'
loop_
 _atom_site_type_symbol
 _atom_site_label
 _atom_site_symmetry_multiplicity
 _atom_site_fract_x
 _atom_site_fract_y
 _atom_site_fract_z
 _atom_site_occupancy
  Eu  Eu0  1  0.38336505  0.27814875  0.76673011  1
  Eu  Eu1  1  0.61663495  0.72185125  0.23326989  1
  Eu  Eu2  1  0.27853602  0.68374297  0.55707205  1
  Eu  Eu3  1  0.72146398  0.31625703  0.44292795  1
  Mg  Mg4  1  0.25887659  1.00000000  1.00000000  1
  Mg  Mg5  1  0.74112341  0.00000000  0.00000000  1
  Mg  Mg6  1  0.17524727  0.02246969  0.35049454  1
  Mg  Mg7  1  0.82475273  0.97753031  0.64950546  1
  Mg  Mg8  1  0.07560157  0.44715792  0.15120314  1
  Mg  Mg9  1  0.92439843  0.55284208  0.84879686  1
  H  H10  1  0.13555144  0.74045316  0.27110288  1
  H  H11  1  0.86444856  0.25954684  0.72889712  1
  H  H12  1  0.39334527  0.02865335  0.22965579  1
  H  H13  1  0.60665473  0.97134665  0.77034421  1
  H  H14  1  0.16368948  0.97134665  0.77034421  1
  H  H15  1  0.83631052  0.02865335  0.22965579  1
  H  H16  1  0.23844308  0.50000000  1.00000000  1
  H  H17  1  0.76155692  0.50000000  0.00000000  1
  H  H18  1  0.02009064  0.17699638  0.04018128  1
  H  H19  1  0.97990936  0.82300362  0.95981872  1
  H  H20  1  0.51606739  0.19622356  0.03213477  1
  H  H21  1  0.48393261  0.80377644  0.96786523  1
  H  H22  1  0.24035729  0.29676315  0.48071459  1
  H  H23  1  0.75964271  0.70323685  0.51928541  1
  H  H24  1  0.50000000  -0.00000000  0.50000000  1
  H  H25  1  -0.00000000  -0.00000000  0.50000000  1
  H  H26  1  0.40401227  0.48408947  0.31087148  1
  H  H27  1  0.59598773  0.51591053  0.68912852  1
  H  H28  1  0.09314079  0.51591053  0.68912852  1
  H  H29  1  0.90685921  0.48408947  0.31087148  1
