# generated using pymatgen
data_NaTa7O19
_symmetry_space_group_name_H-M   'P 1'
_cell_length_a   3.91546677
_cell_length_b   15.54245849
_cell_length_c   24.01801288
_cell_angle_alpha   90.00000000
_cell_angle_beta   90.00000000
_cell_angle_gamma   90.00000000
_symmetry_Int_Tables_number   1
_chemical_formula_structural   NaTa7O19
_chemical_formula_sum   'Na4 Ta28 O76'
_cell_volume   1461.63970526
_cell_formula_units_Z   4
loop_
 _symmetry_equiv_pos_site_id
 _symmetry_equiv_pos_as_xyz
  1  'x, y, z'
loop_
 _atom_site_type_symbol
 _atom_site_label
 _atom_site_symmetry_multiplicity
 _atom_site_fract_x
 _atom_site_fract_y
 _atom_site_fract_z
 _atom_site_occupancy
  Na  Na0  1  0.50000000  0.78536140  0.14451124  1
  Na  Na1  1  0.50000000  0.21463860  0.85548876  1
  Na  Na2  1  0.50000000  0.28536140  0.35548876  1
  Na  Na3  1  0.50000000  0.71463860  0.64451124  1
  Ta  Ta4  1  0.00000000  0.98705039  0.12315164  1
  Ta  Ta5  1  -0.00000000  0.01294961  0.87684836  1
  Ta  Ta6  1  -0.00000000  0.48705039  0.37684836  1
  Ta  Ta7  1  -0.00000000  0.51294961  0.62315164  1
  Ta  Ta8  1  0.00000000  0.61049409  0.23175168  1
  Ta  Ta9  1  -0.00000000  0.38950591  0.76824832  1
  Ta  Ta10  1  -0.00000000  0.11049409  0.26824832  1
  Ta  Ta11  1  -0.00000000  0.88950591  0.73175168  1
  Ta  Ta12  1  -0.00000000  0.86578145  0.26068440  1
  Ta  Ta13  1  -0.00000000  0.13421855  0.73931560  1
  Ta  Ta14  1  -0.00000000  0.36578145  0.23931560  1
  Ta  Ta15  1  -0.00000000  0.63421855  0.76068440  1
  Ta  Ta16  1  0.00000000  0.88997095  0.42267658  1
  Ta  Ta17  1  -0.00000000  0.11002905  0.57732342  1
  Ta  Ta18  1  0.00000000  0.38997095  0.07732342  1
  Ta  Ta19  1  0.00000000  0.61002905  0.92267658  1
  Ta  Ta20  1  0.00000000  0.66217824  0.49713961  1
  Ta  Ta21  1  0.00000000  0.33782176  0.50286039  1
  Ta  Ta22  1  -0.00000000  0.16217824  0.00286039  1
  Ta  Ta23  1  -0.00000000  0.83782176  0.99713961  1
  Ta  Ta24  1  0.00000000  0.70062159  0.35719141  1
  Ta  Ta25  1  0.00000000  0.29937841  0.64280859  1
  Ta  Ta26  1  0.00000000  0.20062159  0.14280859  1
  Ta  Ta27  1  0.00000000  0.79937841  0.85719141  1
  Ta  Ta28  1  0.00000000  0.62806580  0.07971253  1
  Ta  Ta29  1  -0.00000000  0.37193420  0.92028747  1
  Ta  Ta30  1  0.00000000  0.12806580  0.42028747  1
  Ta  Ta31  1  -0.00000000  0.87193420  0.57971253  1
  O  O32  1  0.50000000  0.97525113  0.12501012  1
  O  O33  1  0.50000000  0.02474887  0.87498988  1
  O  O34  1  0.50000000  0.47525113  0.37498988  1
  O  O35  1  0.50000000  0.52474887  0.62501012  1
  O  O36  1  0.50000000  0.60794614  0.23091832  1
  O  O37  1  0.50000000  0.39205386  0.76908168  1
  O  O38  1  0.50000000  0.10794614  0.26908168  1
  O  O39  1  0.50000000  0.89205386  0.73091832  1
  O  O40  1  0.50000000  0.85032508  0.25387963  1
  O  O41  1  0.50000000  0.14967492  0.74612037  1
  O  O42  1  0.50000000  0.35032508  0.24612037  1
  O  O43  1  0.50000000  0.64967492  0.75387963  1
  O  O44  1  0.50000000  0.88590499  0.42014107  1
  O  O45  1  0.50000000  0.11409501  0.57985893  1
  O  O46  1  0.50000000  0.38590499  0.07985893  1
  O  O47  1  0.50000000  0.61409501  0.92014107  1
  O  O48  1  0.50000000  0.65609776  0.49320616  1
  O  O49  1  0.50000000  0.34390224  0.50679384  1
  O  O50  1  0.50000000  0.15609776  0.00679384  1
  O  O51  1  0.50000000  0.84390224  0.99320616  1
  O  O52  1  0.50000000  0.69998279  0.35613420  1
  O  O53  1  0.50000000  0.30001721  0.64386580  1
  O  O54  1  0.50000000  0.19998279  0.14386580  1
  O  O55  1  0.50000000  0.80001721  0.85613420  1
  O  O56  1  0.50000000  0.64020856  0.08412715  1
  O  O57  1  0.50000000  0.35979144  0.91587285  1
  O  O58  1  0.50000000  0.14020856  0.41587285  1
  O  O59  1  0.50000000  0.85979144  0.58412715  1
  O  O60  1  -0.00000000  0.88711465  0.17822639  1
  O  O61  1  0.00000000  0.11288535  0.82177361  1
  O  O62  1  -0.00000000  0.38711465  0.32177361  1
  O  O63  1  0.00000000  0.61288535  0.67822639  1
  O  O64  1  -0.00000000  0.58091521  0.31678366  1
  O  O65  1  -0.00000000  0.41908479  0.68321634  1
  O  O66  1  0.00000000  0.08091521  0.18321634  1
  O  O67  1  0.00000000  0.91908479  0.81678366  1
  O  O68  1  0.00000000  0.60097889  0.41817678  1
  O  O69  1  0.00000000  0.39902111  0.58182322  1
  O  O70  1  -0.00000000  0.10097889  0.08182322  1
  O  O71  1  0.00000000  0.89902111  0.91817678  1
  O  O72  1  -0.00000000  0.72617083  0.27030369  1
  O  O73  1  -0.00000000  0.27382917  0.72969631  1
  O  O74  1  -0.00000000  0.22617083  0.22969631  1
  O  O75  1  0.00000000  0.77382917  0.77030369  1
  O  O76  1  -0.00000000  0.75687736  0.43574353  1
  O  O77  1  0.00000000  0.24312264  0.56425647  1
  O  O78  1  0.00000000  0.25687736  0.06425647  1
  O  O79  1  -0.00000000  0.74312264  0.93574353  1
  O  O80  1  -0.00000000  0.83505627  0.34413889  1
  O  O81  1  0.00000000  0.16494373  0.65586111  1
  O  O82  1  -0.00000000  0.33505627  0.15586111  1
  O  O83  1  0.00000000  0.66494373  0.84413889  1
  O  O84  1  -0.00000000  0.98351057  0.27934768  1
  O  O85  1  0.00000000  0.01648943  0.72065232  1
  O  O86  1  -0.00000000  0.48351057  0.22065232  1
  O  O87  1  0.00000000  0.51648943  0.77934768  1
  O  O88  1  -0.00000000  0.66857380  0.16046421  1
  O  O89  1  0.00000000  0.33142620  0.83953579  1
  O  O90  1  0.00000000  0.16857380  0.33953579  1
  O  O91  1  -0.00000000  0.83142620  0.66046421  1
  O  O92  1  -0.00000000  0.75329368  0.05465162  1
  O  O93  1  -0.00000000  0.24670632  0.94534838  1
  O  O94  1  -0.00000000  0.25329368  0.44534838  1
  O  O95  1  0.00000000  0.74670632  0.55465162  1
  O  O96  1  0.00000000  0.93122495  0.05113143  1
  O  O97  1  0.00000000  0.06877505  0.94886857  1
  O  O98  1  -0.00000000  0.43122495  0.44886857  1
  O  O99  1  -0.00000000  0.56877505  0.55113143  1
  O  O100  1  -0.00000000  0.50818492  0.10120619  1
  O  O101  1  -0.00000000  0.49181508  0.89879381  1
  O  O102  1  0.00000000  0.00818492  0.39879381  1
  O  O103  1  -0.00000000  0.99181508  0.60120619  1
  O  O104  1  0.00000000  0.90353033  0.50175208  1
  O  O105  1  0.00000000  0.09646967  0.49824792  1
  O  O106  1  0.00000000  0.40353033  0.99824792  1
  O  O107  1  -0.00000000  0.59646967  0.00175208  1
