# generated using pymatgen
data_KO2
_symmetry_space_group_name_H-M   'P 1'
_cell_length_a   5.51347054
_cell_length_b   5.67314036
_cell_length_c   8.22318385
_cell_angle_alpha   90.00000000
_cell_angle_beta   125.85987285
_cell_angle_gamma   90.00000000
_symmetry_Int_Tables_number   1
_chemical_formula_structural   KO2
_chemical_formula_sum   'K4 O8'
_cell_volume   208.45674075
_cell_formula_units_Z   4
loop_
 _symmetry_equiv_pos_site_id
 _symmetry_equiv_pos_as_xyz
  1  'x, y, z'
loop_
 _atom_site_type_symbol
 _atom_site_label
 _atom_site_symmetry_multiplicity
 _atom_site_fract_x
 _atom_site_fract_y
 _atom_site_fract_z
 _atom_site_occupancy
  K  K0  1  0.25784395  0.24770992  0.55043352  1
  K  K1  1  0.74215605  0.74770992  0.94956648  1
  K  K2  1  0.74215605  0.75229008  0.44956648  1
  K  K3  1  0.25784395  0.25229008  0.05043352  1
  O  O4  1  0.33559376  0.74623564  0.54802249  1
  O  O5  1  0.66440624  0.24623564  0.95197751  1
  O  O6  1  0.66440624  0.25376436  0.45197751  1
  O  O7  1  0.33559376  0.75376436  0.04802249  1
  O  O8  1  0.83451964  0.30949285  0.65013109  1
  O  O9  1  0.16548036  0.80949285  0.84986891  1
  O  O10  1  0.16548036  0.69050715  0.34986891  1
  O  O11  1  0.83451964  0.19050715  0.15013109  1
