# generated using pymatgen
data_K2PdN2(ClO2)2
_symmetry_space_group_name_H-M   'P 1'
_cell_length_a   4.73235901
_cell_length_b   7.87766585
_cell_length_c   7.87413884
_cell_angle_alpha   100.99422180
_cell_angle_beta   117.62592941
_cell_angle_gamma   104.91334622
_symmetry_Int_Tables_number   1
_chemical_formula_structural   K2PdN2(ClO2)2
_chemical_formula_sum   'K2 Pd1 N2 Cl2 O4'
_cell_volume   234.26198908
_cell_formula_units_Z   1
loop_
 _symmetry_equiv_pos_site_id
 _symmetry_equiv_pos_as_xyz
  1  'x, y, z'
loop_
 _atom_site_type_symbol
 _atom_site_label
 _atom_site_symmetry_multiplicity
 _atom_site_fract_x
 _atom_site_fract_y
 _atom_site_fract_z
 _atom_site_occupancy
  K  K0  1  0.18011872  0.66792177  0.32340529  1
  K  K1  1  0.81987761  0.33210427  0.67664021  1
  Pd  Pd2  1  0.49998948  0.99999167  -0.00000734  1
  N  N3  1  0.97416525  0.12759826  0.27433601  1
  N  N4  1  0.02586529  0.87237714  0.72565593  1
  Cl  Cl5  1  0.46481423  0.70683390  0.02886477  1
  Cl  Cl6  1  0.53528151  0.29317770  0.97118734  1
  O  O7  1  0.06161177  0.28736126  0.39688481  1
  O  O8  1  0.81917177  0.95243782  0.68022926  1
  O  O9  1  0.18094386  0.04767913  0.31960895  1
  O  O10  1  0.93816052  0.71251808  0.60319475  1
