# generated using pymatgen
data_GaAg3
_symmetry_space_group_name_H-M   'P 1'
_cell_length_a   5.83974574
_cell_length_b   5.84014923
_cell_length_c   4.86222732
_cell_angle_alpha   89.87942391
_cell_angle_beta   90.12054107
_cell_angle_gamma   120.03511534
_symmetry_Int_Tables_number   1
_chemical_formula_structural   GaAg3
_chemical_formula_sum   'Ga2 Ag6'
_cell_volume   143.55843367
_cell_formula_units_Z   2
loop_
 _symmetry_equiv_pos_site_id
 _symmetry_equiv_pos_as_xyz
  1  'x, y, z'
loop_
 _atom_site_type_symbol
 _atom_site_label
 _atom_site_symmetry_multiplicity
 _atom_site_fract_x
 _atom_site_fract_y
 _atom_site_fract_z
 _atom_site_occupancy
  Ga  Ga0  1  0.33331895  0.66670312  0.74995183  1
  Ga  Ga1  1  0.66668251  0.33329469  0.25004759  1
  Ag  Ag2  1  0.16746693  0.33489528  0.24997872  1
  Ag  Ag3  1  0.66508576  0.83252458  0.24997815  1
  Ag  Ag4  1  0.16750249  0.83249966  0.25001581  1
  Ag  Ag5  1  0.83252987  0.66510679  0.75002286  1
  Ag  Ag6  1  0.33491393  0.16747299  0.75002128  1
  Ag  Ag7  1  0.83249756  0.16749788  0.74998376  1
