# generated using pymatgen
data_CaTmIn2
_symmetry_space_group_name_H-M   'P 1'
_cell_length_a   5.36512220
_cell_length_b   5.36512220
_cell_length_c   5.36512220
_cell_angle_alpha   59.99473262
_cell_angle_beta   59.99473262
_cell_angle_gamma   59.99473262
_symmetry_Int_Tables_number   1
_chemical_formula_structural   CaTmIn2
_chemical_formula_sum   'Ca1 Tm1 In2'
_cell_volume   109.18726443
_cell_formula_units_Z   1
loop_
 _symmetry_equiv_pos_site_id
 _symmetry_equiv_pos_as_xyz
  1  'x, y, z'
loop_
 _atom_site_type_symbol
 _atom_site_label
 _atom_site_symmetry_multiplicity
 _atom_site_fract_x
 _atom_site_fract_y
 _atom_site_fract_z
 _atom_site_occupancy
  Ca  Ca0  1  0.24999793  0.24999793  0.24999793  1
  Tm  Tm1  1  0.74999901  0.74999901  0.74999901  1
  In  In2  1  0.99999927  0.99999927  0.99999927  1
  In  In3  1  0.50000479  0.50000479  0.50000479  1
