# generated using pymatgen
data_LiGa3
_symmetry_space_group_name_H-M   'P 1'
_cell_length_a   5.72198208
_cell_length_b   5.72109647
_cell_length_c   4.86998878
_cell_angle_alpha   90.03731319
_cell_angle_beta   89.96122828
_cell_angle_gamma   119.98530856
_symmetry_Int_Tables_number   1
_chemical_formula_structural   LiGa3
_chemical_formula_sum   'Li2 Ga6'
_cell_volume   138.08563547
_cell_formula_units_Z   2
loop_
 _symmetry_equiv_pos_site_id
 _symmetry_equiv_pos_as_xyz
  1  'x, y, z'
loop_
 _atom_site_type_symbol
 _atom_site_label
 _atom_site_symmetry_multiplicity
 _atom_site_fract_x
 _atom_site_fract_y
 _atom_site_fract_z
 _atom_site_occupancy
  Li  Li0  1  0.66667126  0.33329082  0.24990861  1
  Li  Li1  1  0.33333208  0.66670819  0.75008820  1
  Ga  Ga2  1  0.83411804  0.16581035  0.74975046  1
  Ga  Ga3  1  0.33165036  0.16577739  0.75005027  1
  Ga  Ga4  1  0.83419679  0.66837505  0.75001035  1
  Ga  Ga5  1  0.16587996  0.83419006  0.25024748  1
  Ga  Ga6  1  0.66835254  0.83422504  0.24994579  1
  Ga  Ga7  1  0.16579796  0.33162111  0.24998684  1
