# generated using pymatgen
data_H3CO2F
_symmetry_space_group_name_H-M   'P 1'
_cell_length_a   6.58722565
_cell_length_b   6.69355142
_cell_length_c   7.23310182
_cell_angle_alpha   90.00000000
_cell_angle_beta   90.00000000
_cell_angle_gamma   90.00000000
_symmetry_Int_Tables_number   1
_chemical_formula_structural   H3CO2F
_chemical_formula_sum   'H12 C4 O8 F4'
_cell_volume   318.92144519
_cell_formula_units_Z   4
loop_
 _symmetry_equiv_pos_site_id
 _symmetry_equiv_pos_as_xyz
  1  'x, y, z'
loop_
 _atom_site_type_symbol
 _atom_site_label
 _atom_site_symmetry_multiplicity
 _atom_site_fract_x
 _atom_site_fract_y
 _atom_site_fract_z
 _atom_site_occupancy
  H  H0  1  0.75000000  0.11862965  0.63896960  1
  H  H1  1  0.75000000  0.61862965  0.86103040  1
  H  H2  1  0.25000000  0.88137035  0.36103040  1
  H  H3  1  0.25000000  0.38137035  0.13896960  1
  H  H4  1  0.75000000  0.39488997  0.17697336  1
  H  H5  1  0.75000000  0.89488997  0.32302664  1
  H  H6  1  0.25000000  0.60511003  0.82302664  1
  H  H7  1  0.25000000  0.10511003  0.67697336  1
  H  H8  1  0.75000000  0.10872557  0.95019526  1
  H  H9  1  0.75000000  0.60872557  0.54980474  1
  H  H10  1  0.25000000  0.89127443  0.04980474  1
  H  H11  1  0.25000000  0.39127443  0.45019526  1
  C  C12  1  0.75000000  0.25390705  0.87771558  1
  C  C13  1  0.75000000  0.75390705  0.62228442  1
  C  C14  1  0.25000000  0.74609295  0.12228442  1
  C  C15  1  0.25000000  0.24609295  0.37771558  1
  O  O16  1  0.75000000  0.41368947  0.96723526  1
  O  O17  1  0.75000000  0.91368947  0.53276474  1
  O  O18  1  0.25000000  0.58631053  0.03276474  1
  O  O19  1  0.25000000  0.08631053  0.46723526  1
  O  O20  1  0.75000000  0.25813238  0.69853242  1
  O  O21  1  0.75000000  0.75813238  0.80146758  1
  O  O22  1  0.25000000  0.74186762  0.30146758  1
  O  O23  1  0.25000000  0.24186762  0.19853242  1
  F  F24  1  0.75000000  0.39097232  0.31330431  1
  F  F25  1  0.75000000  0.89097232  0.18669569  1
  F  F26  1  0.25000000  0.60902768  0.68669569  1
  F  F27  1  0.25000000  0.10902768  0.81330431  1
