# generated using pymatgen
data_Hg
_symmetry_space_group_name_H-M   'P 1'
_cell_length_a   3.67943240
_cell_length_b   5.94014611
_cell_length_c   6.72707086
_cell_angle_alpha   63.79970857
_cell_angle_beta   90.00000000
_cell_angle_gamma   90.00000000
_symmetry_Int_Tables_number   1
_chemical_formula_structural   Hg
_chemical_formula_sum   Hg4
_cell_volume   131.92296075
_cell_formula_units_Z   4
loop_
 _symmetry_equiv_pos_site_id
 _symmetry_equiv_pos_as_xyz
  1  'x, y, z'
loop_
 _atom_site_type_symbol
 _atom_site_label
 _atom_site_symmetry_multiplicity
 _atom_site_fract_x
 _atom_site_fract_y
 _atom_site_fract_z
 _atom_site_occupancy
  Hg  Hg0  1  0.50085402  0.86597977  0.26803846  1
  Hg  Hg1  1  0.99914498  0.36597977  0.26803846  1
  Hg  Hg2  1  0.00085202  0.63401923  0.73195954  1
  Hg  Hg3  1  0.49914598  0.13401923  0.73195954  1
