# generated using pymatgen
data_SnP2(HO4)2
_symmetry_space_group_name_H-M   'P 1'
_cell_length_a   4.96739325
_cell_length_b   8.13917873
_cell_length_c   8.92398790
_cell_angle_alpha   117.13110805
_cell_angle_beta   98.01914274
_cell_angle_gamma   89.99999946
_symmetry_Int_Tables_number   1
_chemical_formula_structural   SnP2(HO4)2
_chemical_formula_sum   'Sn2 P4 H4 O16'
_cell_volume   317.13120418
_cell_formula_units_Z   2
loop_
 _symmetry_equiv_pos_site_id
 _symmetry_equiv_pos_as_xyz
  1  'x, y, z'
loop_
 _atom_site_type_symbol
 _atom_site_label
 _atom_site_symmetry_multiplicity
 _atom_site_fract_x
 _atom_site_fract_y
 _atom_site_fract_z
 _atom_site_occupancy
  Sn  Sn0  1  0.25000000  0.13942862  0.00000000  1
  Sn  Sn1  1  0.75000000  0.86057138  1.00000000  1
  P  P2  1  0.19781410  0.65403334  0.74242604  1
  P  P3  1  0.30218590  0.91160729  0.25757396  1
  P  P4  1  0.80218590  0.34596666  0.25757396  1
  P  P5  1  0.69781410  0.08839271  0.74242604  1
  H  H6  1  0.15765374  0.60713673  0.47078219  1
  H  H7  1  0.34234626  0.13635454  0.52921781  1
  H  H8  1  0.84234626  0.39286327  0.52921781  1
  H  H9  1  0.65765374  0.86364546  0.47078219  1
  O  O10  1  0.99411747  0.49965754  0.70326738  1
  O  O11  1  0.50588253  0.79639017  0.29673262  1
  O  O12  1  0.00588253  0.50034246  0.29673262  1
  O  O13  1  0.49411747  0.20360983  0.70326738  1
  O  O14  1  0.46742462  0.65118299  0.85603699  1
  O  O15  1  0.03257538  0.79514600  0.14396301  1
  O  O16  1  0.53257538  0.34881701  0.14396301  1
  O  O17  1  0.96742462  0.20485400  0.85603699  1
  O  O18  1  0.06060609  0.84849638  0.85701770  1
  O  O19  1  0.43939391  0.99147868  0.14298230  1
  O  O20  1  0.93939391  0.15150362  0.14298230  1
  O  O21  1  0.56060609  0.00852132  0.85701770  1
  O  O22  1  0.27904069  0.67484738  0.59072115  1
  O  O23  1  0.22095931  0.08412623  0.40927885  1
  O  O24  1  0.72095931  0.32515262  0.40927885  1
  O  O25  1  0.77904069  0.91587377  0.59072115  1
