# generated using pymatgen
data_Pm2Mg
_symmetry_space_group_name_H-M   'P 1'
_cell_length_a   3.75346187
_cell_length_b   7.04348596
_cell_length_c   7.56166739
_cell_angle_alpha   74.60666595
_cell_angle_beta   90.00000000
_cell_angle_gamma   105.45307581
_symmetry_Int_Tables_number   1
_chemical_formula_structural   Pm2Mg
_chemical_formula_sum   'Pm4 Mg2'
_cell_volume   185.23310621
_cell_formula_units_Z   2
loop_
 _symmetry_equiv_pos_site_id
 _symmetry_equiv_pos_as_xyz
  1  'x, y, z'
loop_
 _atom_site_type_symbol
 _atom_site_label
 _atom_site_symmetry_multiplicity
 _atom_site_fract_x
 _atom_site_fract_y
 _atom_site_fract_z
 _atom_site_occupancy
  Pm  Pm0  1  0.34695288  0.69391958  0.29203584  1
  Pm  Pm1  1  0.04192231  0.08385842  0.43018616  1
  Pm  Pm2  1  0.35959410  0.71925413  0.77224516  1
  Pm  Pm3  1  0.02922897  0.05852287  0.94997784  1
  Mg  Mg4  1  0.69928611  0.39849748  0.09477499  1
  Mg  Mg5  1  0.68967763  0.37927952  0.62744801  1
