# generated using pymatgen
data_PmI
_symmetry_space_group_name_H-M   'P 1'
_cell_length_a   3.90506900
_cell_length_b   3.90507382
_cell_length_c   4.75299204
_cell_angle_alpha   89.99998272
_cell_angle_beta   90.00001284
_cell_angle_gamma   119.99991010
_symmetry_Int_Tables_number   1
_chemical_formula_structural   PmI
_chemical_formula_sum   'Pm1 I1'
_cell_volume   62.77056995
_cell_formula_units_Z   1
loop_
 _symmetry_equiv_pos_site_id
 _symmetry_equiv_pos_as_xyz
  1  'x, y, z'
loop_
 _atom_site_type_symbol
 _atom_site_label
 _atom_site_symmetry_multiplicity
 _atom_site_fract_x
 _atom_site_fract_y
 _atom_site_fract_z
 _atom_site_occupancy
  Pm  Pm0  1  0.33333463  0.66666819  0.25000034  1
  I  I1  1  0.66666837  0.33333381  0.75000066  1
