# generated using pymatgen
data_La3CoW(SO2)3
_symmetry_space_group_name_H-M   'P 1'
_cell_length_a   5.57883448
_cell_length_b   9.44353628
_cell_length_c   9.44313676
_cell_angle_alpha   119.99900882
_cell_angle_beta   90.00000000
_cell_angle_gamma   90.00000000
_symmetry_Int_Tables_number   1
_chemical_formula_structural   La3CoW(SO2)3
_chemical_formula_sum   'La6 Co2 W2 S6 O12'
_cell_volume   430.85325487
_cell_formula_units_Z   2
loop_
 _symmetry_equiv_pos_site_id
 _symmetry_equiv_pos_as_xyz
  1  'x, y, z'
loop_
 _atom_site_type_symbol
 _atom_site_label
 _atom_site_symmetry_multiplicity
 _atom_site_fract_x
 _atom_site_fract_y
 _atom_site_fract_z
 _atom_site_occupancy
  La  La0  1  0.25000000  0.90984897  0.59522716  1
  La  La1  1  0.25000000  0.40477193  0.31460577  1
  La  La2  1  0.25000000  0.68539955  0.09019143  1
  La  La3  1  0.75000000  0.09015103  0.40477284  1
  La  La4  1  0.75000000  0.59522807  0.68539423  1
  La  La5  1  0.75000000  0.31460045  0.90980857  1
  Co  Co6  1  0.50000000  -0.00000000  -0.00000000  1
  Co  Co7  1  0.00000000  -0.00000000  -0.00000000  1
  W  W8  1  0.75000000  0.66665326  0.33331991  1
  W  W9  1  0.25000000  0.33334674  0.66668009  1
  S  S10  1  0.75000000  0.83256036  0.04466042  1
  S  S11  1  0.75000000  0.95530467  0.78784030  1
  S  S12  1  0.75000000  0.21207948  0.16740491  1
  S  S13  1  0.25000000  0.16743964  0.95533958  1
  S  S14  1  0.25000000  0.04469533  0.21215970  1
  S  S15  1  0.25000000  0.78792052  0.83259509  1
  O  O16  1  0.52289490  0.83944645  0.36391285  1
  O  O17  1  0.52288791  0.63607604  0.47553827  1
  O  O18  1  0.52290145  0.52445388  0.16055134  1
  O  O19  1  0.02289490  0.16055355  0.63608715  1
  O  O20  1  0.02288791  0.36392396  0.52446173  1
  O  O21  1  0.02290145  0.47554612  0.83944866  1
  O  O22  1  0.47710510  0.16055355  0.63608715  1
  O  O23  1  0.47711209  0.36392396  0.52446173  1
  O  O24  1  0.47709855  0.47554612  0.83944866  1
  O  O25  1  0.97710510  0.83944645  0.36391285  1
  O  O26  1  0.97711209  0.63607604  0.47553827  1
  O  O27  1  0.97709855  0.52445388  0.16055134  1
