# generated using pymatgen
data_Sr2Mg
_symmetry_space_group_name_H-M   'P 1'
_cell_length_a   4.22367272
_cell_length_b   7.74624968
_cell_length_c   8.47876530
_cell_angle_alpha   74.22575426
_cell_angle_beta   90.00000000
_cell_angle_gamma   105.82064974
_symmetry_Int_Tables_number   1
_chemical_formula_structural   Sr2Mg
_chemical_formula_sum   'Sr4 Mg2'
_cell_volume   256.02146792
_cell_formula_units_Z   2
loop_
 _symmetry_equiv_pos_site_id
 _symmetry_equiv_pos_as_xyz
  1  'x, y, z'
loop_
 _atom_site_type_symbol
 _atom_site_label
 _atom_site_symmetry_multiplicity
 _atom_site_fract_x
 _atom_site_fract_y
 _atom_site_fract_z
 _atom_site_occupancy
  Sr  Sr0  1  0.05209762  0.10419523  0.93157506  1
  Sr  Sr1  1  0.33806377  0.67612754  0.28903283  1
  Sr  Sr2  1  0.05082523  0.10165146  0.43318917  1
  Sr  Sr3  1  0.33679038  0.67358177  0.79064694  1
  Mg  Mg4  1  0.69395320  0.38790540  0.11333549  1
  Mg  Mg5  1  0.69493580  0.38987160  0.60888551  1
