# generated using pymatgen
data_SnRh3
_symmetry_space_group_name_H-M   'P 1'
_cell_length_a   5.67613029
_cell_length_b   5.67613112
_cell_length_c   4.50935647
_cell_angle_alpha   90.00000000
_cell_angle_beta   90.00000000
_cell_angle_gamma   120.00000158
_symmetry_Int_Tables_number   1
_chemical_formula_structural   SnRh3
_chemical_formula_sum   'Sn2 Rh6'
_cell_volume   125.82008323
_cell_formula_units_Z   2
loop_
 _symmetry_equiv_pos_site_id
 _symmetry_equiv_pos_as_xyz
  1  'x, y, z'
loop_
 _atom_site_type_symbol
 _atom_site_label
 _atom_site_symmetry_multiplicity
 _atom_site_fract_x
 _atom_site_fract_y
 _atom_site_fract_z
 _atom_site_occupancy
  Sn  Sn0  1  0.33333300  0.66666600  0.75000000  1
  Sn  Sn1  1  0.66666700  0.33333200  0.25000000  1
  Rh  Rh2  1  0.16298530  0.32597059  0.25000000  1
  Rh  Rh3  1  0.67403041  0.83701570  0.25000000  1
  Rh  Rh4  1  0.16298530  0.83701570  0.25000000  1
  Rh  Rh5  1  0.83701470  0.67403041  0.75000000  1
  Rh  Rh6  1  0.32596959  0.16298530  0.75000000  1
  Rh  Rh7  1  0.83701670  0.16298530  0.75000000  1
