# generated using pymatgen
data_SrMg2
_symmetry_space_group_name_H-M   'P 1'
_cell_length_a   6.45559042
_cell_length_b   6.45559170
_cell_length_c   6.41730445
_cell_angle_alpha   120.19754732
_cell_angle_beta   59.80244761
_cell_angle_gamma   119.99999473
_symmetry_Int_Tables_number   1
_chemical_formula_structural   SrMg2
_chemical_formula_sum   'Sr2 Mg4'
_cell_volume   188.54126821
_cell_formula_units_Z   2
loop_
 _symmetry_equiv_pos_site_id
 _symmetry_equiv_pos_as_xyz
  1  'x, y, z'
loop_
 _atom_site_type_symbol
 _atom_site_label
 _atom_site_symmetry_multiplicity
 _atom_site_fract_x
 _atom_site_fract_y
 _atom_site_fract_z
 _atom_site_occupancy
  Sr  Sr0  1  0.87486906  0.45846394  0.37539181  1
  Sr  Sr1  1  0.12513194  0.20820306  0.62460819  1
  Mg  Mg2  1  0.50015875  0.33333400  0.00000000  1
  Mg  Mg3  1  0.49984225  0.83317525  1.00000000  1
  Mg  Mg4  1  0.49999800  0.83333300  0.50000100  1
  Mg  Mg5  1  0.00000100  0.83349275  0.99999900  1
