# generated using pymatgen
data_Pr4CuS7
_symmetry_space_group_name_H-M   'P 1'
_cell_length_a   7.11306981
_cell_length_b   9.80956947
_cell_length_c   9.80585715
_cell_angle_alpha   119.98636819
_cell_angle_beta   90.00000000
_cell_angle_gamma   90.00000000
_symmetry_Int_Tables_number   1
_chemical_formula_structural   Pr4CuS7
_chemical_formula_sum   'Pr8 Cu2 S14'
_cell_volume   592.62893464
_cell_formula_units_Z   2
loop_
 _symmetry_equiv_pos_site_id
 _symmetry_equiv_pos_as_xyz
  1  'x, y, z'
loop_
 _atom_site_type_symbol
 _atom_site_label
 _atom_site_symmetry_multiplicity
 _atom_site_fract_x
 _atom_site_fract_y
 _atom_site_fract_z
 _atom_site_occupancy
  Pr  Pr0  1  0.27725835  0.22051128  0.37285637  1
  Pr  Pr1  1  0.27746024  0.62718975  0.84762879  1
  Pr  Pr2  1  0.27736920  0.15236037  0.77952171  1
  Pr  Pr3  1  0.77725835  0.77948872  0.62714363  1
  Pr  Pr4  1  0.77746024  0.37281025  0.15237121  1
  Pr  Pr5  1  0.77736920  0.84763963  0.22047829  1
  Pr  Pr6  1  0.81527248  0.33343489  0.66682198  1
  Pr  Pr7  1  0.31527248  0.66656511  0.33317802  1
  Cu  Cu8  1  0.16797034  -0.00000061  0.00006993  1
  Cu  Cu9  1  0.66797034  0.00000061  0.99993007  1
  S  S10  1  0.68163005  0.14860987  0.25938699  1
  S  S11  1  0.68169194  0.74047247  0.88914005  1
  S  S12  1  0.68163728  0.11087388  0.85136886  1
  S  S13  1  0.18163005  0.85139013  0.74061301  1
  S  S14  1  0.18169194  0.25952753  0.11085995  1
  S  S15  1  0.18163728  0.88912612  0.14863114  1
  S  S16  1  0.03682238  0.07297565  0.51253097  1
  S  S17  1  0.03680918  0.48750598  0.56036216  1
  S  S18  1  0.03705066  0.43975961  0.92730956  1
  S  S19  1  0.53682238  0.92702435  0.48746903  1
  S  S20  1  0.53680918  0.51249402  0.43963784  1
  S  S21  1  0.53705066  0.56024039  0.07269044  1
  S  S22  1  0.43402791  0.33330202  0.66661451  1
  S  S23  1  0.93402791  0.66669798  0.33338549  1
