# generated using pymatgen
data_Tb3Pm
_symmetry_space_group_name_H-M   'P 1'
_cell_length_a   7.25871854
_cell_length_b   7.25871874
_cell_length_c   5.82213225
_cell_angle_alpha   90.00000000
_cell_angle_beta   90.00000000
_cell_angle_gamma   119.99999907
_symmetry_Int_Tables_number   1
_chemical_formula_structural   Tb3Pm
_chemical_formula_sum   'Tb6 Pm2'
_cell_volume   265.66395129
_cell_formula_units_Z   2
loop_
 _symmetry_equiv_pos_site_id
 _symmetry_equiv_pos_as_xyz
  1  'x, y, z'
loop_
 _atom_site_type_symbol
 _atom_site_label
 _atom_site_symmetry_multiplicity
 _atom_site_fract_x
 _atom_site_fract_y
 _atom_site_fract_z
 _atom_site_occupancy
  Tb  Tb0  1  0.83436862  0.16563038  0.74999900  1
  Tb  Tb1  1  0.33126177  0.16563038  0.74999900  1
  Tb  Tb2  1  0.83436962  0.66873823  0.74999900  1
  Tb  Tb3  1  0.16563138  0.83436962  0.25000000  1
  Tb  Tb4  1  0.66873923  0.83436962  0.25000000  1
  Tb  Tb5  1  0.16563038  0.33126177  0.25000000  1
  Pm  Pm6  1  0.66666700  0.33333300  0.25000000  1
  Pm  Pm7  1  0.33333300  0.66666600  0.74999900  1
