# generated using pymatgen
data_K(IO3)3
_symmetry_space_group_name_H-M   'P 1'
_cell_length_a   8.23991406
_cell_length_b   8.23626194
_cell_length_c   8.25998359
_cell_angle_alpha   85.28550324
_cell_angle_beta   59.42429792
_cell_angle_gamma   65.91580923
_symmetry_Int_Tables_number   1
_chemical_formula_structural   K(IO3)3
_chemical_formula_sum   'K2 I6 O18'
_cell_volume   434.97241695
_cell_formula_units_Z   2
loop_
 _symmetry_equiv_pos_site_id
 _symmetry_equiv_pos_as_xyz
  1  'x, y, z'
loop_
 _atom_site_type_symbol
 _atom_site_label
 _atom_site_symmetry_multiplicity
 _atom_site_fract_x
 _atom_site_fract_y
 _atom_site_fract_z
 _atom_site_occupancy
  K  K0  1  0.51218673  0.28464754  0.73165047  1
  K  K1  1  0.48781327  0.71535246  0.26834953  1
  I  I2  1  0.44487287  0.80760780  0.80415546  1
  I  I3  1  0.55512713  0.19239220  0.19584454  1
  I  I4  1  0.99145509  0.26357287  0.23397747  1
  I  I5  1  0.00854491  0.73642713  0.76602253  1
  I  I6  1  0.92453552  0.79112931  0.29745193  1
  I  I7  1  0.07546448  0.20887069  0.70254807  1
  O  O8  1  0.61463273  0.56816031  0.78982936  1
  O  O9  1  0.38536727  0.43183969  0.21017064  1
  O  O10  1  0.58410438  0.92030006  0.83373769  1
  O  O11  1  0.41589562  0.07969994  0.16626231  1
  O  O12  1  0.05780836  0.45218365  0.12243044  1
  O  O13  1  0.94219164  0.54781635  0.87756956  1
  O  O14  1  0.91642004  0.33353541  0.47804637  1
  O  O15  1  0.08357996  0.66646459  0.52195363  1
  O  O16  1  0.67755833  0.77321931  0.46612584  1
  O  O17  1  0.32244167  0.22678069  0.53387416  1
  O  O18  1  0.27783084  0.81067589  0.06432784  1
  O  O19  1  0.72216916  0.18932411  0.93567216  1
  O  O20  1  0.85639604  0.01444192  0.39832364  1
  O  O21  1  0.14360396  0.98555808  0.60167636  1
  O  O22  1  0.73125630  0.35447076  0.26488562  1
  O  O23  1  0.26874370  0.64552924  0.73511438  1
  O  O24  1  0.85352808  0.86530722  0.11298279  1
  O  O25  1  0.14647192  0.13469278  0.88701721  1
