# generated using pymatgen
data_PrMn7O12
_symmetry_space_group_name_H-M   'P 1'
_cell_length_a   6.57725192
_cell_length_b   6.57725192
_cell_length_c   6.54894277
_cell_angle_alpha   109.49616499
_cell_angle_beta   109.17180916
_cell_angle_gamma   109.91978508
_symmetry_Int_Tables_number   1
_chemical_formula_structural   PrMn7O12
_chemical_formula_sum   'Pr1 Mn7 O12'
_cell_volume   217.61441429
_cell_formula_units_Z   1
loop_
 _symmetry_equiv_pos_site_id
 _symmetry_equiv_pos_as_xyz
  1  'x, y, z'
loop_
 _atom_site_type_symbol
 _atom_site_label
 _atom_site_symmetry_multiplicity
 _atom_site_fract_x
 _atom_site_fract_y
 _atom_site_fract_z
 _atom_site_occupancy
  Pr  Pr0  1  -0.00000000  0.00000000  0.00000000  1
  Mn  Mn1  1  -0.00000000  0.50000000  0.50000000  1
  Mn  Mn2  1  0.50000000  0.00000000  0.50000000  1
  Mn  Mn3  1  0.50000000  0.50000000  0.00000000  1
  Mn  Mn4  1  0.50000000  0.50000000  0.50000000  1
  Mn  Mn5  1  -0.00000000  0.00000000  0.50000000  1
  Mn  Mn6  1  0.50000000  0.00000000  0.00000000  1
  Mn  Mn7  1  -0.00000000  0.50000000  0.00000000  1
  O  O8  1  0.70025202  0.86660572  0.18148787  1
  O  O9  1  0.68511785  0.51876415  0.81851213  1
  O  O10  1  0.29974798  0.13339428  0.81851213  1
  O  O11  1  0.31488215  0.48123585  0.18148787  1
  O  O12  1  0.82867580  0.69536596  0.52404177  1
  O  O13  1  0.17132420  0.30463404  0.47595823  1
  O  O14  1  0.17770370  0.69089198  0.86859568  1
  O  O15  1  0.82229630  0.30910802  0.13140432  1
  O  O16  1  0.51741923  0.82956647  0.69662578  1
  O  O17  1  0.13294068  0.82079345  0.30337422  1
  O  O18  1  0.48258077  0.17043353  0.30337422  1
  O  O19  1  0.86705932  0.17920655  0.69662578  1
