# generated using pymatgen
data_Lu(BRh)4
_symmetry_space_group_name_H-M   'P 1'
_cell_length_a   5.32565667
_cell_length_b   5.32565667
_cell_length_c   7.42021502
_cell_angle_alpha   90.00000000
_cell_angle_beta   90.00000000
_cell_angle_gamma   90.00000000
_symmetry_Int_Tables_number   1
_chemical_formula_structural   Lu(BRh)4
_chemical_formula_sum   'Lu2 B8 Rh8'
_cell_volume   210.45673126
_cell_formula_units_Z   2
loop_
 _symmetry_equiv_pos_site_id
 _symmetry_equiv_pos_as_xyz
  1  'x, y, z'
loop_
 _atom_site_type_symbol
 _atom_site_label
 _atom_site_symmetry_multiplicity
 _atom_site_fract_x
 _atom_site_fract_y
 _atom_site_fract_z
 _atom_site_occupancy
  Lu  Lu0  1  0.75000000  0.25000000  0.25000000  1
  Lu  Lu1  1  0.25000000  0.75000000  0.75000000  1
  B  B2  1  0.58127183  0.75000000  0.39949522  1
  B  B3  1  0.91872817  0.75000000  0.39949522  1
  B  B4  1  0.75000000  0.58127183  0.89949522  1
  B  B5  1  0.75000000  0.91872817  0.89949522  1
  B  B6  1  0.41872817  0.25000000  0.60050478  1
  B  B7  1  0.08127183  0.25000000  0.60050478  1
  B  B8  1  0.25000000  0.41872817  0.10050478  1
  B  B9  1  0.25000000  0.08127183  0.10050478  1
  Rh  Rh10  1  0.00094124  0.75000000  0.10411113  1
  Rh  Rh11  1  0.49905876  0.75000000  0.10411113  1
  Rh  Rh12  1  0.75000000  0.00094124  0.60411113  1
  Rh  Rh13  1  0.75000000  0.49905876  0.60411113  1
  Rh  Rh14  1  0.99905876  0.25000000  0.89588887  1
  Rh  Rh15  1  0.50094124  0.25000000  0.89588887  1
  Rh  Rh16  1  0.25000000  0.99905876  0.39588887  1
  Rh  Rh17  1  0.25000000  0.50094124  0.39588887  1
