# generated using pymatgen
data_Tm5In3
_symmetry_space_group_name_H-M   'P 1'
_cell_length_a   6.57305799
_cell_length_b   8.89771612
_cell_length_c   8.91427287
_cell_angle_alpha   119.93857585
_cell_angle_beta   90.00000000
_cell_angle_gamma   90.00000000
_symmetry_Int_Tables_number   1
_chemical_formula_structural   Tm5In3
_chemical_formula_sum   'Tm10 In6'
_cell_volume   451.78420045
_cell_formula_units_Z   2
loop_
 _symmetry_equiv_pos_site_id
 _symmetry_equiv_pos_as_xyz
  1  'x, y, z'
loop_
 _atom_site_type_symbol
 _atom_site_label
 _atom_site_symmetry_multiplicity
 _atom_site_fract_x
 _atom_site_fract_y
 _atom_site_fract_z
 _atom_site_occupancy
  Tm  Tm0  1  0.50000115  0.33332566  0.66663892  1
  Tm  Tm1  1  0.50000115  0.66668674  0.33336108  1
  Tm  Tm2  1  0.00000115  0.66667434  0.33336108  1
  Tm  Tm3  1  0.00000115  0.33331326  0.66663892  1
  Tm  Tm4  1  0.75000461  0.24332153  1.00000000  1
  Tm  Tm5  1  0.74999734  0.75639903  0.75655490  1
  Tm  Tm6  1  0.74999734  0.99984414  0.24344510  1
  Tm  Tm7  1  0.25000461  0.75667847  0.00000000  1
  Tm  Tm8  1  0.24999734  0.24360097  0.24344510  1
  Tm  Tm9  1  0.24999734  0.00015586  0.75655490  1
  In  In10  1  0.75000007  0.60201367  0.00000000  1
  In  In11  1  0.74999917  0.39763540  0.39779963  1
  In  In12  1  0.74999917  0.99983576  0.60220037  1
  In  In13  1  0.25000007  0.39798633  1.00000000  1
  In  In14  1  0.24999917  0.60236460  0.60220037  1
  In  In15  1  0.24999917  0.00016424  0.39779963  1
