# generated using pymatgen
data_Yb3Eu
_symmetry_space_group_name_H-M   'P 1'
_cell_length_a   7.70117564
_cell_length_b   7.70611267
_cell_length_c   6.33836733
_cell_angle_alpha   90.00553344
_cell_angle_beta   89.99461287
_cell_angle_gamma   119.99642510
_symmetry_Int_Tables_number   1
_chemical_formula_structural   Yb3Eu
_chemical_formula_sum   'Yb6 Eu2'
_cell_volume   325.77372961
_cell_formula_units_Z   2
loop_
 _symmetry_equiv_pos_site_id
 _symmetry_equiv_pos_as_xyz
  1  'x, y, z'
loop_
 _atom_site_type_symbol
 _atom_site_label
 _atom_site_symmetry_multiplicity
 _atom_site_fract_x
 _atom_site_fract_y
 _atom_site_fract_z
 _atom_site_occupancy
  Yb  Yb0  1  0.16676406  0.33350185  0.24988222  1
  Yb  Yb1  1  0.66639464  0.83318003  0.24988118  1
  Yb  Yb2  1  0.16676656  0.83322335  0.24991018  1
  Yb  Yb3  1  0.83329912  0.66652634  0.75011358  1
  Yb  Yb4  1  0.33352301  0.16677309  0.75011743  1
  Yb  Yb5  1  0.83328865  0.16680595  0.75008704  1
  Eu  Eu6  1  0.33338843  0.66674369  0.74997205  1
  Eu  Eu7  1  0.66657552  0.33324470  0.25004033  1
