# generated using pymatgen
data_K2Mo(SO)2
_symmetry_space_group_name_H-M   'P 1'
_cell_length_a   6.68681806
_cell_length_b   8.40196165
_cell_length_c   12.67894332
_cell_angle_alpha   90.00000000
_cell_angle_beta   93.97486251
_cell_angle_gamma   90.00000000
_symmetry_Int_Tables_number   1
_chemical_formula_structural   K2Mo(SO)2
_chemical_formula_sum   'K8 Mo4 S8 O8'
_cell_volume   710.61984907
_cell_formula_units_Z   4
loop_
 _symmetry_equiv_pos_site_id
 _symmetry_equiv_pos_as_xyz
  1  'x, y, z'
loop_
 _atom_site_type_symbol
 _atom_site_label
 _atom_site_symmetry_multiplicity
 _atom_site_fract_x
 _atom_site_fract_y
 _atom_site_fract_z
 _atom_site_occupancy
  K  K0  1  0.22382759  0.18437521  0.55114219  1
  K  K1  1  0.27617241  0.68437521  0.94885781  1
  K  K2  1  0.77617241  0.81562479  0.44885781  1
  K  K3  1  0.72382759  0.31562479  0.05114219  1
  K  K4  1  0.64723572  0.98165273  0.79867456  1
  K  K5  1  0.85276428  0.48165273  0.70132544  1
  K  K6  1  0.35276428  0.01834727  0.20132544  1
  K  K7  1  0.14723572  0.51834727  0.29867456  1
  Mo  Mo8  1  0.30972887  0.70691185  0.58408865  1
  Mo  Mo9  1  0.19027113  0.20691185  0.91591135  1
  Mo  Mo10  1  0.69027113  0.29308815  0.41591135  1
  Mo  Mo11  1  0.80972887  0.79308815  0.08408865  1
  S  S12  1  0.77864918  0.66149723  0.92885025  1
  S  S13  1  0.72135082  0.16149723  0.57114975  1
  S  S14  1  0.22135082  0.33850277  0.07114975  1
  S  S15  1  0.27864918  0.83850277  0.42885025  1
  S  S16  1  0.12637010  0.83302391  0.69881962  1
  S  S17  1  0.37362990  0.33302391  0.80118038  1
  S  S18  1  0.87362990  0.16697609  0.30118038  1
  S  S19  1  0.62637010  0.66697609  0.19881962  1
  O  O20  1  0.21578277  0.51198577  0.56341764  1
  O  O21  1  0.28421723  0.01198577  0.93658236  1
  O  O22  1  0.78421723  0.48801423  0.43658236  1
  O  O23  1  0.71578277  0.98801423  0.06341764  1
  O  O24  1  0.56599705  0.70714265  0.63254232  1
  O  O25  1  0.93400295  0.20714265  0.86745768  1
  O  O26  1  0.43400295  0.29285735  0.36745768  1
  O  O27  1  0.06599705  0.79285735  0.13254232  1
