# generated using pymatgen
data_Ba5Cr5O14
_symmetry_space_group_name_H-M   'P 1'
_cell_length_a   5.83895754
_cell_length_b   5.82273675
_cell_length_c   12.24024649
_cell_angle_alpha   90.00000001
_cell_angle_beta   90.21453714
_cell_angle_gamma   119.90815085
_symmetry_Int_Tables_number   1
_chemical_formula_structural   Ba5Cr5O14
_chemical_formula_sum   'Ba5 Cr5 O14'
_cell_volume   360.72847587
_cell_formula_units_Z   1
loop_
 _symmetry_equiv_pos_site_id
 _symmetry_equiv_pos_as_xyz
  1  'x, y, z'
loop_
 _atom_site_type_symbol
 _atom_site_label
 _atom_site_symmetry_multiplicity
 _atom_site_fract_x
 _atom_site_fract_y
 _atom_site_fract_z
 _atom_site_occupancy
  Ba  Ba0  1  -0.00000000  -0.00000000  0.00000000  1
  Ba  Ba1  1  0.33407575  0.66703788  0.77044524  1
  Ba  Ba2  1  0.66592425  0.33296212  0.22955476  1
  Ba  Ba3  1  0.33466945  0.66733472  0.42321704  1
  Ba  Ba4  1  0.66533055  0.33266528  0.57678296  1
  Cr  Cr5  1  0.33345957  0.66672978  0.13399494  1
  Cr  Cr6  1  0.66654043  0.33327022  0.86600506  1
  Cr  Cr7  1  0.00305183  0.00152591  0.28884721  1
  Cr  Cr8  1  0.99694817  0.99847409  0.71115279  1
  Cr  Cr9  1  -0.00000000  -0.00000000  0.50000000  1
  O  O10  1  0.33311239  0.66655619  0.99381139  1
  O  O11  1  0.66688761  0.33344381  0.00618861  1
  O  O12  1  0.66858736  0.83429368  0.19207170  1
  O  O13  1  0.16525644  0.83436573  0.19168583  1
  O  O14  1  0.16525644  0.33089071  0.19168583  1
  O  O15  1  0.33141264  0.16570632  0.80792830  1
  O  O16  1  0.83474356  0.16563427  0.80831417  1
  O  O17  1  0.83474356  0.66910929  0.80831417  1
  O  O18  1  0.69746350  0.84873175  0.60301996  1
  O  O19  1  0.14848654  0.85186400  0.60099168  1
  O  O20  1  0.14848654  0.29662255  0.60099168  1
  O  O21  1  0.30253650  0.15126825  0.39698004  1
  O  O22  1  0.85151346  0.14813600  0.39900832  1
  O  O23  1  0.85151346  0.70337745  0.39900832  1
