# generated using pymatgen
data_Gd8Rh5C12
_symmetry_space_group_name_H-M   'P 1'
_cell_length_a   3.62433199
_cell_length_b   7.47631525
_cell_length_c   14.16700817
_cell_angle_alpha   93.61429403
_cell_angle_beta   97.36035135
_cell_angle_gamma   89.97249800
_symmetry_Int_Tables_number   1
_chemical_formula_structural   Gd8Rh5C12
_chemical_formula_sum   'Gd8 Rh5 C12'
_cell_volume   379.94688294
_cell_formula_units_Z   1
loop_
 _symmetry_equiv_pos_site_id
 _symmetry_equiv_pos_as_xyz
  1  'x, y, z'
loop_
 _atom_site_type_symbol
 _atom_site_label
 _atom_site_symmetry_multiplicity
 _atom_site_fract_x
 _atom_site_fract_y
 _atom_site_fract_z
 _atom_site_occupancy
  Gd  Gd0  1  0.70651578  0.11652650  0.41179718  1
  Gd  Gd1  1  0.29398971  0.88393869  0.58933447  1
  Gd  Gd2  1  0.69961131  0.60920567  0.39903525  1
  Gd  Gd3  1  0.30109707  0.39053063  0.60203726  1
  Gd  Gd4  1  0.58755348  0.82876944  0.17606762  1
  Gd  Gd5  1  0.41223036  0.17130344  0.82331275  1
  Gd  Gd6  1  0.54614027  0.29770132  0.09386554  1
  Gd  Gd7  1  0.45333846  0.70194731  0.90518914  1
  Rh  Rh8  1  0.99962833  0.00033832  -0.00023808  1
  Rh  Rh9  1  0.89006641  0.50903487  0.78058097  1
  Rh  Rh10  1  0.10981893  0.49092689  0.21913404  1
  Rh  Rh11  1  0.88140674  0.87169252  0.76576373  1
  Rh  Rh12  1  0.11850367  0.12859474  0.23380343  1
  C  C13  1  0.97655152  0.24427919  0.95464010  1
  C  C14  1  0.02323961  0.75592953  0.04532007  1
  C  C15  1  0.95176976  0.38445467  0.90400344  1
  C  C16  1  0.04808628  0.61561205  0.09571169  1
  C  C17  1  0.83231706  0.65142020  0.66348482  1
  C  C18  1  0.16779759  0.34799155  0.33668715  1
  C  C19  1  0.78404880  0.63562312  0.56795239  1
  C  C20  1  0.21624690  0.36408349  0.43246378  1
  C  C21  1  0.83895017  0.12517612  0.68196221  1
  C  C22  1  0.16093892  0.87455130  0.31801075  1
  C  C23  1  0.79409073  0.13142829  0.58615294  1
  C  C24  1  0.20606215  0.86894018  0.41392736  1
