# generated using pymatgen
data_As2O3
_symmetry_space_group_name_H-M   'P 1'
_cell_length_a   7.02500328
_cell_length_b   7.02500328
_cell_length_c   8.22195837
_cell_angle_alpha   90.00000000
_cell_angle_beta   90.00000000
_cell_angle_gamma   90.00000000
_symmetry_Int_Tables_number   1
_chemical_formula_structural   As2O3
_chemical_formula_sum   'As8 O12'
_cell_volume   405.75916318
_cell_formula_units_Z   4
loop_
 _symmetry_equiv_pos_site_id
 _symmetry_equiv_pos_as_xyz
  1  'x, y, z'
loop_
 _atom_site_type_symbol
 _atom_site_label
 _atom_site_symmetry_multiplicity
 _atom_site_fract_x
 _atom_site_fract_y
 _atom_site_fract_z
 _atom_site_occupancy
  As  As0  1  0.77427192  0.45240954  0.10480477  1
  As  As1  1  0.22572808  0.54759046  0.10480477  1
  As  As2  1  0.27427192  0.95240954  0.39519523  1
  As  As3  1  0.72572808  0.04759046  0.39519523  1
  As  As4  1  0.45240954  0.22572808  0.89519523  1
  As  As5  1  0.54759046  0.77427192  0.89519523  1
  As  As6  1  0.95240954  0.72572808  0.60480477  1
  As  As7  1  0.04759046  0.27427192  0.60480477  1
  O  O8  1  0.68307081  0.34174301  0.91827380  1
  O  O9  1  0.31692919  0.65825699  0.91827380  1
  O  O10  1  0.18307081  0.84174301  0.58172620  1
  O  O11  1  0.81692919  0.15825699  0.58172620  1
  O  O12  1  0.34174301  0.31692919  0.08172620  1
  O  O13  1  0.65825699  0.68307081  0.08172620  1
  O  O14  1  0.84174301  0.81692919  0.41827380  1
  O  O15  1  0.15825699  0.18307081  0.41827380  1
  O  O16  1  0.00000000  0.50000000  0.50148746  1
  O  O17  1  0.50000000  -0.00000000  0.99851254  1
  O  O18  1  0.50000000  -0.00000000  0.49851254  1
  O  O19  1  0.00000000  0.50000000  0.00148746  1
