# generated using pymatgen
data_ZrO2
_symmetry_space_group_name_H-M   'P 1'
_cell_length_a   5.16361109
_cell_length_b   5.33505817
_cell_length_c   10.21395306
_cell_angle_alpha   90.00000000
_cell_angle_beta   90.00000000
_cell_angle_gamma   90.00000000
_symmetry_Int_Tables_number   1
_chemical_formula_structural   ZrO2
_chemical_formula_sum   'Zr8 O16'
_cell_volume   281.37566964
_cell_formula_units_Z   8
loop_
 _symmetry_equiv_pos_site_id
 _symmetry_equiv_pos_as_xyz
  1  'x, y, z'
loop_
 _atom_site_type_symbol
 _atom_site_label
 _atom_site_symmetry_multiplicity
 _atom_site_fract_x
 _atom_site_fract_y
 _atom_site_fract_z
 _atom_site_occupancy
  Zr  Zr0  1  0.75230726  0.96511330  0.61551991  1
  Zr  Zr1  1  0.24769274  0.53488670  0.11551991  1
  Zr  Zr2  1  0.74769274  0.46511330  0.38448009  1
  Zr  Zr3  1  0.25230726  0.03488670  0.88448009  1
  Zr  Zr4  1  0.24769274  0.03488670  0.38448009  1
  Zr  Zr5  1  0.75230726  0.46511330  0.88448009  1
  Zr  Zr6  1  0.25230726  0.53488670  0.61551991  1
  Zr  Zr7  1  0.74769274  0.96511330  0.11551991  1
  O  O8  1  0.99839439  0.26115589  0.52169821  1
  O  O9  1  0.00160561  0.23884411  0.02169821  1
  O  O10  1  0.50160561  0.76115589  0.47830179  1
  O  O11  1  0.49839439  0.73884411  0.97830179  1
  O  O12  1  0.00160561  0.73884411  0.47830179  1
  O  O13  1  0.99839439  0.76115589  0.97830179  1
  O  O14  1  0.49839439  0.23884411  0.52169821  1
  O  O15  1  0.50160561  0.26115589  0.02169821  1
  O  O16  1  0.62511358  0.62774245  0.71121161  1
  O  O17  1  0.37488642  0.87225755  0.21121161  1
  O  O18  1  0.87488642  0.12774245  0.28878839  1
  O  O19  1  0.12511358  0.37225755  0.78878839  1
  O  O20  1  0.37488642  0.37225755  0.28878839  1
  O  O21  1  0.62511358  0.12774245  0.78878839  1
  O  O22  1  0.12511358  0.87225755  0.71121161  1
  O  O23  1  0.87488642  0.62774245  0.21121161  1
