# generated using pymatgen
data_BaAl4Se7
_symmetry_space_group_name_H-M   'P 1'
_cell_length_a   6.62518633
_cell_length_b   7.72266776
_cell_length_c   12.78226599
_cell_angle_alpha   89.82972179
_cell_angle_beta   90.00000000
_cell_angle_gamma   90.00000000
_symmetry_Int_Tables_number   1
_chemical_formula_structural   BaAl4Se7
_chemical_formula_sum   'Ba2 Al8 Se14'
_cell_volume   653.99041180
_cell_formula_units_Z   2
loop_
 _symmetry_equiv_pos_site_id
 _symmetry_equiv_pos_as_xyz
  1  'x, y, z'
loop_
 _atom_site_type_symbol
 _atom_site_label
 _atom_site_symmetry_multiplicity
 _atom_site_fract_x
 _atom_site_fract_y
 _atom_site_fract_z
 _atom_site_occupancy
  Ba  Ba0  1  0.64197843  0.01964980  0.54539049  1
  Ba  Ba1  1  0.35802157  0.51964980  0.04539049  1
  Al  Al2  1  0.83874370  0.76713499  0.24046739  1
  Al  Al3  1  0.16125630  0.26713499  0.74046739  1
  Al  Al4  1  0.98752667  0.50094442  0.50257015  1
  Al  Al5  1  0.01247333  0.00094442  0.00257015  1
  Al  Al6  1  0.84562653  0.26265683  0.22865607  1
  Al  Al7  1  0.15437347  0.76265683  0.72865607  1
  Al  Al8  1  0.63518048  0.51090636  0.72499236  1
  Al  Al9  1  0.36481952  0.01090636  0.22499236  1
  Se  Se10  1  0.85315943  0.73299724  0.05611022  1
  Se  Se11  1  0.14684057  0.23299724  0.55611022  1
  Se  Se12  1  0.63795728  0.46741519  0.54049918  1
  Se  Se13  1  0.36204272  0.96741519  0.04049918  1
  Se  Se14  1  0.89470003  0.28490931  0.04572260  1
  Se  Se15  1  0.10529997  0.78490931  0.54572260  1
  Se  Se16  1  0.97709341  0.51781318  0.80727001  1
  Se  Se17  1  0.02290659  0.01781318  0.30727001  1
  Se  Se18  1  0.48616568  0.27487661  0.81893331  1
  Se  Se19  1  0.51383432  0.77487661  0.31893331  1
  Se  Se20  1  0.49839930  0.78234780  0.77951995  1
  Se  Se21  1  0.50160070  0.28234780  0.27951995  1
  Se  Se22  1  0.97752228  0.01192828  0.80758826  1
  Se  Se23  1  0.02247772  0.51192828  0.30758826  1
