# generated using pymatgen
data_Pr2Al3Ge4
_symmetry_space_group_name_H-M   'P 1'
_cell_length_a   6.11519803
_cell_length_b   8.02590708
_cell_length_c   8.16521866
_cell_angle_alpha   90.00000000
_cell_angle_beta   111.99133351
_cell_angle_gamma   90.00000000
_symmetry_Int_Tables_number   1
_chemical_formula_structural   Pr2Al3Ge4
_chemical_formula_sum   'Pr4 Al6 Ge8'
_cell_volume   371.59072726
_cell_formula_units_Z   2
loop_
 _symmetry_equiv_pos_site_id
 _symmetry_equiv_pos_as_xyz
  1  'x, y, z'
loop_
 _atom_site_type_symbol
 _atom_site_label
 _atom_site_symmetry_multiplicity
 _atom_site_fract_x
 _atom_site_fract_y
 _atom_site_fract_z
 _atom_site_occupancy
  Pr  Pr0  1  0.61343832  0.08226332  0.22687665  1
  Pr  Pr1  1  0.38656168  0.91773668  0.77312335  1
  Pr  Pr2  1  0.88656168  0.58226332  0.77312335  1
  Pr  Pr3  1  0.11343832  0.41773668  0.22687665  1
  Al  Al4  1  0.50000000  0.50000000  0.00000000  1
  Al  Al5  1  -0.00000000  -0.00000000  0.00000000  1
  Al  Al6  1  0.03229235  0.25000000  0.56458471  1
  Al  Al7  1  0.46770765  0.75000000  0.43541529  1
  Al  Al8  1  0.96770765  0.75000000  0.43541529  1
  Al  Al9  1  0.53229235  0.25000000  0.56458471  1
  Ge  Ge10  1  0.20068250  0.25000000  0.90136500  1
  Ge  Ge11  1  0.29931750  0.75000000  0.09863500  1
  Ge  Ge12  1  0.79931750  0.75000000  0.09863500  1
  Ge  Ge13  1  0.70068250  0.25000000  0.90136500  1
  Ge  Ge14  1  0.68531975  0.44983559  0.37063951  1
  Ge  Ge15  1  0.31468025  0.55016441  0.62936049  1
  Ge  Ge16  1  0.81468025  0.94983559  0.62936049  1
  Ge  Ge17  1  0.18531975  0.05016441  0.37063951  1
