# generated using pymatgen
data_HgP2(PdO4)2
_symmetry_space_group_name_H-M   'P 1'
_cell_length_a   6.77198563
_cell_length_b   6.77198563
_cell_length_c   8.79045319
_cell_angle_alpha   102.16119674
_cell_angle_beta   102.16119674
_cell_angle_gamma   116.94233387
_symmetry_Int_Tables_number   1
_chemical_formula_structural   HgP2(PdO4)2
_chemical_formula_sum   'Hg2 P4 Pd4 O16'
_cell_volume   328.92236971
_cell_formula_units_Z   2
loop_
 _symmetry_equiv_pos_site_id
 _symmetry_equiv_pos_as_xyz
  1  'x, y, z'
loop_
 _atom_site_type_symbol
 _atom_site_label
 _atom_site_symmetry_multiplicity
 _atom_site_fract_x
 _atom_site_fract_y
 _atom_site_fract_z
 _atom_site_occupancy
  Hg  Hg0  1  0.12500000  0.37500000  0.75000000  1
  Hg  Hg1  1  0.87500000  0.62500000  0.25000000  1
  P  P2  1  0.91962546  0.16962546  0.33925092  1
  P  P3  1  0.33037454  0.58037454  0.16074908  1
  P  P4  1  0.08037454  0.83037454  0.66074908  1
  P  P5  1  0.66962546  0.41962546  0.83925092  1
  Pd  Pd6  1  0.50000000  0.50000000  0.50000000  1
  Pd  Pd7  1  0.50000000  0.00000000  0.00000000  1
  Pd  Pd8  1  0.00000000  0.00000000  0.00000000  1
  Pd  Pd9  1  0.50000000  0.00000000  0.50000000  1
  O  O10  1  0.80024162  0.04784737  0.45279815  1
  O  O11  1  0.09504922  0.34744347  0.04720185  1
  O  O12  1  0.45215263  0.69975838  0.04720185  1
  O  O13  1  0.15255653  0.40495078  0.45279815  1
  O  O14  1  0.19975838  0.95215263  0.54720185  1
  O  O15  1  0.90495078  0.65255653  0.95279815  1
  O  O16  1  0.54784737  0.30024162  0.95279815  1
  O  O17  1  0.84744347  0.59504922  0.54720185  1
  O  O18  1  0.75422825  0.22784105  0.22792203  1
  O  O19  1  0.49991902  0.52630622  0.27207797  1
  O  O20  1  0.27215895  0.74577175  0.27207797  1
  O  O21  1  0.97369378  0.00008098  0.22792203  1
  O  O22  1  0.24577175  0.77215895  0.77207797  1
  O  O23  1  0.50008098  0.47369378  0.72792203  1
  O  O24  1  0.72784105  0.25422825  0.72792203  1
  O  O25  1  0.02630622  -0.00008098  0.77207797  1
