# generated using pymatgen
data_SNClO4
_symmetry_space_group_name_H-M   'P 1'
_cell_length_a   6.80469007
_cell_length_b   8.00014069
_cell_length_c   9.59198559
_cell_angle_alpha   108.73566347
_cell_angle_beta   90.00000000
_cell_angle_gamma   90.00000000
_symmetry_Int_Tables_number   1
_chemical_formula_structural   SNClO4
_chemical_formula_sum   'S4 N4 Cl4 O16'
_cell_volume   494.50341971
_cell_formula_units_Z   4
loop_
 _symmetry_equiv_pos_site_id
 _symmetry_equiv_pos_as_xyz
  1  'x, y, z'
loop_
 _atom_site_type_symbol
 _atom_site_label
 _atom_site_symmetry_multiplicity
 _atom_site_fract_x
 _atom_site_fract_y
 _atom_site_fract_z
 _atom_site_occupancy
  S  S0  1  0.43668186  0.70014977  0.21731959  1
  S  S1  1  0.93668186  0.79985023  0.78268041  1
  S  S2  1  0.56331814  0.29985023  0.78268041  1
  S  S3  1  0.06331814  0.20014977  0.21731959  1
  N  N4  1  0.87141850  0.75778044  0.24027460  1
  N  N5  1  0.37141850  0.74221956  0.75972540  1
  N  N6  1  0.12858150  0.24221956  0.75972540  1
  N  N7  1  0.62858150  0.25778044  0.24027460  1
  Cl  Cl8  1  0.25441646  0.80992416  0.40189971  1
  Cl  Cl9  1  0.75441646  0.69007584  0.59810029  1
  Cl  Cl10  1  0.74558354  0.19007584  0.59810029  1
  Cl  Cl11  1  0.24558354  0.30992416  0.40189971  1
  O  O12  1  0.29805790  0.62482248  0.09911009  1
  O  O13  1  0.79805790  0.87517752  0.90088991  1
  O  O14  1  0.70194210  0.37517752  0.90088991  1
  O  O15  1  0.20194210  0.12482248  0.09911009  1
  O  O16  1  0.56129868  0.57573620  0.26008115  1
  O  O17  1  0.06129868  0.92426380  0.73991885  1
  O  O18  1  0.43870132  0.42426380  0.73991885  1
  O  O19  1  0.93870132  0.07573620  0.26008115  1
  O  O20  1  0.54986476  0.85063793  0.20390898  1
  O  O21  1  0.04986476  0.64936207  0.79609102  1
  O  O22  1  0.45013524  0.14936207  0.79609102  1
  O  O23  1  0.95013524  0.35063793  0.20390898  1
  O  O24  1  0.92525211  0.67498181  0.13038587  1
  O  O25  1  0.42525211  0.82501819  0.86961413  1
  O  O26  1  0.07474789  0.32501819  0.86961413  1
  O  O27  1  0.57474789  0.17498181  0.13038587  1
