# generated using pymatgen
data_GdBN2
_symmetry_space_group_name_H-M   'P 1'
_cell_length_a   6.77749546
_cell_length_b   7.25709866
_cell_length_c   7.25709842
_cell_angle_alpha   110.77104986
_cell_angle_beta   108.13784467
_cell_angle_gamma   108.13784404
_symmetry_Int_Tables_number   1
_chemical_formula_structural   GdBN2
_chemical_formula_sum   'Gd6 B6 N12'
_cell_volume   279.16231597
_cell_formula_units_Z   6
loop_
 _symmetry_equiv_pos_site_id
 _symmetry_equiv_pos_as_xyz
  1  'x, y, z'
loop_
 _atom_site_type_symbol
 _atom_site_label
 _atom_site_symmetry_multiplicity
 _atom_site_fract_x
 _atom_site_fract_y
 _atom_site_fract_z
 _atom_site_occupancy
  Gd  Gd0  1  0.24880074  0.54619125  0.45356203  1
  Gd  Gd1  1  0.79523872  0.54643797  0.09262922  1
  Gd  Gd2  1  0.70260950  0.90737078  0.45380875  1
  Gd  Gd3  1  0.74880074  0.45356203  0.54619125  1
  Gd  Gd4  1  0.20260950  0.45380875  0.90737078  1
  Gd  Gd5  1  0.29523872  0.09262922  0.54643797  1
  B  B6  1  0.86843108  0.12159621  0.24266626  1
  B  B7  1  0.62576483  0.75733374  0.87892995  1
  B  B8  1  0.74683487  0.12107005  0.87840379  1
  B  B9  1  0.36843108  0.24266626  0.12159621  1
  B  B10  1  0.24683487  0.87840379  0.12107005  1
  B  B11  1  0.12576483  0.87892995  0.75733374  1
  N  N12  1  0.87070201  0.24917468  0.12433001  1
  N  N13  1  0.74637200  0.87566999  0.12484467  1
  N  N14  1  0.62152733  0.87515533  0.75082532  1
  N  N15  1  0.37070201  0.12433001  0.24917468  1
  N  N16  1  0.12152733  0.75082532  0.87515533  1
  N  N17  1  0.24637200  0.12484467  0.87566999  1
  N  N18  1  0.50425952  0.51095569  0.75610393  1
  N  N19  1  0.74815559  0.24389607  0.75485176  1
  N  N20  1  0.99330383  0.24514824  0.48904431  1
  N  N21  1  0.00425952  0.75610393  0.51095569  1
  N  N22  1  0.49330383  0.48904431  0.24514824  1
  N  N23  1  0.24815559  0.75485176  0.24389607  1
