# generated using pymatgen
data_Ti6Ga16Ru7
_symmetry_space_group_name_H-M   'P 1'
_cell_length_a   8.66387311
_cell_length_b   8.66387311
_cell_length_c   8.66387311
_cell_angle_alpha   60.00000000
_cell_angle_beta   60.00000000
_cell_angle_gamma   60.00000000
_symmetry_Int_Tables_number   1
_chemical_formula_structural   Ti6Ga16Ru7
_chemical_formula_sum   'Ti6 Ga16 Ru7'
_cell_volume   459.85535886
_cell_formula_units_Z   1
loop_
 _symmetry_equiv_pos_site_id
 _symmetry_equiv_pos_as_xyz
  1  'x, y, z'
loop_
 _atom_site_type_symbol
 _atom_site_label
 _atom_site_symmetry_multiplicity
 _atom_site_fract_x
 _atom_site_fract_y
 _atom_site_fract_z
 _atom_site_occupancy
  Ti  Ti0  1  0.72332940  0.27667060  0.27667060  1
  Ti  Ti1  1  0.72332940  0.27667060  0.72332940  1
  Ti  Ti2  1  0.72332940  0.72332940  0.27667060  1
  Ti  Ti3  1  0.27667060  0.72332940  0.72332940  1
  Ti  Ti4  1  0.27667060  0.72332940  0.27667060  1
  Ti  Ti5  1  0.27667060  0.27667060  0.72332940  1
  Ga  Ga6  1  0.63067221  0.12310926  0.12310926  1
  Ga  Ga7  1  0.12310926  0.63067221  0.12310926  1
  Ga  Ga8  1  0.12310926  0.12310926  0.63067221  1
  Ga  Ga9  1  0.12310926  0.12310926  0.12310926  1
  Ga  Ga10  1  0.36932779  0.87689074  0.87689074  1
  Ga  Ga11  1  0.87689074  0.36932779  0.87689074  1
  Ga  Ga12  1  0.87689074  0.87689074  0.36932779  1
  Ga  Ga13  1  0.87689074  0.87689074  0.87689074  1
  Ga  Ga14  1  0.94357925  0.35214025  0.35214025  1
  Ga  Ga15  1  0.35214025  0.94357925  0.35214025  1
  Ga  Ga16  1  0.35214025  0.35214025  0.94357925  1
  Ga  Ga17  1  0.35214025  0.35214025  0.35214025  1
  Ga  Ga18  1  0.05642075  0.64785975  0.64785975  1
  Ga  Ga19  1  0.64785975  0.05642075  0.64785975  1
  Ga  Ga20  1  0.64785975  0.64785975  0.05642075  1
  Ga  Ga21  1  0.64785975  0.64785975  0.64785975  1
  Ru  Ru22  1  0.00000000  -0.00000000  -0.00000000  1
  Ru  Ru23  1  0.50000000  -0.00000000  -0.00000000  1
  Ru  Ru24  1  0.50000000  -0.00000000  0.50000000  1
  Ru  Ru25  1  0.50000000  0.50000000  -0.00000000  1
  Ru  Ru26  1  0.00000000  0.50000000  0.50000000  1
  Ru  Ru27  1  0.00000000  0.50000000  -0.00000000  1
  Ru  Ru28  1  0.00000000  -0.00000000  0.50000000  1
