# generated using pymatgen
data_BaZnF4
_symmetry_space_group_name_H-M   'P 1'
_cell_length_a   4.21042512
_cell_length_b   5.99242402
_cell_length_c   14.56926185
_cell_angle_alpha   90.00000000
_cell_angle_beta   89.89114868
_cell_angle_gamma   90.00000000
_symmetry_Int_Tables_number   1
_chemical_formula_structural   BaZnF4
_chemical_formula_sum   'Ba4 Zn4 F16'
_cell_volume   367.59132106
_cell_formula_units_Z   4
loop_
 _symmetry_equiv_pos_site_id
 _symmetry_equiv_pos_as_xyz
  1  'x, y, z'
loop_
 _atom_site_type_symbol
 _atom_site_label
 _atom_site_symmetry_multiplicity
 _atom_site_fract_x
 _atom_site_fract_y
 _atom_site_fract_z
 _atom_site_occupancy
  Ba  Ba0  1  0.02811731  0.86677865  0.87314219  1
  Ba  Ba1  1  0.52811731  0.13322135  0.37314219  1
  Ba  Ba2  1  0.53423871  0.61404947  0.12828134  1
  Ba  Ba3  1  0.03423871  0.38595053  0.62828134  1
  Zn  Zn4  1  0.52749468  0.37093395  0.85295454  1
  Zn  Zn5  1  0.02749468  0.62906605  0.35295454  1
  Zn  Zn6  1  0.03251687  0.11694464  0.14719828  1
  Zn  Zn7  1  0.53251687  0.88305536  0.64719828  1
  F  F8  1  0.52995601  0.62200620  0.94266291  1
  F  F9  1  0.02995601  0.37799380  0.44266291  1
  F  F10  1  0.03093302  0.86177165  0.05870099  1
  F  F11  1  0.53093302  0.13822835  0.55870099  1
  F  F12  1  0.52684380  0.10008773  0.92838871  1
  F  F13  1  0.02684380  0.89991227  0.42838871  1
  F  F14  1  0.03570229  0.38251898  0.06912958  1
  F  F15  1  0.53570229  0.61748102  0.56912958  1
  F  F16  1  0.52549416  0.63709962  0.75658150  1
  F  F17  1  0.02549416  0.36290038  0.25658150  1
  F  F18  1  0.03277872  0.85830034  0.24230209  1
  F  F19  1  0.53277872  0.14169966  0.74230209  1
  F  F20  1  0.53192395  0.12226227  0.16937708  1
  F  F21  1  0.03192395  0.87773773  0.66937708  1
  F  F22  1  0.02820047  0.37815122  0.83208079  1
  F  F23  1  0.52820047  0.62184878  0.33208079  1
