# generated using pymatgen
data_Eu2Ni12P7
_symmetry_space_group_name_H-M   'P 1'
_cell_length_a   3.70589496
_cell_length_b   9.10735386
_cell_length_c   9.12950946
_cell_angle_alpha   120.03444513
_cell_angle_beta   90.00000000
_cell_angle_gamma   90.00000000
_symmetry_Int_Tables_number   1
_chemical_formula_structural   Eu2Ni12P7
_chemical_formula_sum   'Eu2 Ni12 P7'
_cell_volume   266.75498648
_cell_formula_units_Z   1
loop_
 _symmetry_equiv_pos_site_id
 _symmetry_equiv_pos_as_xyz
  1  'x, y, z'
loop_
 _atom_site_type_symbol
 _atom_site_label
 _atom_site_symmetry_multiplicity
 _atom_site_fract_x
 _atom_site_fract_y
 _atom_site_fract_z
 _atom_site_occupancy
  Eu  Eu0  1  0.00000000  0.66651208  0.33293913  1
  Eu  Eu1  1  0.50000000  0.33328184  0.66697176  1
  Ni  Ni2  1  0.00000000  0.37651501  0.94308907  1
  Ni  Ni3  1  0.00000000  0.05694207  0.43340380  1
  Ni  Ni4  1  0.00000000  0.56657865  0.62345363  1
  Ni  Ni5  1  0.00000000  0.87691673  0.72775069  1
  Ni  Ni6  1  0.00000000  0.27256471  0.14924325  1
  Ni  Ni7  1  0.00000000  0.85068626  0.12296192  1
  Ni  Ni8  1  0.50000000  0.95178804  0.57463301  1
  Ni  Ni9  1  0.50000000  0.42534317  0.37720344  1
  Ni  Ni10  1  0.50000000  0.62270901  0.04817618  1
  Ni  Ni11  1  0.50000000  0.12015688  0.90582780  1
  Ni  Ni12  1  0.50000000  0.09438844  0.21428114  1
  Ni  Ni13  1  0.50000000  0.78576028  0.88016806  1
  P  P14  1  0.00000000  0.10971355  0.70621020  1
  P  P15  1  0.00000000  0.29398849  0.40366964  1
  P  P16  1  0.00000000  0.59615349  0.89008892  1
  P  P17  1  0.50000000  0.70319646  0.59845258  1
  P  P18  1  0.50000000  0.40162060  0.10471502  1
  P  P19  1  0.50000000  0.89507279  0.29665328  1
  P  P20  1  0.00000000  0.00011146  0.00010749  1
