# generated using pymatgen
data_ErNiB4
_symmetry_space_group_name_H-M   'P 1'
_cell_length_a   3.39218202
_cell_length_b   5.87010103
_cell_length_c   11.39537465
_cell_angle_alpha   90.00000000
_cell_angle_beta   90.00000000
_cell_angle_gamma   90.00000000
_symmetry_Int_Tables_number   1
_chemical_formula_structural   ErNiB4
_chemical_formula_sum   'Er4 Ni4 B16'
_cell_volume   226.90984128
_cell_formula_units_Z   4
loop_
 _symmetry_equiv_pos_site_id
 _symmetry_equiv_pos_as_xyz
  1  'x, y, z'
loop_
 _atom_site_type_symbol
 _atom_site_label
 _atom_site_symmetry_multiplicity
 _atom_site_fract_x
 _atom_site_fract_y
 _atom_site_fract_z
 _atom_site_occupancy
  Er  Er0  1  0.00000000  0.62721547  0.34967427  1
  Er  Er1  1  0.00000000  0.37278453  0.65032573  1
  Er  Er2  1  -0.00000000  0.12721547  0.15032573  1
  Er  Er3  1  -0.00000000  0.87278453  0.84967427  1
  Ni  Ni4  1  -0.00000000  0.63389015  0.08822436  1
  Ni  Ni5  1  -0.00000000  0.36610985  0.91177564  1
  Ni  Ni6  1  0.00000000  0.13389015  0.41177564  1
  Ni  Ni7  1  0.00000000  0.86610985  0.58822436  1
  B  B8  1  0.50000000  0.78485671  0.18495342  1
  B  B9  1  0.50000000  0.21514329  0.81504658  1
  B  B10  1  0.50000000  0.28485671  0.31504658  1
  B  B11  1  0.50000000  0.71514329  0.68495342  1
  B  B12  1  0.50000000  0.86240779  0.03308032  1
  B  B13  1  0.50000000  0.13759221  0.96691968  1
  B  B14  1  0.50000000  0.36240779  0.46691968  1
  B  B15  1  0.50000000  0.63759221  0.53308032  1
  B  B16  1  0.50000000  0.88658494  0.45250347  1
  B  B17  1  0.50000000  0.11341506  0.54749653  1
  B  B18  1  0.50000000  0.38658494  0.04749653  1
  B  B19  1  0.50000000  0.61341506  0.95250347  1
  B  B20  1  0.50000000  0.97854392  0.30827597  1
  B  B21  1  0.50000000  0.02145608  0.69172403  1
  B  B22  1  0.50000000  0.47854392  0.19172403  1
  B  B23  1  0.50000000  0.52145608  0.80827597  1
