# generated using pymatgen
data_LiEuAsS3
_symmetry_space_group_name_H-M   'P 1'
_cell_length_a   5.71103109
_cell_length_b   7.21517766
_cell_length_c   13.12062728
_cell_angle_alpha   90.00000000
_cell_angle_beta   90.00000000
_cell_angle_gamma   104.57372731
_symmetry_Int_Tables_number   1
_chemical_formula_structural   LiEuAsS3
_chemical_formula_sum   'Li4 Eu4 As4 S12'
_cell_volume   523.25433291
_cell_formula_units_Z   4
loop_
 _symmetry_equiv_pos_site_id
 _symmetry_equiv_pos_as_xyz
  1  'x, y, z'
loop_
 _atom_site_type_symbol
 _atom_site_label
 _atom_site_symmetry_multiplicity
 _atom_site_fract_x
 _atom_site_fract_y
 _atom_site_fract_z
 _atom_site_occupancy
  Li  Li0  1  0.72456071  0.43052621  0.79179454  1
  Li  Li1  1  0.27543929  0.06947379  0.29179454  1
  Li  Li2  1  0.27543929  0.56947379  0.20820546  1
  Li  Li3  1  0.72456071  0.93052621  0.70820546  1
  Eu  Eu4  1  0.66973074  0.26848181  0.07975850  1
  Eu  Eu5  1  0.33026926  0.23151819  0.57975850  1
  Eu  Eu6  1  0.33026926  0.73151819  0.92024150  1
  Eu  Eu7  1  0.66973074  0.76848181  0.42024150  1
  As  As8  1  0.87268400  0.83443660  0.09754328  1
  As  As9  1  0.12731600  0.66556340  0.59754328  1
  As  As10  1  0.12731600  0.16556340  0.90245672  1
  As  As11  1  0.87268400  0.33443660  0.40245672  1
  S  S12  1  0.71678465  0.11486124  0.87229330  1
  S  S13  1  0.28321535  0.38513876  0.37229330  1
  S  S14  1  0.28321535  0.88513876  0.12770670  1
  S  S15  1  0.71678465  0.61486124  0.62770670  1
  S  S16  1  0.26225514  0.39649163  0.78414956  1
  S  S17  1  0.73774486  0.10350837  0.28414956  1
  S  S18  1  0.73774486  0.60350837  0.21585044  1
  S  S19  1  0.26225514  0.89649163  0.71585044  1
  S  S20  1  0.80288120  0.14362609  0.54527481  1
  S  S21  1  0.19711880  0.35637391  0.04527481  1
  S  S22  1  0.19711880  0.85637391  0.45472519  1
  S  S23  1  0.80288120  0.64362609  0.95472519  1
