# generated using pymatgen
data_Ba3In2P6(HO3)6
_symmetry_space_group_name_H-M   'P 1'
_cell_length_a   10.41009415
_cell_length_b   10.41009415
_cell_length_c   10.41009384
_cell_angle_alpha   102.56561874
_cell_angle_beta   102.56561874
_cell_angle_gamma   102.56562186
_symmetry_Int_Tables_number   1
_chemical_formula_structural   Ba3In2P6(HO3)6
_chemical_formula_sum   'Ba6 In4 P12 H12 O36'
_cell_volume   1032.36534381
_cell_formula_units_Z   2
loop_
 _symmetry_equiv_pos_site_id
 _symmetry_equiv_pos_as_xyz
  1  'x, y, z'
loop_
 _atom_site_type_symbol
 _atom_site_label
 _atom_site_symmetry_multiplicity
 _atom_site_fract_x
 _atom_site_fract_y
 _atom_site_fract_z
 _atom_site_occupancy
  Ba  Ba0  1  0.92615279  0.17033835  0.65862551  1
  Ba  Ba1  1  0.17033835  0.65862551  0.92615279  1
  Ba  Ba2  1  0.65862551  0.92615279  0.17033835  1
  Ba  Ba3  1  0.07384721  0.82966165  0.34137449  1
  Ba  Ba4  1  0.82966165  0.34137449  0.07384721  1
  Ba  Ba5  1  0.34137449  0.07384721  0.82966165  1
  In  In6  1  0.00000000  0.50000000  0.50000000  1
  In  In7  1  0.50000000  0.50000000  0.00000000  1
  In  In8  1  0.50000000  -0.00000000  0.50000000  1
  In  In9  1  0.00000000  -0.00000000  0.00000000  1
  P  P10  1  0.69575403  0.24670079  0.38888266  1
  P  P11  1  0.24670079  0.38888266  0.69575403  1
  P  P12  1  0.38888266  0.69575403  0.24670079  1
  P  P13  1  0.30424597  0.75329921  0.61111734  1
  P  P14  1  0.75329921  0.61111734  0.30424597  1
  P  P15  1  0.61111734  0.30424597  0.75329921  1
  P  P16  1  0.68516799  0.97267880  0.80493789  1
  P  P17  1  0.97267880  0.80493789  0.68516799  1
  P  P18  1  0.80493789  0.68516799  0.97267880  1
  P  P19  1  0.31483201  0.02732120  0.19506211  1
  P  P20  1  0.02732120  0.19506211  0.31483201  1
  P  P21  1  0.19506211  0.31483201  0.02732120  1
  H  H22  1  0.58380665  0.30247145  0.39300290  1
  H  H23  1  0.30247145  0.39300290  0.58380665  1
  H  H24  1  0.39300290  0.58380665  0.30247145  1
  H  H25  1  0.41619335  0.69752855  0.60699710  1
  H  H26  1  0.69752855  0.60699710  0.41619335  1
  H  H27  1  0.60699710  0.41619335  0.69752855  1
  H  H28  1  0.66310795  0.83401305  0.80569016  1
  H  H29  1  0.83401305  0.80569016  0.66310795  1
  H  H30  1  0.80569016  0.66310795  0.83401305  1
  H  H31  1  0.33689205  0.16598695  0.19430984  1
  H  H32  1  0.16598695  0.19430984  0.33689205  1
  H  H33  1  0.19430984  0.33689205  0.16598695  1
  O  O34  1  0.70761941  0.21542084  0.24302790  1
  O  O35  1  0.21542084  0.24302790  0.70761941  1
  O  O36  1  0.24302790  0.70761941  0.21542084  1
  O  O37  1  0.29238059  0.78457916  0.75697210  1
  O  O38  1  0.78457916  0.75697210  0.29238059  1
  O  O39  1  0.75697210  0.29238059  0.78457916  1
  O  O40  1  0.82022436  0.34956940  0.50160800  1
  O  O41  1  0.34956940  0.50160800  0.82022436  1
  O  O42  1  0.50160800  0.82022436  0.34956940  1
  O  O43  1  0.17977564  0.65043060  0.49839200  1
  O  O44  1  0.65043060  0.49839200  0.17977564  1
  O  O45  1  0.49839200  0.17977564  0.65043060  1
  O  O46  1  0.66556655  0.11110321  0.43297710  1
  O  O47  1  0.11110321  0.43297710  0.66556655  1
  O  O48  1  0.43297710  0.66556655  0.11110321  1
  O  O49  1  0.33443345  0.88889679  0.56702290  1
  O  O50  1  0.88889679  0.56702290  0.33443345  1
  O  O51  1  0.56702290  0.33443345  0.88889679  1
  O  O52  1  0.65254828  0.96877626  0.65212448  1
  O  O53  1  0.96877626  0.65212448  0.65254828  1
  O  O54  1  0.65212448  0.65254828  0.96877626  1
  O  O55  1  0.34745172  0.03122374  0.34787552  1
  O  O56  1  0.03122374  0.34787552  0.34745172  1
  O  O57  1  0.34787552  0.34745172  0.03122374  1
  O  O58  1  0.84193325  0.04512214  0.86247824  1
  O  O59  1  0.04512214  0.86247824  0.84193325  1
  O  O60  1  0.86247824  0.84193325  0.04512214  1
  O  O61  1  0.15806675  0.95487786  0.13752176  1
  O  O62  1  0.95487786  0.13752176  0.15806675  1
  O  O63  1  0.13752176  0.15806675  0.95487786  1
  O  O64  1  0.60371163  0.03446704  0.89440797  1
  O  O65  1  0.03446704  0.89440797  0.60371163  1
  O  O66  1  0.89440797  0.60371163  0.03446704  1
  O  O67  1  0.39628837  0.96553296  0.10559203  1
  O  O68  1  0.96553296  0.10559203  0.39628837  1
  O  O69  1  0.10559203  0.39628837  0.96553296  1
