# generated using pymatgen
data_Ca2AlH2OF7
_symmetry_space_group_name_H-M   'P 1'
_cell_length_a   5.91739479
_cell_length_b   5.93446634
_cell_length_c   9.39787906
_cell_angle_alpha   78.61668244
_cell_angle_beta   77.55360846
_cell_angle_gamma   73.14888010
_symmetry_Int_Tables_number   1
_chemical_formula_structural   Ca2AlH2OF7
_chemical_formula_sum   'Ca4 Al2 H4 O2 F14'
_cell_volume   305.19784374
_cell_formula_units_Z   2
loop_
 _symmetry_equiv_pos_site_id
 _symmetry_equiv_pos_as_xyz
  1  'x, y, z'
loop_
 _atom_site_type_symbol
 _atom_site_label
 _atom_site_symmetry_multiplicity
 _atom_site_fract_x
 _atom_site_fract_y
 _atom_site_fract_z
 _atom_site_occupancy
  Ca  Ca0  1  0.41551947  0.41562409  0.35477432  1
  Ca  Ca1  1  0.58448053  0.58437591  0.64522568  1
  Ca  Ca2  1  0.84248449  0.84267279  0.20700887  1
  Ca  Ca3  1  0.15751551  0.15732721  0.79299113  1
  Al  Al4  1  0.50000000  0.50000000  -0.00000000  1
  Al  Al5  1  -0.00000000  -0.00000000  0.50000000  1
  H  H6  1  0.05917812  0.25055440  0.10928470  1
  H  H7  1  0.94082188  0.74944560  0.89071530  1
  H  H8  1  0.27565056  0.03392527  0.11154327  1
  H  H9  1  0.72434944  0.96607473  0.88845673  1
  O  O10  1  0.11912012  0.09127254  0.08043796  1
  O  O11  1  0.88087988  0.90872746  0.91956204  1
  F  F12  1  0.59207374  0.64475022  0.12376558  1
  F  F13  1  0.40792626  0.35524978  0.87623442  1
  F  F14  1  0.19736670  0.56035501  0.11371182  1
  F  F15  1  0.80263330  0.43964499  0.88628818  1
  F  F16  1  0.57593013  0.21883142  0.12658924  1
  F  F17  1  0.42406987  0.78116858  0.87341076  1
  F  F18  1  0.17604574  0.17676127  0.37248749  1
  F  F19  1  0.82395426  0.82323873  0.62751251  1
  F  F20  1  0.75927252  0.11191725  0.38598036  1
  F  F21  1  0.24072748  0.88808275  0.61401964  1
  F  F22  1  0.11569815  0.76072031  0.38127022  1
  F  F23  1  0.88430185  0.23927969  0.61872978  1
  F  F24  1  0.64887447  0.63645079  0.39688602  1
  F  F25  1  0.35112553  0.36354921  0.60311398  1
