# generated using pymatgen
data_NiP
_symmetry_space_group_name_H-M   'P 1'
_cell_length_a   4.90826778
_cell_length_b   5.96601863
_cell_length_c   12.38861961
_cell_angle_alpha   103.93295284
_cell_angle_beta   90.00000000
_cell_angle_gamma   90.00000000
_symmetry_Int_Tables_number   1
_chemical_formula_structural   NiP
_chemical_formula_sum   'Ni14 P14'
_cell_volume   352.10021087
_cell_formula_units_Z   14
loop_
 _symmetry_equiv_pos_site_id
 _symmetry_equiv_pos_as_xyz
  1  'x, y, z'
loop_
 _atom_site_type_symbol
 _atom_site_label
 _atom_site_symmetry_multiplicity
 _atom_site_fract_x
 _atom_site_fract_y
 _atom_site_fract_z
 _atom_site_occupancy
  Ni  Ni0  1  0.07521051  0.61582676  0.12487096  1
  Ni  Ni1  1  0.07521051  0.49095580  0.87512904  1
  Ni  Ni2  1  0.57521051  0.38417324  0.87512904  1
  Ni  Ni3  1  0.57521051  0.50904420  0.12487096  1
  Ni  Ni4  1  0.08865593  0.90770130  0.70271009  1
  Ni  Ni5  1  0.08865593  0.20499122  0.29728991  1
  Ni  Ni6  1  0.58865593  0.09229870  0.29728991  1
  Ni  Ni7  1  0.58865593  0.79500878  0.70271009  1
  Ni  Ni8  1  0.12157102  0.23427678  0.58736726  1
  Ni  Ni9  1  0.12157102  0.64690952  0.41263274  1
  Ni  Ni10  1  0.62157102  0.76572322  0.41263274  1
  Ni  Ni11  1  0.62157102  0.35309048  0.58736726  1
  Ni  Ni12  1  0.60125644  0.05128017  1.00000000  1
  Ni  Ni13  1  0.10125644  0.94871983  0.00000000  1
  P  P14  1  0.40364683  0.88520098  0.13755020  1
  P  P15  1  0.40364683  0.74765079  0.86244980  1
  P  P16  1  0.90364683  0.11479902  0.86244980  1
  P  P17  1  0.90364683  0.25234921  0.13755020  1
  P  P18  1  0.43241246  0.16282734  0.70966203  1
  P  P19  1  0.43241246  0.45316531  0.29033797  1
  P  P20  1  0.93241246  0.83717266  0.29033797  1
  P  P21  1  0.93241246  0.54683469  0.70966203  1
  P  P22  1  0.27729881  0.01836120  0.42204431  1
  P  P23  1  0.27729881  0.59631689  0.57795569  1
  P  P24  1  0.77729881  0.98163880  0.57795569  1
  P  P25  1  0.77729881  0.40368311  0.42204431  1
  P  P26  1  0.26485246  0.31338876  0.00000000  1
  P  P27  1  0.76485246  0.68661124  1.00000000  1
