# generated using pymatgen
data_AgP15
_symmetry_space_group_name_H-M   'P 1'
_cell_length_a   7.28792852
_cell_length_b   9.21414519
_cell_length_c   11.55114041
_cell_angle_alpha   101.16279690
_cell_angle_beta   96.52193038
_cell_angle_gamma   108.39016200
_symmetry_Int_Tables_number   1
_chemical_formula_structural   AgP15
_chemical_formula_sum   'Ag2 P30'
_cell_volume   709.32028369
_cell_formula_units_Z   2
loop_
 _symmetry_equiv_pos_site_id
 _symmetry_equiv_pos_as_xyz
  1  'x, y, z'
loop_
 _atom_site_type_symbol
 _atom_site_label
 _atom_site_symmetry_multiplicity
 _atom_site_fract_x
 _atom_site_fract_y
 _atom_site_fract_z
 _atom_site_occupancy
  Ag  Ag0  1  0.32582972  0.72747095  0.49709686  1
  Ag  Ag1  1  0.67417028  0.27252905  0.50290314  1
  P  P2  1  0.94716109  0.56666445  0.81409968  1
  P  P3  1  0.05283891  0.43333555  0.18590032  1
  P  P4  1  0.96411123  0.99482864  0.65382926  1
  P  P5  1  0.03588877  0.00517136  0.34617074  1
  P  P6  1  0.90110342  0.78026271  0.20914300  1
  P  P7  1  0.09889658  0.21973729  0.79085700  1
  P  P8  1  0.85998780  0.54917905  0.62426755  1
  P  P9  1  0.14001220  0.45082095  0.37573245  1
  P  P10  1  0.78840258  0.87833813  0.77423933  1
  P  P11  1  0.21159742  0.12166187  0.22576067  1
  P  P12  1  0.73185873  0.68832668  0.34180050  1
  P  P13  1  0.26814127  0.31167332  0.65819950  1
  P  P14  1  0.67700748  0.49673994  0.89485758  1
  P  P15  1  0.32299252  0.50326006  0.10514242  1
  P  P16  1  0.67256552  0.82760327  0.07822907  1
  P  P17  1  0.32743448  0.17239673  0.92177093  1
  P  P18  1  0.62623267  0.64914518  0.64348081  1
  P  P19  1  0.37376733  0.35085482  0.35651919  1
  P  P20  1  0.60057054  0.23898502  0.84701988  1
  P  P21  1  0.39942946  0.76101498  0.15298012  1
  P  P22  1  0.53888461  0.83524799  0.34723036  1
  P  P23  1  0.46111539  0.16475201  0.65276964  1
  P  P24  1  0.45203243  0.54529758  0.77319095  1
  P  P25  1  0.54796757  0.45470242  0.22680905  1
  P  P26  1  0.29448477  0.92430604  0.84585204  1
  P  P27  1  0.70551523  0.07569396  0.15414796  1
  P  P28  1  0.23395574  0.92161167  0.65029628  1
  P  P29  1  0.76604426  0.07838833  0.34970372  1
  P  P30  1  0.00659189  0.82031800  0.89602157  1
  P  P31  1  0.99340811  0.17968200  0.10397843  1
