# generated using pymatgen
data_K3Lu(PO4)2
_symmetry_space_group_name_H-M   'P 1'
_cell_length_a   5.65468583
_cell_length_b   7.51164622
_cell_length_c   9.35803584
_cell_angle_alpha   91.39183236
_cell_angle_beta   90.00000000
_cell_angle_gamma   90.00000000
_symmetry_Int_Tables_number   1
_chemical_formula_structural   K3Lu(PO4)2
_chemical_formula_sum   'K6 Lu2 P4 O16'
_cell_volume   397.37464990
_cell_formula_units_Z   2
loop_
 _symmetry_equiv_pos_site_id
 _symmetry_equiv_pos_as_xyz
  1  'x, y, z'
loop_
 _atom_site_type_symbol
 _atom_site_label
 _atom_site_symmetry_multiplicity
 _atom_site_fract_x
 _atom_site_fract_y
 _atom_site_fract_z
 _atom_site_occupancy
  K  K0  1  0.75000000  0.20483227  0.08034683  1
  K  K1  1  0.25000000  0.79516773  0.91965317  1
  K  K2  1  0.75000000  0.63863047  0.41422267  1
  K  K3  1  0.25000000  0.36136953  0.58577733  1
  K  K4  1  0.75000000  0.49741064  0.80832812  1
  K  K5  1  0.25000000  0.50258936  0.19167188  1
  Lu  Lu6  1  0.75000000  0.99094204  0.71444045  1
  Lu  Lu7  1  0.25000000  0.00905796  0.28555955  1
  P  P8  1  0.75000000  0.18123048  0.42874547  1
  P  P9  1  0.25000000  0.81876952  0.57125453  1
  P  P10  1  0.25000000  0.22369427  0.90676494  1
  P  P11  1  0.75000000  0.77630573  0.09323506  1
  O  O12  1  0.75000000  0.98368793  0.47218695  1
  O  O13  1  0.25000000  0.01631207  0.52781305  1
  O  O14  1  0.75000000  0.29144336  0.57172148  1
  O  O15  1  0.25000000  0.70855664  0.42827852  1
  O  O16  1  0.52564907  0.22451627  0.33801466  1
  O  O17  1  0.02564907  0.77548373  0.66198534  1
  O  O18  1  0.47435093  0.77548373  0.66198534  1
  O  O19  1  0.97435093  0.22451627  0.33801466  1
  O  O20  1  0.47479302  0.14647499  0.83023872  1
  O  O21  1  0.97479302  0.85352501  0.16976128  1
  O  O22  1  0.52520698  0.85352501  0.16976128  1
  O  O23  1  0.02520698  0.14647499  0.83023872  1
  O  O24  1  0.25000000  0.16686050  0.06591175  1
  O  O25  1  0.75000000  0.83313950  0.93408825  1
  O  O26  1  0.25000000  0.42850260  0.89604886  1
  O  O27  1  0.75000000  0.57149740  0.10395114  1
