# generated using pymatgen
data_ThV2O7
_symmetry_space_group_name_H-M   'P 1'
_cell_length_a   7.14752168
_cell_length_b   7.34949251
_cell_length_c   23.36545082
_cell_angle_alpha   90.00000000
_cell_angle_beta   90.00000000
_cell_angle_gamma   90.00000000
_symmetry_Int_Tables_number   1
_chemical_formula_structural   ThV2O7
_chemical_formula_sum   'Th8 V16 O56'
_cell_volume   1227.40248390
_cell_formula_units_Z   8
loop_
 _symmetry_equiv_pos_site_id
 _symmetry_equiv_pos_as_xyz
  1  'x, y, z'
loop_
 _atom_site_type_symbol
 _atom_site_label
 _atom_site_symmetry_multiplicity
 _atom_site_fract_x
 _atom_site_fract_y
 _atom_site_fract_z
 _atom_site_occupancy
  Th  Th0  1  0.38261163  0.74214345  0.10649513  1
  Th  Th1  1  0.61738837  0.25785655  0.60649513  1
  Th  Th2  1  0.88261163  0.75785655  0.60649513  1
  Th  Th3  1  0.11738837  0.24214345  0.10649513  1
  Th  Th4  1  0.89540039  0.75327047  0.89411014  1
  Th  Th5  1  0.10459961  0.24672953  0.39411014  1
  Th  Th6  1  0.39540039  0.74672953  0.39411014  1
  Th  Th7  1  0.60459961  0.25327047  0.89411014  1
  V  V8  1  0.92350717  0.74825423  0.06421154  1
  V  V9  1  0.07649283  0.25174577  0.56421154  1
  V  V10  1  0.42350717  0.75174577  0.56421154  1
  V  V11  1  0.57649283  0.24825423  0.06421154  1
  V  V12  1  0.43513610  0.74758988  0.93640887  1
  V  V13  1  0.56486390  0.25241012  0.43640887  1
  V  V14  1  0.93513610  0.75241012  0.43640887  1
  V  V15  1  0.06486390  0.24758988  0.93640887  1
  V  V16  1  0.45738960  0.02677138  0.24467512  1
  V  V17  1  0.54261040  0.97322862  0.74467512  1
  V  V18  1  0.95738960  0.47322862  0.74467512  1
  V  V19  1  0.04261040  0.52677138  0.24467512  1
  V  V20  1  0.93046511  0.99277656  0.24929943  1
  V  V21  1  0.06953489  0.00722344  0.74929943  1
  V  V22  1  0.43046511  0.50722344  0.74929943  1
  V  V23  1  0.56953489  0.49277656  0.24929943  1
  O  O24  1  0.07795017  0.91525776  0.09249282  1
  O  O25  1  0.92204983  0.08474224  0.59249282  1
  O  O26  1  0.57795017  0.58474224  0.59249282  1
  O  O27  1  0.42204983  0.41525776  0.09249282  1
  O  O28  1  0.70783356  0.74231553  0.09808461  1
  O  O29  1  0.29216644  0.25768447  0.59808461  1
  O  O30  1  0.20783356  0.75768447  0.59808461  1
  O  O31  1  0.79216644  0.24231553  0.09808461  1
  O  O32  1  0.39016579  0.72323613  0.49142323  1
  O  O33  1  0.60983421  0.27676387  0.99142323  1
  O  O34  1  0.89016579  0.77676387  0.99142323  1
  O  O35  1  0.10983421  0.22323613  0.49142323  1
  O  O36  1  0.06489043  0.55946505  0.07777469  1
  O  O37  1  0.93510957  0.44053495  0.57777469  1
  O  O38  1  0.56489043  0.94053495  0.57777469  1
  O  O39  1  0.43510957  0.05946505  0.07777469  1
  O  O40  1  0.21358763  0.73876745  0.90676240  1
  O  O41  1  0.78641237  0.26123255  0.40676240  1
  O  O42  1  0.71358763  0.76123255  0.40676240  1
  O  O43  1  0.28641237  0.23876745  0.90676240  1
  O  O44  1  0.41096658  0.73101182  0.00971681  1
  O  O45  1  0.58903342  0.26898818  0.50971681  1
  O  O46  1  0.91096658  0.76898818  0.50971681  1
  O  O47  1  0.08903342  0.23101182  0.00971681  1
  O  O48  1  0.58926134  0.57964704  0.90998697  1
  O  O49  1  0.41073866  0.42035296  0.40998697  1
  O  O50  1  0.08926134  0.92035296  0.40998697  1
  O  O51  1  0.91073866  0.07964704  0.90998697  1
  O  O52  1  0.56734610  0.93719922  0.91633998  1
  O  O53  1  0.43265390  0.06280078  0.41633998  1
  O  O54  1  0.06734610  0.56280078  0.41633998  1
  O  O55  1  0.93265390  0.43719922  0.91633998  1
  O  O56  1  0.33457759  0.97163815  0.18479186  1
  O  O57  1  0.66542241  0.02836185  0.68479186  1
  O  O58  1  0.83457759  0.52836185  0.68479186  1
  O  O59  1  0.16542241  0.47163815  0.18479186  1
  O  O60  1  0.36935748  0.93290157  0.30570861  1
  O  O61  1  0.63064252  0.06709843  0.80570861  1
  O  O62  1  0.86935748  0.56709843  0.80570861  1
  O  O63  1  0.13064252  0.43290157  0.30570861  1
  O  O64  1  0.69089537  0.95237675  0.23201034  1
  O  O65  1  0.30910463  0.04762325  0.73201034  1
  O  O66  1  0.19089537  0.54762325  0.73201034  1
  O  O67  1  0.80910463  0.45237675  0.23201034  1
  O  O68  1  0.03510702  0.76846893  0.25134665  1
  O  O69  1  0.96489298  0.23153107  0.75134665  1
  O  O70  1  0.53510702  0.73153107  0.75134665  1
  O  O71  1  0.46489298  0.26846893  0.25134665  1
  O  O72  1  0.01323904  0.13471310  0.19840583  1
  O  O73  1  0.98676096  0.86528690  0.69840583  1
  O  O74  1  0.51323904  0.36528690  0.69840583  1
  O  O75  1  0.48676096  0.63471310  0.19840583  1
  O  O76  1  0.95032623  0.09605187  0.31305498  1
  O  O77  1  0.04967377  0.90394813  0.81305498  1
  O  O78  1  0.45032623  0.40394813  0.81305498  1
  O  O79  1  0.54967377  0.59605187  0.31305498  1
