# generated using pymatgen
data_FeH8SO8
_symmetry_space_group_name_H-M   'P 1'
_cell_length_a   6.08962812
_cell_length_b   7.97058376
_cell_length_c   13.74660780
_cell_angle_alpha   90.00000000
_cell_angle_beta   90.00000000
_cell_angle_gamma   90.98639249
_symmetry_Int_Tables_number   1
_chemical_formula_structural   FeH8SO8
_chemical_formula_sum   'Fe4 H32 S4 O32'
_cell_volume   667.13247497
_cell_formula_units_Z   4
loop_
 _symmetry_equiv_pos_site_id
 _symmetry_equiv_pos_as_xyz
  1  'x, y, z'
loop_
 _atom_site_type_symbol
 _atom_site_label
 _atom_site_symmetry_multiplicity
 _atom_site_fract_x
 _atom_site_fract_y
 _atom_site_fract_z
 _atom_site_occupancy
  Fe  Fe0  1  0.56247789  0.72012398  0.39727291  1
  Fe  Fe1  1  0.06247789  0.22012398  0.10272709  1
  Fe  Fe2  1  0.43752211  0.27987602  0.60272709  1
  Fe  Fe3  1  0.93752211  0.77987602  0.89727291  1
  H  H4  1  0.86204044  0.98236505  0.42375885  1
  H  H5  1  0.36204044  0.48236505  0.07624115  1
  H  H6  1  0.13795956  0.01763495  0.57624115  1
  H  H7  1  0.63795956  0.51763495  0.92375885  1
  H  H8  1  0.94904696  0.82527048  0.48415737  1
  H  H9  1  0.44904696  0.32527048  0.01584263  1
  H  H10  1  0.05095304  0.17472952  0.51584263  1
  H  H11  1  0.55095304  0.67472952  0.98415737  1
  H  H12  1  0.18308073  0.61751041  0.30543636  1
  H  H13  1  0.68308073  0.11751041  0.19456364  1
  H  H14  1  0.81691927  0.38248959  0.69456364  1
  H  H15  1  0.31691927  0.88248959  0.80543636  1
  H  H16  1  0.17731913  0.52265635  0.40719302  1
  H  H17  1  0.67731913  0.02265635  0.09280698  1
  H  H18  1  0.82268087  0.47734365  0.59280698  1
  H  H19  1  0.32268087  0.97734365  0.90719302  1
  H  H20  1  0.28039895  0.95527529  0.32392883  1
  H  H21  1  0.78039895  0.45527529  0.17607117  1
  H  H22  1  0.71960105  0.04472471  0.67607117  1
  H  H23  1  0.21960105  0.54472471  0.82392883  1
  H  H24  1  0.42396865  0.05808385  0.40260760  1
  H  H25  1  0.92396865  0.55808385  0.09739240  1
  H  H26  1  0.57603135  0.94191615  0.59739240  1
  H  H27  1  0.07603135  0.44191615  0.90260760  1
  H  H28  1  0.83557803  0.77586107  0.24352343  1
  H  H29  1  0.33557803  0.27586107  0.25647657  1
  H  H30  1  0.16442197  0.22413893  0.75647657  1
  H  H31  1  0.66442197  0.72413893  0.74352343  1
  H  H32  1  0.10031198  0.24102601  0.30559892  1
  H  H33  1  0.60031198  0.74102601  0.19440108  1
  H  H34  1  0.89968802  0.75897399  0.69440108  1
  H  H35  1  0.39968802  0.25897399  0.80559892  1
  S  S36  1  0.69948969  0.32101095  0.38973028  1
  S  S37  1  0.19948969  0.82101095  0.11026972  1
  S  S38  1  0.30051031  0.67898905  0.61026972  1
  S  S39  1  0.80051031  0.17898905  0.88973028  1
  O  O40  1  0.51380188  0.25048063  0.44994589  1
  O  O41  1  0.01380188  0.75048063  0.05005411  1
  O  O42  1  0.48619812  0.74951937  0.55005411  1
  O  O43  1  0.98619812  0.24951937  0.94994589  1
  O  O44  1  0.74993746  0.49616028  0.42191492  1
  O  O45  1  0.24993746  0.99616028  0.07808508  1
  O  O46  1  0.25006254  0.50383972  0.57808508  1
  O  O47  1  0.75006254  0.00383972  0.92191492  1
  O  O48  1  0.90083433  0.21789499  0.40567109  1
  O  O49  1  0.40083433  0.71789499  0.09432891  1
  O  O50  1  0.09916567  0.78210501  0.59432891  1
  O  O51  1  0.59916567  0.28210501  0.90567109  1
  O  O52  1  0.63536847  0.31232294  0.28597371  1
  O  O53  1  0.13536847  0.81232294  0.21402629  1
  O  O54  1  0.36463153  0.68767706  0.71402629  1
  O  O55  1  0.86463153  0.18767706  0.78597371  1
  O  O56  1  0.85566522  0.85964570  0.42925983  1
  O  O57  1  0.35566522  0.35964570  0.07074017  1
  O  O58  1  0.14433478  0.14035430  0.57074017  1
  O  O59  1  0.64433478  0.64035430  0.92925983  1
  O  O60  1  0.27416750  0.57213267  0.35764312  1
  O  O61  1  0.77416750  0.07213267  0.14235688  1
  O  O62  1  0.72583250  0.42786733  0.64235688  1
  O  O63  1  0.22583250  0.92786733  0.85764312  1
  O  O64  1  0.38442698  0.94451884  0.37758056  1
  O  O65  1  0.88442698  0.44451884  0.12241944  1
  O  O66  1  0.61557302  0.05548116  0.62241944  1
  O  O67  1  0.11557302  0.55548116  0.87758056  1
  O  O68  1  0.69038070  0.72097187  0.25280140  1
  O  O69  1  0.19038070  0.22097187  0.24719860  1
  O  O70  1  0.30961930  0.27902813  0.74719860  1
  O  O71  1  0.80961930  0.77902813  0.75280140  1
