# generated using pymatgen
data_Zr9Re4B
_symmetry_space_group_name_H-M   'P 1'
_cell_length_a   8.49080718
_cell_length_b   8.49080718
_cell_length_c   8.71870347
_cell_angle_alpha   90.00000000
_cell_angle_beta   90.00000000
_cell_angle_gamma   120.01153121
_symmetry_Int_Tables_number   1
_chemical_formula_structural   Zr9Re4B
_chemical_formula_sum   'Zr18 Re8 B2'
_cell_volume   544.28958096
_cell_formula_units_Z   2
loop_
 _symmetry_equiv_pos_site_id
 _symmetry_equiv_pos_as_xyz
  1  'x, y, z'
loop_
 _atom_site_type_symbol
 _atom_site_label
 _atom_site_symmetry_multiplicity
 _atom_site_fract_x
 _atom_site_fract_y
 _atom_site_fract_z
 _atom_site_occupancy
  Zr  Zr0  1  0.79835750  0.59671815  0.55365650  1
  Zr  Zr1  1  0.79837753  0.20162247  0.55365955  1
  Zr  Zr2  1  0.40328185  0.20164250  0.55365650  1
  Zr  Zr3  1  0.20164250  0.40328185  0.44634350  1
  Zr  Zr4  1  0.20162247  0.79837753  0.44634045  1
  Zr  Zr5  1  0.59671815  0.79835750  0.44634350  1
  Zr  Zr6  1  0.20164250  0.40328185  0.05365650  1
  Zr  Zr7  1  0.20162247  0.79837753  0.05365955  1
  Zr  Zr8  1  0.59671815  0.79835750  0.05365650  1
  Zr  Zr9  1  0.79835750  0.59671815  0.94634350  1
  Zr  Zr10  1  0.79837753  0.20162247  0.94634045  1
  Zr  Zr11  1  0.40328185  0.20164250  0.94634350  1
  Zr  Zr12  1  0.46106765  0.92210671  0.75000000  1
  Zr  Zr13  1  0.46105510  0.53894490  0.75000000  1
  Zr  Zr14  1  0.07789329  0.53893235  0.75000000  1
  Zr  Zr15  1  0.53893235  0.07789329  0.25000000  1
  Zr  Zr16  1  0.53894490  0.46105510  0.25000000  1
  Zr  Zr17  1  0.92210671  0.46106765  0.25000000  1
  Re  Re18  1  0.10760227  0.21518067  0.75000000  1
  Re  Re19  1  0.10760959  0.89239041  0.75000000  1
  Re  Re20  1  0.78481933  0.89239773  0.75000000  1
  Re  Re21  1  0.89239773  0.78481933  0.25000000  1
  Re  Re22  1  0.89239041  0.10760959  0.25000000  1
  Re  Re23  1  0.21518067  0.10760227  0.25000000  1
  Re  Re24  1  -0.00000000  -0.00000000  0.50000000  1
  Re  Re25  1  -0.00000000  -0.00000000  0.00000000  1
  B  B26  1  0.66668143  0.33331857  0.75000000  1
  B  B27  1  0.33331857  0.66668143  0.25000000  1
