# generated using pymatgen
data_Sc2Te(SeO5)2
_symmetry_space_group_name_H-M   'P 1'
_cell_length_a   6.63295097
_cell_length_b   11.22117176
_cell_length_c   12.86464854
_cell_angle_alpha   90.00000000
_cell_angle_beta   101.76536516
_cell_angle_gamma   90.00000000
_symmetry_Int_Tables_number   1
_chemical_formula_structural   Sc2Te(SeO5)2
_chemical_formula_sum   'Sc8 Te4 Se8 O40'
_cell_volume   937.39265238
_cell_formula_units_Z   4
loop_
 _symmetry_equiv_pos_site_id
 _symmetry_equiv_pos_as_xyz
  1  'x, y, z'
loop_
 _atom_site_type_symbol
 _atom_site_label
 _atom_site_symmetry_multiplicity
 _atom_site_fract_x
 _atom_site_fract_y
 _atom_site_fract_z
 _atom_site_occupancy
  Sc  Sc0  1  0.80209665  0.15888062  0.58986678  1
  Sc  Sc1  1  0.19790335  0.65888062  0.91013322  1
  Sc  Sc2  1  0.19790335  0.84111938  0.41013322  1
  Sc  Sc3  1  0.80209665  0.34111938  0.08986678  1
  Sc  Sc4  1  0.25631163  0.29781532  0.53343601  1
  Sc  Sc5  1  0.74368837  0.79781532  0.96656399  1
  Sc  Sc6  1  0.74368837  0.70218468  0.46656399  1
  Sc  Sc7  1  0.25631163  0.20218468  0.03343601  1
  Te  Te8  1  0.32101249  0.02356222  0.66472143  1
  Te  Te9  1  0.67898751  0.52356222  0.83527857  1
  Te  Te10  1  0.67898751  0.97643778  0.33527857  1
  Te  Te11  1  0.32101249  0.47643778  0.16472143  1
  Se  Se12  1  0.70766489  0.39358362  0.45513984  1
  Se  Se13  1  0.29233511  0.89358362  0.04486016  1
  Se  Se14  1  0.29233511  0.60641638  0.54486016  1
  Se  Se15  1  0.70766489  0.10641638  0.95513984  1
  Se  Se16  1  0.13114331  0.34916656  0.78060539  1
  Se  Se17  1  0.86885669  0.84916656  0.71939461  1
  Se  Se18  1  0.86885669  0.65083344  0.21939461  1
  Se  Se19  1  0.13114331  0.15083344  0.28060539  1
  O  O20  1  0.13359730  0.14273766  0.59332955  1
  O  O21  1  0.86640270  0.64273766  0.90667045  1
  O  O22  1  0.86640270  0.85726234  0.40667045  1
  O  O23  1  0.13359730  0.35726234  0.09332955  1
  O  O24  1  0.30120610  0.91973203  0.55014515  1
  O  O25  1  0.69879390  0.41973203  0.94985485  1
  O  O26  1  0.69879390  0.08026797  0.44985485  1
  O  O27  1  0.30120610  0.58026797  0.05014515  1
  O  O28  1  0.54389192  0.12054270  0.64674656  1
  O  O29  1  0.45610808  0.62054270  0.85325344  1
  O  O30  1  0.45610808  0.87945730  0.35325344  1
  O  O31  1  0.54389192  0.37945730  0.14674656  1
  O  O32  1  0.57916021  0.31455164  0.53956221  1
  O  O33  1  0.42083979  0.81455164  0.96043779  1
  O  O34  1  0.42083979  0.68544836  0.46043779  1
  O  O35  1  0.57916021  0.18544836  0.03956221  1
  O  O36  1  0.92803403  0.30854618  0.49803297  1
  O  O37  1  0.07196597  0.80854618  0.00196703  1
  O  O38  1  0.07196597  0.69145382  0.50196703  1
  O  O39  1  0.92803403  0.19145382  0.99803297  1
  O  O40  1  0.75899940  0.52461749  0.52196718  1
  O  O41  1  0.24100060  0.02461749  0.97803282  1
  O  O42  1  0.24100060  0.47538251  0.47803282  1
  O  O43  1  0.75899940  0.97538251  0.02196718  1
  O  O44  1  0.28272723  0.37135459  0.69179327  1
  O  O45  1  0.71727277  0.87135459  0.80820673  1
  O  O46  1  0.71727277  0.62864541  0.30820673  1
  O  O47  1  0.28272723  0.12864541  0.19179327  1
  O  O48  1  0.91246082  0.27801362  0.73059095  1
  O  O49  1  0.08753918  0.77801362  0.76940905  1
  O  O50  1  0.08753918  0.72198638  0.26940905  1
  O  O51  1  0.91246082  0.22198638  0.23059095  1
  O  O52  1  0.27014597  0.26983675  0.87978134  1
  O  O53  1  0.72985403  0.76983675  0.62021866  1
  O  O54  1  0.72985403  0.73016325  0.12021866  1
  O  O55  1  0.27014597  0.23016325  0.37978134  1
  O  O56  1  0.07081574  0.48259553  0.82361021  1
  O  O57  1  0.92918426  0.98259553  0.67638979  1
  O  O58  1  0.92918426  0.51740447  0.17638979  1
  O  O59  1  0.07081574  0.01740447  0.32361021  1
