# generated using pymatgen
data_Na2VO4
_symmetry_space_group_name_H-M   'P 1'
_cell_length_a   6.96356435
_cell_length_b   7.31200674
_cell_length_c   8.56648482
_cell_angle_alpha   84.19021015
_cell_angle_beta   85.50425894
_cell_angle_gamma   76.01449407
_symmetry_Int_Tables_number   1
_chemical_formula_structural   Na2VO4
_chemical_formula_sum   'Na8 V4 O16'
_cell_volume   420.42378145
_cell_formula_units_Z   4
loop_
 _symmetry_equiv_pos_site_id
 _symmetry_equiv_pos_as_xyz
  1  'x, y, z'
loop_
 _atom_site_type_symbol
 _atom_site_label
 _atom_site_symmetry_multiplicity
 _atom_site_fract_x
 _atom_site_fract_y
 _atom_site_fract_z
 _atom_site_occupancy
  Na  Na0  1  0.09039979  0.97885739  0.71132032  1
  Na  Na1  1  0.90960021  0.02114261  0.28867968  1
  Na  Na2  1  0.13245491  0.49562944  0.68695642  1
  Na  Na3  1  0.86754509  0.50437056  0.31304358  1
  Na  Na4  1  0.32306932  0.68852929  0.04140753  1
  Na  Na5  1  0.67693068  0.31147071  0.95859247  1
  Na  Na6  1  0.49007475  0.87037102  0.33215098  1
  Na  Na7  1  0.50992525  0.12962898  0.66784902  1
  V  V8  1  0.81402217  0.80203876  0.95396287  1
  V  V9  1  0.18597783  0.19796124  0.04603713  1
  V  V10  1  0.58878018  0.63912906  0.69001935  1
  V  V11  1  0.41121982  0.36087094  0.30998065  1
  O  O12  1  0.79238712  0.81102736  0.15395257  1
  O  O13  1  0.20761288  0.18897264  0.84604743  1
  O  O14  1  0.75042308  0.02324247  0.85648127  1
  O  O15  1  0.24957692  0.97675753  0.14351873  1
  O  O16  1  0.05475493  0.70670145  0.89228046  1
  O  O17  1  0.94524507  0.29329855  0.10771954  1
  O  O18  1  0.64418139  0.65995497  0.89444838  1
  O  O19  1  0.35581861  0.34004503  0.10555162  1
  O  O20  1  0.80879003  0.59079617  0.57445922  1
  O  O21  1  0.19120997  0.40920383  0.42554078  1
  O  O22  1  0.48732182  0.44809452  0.70914717  1
  O  O23  1  0.51267818  0.55190548  0.29085283  1
  O  O24  1  0.42903675  0.84142245  0.61795049  1
  O  O25  1  0.57096325  0.15857755  0.38204951  1
  O  O26  1  0.96287820  0.23093442  0.50380767  1
  O  O27  1  0.03712180  0.76906558  0.49619233  1
