# generated using pymatgen
data_MnInO3
_symmetry_space_group_name_H-M   'P 1'
_cell_length_a   6.00864782
_cell_length_b   6.01159646
_cell_length_c   11.71894829
_cell_angle_alpha   89.99999999
_cell_angle_beta   90.00273423
_cell_angle_gamma   120.01623143
_symmetry_Int_Tables_number   1
_chemical_formula_structural   MnInO3
_chemical_formula_sum   'Mn6 In6 O18'
_cell_volume   366.53443604
_cell_formula_units_Z   6
loop_
 _symmetry_equiv_pos_site_id
 _symmetry_equiv_pos_as_xyz
  1  'x, y, z'
loop_
 _atom_site_type_symbol
 _atom_site_label
 _atom_site_symmetry_multiplicity
 _atom_site_fract_x
 _atom_site_fract_y
 _atom_site_fract_z
 _atom_site_occupancy
  Mn  Mn0  1  0.33241126  0.33237015  0.74996124  1
  Mn  Mn1  1  0.66758874  -0.00004111  0.75003876  1
  Mn  Mn2  1  0.00000000  0.66766600  0.75000000  1
  Mn  Mn3  1  0.33241126  0.00004111  0.24996124  1
  Mn  Mn4  1  1.00000000  0.33233400  0.25000000  1
  Mn  Mn5  1  0.66758874  0.66762985  0.25003876  1
  In  In6  1  0.33331469  0.66666568  0.01597467  1
  In  In7  1  0.33331469  0.66664901  0.51597467  1
  In  In8  1  0.66668531  0.33333432  0.98402533  1
  In  In9  1  0.66668531  0.33335099  0.48402533  1
  In  In10  1  -0.00000000  -0.00000000  0.50000000  1
  In  In11  1  -0.00000000  -0.00000000  -0.00000000  1
  O  O12  1  0.00000000  0.99975854  0.75000000  1
  O  O13  1  -0.00000000  0.00024146  0.25000000  1
  O  O14  1  0.33327685  0.66687719  0.23265167  1
  O  O15  1  0.33327685  0.66639966  0.73265167  1
  O  O16  1  0.66672315  0.33312281  0.76734833  1
  O  O17  1  0.66672315  0.33360034  0.26734833  1
  O  O18  1  0.34248968  0.32276795  0.58435179  1
  O  O19  1  0.67716231  0.01959972  0.58437780  1
  O  O20  1  0.98049621  0.65767559  0.58435368  1
  O  O21  1  0.34248968  0.01972173  0.08435179  1
  O  O22  1  0.98049621  0.32282062  0.08435368  1
  O  O23  1  0.67716231  0.65756259  0.08437780  1
  O  O24  1  0.65751032  0.67723205  0.41564821  1
  O  O25  1  0.32283769  0.98040028  0.41562220  1
  O  O26  1  0.01950379  0.34232441  0.41564632  1
  O  O27  1  0.65751032  0.98027827  0.91564821  1
  O  O28  1  0.01950379  0.67717938  0.91564632  1
  O  O29  1  0.32283769  0.34243741  0.91562220  1
