# generated using pymatgen
data_La2Fe14B
_symmetry_space_group_name_H-M   'P 1'
_cell_length_a   8.78969856
_cell_length_b   8.78969856
_cell_length_c   12.26178443
_cell_angle_alpha   90.00000000
_cell_angle_beta   90.00000000
_cell_angle_gamma   90.00000000
_symmetry_Int_Tables_number   1
_chemical_formula_structural   La2Fe14B
_chemical_formula_sum   'La8 Fe56 B4'
_cell_volume   947.33076043
_cell_formula_units_Z   4
loop_
 _symmetry_equiv_pos_site_id
 _symmetry_equiv_pos_as_xyz
  1  'x, y, z'
loop_
 _atom_site_type_symbol
 _atom_site_label
 _atom_site_symmetry_multiplicity
 _atom_site_fract_x
 _atom_site_fract_y
 _atom_site_fract_z
 _atom_site_occupancy
  La  La0  1  0.23139943  0.76860057  0.50000000  1
  La  La1  1  0.76860057  0.23139943  0.50000000  1
  La  La2  1  0.26860057  0.26860057  -0.00000000  1
  La  La3  1  0.73139943  0.73139943  -0.00000000  1
  La  La4  1  0.64102491  0.64102491  0.50000000  1
  La  La5  1  0.35897509  0.35897509  0.50000000  1
  La  La6  1  0.85897509  0.14102491  -0.00000000  1
  La  La7  1  0.14102491  0.85897509  -0.00000000  1
  Fe  Fe8  1  -0.00000000  0.50000000  0.50000000  1
  Fe  Fe9  1  0.50000000  -0.00000000  -0.00000000  1
  Fe  Fe10  1  0.50000000  -0.00000000  0.50000000  1
  Fe  Fe11  1  -0.00000000  0.50000000  -0.00000000  1
  Fe  Fe12  1  0.50000000  0.50000000  0.11347439  1
  Fe  Fe13  1  -0.00000000  -0.00000000  0.61347439  1
  Fe  Fe14  1  0.50000000  0.50000000  0.88652561  1
  Fe  Fe15  1  -0.00000000  -0.00000000  0.38652561  1
  Fe  Fe16  1  0.18183673  0.81816327  0.25420654  1
  Fe  Fe17  1  0.81816327  0.18183673  0.25420654  1
  Fe  Fe18  1  0.31816327  0.31816327  0.75420654  1
  Fe  Fe19  1  0.68183673  0.68183673  0.75420654  1
  Fe  Fe20  1  0.81816327  0.18183673  0.74579346  1
  Fe  Fe21  1  0.18183673  0.81816327  0.74579346  1
  Fe  Fe22  1  0.68183673  0.68183673  0.24579346  1
  Fe  Fe23  1  0.31816327  0.31816327  0.24579346  1
  Fe  Fe24  1  0.40183332  0.59816668  0.29237888  1
  Fe  Fe25  1  0.59816668  0.40183332  0.29237888  1
  Fe  Fe26  1  0.09816668  0.09816668  0.79237888  1
  Fe  Fe27  1  0.90183332  0.90183332  0.79237888  1
  Fe  Fe28  1  0.59816668  0.40183332  0.70762112  1
  Fe  Fe29  1  0.40183332  0.59816668  0.70762112  1
  Fe  Fe30  1  0.90183332  0.90183332  0.20762112  1
  Fe  Fe31  1  0.09816668  0.09816668  0.20762112  1
  Fe  Fe32  1  0.13935936  0.53708972  0.32296966  1
  Fe  Fe33  1  0.86064064  0.46291028  0.32296966  1
  Fe  Fe34  1  0.36064064  0.03708972  0.82296966  1
  Fe  Fe35  1  0.63935936  0.96291028  0.82296966  1
  Fe  Fe36  1  0.86064064  0.46291028  0.67703034  1
  Fe  Fe37  1  0.13935936  0.53708972  0.67703034  1
  Fe  Fe38  1  0.63935936  0.96291028  0.17703034  1
  Fe  Fe39  1  0.36064064  0.03708972  0.17703034  1
  Fe  Fe40  1  0.53708972  0.13935936  0.32296966  1
  Fe  Fe41  1  0.46291028  0.86064064  0.32296966  1
  Fe  Fe42  1  0.03708972  0.36064064  0.82296966  1
  Fe  Fe43  1  0.96291028  0.63935936  0.82296966  1
  Fe  Fe44  1  0.46291028  0.86064064  0.67703034  1
  Fe  Fe45  1  0.53708972  0.13935936  0.67703034  1
  Fe  Fe46  1  0.96291028  0.63935936  0.17703034  1
  Fe  Fe47  1  0.03708972  0.36064064  0.17703034  1
  Fe  Fe48  1  0.93161990  0.72455739  0.37223774  1
  Fe  Fe49  1  0.06838010  0.27544261  0.37223774  1
  Fe  Fe50  1  0.56838010  0.22455739  0.87223774  1
  Fe  Fe51  1  0.43161990  0.77544261  0.87223774  1
  Fe  Fe52  1  0.06838010  0.27544261  0.62776226  1
  Fe  Fe53  1  0.93161990  0.72455739  0.62776226  1
  Fe  Fe54  1  0.43161990  0.77544261  0.12776226  1
  Fe  Fe55  1  0.56838010  0.22455739  0.12776226  1
  Fe  Fe56  1  0.72455739  0.93161990  0.37223774  1
  Fe  Fe57  1  0.27544261  0.06838010  0.37223774  1
  Fe  Fe58  1  0.22455739  0.56838010  0.87223774  1
  Fe  Fe59  1  0.77544261  0.43161990  0.87223774  1
  Fe  Fe60  1  0.27544261  0.06838010  0.62776226  1
  Fe  Fe61  1  0.72455739  0.93161990  0.62776226  1
  Fe  Fe62  1  0.77544261  0.43161990  0.12776226  1
  Fe  Fe63  1  0.22455739  0.56838010  0.12776226  1
  B  B64  1  0.87660311  0.87660311  0.50000000  1
  B  B65  1  0.12339689  0.12339689  0.50000000  1
  B  B66  1  0.62339689  0.37660311  -0.00000000  1
  B  B67  1  0.37660311  0.62339689  -0.00000000  1
