# generated using pymatgen
data_BaSm2Ti3O10
_symmetry_space_group_name_H-M   'P 1'
_cell_length_a   3.90487810
_cell_length_b   7.65882628
_cell_length_c   14.41278727
_cell_angle_alpha   90.00000000
_cell_angle_beta   97.78555082
_cell_angle_gamma   90.00000000
_symmetry_Int_Tables_number   1
_chemical_formula_structural   BaSm2Ti3O10
_chemical_formula_sum   'Ba2 Sm4 Ti6 O20'
_cell_volume   427.06678858
_cell_formula_units_Z   2
loop_
 _symmetry_equiv_pos_site_id
 _symmetry_equiv_pos_as_xyz
  1  'x, y, z'
loop_
 _atom_site_type_symbol
 _atom_site_label
 _atom_site_symmetry_multiplicity
 _atom_site_fract_x
 _atom_site_fract_y
 _atom_site_fract_z
 _atom_site_occupancy
  Ba  Ba0  1  0.74124080  0.75000000  0.48248161  1
  Ba  Ba1  1  0.25875920  0.25000000  0.51751839  1
  Sm  Sm2  1  0.42047265  0.75000000  0.84094531  1
  Sm  Sm3  1  0.57952735  0.25000000  0.15905469  1
  Sm  Sm4  1  0.57239427  0.75000000  0.14478855  1
  Sm  Sm5  1  0.42760573  0.25000000  0.85521145  1
  Ti  Ti6  1  -0.00000000  0.50000000  -0.00000000  1
  Ti  Ti7  1  -0.00000000  0.00000000  -0.00000000  1
  Ti  Ti8  1  0.85564710  0.49610958  0.71129420  1
  Ti  Ti9  1  0.14435290  0.50389042  0.28870580  1
  Ti  Ti10  1  0.85564710  0.00389042  0.71129420  1
  Ti  Ti11  1  0.14435290  0.99610958  0.28870580  1
  O  O12  1  0.50000000  0.50000000  -0.00000000  1
  O  O13  1  0.50000000  -0.00000000  -0.00000000  1
  O  O14  1  0.01895186  0.75000000  0.03790372  1
  O  O15  1  0.98104814  0.25000000  0.96209628  1
  O  O16  1  0.12089843  0.75000000  0.24179687  1
  O  O17  1  0.87910157  0.25000000  0.75820313  1
  O  O18  1  0.85487387  0.75000000  0.70974775  1
  O  O19  1  0.14512613  0.25000000  0.29025225  1
  O  O20  1  0.93428107  0.56001985  0.86856214  1
  O  O21  1  0.06571893  0.43998015  0.13143786  1
  O  O22  1  0.93428107  0.93998015  0.86856214  1
  O  O23  1  0.06571893  0.06001985  0.13143786  1
  O  O24  1  0.79447323  0.45593300  0.58894647  1
  O  O25  1  0.20552677  0.54406700  0.41105353  1
  O  O26  1  0.79447323  0.04406700  0.58894647  1
  O  O27  1  0.20552677  0.95593300  0.41105353  1
  O  O28  1  0.37186451  0.49265933  0.74372902  1
  O  O29  1  0.62813549  0.50734067  0.25627098  1
  O  O30  1  0.37186451  0.00734067  0.74372902  1
  O  O31  1  0.62813549  0.99265933  0.25627098  1
