# generated using pymatgen
data_H6C(SN)2
_symmetry_space_group_name_H-M   'P 1'
_cell_length_a   5.72458587
_cell_length_b   8.47865167
_cell_length_c   10.94700836
_cell_angle_alpha   90.00000000
_cell_angle_beta   90.00000000
_cell_angle_gamma   90.00000000
_symmetry_Int_Tables_number   1
_chemical_formula_structural   H6C(SN)2
_chemical_formula_sum   'H24 C4 S8 N8'
_cell_volume   531.33242200
_cell_formula_units_Z   4
loop_
 _symmetry_equiv_pos_site_id
 _symmetry_equiv_pos_as_xyz
  1  'x, y, z'
loop_
 _atom_site_type_symbol
 _atom_site_label
 _atom_site_symmetry_multiplicity
 _atom_site_fract_x
 _atom_site_fract_y
 _atom_site_fract_z
 _atom_site_occupancy
  H  H0  1  0.63390885  0.73738384  0.75046707  1
  H  H1  1  0.36609115  0.26261616  0.25046707  1
  H  H2  1  0.63390885  0.76261616  0.25046707  1
  H  H3  1  0.36609115  0.23738384  0.75046707  1
  H  H4  1  0.44318509  0.69257252  0.63170072  1
  H  H5  1  0.55681491  0.30742748  0.13170072  1
  H  H6  1  0.44318509  0.80742748  0.13170072  1
  H  H7  1  0.55681491  0.19257252  0.63170072  1
  H  H8  1  0.88395695  0.19928535  0.97124371  1
  H  H9  1  0.11604305  0.80071465  0.47124371  1
  H  H10  1  0.88395695  0.30071465  0.47124371  1
  H  H11  1  0.11604305  0.69928535  0.97124371  1
  H  H12  1  0.18282915  0.20714275  0.98151661  1
  H  H13  1  0.81717085  0.79285725  0.48151661  1
  H  H14  1  0.18282915  0.29285725  0.48151661  1
  H  H15  1  0.81717085  0.70714275  0.98151661  1
  H  H16  1  0.03790495  0.35451660  0.91035372  1
  H  H17  1  0.96209505  0.64548340  0.41035372  1
  H  H18  1  0.03790495  0.14548340  0.41035372  1
  H  H19  1  0.96209505  0.85451660  0.91035372  1
  H  H20  1  0.01025889  0.33440902  0.06472513  1
  H  H21  1  0.98974111  0.66559098  0.56472513  1
  H  H22  1  0.01025889  0.16559098  0.56472513  1
  H  H23  1  0.98974111  0.83440902  0.06472513  1
  C  C24  1  0.36145504  0.59071334  0.79711119  1
  C  C25  1  0.63854496  0.40928666  0.29711119  1
  C  C26  1  0.36145504  0.90928666  0.29711119  1
  C  C27  1  0.63854496  0.09071334  0.79711119  1
  S  S28  1  0.45075022  0.57211574  0.94646719  1
  S  S29  1  0.54924978  0.42788426  0.44646719  1
  S  S30  1  0.45075022  0.92788426  0.44646719  1
  S  S31  1  0.54924978  0.07211574  0.94646719  1
  S  S32  1  0.10830079  0.50581462  0.74319447  1
  S  S33  1  0.89169921  0.49418538  0.24319447  1
  S  S34  1  0.10830079  0.99418538  0.24319447  1
  S  S35  1  0.89169921  0.00581462  0.74319447  1
  N  N36  1  0.49138858  0.67651355  0.72021573  1
  N  N37  1  0.50861142  0.32348645  0.22021573  1
  N  N38  1  0.49138858  0.82348645  0.22021573  1
  N  N39  1  0.50861142  0.17651355  0.72021573  1
  N  N40  1  0.02923916  0.27342017  0.98283444  1
  N  N41  1  0.97076084  0.72657983  0.48283444  1
  N  N42  1  0.02923916  0.22657983  0.48283444  1
  N  N43  1  0.97076084  0.77342017  0.98283444  1
