# generated using pymatgen
data_GaGe2H5CNO6
_symmetry_space_group_name_H-M   'P 1'
_cell_length_a   7.29564029
_cell_length_b   7.80947536
_cell_length_c   7.80654967
_cell_angle_alpha   113.50556202
_cell_angle_beta   108.64096428
_cell_angle_gamma   101.42052970
_symmetry_Int_Tables_number   1
_chemical_formula_structural   GaGe2H5CNO6
_chemical_formula_sum   'Ga2 Ge4 H10 C2 N2 O12'
_cell_volume   358.33507799
_cell_formula_units_Z   2
loop_
 _symmetry_equiv_pos_site_id
 _symmetry_equiv_pos_as_xyz
  1  'x, y, z'
loop_
 _atom_site_type_symbol
 _atom_site_label
 _atom_site_symmetry_multiplicity
 _atom_site_fract_x
 _atom_site_fract_y
 _atom_site_fract_z
 _atom_site_occupancy
  Ga  Ga0  1  0.92759337  0.25574355  0.19317070  1
  Ga  Ga1  1  0.07240663  0.74425645  0.80682930  1
  Ge  Ge2  1  0.72069973  0.30101610  0.52226256  1
  Ge  Ge3  1  0.27930027  0.69898390  0.47773744  1
  Ge  Ge4  1  0.24367146  0.01951342  0.30630424  1
  Ge  Ge5  1  0.75632854  0.98048658  0.69369576  1
  H  H6  1  0.72411186  0.52116458  0.02983145  1
  H  H7  1  0.27588814  0.47883542  0.97016855  1
  H  H8  1  0.65028561  0.63185026  0.23403851  1
  H  H9  1  0.34971439  0.36814974  0.76596149  1
  H  H10  1  0.77347382  0.87144003  0.13476214  1
  H  H11  1  0.22652618  0.12855997  0.86523786  1
  H  H12  1  0.59336160  0.71530861  0.88549721  1
  H  H13  1  0.40663840  0.28469139  0.11450279  1
  H  H14  1  0.51029429  0.81308550  0.06331932  1
  H  H15  1  0.48970571  0.18691450  0.93668068  1
  C  C16  1  0.61006377  0.57955191  0.06914704  1
  C  C17  1  0.38993623  0.42044809  0.93085296  1
  N  N18  1  0.62311188  0.75610645  0.03688843  1
  N  N19  1  0.37688812  0.24389355  0.96311157  1
  O  O20  1  0.75215631  0.31343536  0.31416178  1
  O  O21  1  0.24784369  0.68656464  0.68583822  1
  O  O22  1  0.76528330  0.08840685  0.53311683  1
  O  O23  1  0.23471670  0.91159315  0.46688317  1
  O  O24  1  0.00793128  0.06006212  0.23841407  1
  O  O25  1  0.99206872  0.93993788  0.76158593  1
  O  O26  1  0.27326815  0.87074960  0.08589802  1
  O  O27  1  0.72673185  0.12925040  0.91410198  1
  O  O28  1  0.45217607  0.25937195  0.46526294  1
  O  O29  1  0.54782393  0.74062805  0.53473706  1
  O  O30  1  0.86870747  0.52720055  0.75909197  1
  O  O31  1  0.13129253  0.47279945  0.24090803  1
