# generated using pymatgen
data_La3IrO7
_symmetry_space_group_name_H-M   'P 1'
_cell_length_a   5.79081146
_cell_length_b   8.91757686
_cell_length_c   24.63560364
_cell_angle_alpha   95.87381832
_cell_angle_beta   90.00000000
_cell_angle_gamma   90.00000000
_symmetry_Int_Tables_number   1
_chemical_formula_structural   La3IrO7
_chemical_formula_sum   'La24 Ir8 O56'
_cell_volume   1265.50336717
_cell_formula_units_Z   8
loop_
 _symmetry_equiv_pos_site_id
 _symmetry_equiv_pos_as_xyz
  1  'x, y, z'
loop_
 _atom_site_type_symbol
 _atom_site_label
 _atom_site_symmetry_multiplicity
 _atom_site_fract_x
 _atom_site_fract_y
 _atom_site_fract_z
 _atom_site_occupancy
  La  La0  1  0.25601883  0.56427678  0.54871180  1
  La  La1  1  0.24398117  0.06427678  0.04871180  1
  La  La2  1  0.74398117  0.43572322  0.45128820  1
  La  La3  1  0.75601883  0.93572322  0.95128820  1
  La  La4  1  0.22071351  0.98594749  0.55990321  1
  La  La5  1  0.27928649  0.48594749  0.05990321  1
  La  La6  1  0.77928649  0.01405251  0.44009679  1
  La  La7  1  0.72071351  0.51405251  0.94009679  1
  La  La8  1  0.73504509  0.29781961  0.58920476  1
  La  La9  1  0.76495491  0.79781961  0.08920476  1
  La  La10  1  0.26495491  0.70218039  0.41079524  1
  La  La11  1  0.23504509  0.20218039  0.91079524  1
  La  La12  1  0.21930266  0.69516514  0.69237563  1
  La  La13  1  0.28069734  0.19516514  0.19237563  1
  La  La14  1  0.78069734  0.30483486  0.30762437  1
  La  La15  1  0.71930266  0.80483486  0.80762437  1
  La  La16  1  0.70565597  0.96143387  0.66223139  1
  La  La17  1  0.79434403  0.46143387  0.16223139  1
  La  La18  1  0.29434403  0.03856613  0.33776861  1
  La  La19  1  0.20565597  0.53856613  0.83776861  1
  La  La20  1  0.23326513  0.26099357  0.69060331  1
  La  La21  1  0.26673487  0.76099357  0.19060331  1
  La  La22  1  0.76673487  0.73900643  0.30939669  1
  La  La23  1  0.73326513  0.23900643  0.80939669  1
  Ir  Ir24  1  0.76051835  0.75241239  0.54619064  1
  Ir  Ir25  1  0.73948165  0.25241239  0.04619064  1
  Ir  Ir26  1  0.23948165  0.24758761  0.45380936  1
  Ir  Ir27  1  0.26051835  0.74758761  0.95380936  1
  Ir  Ir28  1  0.17913299  0.00467901  0.79103134  1
  Ir  Ir29  1  0.32086701  0.50467901  0.29103134  1
  Ir  Ir30  1  0.82086701  0.99532099  0.20896866  1
  Ir  Ir31  1  0.67913299  0.49532099  0.70896866  1
  O  O32  1  0.82350018  0.53678148  0.54854634  1
  O  O33  1  0.67649982  0.03678148  0.04854634  1
  O  O34  1  0.17649982  0.46321852  0.45145366  1
  O  O35  1  0.32350018  0.96321852  0.95145366  1
  O  O36  1  0.03865272  0.75461622  0.49644840  1
  O  O37  1  0.46134728  0.25461622  0.99644840  1
  O  O38  1  0.96134728  0.24538378  0.50355160  1
  O  O39  1  0.53865272  0.74538378  0.00355160  1
  O  O40  1  0.53987541  0.67628918  0.48535337  1
  O  O41  1  0.96012459  0.17628918  0.98535337  1
  O  O42  1  0.46012459  0.32371082  0.51464663  1
  O  O43  1  0.03987541  0.82371082  0.01464663  1
  O  O44  1  0.47015867  0.77563603  0.59518308  1
  O  O45  1  0.02984133  0.27563603  0.09518308  1
  O  O46  1  0.52984133  0.22436397  0.40481692  1
  O  O47  1  0.97015867  0.72436397  0.90481692  1
  O  O48  1  0.99722741  0.79225007  0.60820226  1
  O  O49  1  0.50277259  0.29225007  0.10820226  1
  O  O50  1  0.00277259  0.20774993  0.39179774  1
  O  O51  1  0.49722741  0.70774993  0.89179774  1
  O  O52  1  0.71958675  0.96304878  0.53637488  1
  O  O53  1  0.78041325  0.46304878  0.03637488  1
  O  O54  1  0.28041325  0.03695122  0.46362512  1
  O  O55  1  0.21958675  0.53695122  0.96362512  1
  O  O56  1  0.16868701  0.78249423  0.78989377  1
  O  O57  1  0.33131299  0.28249423  0.28989377  1
  O  O58  1  0.83131299  0.21750577  0.21010623  1
  O  O59  1  0.66868701  0.71750577  0.71010623  1
  O  O60  1  0.34828641  0.97678735  0.72043450  1
  O  O61  1  0.15171359  0.47678735  0.22043450  1
  O  O62  1  0.65171359  0.02321265  0.27956550  1
  O  O63  1  0.84828641  0.52321265  0.77956550  1
  O  O64  1  0.87934164  0.99161350  0.75081290  1
  O  O65  1  0.62065836  0.49161350  0.25081290  1
  O  O66  1  0.12065836  0.00838650  0.24918710  1
  O  O67  1  0.37934164  0.50838650  0.74918710  1
  O  O68  1  0.95939228  0.02691707  0.85767035  1
  O  O69  1  0.54060772  0.52691707  0.35767035  1
  O  O70  1  0.04060772  0.97308293  0.14232965  1
  O  O71  1  0.45939228  0.47308293  0.64232965  1
  O  O72  1  0.47254526  0.02599138  0.83560802  1
  O  O73  1  0.02745474  0.52599138  0.33560802  1
  O  O74  1  0.52745474  0.97400862  0.16439198  1
  O  O75  1  0.97254526  0.47400862  0.66439198  1
  O  O76  1  0.17853368  0.22384914  0.78771487  1
  O  O77  1  0.32146632  0.72384914  0.28771487  1
  O  O78  1  0.82146632  0.77615086  0.21228513  1
  O  O79  1  0.67853368  0.27615086  0.71228513  1
  O  O80  1  0.98573270  0.12612848  0.62606058  1
  O  O81  1  0.51426730  0.62612848  0.12606058  1
  O  O82  1  0.01426730  0.87387152  0.37393942  1
  O  O83  1  0.48573270  0.37387152  0.87393942  1
  O  O84  1  0.46015179  0.12973188  0.62016685  1
  O  O85  1  0.03984821  0.62973188  0.12016685  1
  O  O86  1  0.53984821  0.87026812  0.37983315  1
  O  O87  1  0.96015179  0.37026812  0.87983315  1
