# generated using pymatgen
data_Tl2TeH6SeO10
_symmetry_space_group_name_H-M   'P 1'
_cell_length_a   7.67302357
_cell_length_b   12.19471377
_cell_length_c   12.75901703
_cell_angle_alpha   111.08070357
_cell_angle_beta   90.00000000
_cell_angle_gamma   90.00000000
_symmetry_Int_Tables_number   1
_chemical_formula_structural   Tl2TeH6SeO10
_chemical_formula_sum   'Tl8 Te4 H24 Se4 O40'
_cell_volume   1113.96561448
_cell_formula_units_Z   4
loop_
 _symmetry_equiv_pos_site_id
 _symmetry_equiv_pos_as_xyz
  1  'x, y, z'
loop_
 _atom_site_type_symbol
 _atom_site_label
 _atom_site_symmetry_multiplicity
 _atom_site_fract_x
 _atom_site_fract_y
 _atom_site_fract_z
 _atom_site_occupancy
  Tl  Tl0  1  0.02437848  0.85354441  0.16862171  1
  Tl  Tl1  1  0.52437848  0.64645559  0.83137829  1
  Tl  Tl2  1  0.97562152  0.14645559  0.83137829  1
  Tl  Tl3  1  0.47562152  0.35354441  0.16862171  1
  Tl  Tl4  1  0.98537030  0.60450869  0.35114880  1
  Tl  Tl5  1  0.48537030  0.89549131  0.64885120  1
  Tl  Tl6  1  0.01462970  0.39549131  0.64885120  1
  Tl  Tl7  1  0.51462970  0.10450869  0.35114880  1
  Te  Te8  1  -0.00000000  0.00000000  0.50000000  1
  Te  Te9  1  0.50000000  0.50000000  0.50000000  1
  Te  Te10  1  -0.00000000  0.50000000  0.00000000  1
  Te  Te11  1  0.50000000  0.00000000  0.00000000  1
  H  H12  1  0.79014427  0.16477791  0.60767473  1
  H  H13  1  0.29014427  0.33522209  0.39232527  1
  H  H14  1  0.20985573  0.83522209  0.39232527  1
  H  H15  1  0.70985573  0.66477791  0.60767473  1
  H  H16  1  0.98250466  0.12464458  0.38451184  1
  H  H17  1  0.48250466  0.37535542  0.61548816  1
  H  H18  1  0.01749534  0.87535542  0.61548816  1
  H  H19  1  0.51749534  0.62464458  0.38451184  1
  H  H20  1  0.74811632  0.87205856  0.41747718  1
  H  H21  1  0.24811632  0.62794144  0.58252282  1
  H  H22  1  0.25188368  0.12794144  0.58252282  1
  H  H23  1  0.75188368  0.37205856  0.41747718  1
  H  H24  1  0.80825866  0.41335320  0.09852199  1
  H  H25  1  0.30825866  0.08664680  0.90147801  1
  H  H26  1  0.19174134  0.58664680  0.90147801  1
  H  H27  1  0.69174134  0.91335320  0.09852199  1
  H  H28  1  0.75188592  0.39304023  0.86772019  1
  H  H29  1  0.25188592  0.10695977  0.13227981  1
  H  H30  1  0.24811408  0.60695977  0.13227981  1
  H  H31  1  0.74811408  0.89304023  0.86772019  1
  H  H32  1  0.90532023  0.63878934  0.91021800  1
  H  H33  1  0.40532023  0.86121066  0.08978200  1
  H  H34  1  0.09467977  0.36121066  0.08978200  1
  H  H35  1  0.59467977  0.13878934  0.91021800  1
  Se  Se36  1  0.00153320  0.26241996  0.25427392  1
  Se  Se37  1  0.50153320  0.23758004  0.74572608  1
  Se  Se38  1  0.99846680  0.73758004  0.74572608  1
  Se  Se39  1  0.49846680  0.76241996  0.25427392  1
  O  O40  1  0.91741034  0.14667269  0.61474890  1
  O  O41  1  0.41741034  0.35332731  0.38525110  1
  O  O42  1  0.08258966  0.85332731  0.38525110  1
  O  O43  1  0.58258966  0.64667269  0.61474890  1
  O  O44  1  0.91860561  0.05143746  0.37876441  1
  O  O45  1  0.41860561  0.44856254  0.62123559  1
  O  O46  1  0.08139439  0.94856254  0.62123559  1
  O  O47  1  0.58139439  0.55143746  0.37876441  1
  O  O48  1  0.77403207  0.92627062  0.49662406  1
  O  O49  1  0.27403207  0.57372938  0.50337594  1
  O  O50  1  0.22596793  0.07372938  0.50337594  1
  O  O51  1  0.72596793  0.42627062  0.49662406  1
  O  O52  1  0.80259249  0.49201287  0.09468547  1
  O  O53  1  0.30259249  0.00798713  0.90531453  1
  O  O54  1  0.19740751  0.50798713  0.90531453  1
  O  O55  1  0.69740751  0.99201287  0.09468547  1
  O  O56  1  0.88396373  0.39893162  0.86131177  1
  O  O57  1  0.38396373  0.10106838  0.13868823  1
  O  O58  1  0.11603627  0.60106838  0.13868823  1
  O  O59  1  0.61603627  0.89893162  0.86131177  1
  O  O60  1  0.89656792  0.64262568  0.99074817  1
  O  O61  1  0.39656792  0.85737432  0.00925183  1
  O  O62  1  0.10343208  0.35737432  0.00925183  1
  O  O63  1  0.60343208  0.14262568  0.99074817  1
  O  O64  1  0.09634745  0.26316838  0.37422565  1
  O  O65  1  0.59634745  0.23683162  0.62577435  1
  O  O66  1  0.90365255  0.73683162  0.62577435  1
  O  O67  1  0.40365255  0.76316838  0.37422565  1
  O  O68  1  0.78723231  0.28543581  0.27994426  1
  O  O69  1  0.28723231  0.21456419  0.72005574  1
  O  O70  1  0.21276769  0.71456419  0.72005574  1
  O  O71  1  0.71276769  0.78543581  0.27994426  1
  O  O72  1  0.04396916  0.13781227  0.14858997  1
  O  O73  1  0.54396916  0.36218773  0.85141003  1
  O  O74  1  0.95603084  0.86218773  0.85141003  1
  O  O75  1  0.45603084  0.63781227  0.14858997  1
  O  O76  1  0.08589224  0.37544059  0.22238909  1
  O  O77  1  0.58589224  0.12455941  0.77761091  1
  O  O78  1  0.91410776  0.62455941  0.77761091  1
  O  O79  1  0.41410776  0.87544059  0.22238909  1
