# generated using pymatgen
data_AgSbC2N2(ClF3)2
_symmetry_space_group_name_H-M   'P 1'
_cell_length_a   7.80500540
_cell_length_b   8.76650603
_cell_length_c   9.34896009
_cell_angle_alpha   90.00000000
_cell_angle_beta   90.00000000
_cell_angle_gamma   111.11600651
_symmetry_Int_Tables_number   1
_chemical_formula_structural   AgSbC2N2(ClF3)2
_chemical_formula_sum   'Ag2 Sb2 C4 N4 Cl4 F12'
_cell_volume   596.72774109
_cell_formula_units_Z   2
loop_
 _symmetry_equiv_pos_site_id
 _symmetry_equiv_pos_as_xyz
  1  'x, y, z'
loop_
 _atom_site_type_symbol
 _atom_site_label
 _atom_site_symmetry_multiplicity
 _atom_site_fract_x
 _atom_site_fract_y
 _atom_site_fract_z
 _atom_site_occupancy
  Ag  Ag0  1  0.50000000  0.50000000  0.50000000  1
  Ag  Ag1  1  0.00000000  -0.00000000  0.00000000  1
  Sb  Sb2  1  0.50000000  0.50000000  0.00000000  1
  Sb  Sb3  1  0.00000000  -0.00000000  0.50000000  1
  C  C4  1  0.83779962  0.44755298  0.66649411  1
  C  C5  1  0.33779962  0.94755298  0.83350589  1
  C  C6  1  0.16220038  0.55244702  0.33350589  1
  C  C7  1  0.66220038  0.05244702  0.16649411  1
  N  N8  1  0.71541241  0.44933361  0.59603211  1
  N  N9  1  0.21541241  0.94933361  0.90396789  1
  N  N10  1  0.28458759  0.55066639  0.40396789  1
  N  N11  1  0.78458759  0.05066639  0.09603211  1
  Cl  Cl12  1  0.00750997  0.44653764  0.76220695  1
  Cl  Cl13  1  0.50750997  0.94653764  0.73779305  1
  Cl  Cl14  1  0.99249003  0.55346236  0.23779305  1
  Cl  Cl15  1  0.49249003  0.05346236  0.26220695  1
  F  F16  1  0.73929472  0.65604975  0.95409837  1
  F  F17  1  0.23929472  0.15604975  0.54590163  1
  F  F18  1  0.26070528  0.34395025  0.04590163  1
  F  F19  1  0.76070528  0.84395025  0.45409837  1
  F  F20  1  0.57704434  0.32248959  0.94846261  1
  F  F21  1  0.07704434  0.82248959  0.55153739  1
  F  F22  1  0.42295566  0.67751041  0.05153739  1
  F  F23  1  0.92295566  0.17751041  0.44846261  1
  F  F24  1  0.41988669  0.51052822  0.80647460  1
  F  F25  1  0.91988669  0.01052822  0.69352540  1
  F  F26  1  0.58011331  0.48947178  0.19352540  1
  F  F27  1  0.08011331  0.98947178  0.30647460  1
