# generated using pymatgen
data_ErCo5Si3
_symmetry_space_group_name_H-M   'P 1'
_cell_length_a   3.66220420
_cell_length_b   14.62697865
_cell_length_c   14.62697865
_cell_angle_alpha   119.99999859
_cell_angle_beta   90.00000000
_cell_angle_gamma   90.00000000
_symmetry_Int_Tables_number   1
_chemical_formula_structural   ErCo5Si3
_chemical_formula_sum   'Er6 Co30 Si18'
_cell_volume   678.55092849
_cell_formula_units_Z   6
loop_
 _symmetry_equiv_pos_site_id
 _symmetry_equiv_pos_as_xyz
  1  'x, y, z'
loop_
 _atom_site_type_symbol
 _atom_site_label
 _atom_site_symmetry_multiplicity
 _atom_site_fract_x
 _atom_site_fract_y
 _atom_site_fract_z
 _atom_site_occupancy
  Er  Er0  1  0.75000000  0.29405738  0.89946553  1
  Er  Er1  1  0.75000000  0.10053447  0.39459185  1
  Er  Er2  1  0.75000000  0.60540815  0.70594262  1
  Er  Er3  1  0.25000000  0.70594262  0.10053447  1
  Er  Er4  1  0.25000000  0.89946553  0.60540815  1
  Er  Er5  1  0.25000000  0.39459185  0.29405738  1
  Co  Co6  1  0.75000000  0.42775723  0.77491413  1
  Co  Co7  1  0.75000000  0.22508587  0.65284310  1
  Co  Co8  1  0.75000000  0.34715690  0.57224277  1
  Co  Co9  1  0.25000000  0.57224277  0.22508587  1
  Co  Co10  1  0.25000000  0.77491413  0.34715690  1
  Co  Co11  1  0.25000000  0.65284310  0.42775723  1
  Co  Co12  1  0.75000000  0.53367436  0.07420387  1
  Co  Co13  1  0.75000000  0.92579613  0.45947049  1
  Co  Co14  1  0.75000000  0.54052951  0.46632564  1
  Co  Co15  1  0.25000000  0.46632564  0.92579613  1
  Co  Co16  1  0.25000000  0.07420387  0.54052951  1
  Co  Co17  1  0.25000000  0.45947049  0.53367436  1
  Co  Co18  1  0.75000000  0.04921265  0.78120657  1
  Co  Co19  1  0.75000000  0.21879343  0.26800609  1
  Co  Co20  1  0.75000000  0.73199391  0.95078735  1
  Co  Co21  1  0.25000000  0.95078735  0.21879343  1
  Co  Co22  1  0.25000000  0.78120657  0.73199391  1
  Co  Co23  1  0.25000000  0.26800609  0.04921265  1
  Co  Co24  1  0.75000000  0.73479537  0.58645730  1
  Co  Co25  1  0.75000000  0.41354270  0.14833807  1
  Co  Co26  1  0.75000000  0.85166193  0.26520463  1
  Co  Co27  1  0.25000000  0.26520463  0.41354270  1
  Co  Co28  1  0.25000000  0.58645730  0.85166193  1
  Co  Co29  1  0.25000000  0.14833807  0.73479537  1
  Co  Co30  1  0.75000000  0.10032113  0.97150366  1
  Co  Co31  1  0.75000000  0.02849634  0.12881747  1
  Co  Co32  1  0.75000000  0.87118253  0.89967887  1
  Co  Co33  1  0.25000000  0.89967887  0.02849634  1
  Co  Co34  1  0.25000000  0.97150366  0.87118253  1
  Co  Co35  1  0.25000000  0.12881747  0.10032113  1
  Si  Si36  1  0.75000000  0.68178339  0.23856897  1
  Si  Si37  1  0.75000000  0.76143103  0.44321442  1
  Si  Si38  1  0.75000000  0.55678558  0.31821661  1
  Si  Si39  1  0.25000000  0.31821661  0.76143103  1
  Si  Si40  1  0.25000000  0.23856897  0.55678558  1
  Si  Si41  1  0.25000000  0.44321442  0.68178339  1
  Si  Si42  1  0.75000000  0.88262115  0.75161133  1
  Si  Si43  1  0.75000000  0.24838867  0.13100982  1
  Si  Si44  1  0.75000000  0.86899018  0.11737885  1
  Si  Si45  1  0.25000000  0.11737885  0.24838867  1
  Si  Si46  1  0.25000000  0.75161133  0.86899018  1
  Si  Si47  1  0.25000000  0.13100982  0.88262115  1
  Si  Si48  1  0.75000000  0.06230476  0.63030469  1
  Si  Si49  1  0.75000000  0.36969531  0.43200007  1
  Si  Si50  1  0.75000000  0.56799993  0.93769524  1
  Si  Si51  1  0.25000000  0.93769524  0.36969531  1
  Si  Si52  1  0.25000000  0.63030469  0.56799993  1
  Si  Si53  1  0.25000000  0.43200007  0.06230476  1
