# generated using pymatgen
data_Bi2O3
_symmetry_space_group_name_H-M   'P 1'
_cell_length_a   11.41361029
_cell_length_b   11.41361029
_cell_length_c   11.41361029
_cell_angle_alpha   90.00000000
_cell_angle_beta   90.00000000
_cell_angle_gamma   90.00000000
_symmetry_Int_Tables_number   1
_chemical_formula_structural   Bi2O3
_chemical_formula_sum   'Bi32 O48'
_cell_volume   1486.85671759
_cell_formula_units_Z   16
loop_
 _symmetry_equiv_pos_site_id
 _symmetry_equiv_pos_as_xyz
  1  'x, y, z'
loop_
 _atom_site_type_symbol
 _atom_site_label
 _atom_site_symmetry_multiplicity
 _atom_site_fract_x
 _atom_site_fract_y
 _atom_site_fract_z
 _atom_site_occupancy
  Bi  Bi0  1  0.24477325  0.75522675  0.25522675  1
  Bi  Bi1  1  0.75522675  0.25522675  0.24477325  1
  Bi  Bi2  1  0.25522675  0.24477325  0.75522675  1
  Bi  Bi3  1  0.74477325  0.74477325  0.74477325  1
  Bi  Bi4  1  0.75522675  0.24477325  0.74477325  1
  Bi  Bi5  1  0.24477325  0.74477325  0.75522675  1
  Bi  Bi6  1  0.74477325  0.75522675  0.24477325  1
  Bi  Bi7  1  0.25522675  0.25522675  0.25522675  1
  Bi  Bi8  1  0.24131507  0.47679059  0.99158881  1
  Bi  Bi9  1  0.75868493  0.97679059  0.50841119  1
  Bi  Bi10  1  0.25868493  0.52320941  0.49158881  1
  Bi  Bi11  1  0.74131507  0.02320941  0.00841119  1
  Bi  Bi12  1  0.99158881  0.24131507  0.47679059  1
  Bi  Bi13  1  0.50841119  0.75868493  0.97679059  1
  Bi  Bi14  1  0.49158881  0.25868493  0.52320941  1
  Bi  Bi15  1  0.00841119  0.74131507  0.02320941  1
  Bi  Bi16  1  0.47679059  0.99158881  0.24131507  1
  Bi  Bi17  1  0.97679059  0.50841119  0.75868493  1
  Bi  Bi18  1  0.52320941  0.49158881  0.25868493  1
  Bi  Bi19  1  0.02320941  0.00841119  0.74131507  1
  Bi  Bi20  1  0.75868493  0.52320941  0.00841119  1
  Bi  Bi21  1  0.24131507  0.02320941  0.49158881  1
  Bi  Bi22  1  0.74131507  0.47679059  0.50841119  1
  Bi  Bi23  1  0.25868493  0.97679059  0.99158881  1
  Bi  Bi24  1  0.00841119  0.75868493  0.52320941  1
  Bi  Bi25  1  0.49158881  0.24131507  0.02320941  1
  Bi  Bi26  1  0.50841119  0.74131507  0.47679059  1
  Bi  Bi27  1  0.99158881  0.25868493  0.97679059  1
  Bi  Bi28  1  0.52320941  0.00841119  0.75868493  1
  Bi  Bi29  1  0.02320941  0.49158881  0.24131507  1
  Bi  Bi30  1  0.47679059  0.50841119  0.74131507  1
  Bi  Bi31  1  0.97679059  0.99158881  0.25868493  1
  O  O32  1  0.36477356  0.11786545  0.08774927  1
  O  O33  1  0.63522644  0.61786545  0.41225073  1
  O  O34  1  0.13522644  0.88213455  0.58774927  1
  O  O35  1  0.86477356  0.38213455  0.91225073  1
  O  O36  1  0.08774927  0.36477356  0.11786545  1
  O  O37  1  0.41225073  0.63522644  0.61786545  1
  O  O38  1  0.58774927  0.13522644  0.88213455  1
  O  O39  1  0.91225073  0.86477356  0.38213455  1
  O  O40  1  0.11786545  0.08774927  0.36477356  1
  O  O41  1  0.61786545  0.41225073  0.63522644  1
  O  O42  1  0.88213455  0.58774927  0.13522644  1
  O  O43  1  0.38213455  0.91225073  0.86477356  1
  O  O44  1  0.63522644  0.88213455  0.91225073  1
  O  O45  1  0.36477356  0.38213455  0.58774927  1
  O  O46  1  0.86477356  0.11786545  0.41225073  1
  O  O47  1  0.13522644  0.61786545  0.08774927  1
  O  O48  1  0.91225073  0.63522644  0.88213455  1
  O  O49  1  0.58774927  0.36477356  0.38213455  1
  O  O50  1  0.41225073  0.86477356  0.11786545  1
  O  O51  1  0.08774927  0.13522644  0.61786545  1
  O  O52  1  0.88213455  0.91225073  0.63522644  1
  O  O53  1  0.38213455  0.58774927  0.36477356  1
  O  O54  1  0.11786545  0.41225073  0.86477356  1
  O  O55  1  0.61786545  0.08774927  0.13522644  1
  O  O56  1  0.81943043  0.60436344  0.63623192  1
  O  O57  1  0.18056957  0.10436344  0.86376808  1
  O  O58  1  0.68056957  0.39563656  0.13623192  1
  O  O59  1  0.31943043  0.89563656  0.36376808  1
  O  O60  1  0.63623192  0.81943043  0.60436344  1
  O  O61  1  0.86376808  0.18056957  0.10436344  1
  O  O62  1  0.13623192  0.68056957  0.39563656  1
  O  O63  1  0.36376808  0.31943043  0.89563656  1
  O  O64  1  0.60436344  0.63623192  0.81943043  1
  O  O65  1  0.10436344  0.86376808  0.18056957  1
  O  O66  1  0.39563656  0.13623192  0.68056957  1
  O  O67  1  0.89563656  0.36376808  0.31943043  1
  O  O68  1  0.18056957  0.39563656  0.36376808  1
  O  O69  1  0.81943043  0.89563656  0.13623192  1
  O  O70  1  0.31943043  0.60436344  0.86376808  1
  O  O71  1  0.68056957  0.10436344  0.63623192  1
  O  O72  1  0.36376808  0.18056957  0.39563656  1
  O  O73  1  0.13623192  0.81943043  0.89563656  1
  O  O74  1  0.86376808  0.31943043  0.60436344  1
  O  O75  1  0.63623192  0.68056957  0.10436344  1
  O  O76  1  0.39563656  0.36376808  0.18056957  1
  O  O77  1  0.89563656  0.13623192  0.81943043  1
  O  O78  1  0.60436344  0.86376808  0.31943043  1
  O  O79  1  0.10436344  0.63623192  0.68056957  1
