# generated using pymatgen
data_NdBMoO6
_symmetry_space_group_name_H-M   'P 1'
_cell_length_a   4.17410371
_cell_length_b   10.30134758
_cell_length_c   11.79733716
_cell_angle_alpha   114.39098409
_cell_angle_beta   90.00000000
_cell_angle_gamma   90.00000000
_symmetry_Int_Tables_number   1
_chemical_formula_structural   NdBMoO6
_chemical_formula_sum   'Nd4 B4 Mo4 O24'
_cell_volume   461.99769252
_cell_formula_units_Z   4
loop_
 _symmetry_equiv_pos_site_id
 _symmetry_equiv_pos_as_xyz
  1  'x, y, z'
loop_
 _atom_site_type_symbol
 _atom_site_label
 _atom_site_symmetry_multiplicity
 _atom_site_fract_x
 _atom_site_fract_y
 _atom_site_fract_z
 _atom_site_occupancy
  Nd  Nd0  1  0.29395631  0.16504431  0.97024167  1
  Nd  Nd1  1  0.79395631  0.33495569  0.52975833  1
  Nd  Nd2  1  0.70604369  0.83495569  0.02975833  1
  Nd  Nd3  1  0.20604369  0.66504431  0.47024167  1
  B  B4  1  0.17025441  0.80490690  0.80938680  1
  B  B5  1  0.67025441  0.69509310  0.69061320  1
  B  B6  1  0.82974559  0.19509310  0.19061320  1
  B  B7  1  0.32974559  0.30490690  0.30938680  1
  Mo  Mo8  1  0.20094544  0.46264984  0.81733426  1
  Mo  Mo9  1  0.70094544  0.03735016  0.68266574  1
  Mo  Mo10  1  0.79905456  0.53735016  0.18266574  1
  Mo  Mo11  1  0.29905456  0.96264984  0.31733426  1
  O  O12  1  0.84349225  0.76927832  0.80087765  1
  O  O13  1  0.34349225  0.73072168  0.69912235  1
  O  O14  1  0.15650775  0.23072168  0.19912235  1
  O  O15  1  0.65650775  0.26927832  0.30087765  1
  O  O16  1  0.27444064  0.91211689  0.91354371  1
  O  O17  1  0.77444064  0.58788311  0.58645629  1
  O  O18  1  0.72555936  0.08788311  0.08645629  1
  O  O19  1  0.22555936  0.41211689  0.41354371  1
  O  O20  1  0.77535670  0.46260414  0.80055824  1
  O  O21  1  0.27535670  0.03739586  0.69944176  1
  O  O22  1  0.22464330  0.53739586  0.19944176  1
  O  O23  1  0.72464330  0.96260414  0.30055824  1
  O  O24  1  0.78572071  0.11083390  0.85229880  1
  O  O25  1  0.28572071  0.38916610  0.64770120  1
  O  O26  1  0.21427929  0.88916610  0.14770120  1
  O  O27  1  0.71427929  0.61083390  0.35229880  1
  O  O28  1  0.27266092  0.35035926  0.89602775  1
  O  O29  1  0.77266092  0.14964074  0.60397225  1
  O  O30  1  0.72733908  0.64964074  0.10397225  1
  O  O31  1  0.22733908  0.85035926  0.39602775  1
  O  O32  1  0.28362194  0.65009045  0.90934131  1
  O  O33  1  0.78362194  0.84990955  0.59065869  1
  O  O34  1  0.71637806  0.34990955  0.09065869  1
  O  O35  1  0.21637806  0.15009045  0.40934131  1
