# generated using pymatgen
data_K2PH8O7
_symmetry_space_group_name_H-M   'P 1'
_cell_length_a   11.19964817
_cell_length_b   11.93814143
_cell_length_c   12.09639988
_cell_angle_alpha   90.00000000
_cell_angle_beta   90.00000000
_cell_angle_gamma   90.00000000
_symmetry_Int_Tables_number   1
_chemical_formula_structural   K2PH8O7
_chemical_formula_sum   'K16 P8 H64 O56'
_cell_volume   1617.32475743
_cell_formula_units_Z   8
loop_
 _symmetry_equiv_pos_site_id
 _symmetry_equiv_pos_as_xyz
  1  'x, y, z'
loop_
 _atom_site_type_symbol
 _atom_site_label
 _atom_site_symmetry_multiplicity
 _atom_site_fract_x
 _atom_site_fract_y
 _atom_site_fract_z
 _atom_site_occupancy
  K  K0  1  0.48299802  0.99351181  0.86011160  1
  K  K1  1  0.98299802  0.50648819  0.13988840  1
  K  K2  1  0.51700198  0.49351181  0.63988840  1
  K  K3  1  0.01700198  0.00648819  0.36011160  1
  K  K4  1  0.51700198  0.00648819  0.13988840  1
  K  K5  1  0.01700198  0.49351181  0.86011160  1
  K  K6  1  0.48299802  0.50648819  0.36011160  1
  K  K7  1  0.98299802  0.99351181  0.63988840  1
  K  K8  1  0.18309228  0.15269679  0.82112989  1
  K  K9  1  0.68309228  0.34730321  0.17887011  1
  K  K10  1  0.81690772  0.65269679  0.67887011  1
  K  K11  1  0.31690772  0.84730321  0.32112989  1
  K  K12  1  0.81690772  0.84730321  0.17887011  1
  K  K13  1  0.31690772  0.65269679  0.82112989  1
  K  K14  1  0.18309228  0.34730321  0.32112989  1
  K  K15  1  0.68309228  0.15269679  0.67887011  1
  P  P16  1  0.98889476  0.08288634  0.04345312  1
  P  P17  1  0.48889476  0.41711366  0.95654688  1
  P  P18  1  0.01110524  0.58288634  0.45654688  1
  P  P19  1  0.51110524  0.91711366  0.54345312  1
  P  P20  1  0.01110524  0.91711366  0.95654688  1
  P  P21  1  0.51110524  0.58288634  0.04345312  1
  P  P22  1  0.98889476  0.41711366  0.54345312  1
  P  P23  1  0.48889476  0.08288634  0.45654688  1
  H  H24  1  0.21455610  0.89864457  0.79556240  1
  H  H25  1  0.71455610  0.60135543  0.20443760  1
  H  H26  1  0.78544390  0.39864457  0.70443760  1
  H  H27  1  0.28544390  0.10135543  0.29556240  1
  H  H28  1  0.78544390  0.10135543  0.20443760  1
  H  H29  1  0.28544390  0.39864457  0.79556240  1
  H  H30  1  0.21455610  0.60135543  0.29556240  1
  H  H31  1  0.71455610  0.89864457  0.70443760  1
  H  H32  1  0.31488422  0.88352797  0.69881111  1
  H  H33  1  0.81488422  0.61647203  0.30118889  1
  H  H34  1  0.68511578  0.38352797  0.80118889  1
  H  H35  1  0.18511578  0.11647203  0.19881111  1
  H  H36  1  0.68511578  0.11647203  0.30118889  1
  H  H37  1  0.18511578  0.38352797  0.69881111  1
  H  H38  1  0.31488422  0.61647203  0.19881111  1
  H  H39  1  0.81488422  0.88352797  0.80118889  1
  H  H40  1  0.27640021  0.11607040  0.03232174  1
  H  H41  1  0.77640021  0.38392960  0.96767826  1
  H  H42  1  0.72359979  0.61607040  0.46767826  1
  H  H43  1  0.22359979  0.88392960  0.53232174  1
  H  H44  1  0.72359979  0.88392960  0.96767826  1
  H  H45  1  0.22359979  0.61607040  0.03232174  1
  H  H46  1  0.27640021  0.38392960  0.53232174  1
  H  H47  1  0.77640021  0.11607040  0.46767826  1
  H  H48  1  0.37974620  0.20411014  0.01018915  1
  H  H49  1  0.87974620  0.29588986  0.98981085  1
  H  H50  1  0.62025380  0.70411014  0.48981085  1
  H  H51  1  0.12025380  0.79588986  0.51018915  1
  H  H52  1  0.62025380  0.79588986  0.98981085  1
  H  H53  1  0.12025380  0.70411014  0.01018915  1
  H  H54  1  0.37974620  0.29588986  0.51018915  1
  H  H55  1  0.87974620  0.20411014  0.48981085  1
  H  H56  1  0.43756436  0.26768679  0.77204750  1
  H  H57  1  0.93756436  0.23231321  0.22795250  1
  H  H58  1  0.56243564  0.76768679  0.72795250  1
  H  H59  1  0.06243564  0.73231321  0.27204750  1
  H  H60  1  0.56243564  0.73231321  0.22795250  1
  H  H61  1  0.06243564  0.76768679  0.77204750  1
  H  H62  1  0.43756436  0.23231321  0.27204750  1
  H  H63  1  0.93756436  0.26768679  0.72795250  1
  H  H64  1  0.42296916  0.18448763  0.66766477  1
  H  H65  1  0.92296916  0.31551237  0.33233523  1
  H  H66  1  0.57703084  0.68448763  0.83233523  1
  H  H67  1  0.07703084  0.81551237  0.16766477  1
  H  H68  1  0.57703084  0.81551237  0.33233523  1
  H  H69  1  0.07703084  0.68448763  0.66766477  1
  H  H70  1  0.42296916  0.31551237  0.16766477  1
  H  H71  1  0.92296916  0.18448763  0.83233523  1
  H  H72  1  0.25905303  0.86745077  0.05450862  1
  H  H73  1  0.75905303  0.63254923  0.94549138  1
  H  H74  1  0.74094697  0.36745077  0.44549138  1
  H  H75  1  0.24094697  0.13254923  0.55450862  1
  H  H76  1  0.74094697  0.13254923  0.94549138  1
  H  H77  1  0.24094697  0.36745077  0.05450862  1
  H  H78  1  0.25905303  0.63254923  0.55450862  1
  H  H79  1  0.75905303  0.86745077  0.44549138  1
  H  H80  1  0.36480663  0.78217809  0.06892269  1
  H  H81  1  0.86480663  0.71782191  0.93107731  1
  H  H82  1  0.63519337  0.28217809  0.43107731  1
  H  H83  1  0.13519337  0.21782191  0.56892269  1
  H  H84  1  0.63519337  0.21782191  0.93107731  1
  H  H85  1  0.13519337  0.28217809  0.06892269  1
  H  H86  1  0.36480663  0.71782191  0.56892269  1
  H  H87  1  0.86480663  0.78217809  0.43107731  1
  O  O88  1  0.92941341  0.06320955  0.15727063  1
  O  O89  1  0.42941341  0.43679045  0.84272937  1
  O  O90  1  0.07058659  0.56320955  0.34272937  1
  O  O91  1  0.57058659  0.93679045  0.65727063  1
  O  O92  1  0.07058659  0.93679045  0.84272937  1
  O  O93  1  0.57058659  0.56320955  0.15727063  1
  O  O94  1  0.92941341  0.43679045  0.65727063  1
  O  O95  1  0.42941341  0.06320955  0.34272937  1
  O  O96  1  0.11644823  0.13302180  0.05502912  1
  O  O97  1  0.61644823  0.36697820  0.94497088  1
  O  O98  1  0.88355177  0.63302180  0.44497088  1
  O  O99  1  0.38355177  0.86697820  0.55502912  1
  O  O100  1  0.88355177  0.86697820  0.94497088  1
  O  O101  1  0.38355177  0.63302180  0.05502912  1
  O  O102  1  0.11644823  0.36697820  0.55502912  1
  O  O103  1  0.61644823  0.13302180  0.44497088  1
  O  O104  1  0.90880002  0.15626504  0.96737322  1
  O  O105  1  0.40880002  0.34373496  0.03262678  1
  O  O106  1  0.09119998  0.65626504  0.53262678  1
  O  O107  1  0.59119998  0.84373496  0.46737322  1
  O  O108  1  0.09119998  0.84373496  0.03262678  1
  O  O109  1  0.59119998  0.65626504  0.96737322  1
  O  O110  1  0.90880002  0.34373496  0.46737322  1
  O  O111  1  0.40880002  0.15626504  0.53262678  1
  O  O112  1  0.29933273  0.88002867  0.77929022  1
  O  O113  1  0.79933273  0.61997133  0.22070978  1
  O  O114  1  0.70066727  0.38002867  0.72070978  1
  O  O115  1  0.20066727  0.11997133  0.27929022  1
  O  O116  1  0.70066727  0.11997133  0.22070978  1
  O  O117  1  0.20066727  0.38002867  0.77929022  1
  O  O118  1  0.29933273  0.61997133  0.27929022  1
  O  O119  1  0.79933273  0.88002867  0.72070978  1
  O  O120  1  0.36012281  0.12268669  0.00671841  1
  O  O121  1  0.86012281  0.37731331  0.99328159  1
  O  O122  1  0.63987719  0.62268669  0.49328159  1
  O  O123  1  0.13987719  0.87731331  0.50671841  1
  O  O124  1  0.63987719  0.87731331  0.99328159  1
  O  O125  1  0.13987719  0.62268669  0.00671841  1
  O  O126  1  0.36012281  0.37731331  0.50671841  1
  O  O127  1  0.86012281  0.12268669  0.49328159  1
  O  O128  1  0.43389510  0.18882270  0.74989136  1
  O  O129  1  0.93389510  0.31117730  0.25010864  1
  O  O130  1  0.56610490  0.68882270  0.75010864  1
  O  O131  1  0.06610490  0.81117730  0.24989136  1
  O  O132  1  0.56610490  0.81117730  0.25010864  1
  O  O133  1  0.06610490  0.68882270  0.74989136  1
  O  O134  1  0.43389510  0.31117730  0.24989136  1
  O  O135  1  0.93389510  0.18882270  0.75010864  1
  O  O136  1  0.34268087  0.86198605  0.08010925  1
  O  O137  1  0.84268087  0.63801395  0.91989075  1
  O  O138  1  0.65731913  0.36198605  0.41989075  1
  O  O139  1  0.15731913  0.13801395  0.58010925  1
  O  O140  1  0.65731913  0.13801395  0.91989075  1
  O  O141  1  0.15731913  0.36198605  0.08010925  1
  O  O142  1  0.34268087  0.63801395  0.58010925  1
  O  O143  1  0.84268087  0.86198605  0.41989075  1
