# generated using pymatgen
data_Ca2Al4(Si2O7)3
_symmetry_space_group_name_H-M   'P 1'
_cell_length_a   6.53483002
_cell_length_b   9.31391834
_cell_length_c   17.63870343
_cell_angle_alpha   90.00000000
_cell_angle_beta   90.00000000
_cell_angle_gamma   109.12462580
_symmetry_Int_Tables_number   1
_chemical_formula_structural   Ca2Al4(Si2O7)3
_chemical_formula_sum   'Ca4 Al8 Si12 O42'
_cell_volume   1014.32476013
_cell_formula_units_Z   2
loop_
 _symmetry_equiv_pos_site_id
 _symmetry_equiv_pos_as_xyz
  1  'x, y, z'
loop_
 _atom_site_type_symbol
 _atom_site_label
 _atom_site_symmetry_multiplicity
 _atom_site_fract_x
 _atom_site_fract_y
 _atom_site_fract_z
 _atom_site_occupancy
  Ca  Ca0  1  0.34892245  0.03438330  0.77796480  1
  Ca  Ca1  1  0.84892245  0.53438330  0.97203520  1
  Ca  Ca2  1  0.39092801  0.38749115  0.49734893  1
  Ca  Ca3  1  0.89092801  0.88749115  0.25265107  1
  Al  Al4  1  0.89176187  0.23128638  0.52718224  1
  Al  Al5  1  0.39176187  0.73128638  0.22281776  1
  Al  Al6  1  0.99701176  0.73289968  0.70918194  1
  Al  Al7  1  0.49701176  0.23289968  0.04081806  1
  Al  Al8  1  0.80497206  0.33858411  0.78038621  1
  Al  Al9  1  0.30497206  0.83858411  0.96961379  1
  Al  Al10  1  0.72256872  0.82049227  0.47343483  1
  Al  Al11  1  0.22256872  0.32049227  0.27656517  1
  Si  Si12  1  0.50027127  0.49342395  0.73358172  1
  Si  Si13  1  0.00027127  0.99342395  0.01641828  1
  Si  Si14  1  0.43866390  0.04932270  0.49467363  1
  Si  Si15  1  0.93866390  0.54932270  0.25532637  1
  Si  Si16  1  0.02602082  0.97644307  0.60043605  1
  Si  Si17  1  0.52602082  0.47644307  0.14956395  1
  Si  Si18  1  0.11975410  0.47624172  0.63843967  1
  Si  Si19  1  0.61975410  0.97624172  0.11156033  1
  Si  Si20  1  0.08264209  0.07454324  0.39268355  1
  Si  Si21  1  0.58264209  0.57454324  0.35731645  1
  Si  Si22  1  0.18547812  0.61071994  0.84005116  1
  Si  Si23  1  0.68547812  0.11071994  0.90994884  1
  O  O24  1  0.62429494  0.22079595  0.50455970  1
  O  O25  1  0.12429494  0.72079595  0.24544030  1
  O  O26  1  0.72921629  0.62665000  0.72641892  1
  O  O27  1  0.22921629  0.12665000  0.02358108  1
  O  O28  1  0.53305063  0.33241930  0.76063449  1
  O  O29  1  0.03305063  0.83241930  0.98936551  1
  O  O30  1  0.53736089  0.91378028  0.49327245  1
  O  O31  1  0.03736089  0.41378028  0.25672755  1
  O  O32  1  0.27368371  0.05024816  0.56485258  1
  O  O33  1  0.77368371  0.55024816  0.18514742  1
  O  O34  1  0.36903992  0.46546642  0.65136230  1
  O  O35  1  0.86903992  0.96546642  0.09863770  1
  O  O36  1  0.31579150  0.05473157  0.41406711  1
  O  O37  1  0.81579150  0.55473157  0.33593289  1
  O  O38  1  0.35386909  0.54037613  0.79898400  1
  O  O39  1  0.85386909  0.04037613  0.95101600  1
  O  O40  1  0.88617076  0.91193802  0.39338473  1
  O  O41  1  0.38617076  0.41193802  0.35661527  1
  O  O42  1  0.94431244  0.47910738  0.84838595  1
  O  O43  1  0.44431244  0.97910738  0.90161405  1
  O  O44  1  0.91337389  0.10847057  0.59979770  1
  O  O45  1  0.41337389  0.60847057  0.15020230  1
  O  O46  1  0.12519215  0.64990635  0.64470195  1
  O  O47  1  0.62519215  0.14990635  0.10529805  1
  O  O48  1  0.04838727  0.20187298  0.45014339  1
  O  O49  1  0.54838727  0.70187298  0.29985661  1
  O  O50  1  0.15834508  0.75798853  0.79452029  1
  O  O51  1  0.65834508  0.25798853  0.95547971  1
  O  O52  1  0.88794253  0.82956397  0.55210730  1
  O  O53  1  0.38794253  0.32956397  0.19789270  1
  O  O54  1  0.95489068  0.36641884  0.69805887  1
  O  O55  1  0.45489068  0.86641884  0.05194113  1
  O  O56  1  0.07099627  0.41332835  0.55094136  1
  O  O57  1  0.57099627  0.91332835  0.19905864  1
  O  O58  1  0.06402034  0.93017890  0.68859672  1
  O  O59  1  0.56402034  0.43017890  0.06140328  1
  O  O60  1  0.09347652  0.12690351  0.30310673  1
  O  O61  1  0.59347652  0.62690351  0.44689327  1
  O  O62  1  0.75041960  0.15690311  0.82168102  1
  O  O63  1  0.25041960  0.65690311  0.92831898  1
  O  O64  1  0.55187034  0.92572015  0.69329305  1
  O  O65  1  0.05187034  0.42572015  0.05670695  1
