# generated using pymatgen
data_KRb2GaF6
_symmetry_space_group_name_H-M   'P 1'
_cell_length_a   9.01346341
_cell_length_b   10.88724959
_cell_length_c   10.88724959
_cell_angle_alpha   80.13361014
_cell_angle_beta   65.54704844
_cell_angle_gamma   65.54704844
_symmetry_Int_Tables_number   1
_chemical_formula_structural   KRb2GaF6
_chemical_formula_sum   'K5 Rb10 Ga5 F30'
_cell_volume   885.31651418
_cell_formula_units_Z   5
loop_
 _symmetry_equiv_pos_site_id
 _symmetry_equiv_pos_as_xyz
  1  'x, y, z'
loop_
 _atom_site_type_symbol
 _atom_site_label
 _atom_site_symmetry_multiplicity
 _atom_site_fract_x
 _atom_site_fract_y
 _atom_site_fract_z
 _atom_site_occupancy
  K  K0  1  0.50000000  -0.00000000  -0.00000000  1
  K  K1  1  0.26746307  0.82138420  0.64368965  1
  K  K2  1  0.08884728  0.64368965  0.17861580  1
  K  K3  1  0.73253693  0.17861580  0.35631035  1
  K  K4  1  0.91115272  0.35631035  0.82138420  1
  Rb  Rb5  1  0.75000000  0.50000000  0.50000000  1
  Rb  Rb6  1  0.25000000  0.50000000  0.50000000  1
  Rb  Rb7  1  0.62117513  0.89386527  0.31808790  1
  Rb  Rb8  1  0.51504041  0.31808790  0.10613473  1
  Rb  Rb9  1  0.83312831  0.10613473  0.68191210  1
  Rb  Rb10  1  0.93926303  0.68191210  0.89386527  1
  Rb  Rb11  1  0.37882487  0.10613473  0.68191210  1
  Rb  Rb12  1  0.48495959  0.68191210  0.89386527  1
  Rb  Rb13  1  0.16687169  0.89386527  0.31808790  1
  Rb  Rb14  1  0.06073697  0.31808790  0.10613473  1
  Ga  Ga15  1  0.00000000  -0.00000000  -0.00000000  1
  Ga  Ga16  1  0.80362762  0.79179193  0.60095284  1
  Ga  Ga17  1  0.59541955  0.60095284  0.20820807  1
  Ga  Ga18  1  0.19637238  0.20820807  0.39904716  1
  Ga  Ga19  1  0.40458045  0.39904716  0.79179193  1
  F  F20  1  0.93581080  0.94141858  0.18695981  1
  F  F21  1  0.87722938  0.18695981  0.05858142  1
  F  F22  1  0.06418920  0.05858142  0.81304019  1
  F  F23  1  0.12277062  0.81304019  0.94141858  1
  F  F24  1  0.78659684  1.00000000  1.00000000  1
  F  F25  1  0.21340316  0.00000000  0.00000000  1
  F  F26  1  0.67314640  0.87838373  0.77532347  1
  F  F27  1  0.55153013  0.77532347  0.12161627  1
  F  F28  1  0.32685360  0.12161627  0.22467653  1
  F  F29  1  0.44846987  0.22467653  0.87838373  1
  F  F30  1  0.84588310  0.61771827  0.69051553  1
  F  F31  1  0.46360137  0.69051553  0.38228173  1
  F  F32  1  0.15411690  0.38228173  0.30948447  1
  F  F33  1  0.53639863  0.30948447  0.61771827  1
  F  F34  1  0.93260865  0.70550384  0.42927886  1
  F  F35  1  0.63811249  0.42927886  0.29449616  1
  F  F36  1  0.06739135  0.29449616  0.57072114  1
  F  F37  1  0.36188751  0.57072114  0.70550384  1
  F  F38  1  0.75752601  0.96907721  0.51587076  1
  F  F39  1  0.72660322  0.51587076  0.03092279  1
  F  F40  1  0.24247399  0.03092279  0.48412924  1
  F  F41  1  0.27339678  0.48412924  0.96907721  1
  F  F42  1  0.58397349  0.79578577  0.60339021  1
  F  F43  1  0.37975927  0.60339021  0.20421423  1
  F  F44  1  0.98314948  0.20421423  0.39660979  1
  F  F45  1  0.18736370  0.39660979  0.79578577  1
  F  F46  1  0.41602651  0.20421423  0.39660979  1
  F  F47  1  0.62024073  0.39660979  0.79578577  1
  F  F48  1  0.01685052  0.79578577  0.60339021  1
  F  F49  1  0.81263630  0.60339021  0.20421423  1
