# generated using pymatgen
data_UZn4P2(H2O5)3
_symmetry_space_group_name_H-M   'P 1'
_cell_length_a   6.68505150
_cell_length_b   9.04983071
_cell_length_c   19.82700609
_cell_angle_alpha   90.00000000
_cell_angle_beta   90.00000000
_cell_angle_gamma   90.00000000
_symmetry_Int_Tables_number   1
_chemical_formula_structural   UZn4P2(H2O5)3
_chemical_formula_sum   'U4 Zn16 P8 H24 O60'
_cell_volume   1199.50580059
_cell_formula_units_Z   4
loop_
 _symmetry_equiv_pos_site_id
 _symmetry_equiv_pos_as_xyz
  1  'x, y, z'
loop_
 _atom_site_type_symbol
 _atom_site_label
 _atom_site_symmetry_multiplicity
 _atom_site_fract_x
 _atom_site_fract_y
 _atom_site_fract_z
 _atom_site_occupancy
  U  U0  1  0.14675368  0.50000000  0.25000000  1
  U  U1  1  0.35324632  0.00000000  0.75000000  1
  U  U2  1  0.85324632  0.50000000  0.75000000  1
  U  U3  1  0.64675368  0.00000000  0.25000000  1
  Zn  Zn4  1  0.86198832  0.45317188  0.08033690  1
  Zn  Zn5  1  0.63801168  0.04682812  0.58033690  1
  Zn  Zn6  1  0.63801168  0.95317188  0.91966310  1
  Zn  Zn7  1  0.86198832  0.54682812  0.41966310  1
  Zn  Zn8  1  0.13801168  0.54682812  0.91966310  1
  Zn  Zn9  1  0.36198832  0.95317188  0.41966310  1
  Zn  Zn10  1  0.36198832  0.04682812  0.08033690  1
  Zn  Zn11  1  0.13801168  0.45317188  0.58033690  1
  Zn  Zn12  1  0.58944451  0.72806188  0.05403773  1
  Zn  Zn13  1  0.91055549  0.77193812  0.55403773  1
  Zn  Zn14  1  0.91055549  0.22806188  0.94596227  1
  Zn  Zn15  1  0.58944451  0.27193812  0.44596227  1
  Zn  Zn16  1  0.41055549  0.27193812  0.94596227  1
  Zn  Zn17  1  0.08944451  0.22806188  0.44596227  1
  Zn  Zn18  1  0.08944451  0.77193812  0.05403773  1
  Zn  Zn19  1  0.41055549  0.72806188  0.55403773  1
  P  P20  1  0.65921757  0.58502262  0.91846863  1
  P  P21  1  0.84078243  0.91497738  0.41846863  1
  P  P22  1  0.84078243  0.08502262  0.08153137  1
  P  P23  1  0.65921757  0.41497738  0.58153137  1
  P  P24  1  0.34078243  0.41497738  0.08153137  1
  P  P25  1  0.15921757  0.08502262  0.58153137  1
  P  P26  1  0.15921757  0.91497738  0.91846863  1
  P  P27  1  0.34078243  0.58502262  0.41846863  1
  H  H28  1  0.85944703  0.31084475  0.18421343  1
  H  H29  1  0.64055297  0.18915525  0.68421343  1
  H  H30  1  0.64055297  0.81084475  0.81578657  1
  H  H31  1  0.85944703  0.68915525  0.31578657  1
  H  H32  1  0.14055297  0.68915525  0.81578657  1
  H  H33  1  0.35944703  0.81084475  0.31578657  1
  H  H34  1  0.35944703  0.18915525  0.18421343  1
  H  H35  1  0.14055297  0.31084475  0.68421343  1
  H  H36  1  0.34928765  0.79338505  0.14202621  1
  H  H37  1  0.15071235  0.70661495  0.64202621  1
  H  H38  1  0.15071235  0.29338505  0.85797379  1
  H  H39  1  0.34928765  0.20661495  0.35797379  1
  H  H40  1  0.65071235  0.20661495  0.85797379  1
  H  H41  1  0.84928765  0.29338505  0.35797379  1
  H  H42  1  0.84928765  0.70661495  0.14202621  1
  H  H43  1  0.65071235  0.79338505  0.64202621  1
  H  H44  1  0.61279114  0.53537993  0.28555295  1
  H  H45  1  0.88720886  0.96462007  0.78555295  1
  H  H46  1  0.88720886  0.03537993  0.71444705  1
  H  H47  1  0.61279114  0.46462007  0.21444705  1
  H  H48  1  0.38720886  0.46462007  0.71444705  1
  H  H49  1  0.11279114  0.03537993  0.21444705  1
  H  H50  1  0.11279114  0.96462007  0.28555295  1
  H  H51  1  0.38720886  0.53537993  0.78555295  1
  O  O52  1  0.63166327  0.73880905  0.95546812  1
  O  O53  1  0.86833673  0.76119095  0.45546812  1
  O  O54  1  0.86833673  0.23880905  0.04453188  1
  O  O55  1  0.63166327  0.26119095  0.54453188  1
  O  O56  1  0.36833673  0.26119095  0.04453188  1
  O  O57  1  0.13166327  0.23880905  0.54453188  1
  O  O58  1  0.13166327  0.76119095  0.95546812  1
  O  O59  1  0.36833673  0.73880905  0.45546812  1
  O  O60  1  0.83467495  0.49983285  0.95285694  1
  O  O61  1  0.66532505  0.00016715  0.45285694  1
  O  O62  1  0.66532505  0.99983285  0.04714306  1
  O  O63  1  0.83467495  0.50016715  0.54714306  1
  O  O64  1  0.16532505  0.50016715  0.04714306  1
  O  O65  1  0.33467495  0.99983285  0.54714306  1
  O  O66  1  0.33467495  0.00016715  0.95285694  1
  O  O67  1  0.16532505  0.49983285  0.45285694  1
  O  O68  1  0.46080548  0.49715667  0.92547942  1
  O  O69  1  0.03919452  0.00284333  0.42547942  1
  O  O70  1  0.03919452  0.99715667  0.07452058  1
  O  O71  1  0.46080548  0.50284333  0.57452058  1
  O  O72  1  0.53919452  0.50284333  0.07452058  1
  O  O73  1  0.96080548  0.99715667  0.57452058  1
  O  O74  1  0.96080548  0.00284333  0.92547942  1
  O  O75  1  0.53919452  0.49715667  0.42547942  1
  O  O76  1  0.87884672  0.41894822  0.18128414  1
  O  O77  1  0.62115328  0.08105178  0.68128414  1
  O  O78  1  0.62115328  0.91894822  0.81871586  1
  O  O79  1  0.87884672  0.58105178  0.31871586  1
  O  O80  1  0.12115328  0.58105178  0.81871586  1
  O  O81  1  0.37884672  0.91894822  0.31871586  1
  O  O82  1  0.37884672  0.08105178  0.18128414  1
  O  O83  1  0.12115328  0.41894822  0.68128414  1
  O  O84  1  0.14175817  0.67621971  0.20492818  1
  O  O85  1  0.35824183  0.82378029  0.70492818  1
  O  O86  1  0.35824183  0.17621971  0.79507182  1
  O  O87  1  0.14175817  0.32378029  0.29507182  1
  O  O88  1  0.85824183  0.32378029  0.79507182  1
  O  O89  1  0.64175817  0.17621971  0.29507182  1
  O  O90  1  0.64175817  0.82378029  0.20492818  1
  O  O91  1  0.85824183  0.67621971  0.70492818  1
  O  O92  1  0.35328571  0.81538496  0.09364278  1
  O  O93  1  0.14671429  0.68461504  0.59364278  1
  O  O94  1  0.14671429  0.31538496  0.90635722  1
  O  O95  1  0.35328571  0.18461504  0.40635722  1
  O  O96  1  0.64671429  0.18461504  0.90635722  1
  O  O97  1  0.85328571  0.31538496  0.40635722  1
  O  O98  1  0.85328571  0.68461504  0.09364278  1
  O  O99  1  0.64671429  0.81538496  0.59364278  1
  O  O100  1  0.70635052  0.61960643  0.84409937  1
  O  O101  1  0.79364948  0.88039357  0.34409937  1
  O  O102  1  0.79364948  0.11960643  0.15590063  1
  O  O103  1  0.70635052  0.38039357  0.65590063  1
  O  O104  1  0.29364948  0.38039357  0.15590063  1
  O  O105  1  0.20635052  0.11960643  0.65590063  1
  O  O106  1  0.20635052  0.88039357  0.84409937  1
  O  O107  1  0.29364948  0.61960643  0.34409937  1
  O  O108  1  0.52174383  0.50000000  0.25000000  1
  O  O109  1  0.97825617  0.00000000  0.75000000  1
  O  O110  1  0.47825617  0.50000000  0.75000000  1
  O  O111  1  0.02174383  0.00000000  0.25000000  1
