# generated using pymatgen
data_Pd(IO3)2
_symmetry_space_group_name_H-M   'P 1'
_cell_length_a   5.94578903
_cell_length_b   6.23477943
_cell_length_c   15.37445153
_cell_angle_alpha   90.00000000
_cell_angle_beta   90.00000000
_cell_angle_gamma   90.00000000
_symmetry_Int_Tables_number   1
_chemical_formula_structural   Pd(IO3)2
_chemical_formula_sum   'Pd4 I8 O24'
_cell_volume   569.94142111
_cell_formula_units_Z   4
loop_
 _symmetry_equiv_pos_site_id
 _symmetry_equiv_pos_as_xyz
  1  'x, y, z'
loop_
 _atom_site_type_symbol
 _atom_site_label
 _atom_site_symmetry_multiplicity
 _atom_site_fract_x
 _atom_site_fract_y
 _atom_site_fract_z
 _atom_site_occupancy
  Pd  Pd0  1  0.00000000  -0.00000000  0.50000000  1
  Pd  Pd1  1  0.50000000  0.50000000  0.50000000  1
  Pd  Pd2  1  0.00000000  0.50000000  0.00000000  1
  Pd  Pd3  1  0.50000000  -0.00000000  0.00000000  1
  I  I4  1  0.04052346  0.40502263  0.65073500  1
  I  I5  1  0.54052346  0.09497737  0.34926500  1
  I  I6  1  0.95947654  0.90502263  0.84926500  1
  I  I7  1  0.45947654  0.59497737  0.15073500  1
  I  I8  1  0.95947654  0.59497737  0.34926500  1
  I  I9  1  0.45947654  0.90502263  0.65073500  1
  I  I10  1  0.04052346  0.09497737  0.15073500  1
  I  I11  1  0.54052346  0.40502263  0.84926500  1
  O  O12  1  0.88228326  0.17155443  0.60332109  1
  O  O13  1  0.38228326  0.32844557  0.39667891  1
  O  O14  1  0.11771674  0.67155443  0.89667891  1
  O  O15  1  0.61771674  0.82844557  0.10332109  1
  O  O16  1  0.11771674  0.82844557  0.39667891  1
  O  O17  1  0.61771674  0.67155443  0.60332109  1
  O  O18  1  0.88228326  0.32844557  0.10332109  1
  O  O19  1  0.38228326  0.17155443  0.89667891  1
  O  O20  1  0.25674890  0.26550715  0.71406997  1
  O  O21  1  0.75674890  0.23449285  0.28593003  1
  O  O22  1  0.74325110  0.76550715  0.78593003  1
  O  O23  1  0.24325110  0.73449285  0.21406997  1
  O  O24  1  0.74325110  0.73449285  0.28593003  1
  O  O25  1  0.24325110  0.76550715  0.71406997  1
  O  O26  1  0.25674890  0.23449285  0.21406997  1
  O  O27  1  0.75674890  0.26550715  0.78593003  1
  O  O28  1  0.18687672  0.49595366  0.55147774  1
  O  O29  1  0.68687672  0.00404634  0.44852226  1
  O  O30  1  0.81312328  0.99595366  0.94852226  1
  O  O31  1  0.31312328  0.50404634  0.05147774  1
  O  O32  1  0.81312328  0.50404634  0.44852226  1
  O  O33  1  0.31312328  0.99595366  0.55147774  1
  O  O34  1  0.18687672  0.00404634  0.05147774  1
  O  O35  1  0.68687672  0.49595366  0.94852226  1
