# generated using pymatgen
data_HoAu6
_symmetry_space_group_name_H-M   'P 1'
_cell_length_a   9.93202375
_cell_length_b   10.50533856
_cell_length_c   10.50533856
_cell_angle_alpha   90.00000000
_cell_angle_beta   90.00000000
_cell_angle_gamma   90.00000000
_symmetry_Int_Tables_number   1
_chemical_formula_structural   HoAu6
_chemical_formula_sum   'Ho8 Au48'
_cell_volume   1096.11937830
_cell_formula_units_Z   8
loop_
 _symmetry_equiv_pos_site_id
 _symmetry_equiv_pos_as_xyz
  1  'x, y, z'
loop_
 _atom_site_type_symbol
 _atom_site_label
 _atom_site_symmetry_multiplicity
 _atom_site_fract_x
 _atom_site_fract_y
 _atom_site_fract_z
 _atom_site_occupancy
  Ho  Ho0  1  0.28818259  0.57527049  0.57527049  1
  Ho  Ho1  1  0.78818259  0.57527049  0.92472951  1
  Ho  Ho2  1  0.78818259  0.92472951  0.57527049  1
  Ho  Ho3  1  0.28818259  0.92472951  0.92472951  1
  Ho  Ho4  1  0.71181741  0.42472951  0.42472951  1
  Ho  Ho5  1  0.21181741  0.42472951  0.07527049  1
  Ho  Ho6  1  0.21181741  0.07527049  0.42472951  1
  Ho  Ho7  1  0.71181741  0.07527049  0.07527049  1
  Au  Au8  1  0.92089902  0.51311655  0.17940550  1
  Au  Au9  1  0.42089902  0.51311655  0.32059450  1
  Au  Au10  1  0.42089902  0.98688345  0.17940550  1
  Au  Au11  1  0.92089902  0.98688345  0.32059450  1
  Au  Au12  1  0.92089902  0.17940550  0.51311655  1
  Au  Au13  1  0.42089902  0.32059450  0.51311655  1
  Au  Au14  1  0.42089902  0.17940550  0.98688345  1
  Au  Au15  1  0.92089902  0.32059450  0.98688345  1
  Au  Au16  1  0.07910098  0.48688345  0.82059450  1
  Au  Au17  1  0.57910098  0.48688345  0.67940550  1
  Au  Au18  1  0.57910098  0.01311655  0.82059450  1
  Au  Au19  1  0.07910098  0.01311655  0.67940550  1
  Au  Au20  1  0.07910098  0.82059450  0.48688345  1
  Au  Au21  1  0.57910098  0.67940550  0.48688345  1
  Au  Au22  1  0.57910098  0.82059450  0.01311655  1
  Au  Au23  1  0.07910098  0.67940550  0.01311655  1
  Au  Au24  1  0.85452494  0.80029583  0.12217044  1
  Au  Au25  1  0.35452494  0.80029583  0.37782956  1
  Au  Au26  1  0.35452494  0.69970417  0.12217044  1
  Au  Au27  1  0.85452494  0.69970417  0.37782956  1
  Au  Au28  1  0.85452494  0.12217044  0.80029583  1
  Au  Au29  1  0.35452494  0.37782956  0.80029583  1
  Au  Au30  1  0.35452494  0.12217044  0.69970417  1
  Au  Au31  1  0.85452494  0.37782956  0.69970417  1
  Au  Au32  1  0.14547506  0.19970417  0.87782956  1
  Au  Au33  1  0.64547506  0.19970417  0.62217044  1
  Au  Au34  1  0.64547506  0.30029583  0.87782956  1
  Au  Au35  1  0.14547506  0.30029583  0.62217044  1
  Au  Au36  1  0.14547506  0.87782956  0.19970417  1
  Au  Au37  1  0.64547506  0.62217044  0.19970417  1
  Au  Au38  1  0.64547506  0.87782956  0.30029583  1
  Au  Au39  1  0.14547506  0.62217044  0.30029583  1
  Au  Au40  1  0.82048286  0.64797007  0.64797007  1
  Au  Au41  1  0.32048286  0.64797007  0.85202993  1
  Au  Au42  1  0.32048286  0.85202993  0.64797007  1
  Au  Au43  1  0.82048286  0.85202993  0.85202993  1
  Au  Au44  1  0.17951714  0.35202993  0.35202993  1
  Au  Au45  1  0.67951714  0.35202993  0.14797007  1
  Au  Au46  1  0.67951714  0.14797007  0.35202993  1
  Au  Au47  1  0.17951714  0.14797007  0.14797007  1
  Au  Au48  1  0.56798855  0.75000000  0.75000000  1
  Au  Au49  1  0.06798855  0.75000000  0.75000000  1
  Au  Au50  1  0.43201145  0.25000000  0.25000000  1
  Au  Au51  1  0.93201145  0.25000000  0.25000000  1
  Au  Au52  1  -0.00000000  0.50000000  0.50000000  1
  Au  Au53  1  0.50000000  0.50000000  0.00000000  1
  Au  Au54  1  0.50000000  -0.00000000  0.50000000  1
  Au  Au55  1  -0.00000000  -0.00000000  0.00000000  1
