# generated using pymatgen
data_K2EuNb5O15
_symmetry_space_group_name_H-M   'P 1'
_cell_length_a   3.97065604
_cell_length_b   12.74623440
_cell_length_c   12.74623440
_cell_angle_alpha   90.00000000
_cell_angle_beta   90.00000000
_cell_angle_gamma   90.00000000
_symmetry_Int_Tables_number   1
_chemical_formula_structural   K2EuNb5O15
_chemical_formula_sum   'K4 Eu2 Nb10 O30'
_cell_volume   645.09855529
_cell_formula_units_Z   2
loop_
 _symmetry_equiv_pos_site_id
 _symmetry_equiv_pos_as_xyz
  1  'x, y, z'
loop_
 _atom_site_type_symbol
 _atom_site_label
 _atom_site_symmetry_multiplicity
 _atom_site_fract_x
 _atom_site_fract_y
 _atom_site_fract_z
 _atom_site_occupancy
  K  K0  1  0.50000000  0.33062846  0.16937154  1
  K  K1  1  0.50000000  0.66937154  0.83062846  1
  K  K2  1  0.50000000  0.16937154  0.66937154  1
  K  K3  1  0.50000000  0.83062846  0.33062846  1
  Eu  Eu4  1  0.50000000  0.50000000  0.50000000  1
  Eu  Eu5  1  0.50000000  0.00000000  0.00000000  1
  Nb  Nb6  1  -0.00000000  0.50000000  0.00000000  1
  Nb  Nb7  1  0.00000000  0.00000000  0.50000000  1
  Nb  Nb8  1  0.00000000  0.21421501  0.92574156  1
  Nb  Nb9  1  -0.00000000  0.78578499  0.07425844  1
  Nb  Nb10  1  -0.00000000  0.28578499  0.42574156  1
  Nb  Nb11  1  0.00000000  0.71421501  0.57425844  1
  Nb  Nb12  1  -0.00000000  0.92574156  0.78578499  1
  Nb  Nb13  1  0.00000000  0.07425844  0.21421501  1
  Nb  Nb14  1  -0.00000000  0.42574156  0.71421501  1
  Nb  Nb15  1  0.00000000  0.57425844  0.28578499  1
  O  O16  1  0.50000000  0.50000000  -0.00000000  1
  O  O17  1  0.50000000  0.00000000  0.50000000  1
  O  O18  1  0.00000000  0.28644244  0.78644244  1
  O  O19  1  -0.00000000  0.71355756  0.21355756  1
  O  O20  1  -0.00000000  0.21355756  0.28644244  1
  O  O21  1  0.00000000  0.78644244  0.71355756  1
  O  O22  1  0.00000000  0.15673214  0.50398185  1
  O  O23  1  -0.00000000  0.84326786  0.49601815  1
  O  O24  1  -0.00000000  0.34326786  0.00398185  1
  O  O25  1  0.00000000  0.65673214  0.99601815  1
  O  O26  1  -0.00000000  0.50398185  0.84326786  1
  O  O27  1  0.00000000  0.49601815  0.15673214  1
  O  O28  1  -0.00000000  0.00398185  0.65673214  1
  O  O29  1  0.00000000  0.99601815  0.34326786  1
  O  O30  1  0.50000000  0.43165662  0.69769634  1
  O  O31  1  0.50000000  0.56834338  0.30230366  1
  O  O32  1  0.50000000  0.06834338  0.19769634  1
  O  O33  1  0.50000000  0.93165662  0.80230366  1
  O  O34  1  0.50000000  0.69769634  0.56834338  1
  O  O35  1  0.50000000  0.30230366  0.43165662  1
  O  O36  1  0.50000000  0.19769634  0.93165662  1
  O  O37  1  0.50000000  0.80230366  0.06834338  1
  O  O38  1  -0.00000000  0.56492067  0.63153942  1
  O  O39  1  0.00000000  0.43507933  0.36846058  1
  O  O40  1  0.00000000  0.93507933  0.13153942  1
  O  O41  1  -0.00000000  0.06492067  0.86846058  1
  O  O42  1  0.00000000  0.63153942  0.43507933  1
  O  O43  1  -0.00000000  0.36846058  0.56492067  1
  O  O44  1  0.00000000  0.13153942  0.06492067  1
  O  O45  1  -0.00000000  0.86846058  0.93507933  1
