# generated using pymatgen
data_Cu6BiSe6
_symmetry_space_group_name_H-M   'P 1'
_cell_length_a   4.01963403
_cell_length_b   9.65280195
_cell_length_c   27.28417206
_cell_angle_alpha   90.00000000
_cell_angle_beta   90.00000000
_cell_angle_gamma   90.00000000
_symmetry_Int_Tables_number   1
_chemical_formula_structural   Cu6BiSe6
_chemical_formula_sum   'Cu24 Bi4 Se24'
_cell_volume   1058.64582620
_cell_formula_units_Z   4
loop_
 _symmetry_equiv_pos_site_id
 _symmetry_equiv_pos_as_xyz
  1  'x, y, z'
loop_
 _atom_site_type_symbol
 _atom_site_label
 _atom_site_symmetry_multiplicity
 _atom_site_fract_x
 _atom_site_fract_y
 _atom_site_fract_z
 _atom_site_occupancy
  Cu  Cu0  1  0.75000000  0.43124462  0.52273871  1
  Cu  Cu1  1  0.75000000  0.93124462  0.97726129  1
  Cu  Cu2  1  0.25000000  0.56875538  0.47726129  1
  Cu  Cu3  1  0.25000000  0.06875538  0.02273871  1
  Cu  Cu4  1  0.75000000  0.47379945  0.61573482  1
  Cu  Cu5  1  0.75000000  0.97379945  0.88426518  1
  Cu  Cu6  1  0.25000000  0.52620055  0.38426518  1
  Cu  Cu7  1  0.25000000  0.02620055  0.11573482  1
  Cu  Cu8  1  0.75000000  0.30843738  0.28474797  1
  Cu  Cu9  1  0.75000000  0.80843738  0.21525203  1
  Cu  Cu10  1  0.25000000  0.69156262  0.71525203  1
  Cu  Cu11  1  0.25000000  0.19156262  0.78474797  1
  Cu  Cu12  1  0.75000000  0.71667213  0.05392179  1
  Cu  Cu13  1  0.75000000  0.21667213  0.44607821  1
  Cu  Cu14  1  0.25000000  0.28332787  0.94607821  1
  Cu  Cu15  1  0.25000000  0.78332787  0.55392179  1
  Cu  Cu16  1  0.75000000  0.41904651  0.99640435  1
  Cu  Cu17  1  0.75000000  0.91904651  0.50359565  1
  Cu  Cu18  1  0.25000000  0.58095349  0.00359565  1
  Cu  Cu19  1  0.25000000  0.08095349  0.49640435  1
  Cu  Cu20  1  0.75000000  0.35120844  0.75903501  1
  Cu  Cu21  1  0.75000000  0.85120844  0.74096499  1
  Cu  Cu22  1  0.25000000  0.64879156  0.24096499  1
  Cu  Cu23  1  0.25000000  0.14879156  0.25903501  1
  Bi  Bi24  1  0.75000000  0.39704405  0.13806812  1
  Bi  Bi25  1  0.75000000  0.89704405  0.36193188  1
  Bi  Bi26  1  0.25000000  0.60295595  0.86193188  1
  Bi  Bi27  1  0.25000000  0.10295595  0.63806812  1
  Se  Se28  1  0.75000000  0.36406627  0.89973777  1
  Se  Se29  1  0.75000000  0.86406627  0.60026223  1
  Se  Se30  1  0.25000000  0.63593373  0.10026223  1
  Se  Se31  1  0.25000000  0.13593373  0.39973777  1
  Se  Se32  1  0.75000000  0.18304854  0.83182846  1
  Se  Se33  1  0.75000000  0.68304854  0.66817154  1
  Se  Se34  1  0.25000000  0.81695146  0.16817154  1
  Se  Se35  1  0.25000000  0.31695146  0.33182846  1
  Se  Se36  1  0.75000000  0.97016540  0.06574351  1
  Se  Se37  1  0.75000000  0.47016540  0.43425649  1
  Se  Se38  1  0.25000000  0.02983460  0.93425649  1
  Se  Se39  1  0.25000000  0.52983460  0.56574351  1
  Se  Se40  1  0.75000000  0.28662797  0.67211229  1
  Se  Se41  1  0.75000000  0.78662797  0.82788771  1
  Se  Se42  1  0.25000000  0.71337203  0.32788771  1
  Se  Se43  1  0.25000000  0.21337203  0.17211229  1
  Se  Se44  1  0.75000000  0.16959969  0.53567263  1
  Se  Se45  1  0.75000000  0.66959969  0.96432737  1
  Se  Se46  1  0.25000000  0.83040031  0.46432737  1
  Se  Se47  1  0.25000000  0.33040031  0.03567263  1
  Se  Se48  1  0.75000000  0.01105295  0.26878068  1
  Se  Se49  1  0.75000000  0.51105295  0.23121932  1
  Se  Se50  1  0.25000000  0.98894705  0.73121932  1
  Se  Se51  1  0.25000000  0.48894705  0.76878068  1
