# generated using pymatgen
data_Na9Al2(H9O7)3
_symmetry_space_group_name_H-M   'P 1'
_cell_length_a   8.77994984
_cell_length_b   11.41683999
_cell_length_c   11.74751290
_cell_angle_alpha   74.50211158
_cell_angle_beta   88.36593394
_cell_angle_gamma   70.62869217
_symmetry_Int_Tables_number   1
_chemical_formula_structural   Na9Al2(H9O7)3
_chemical_formula_sum   'Na18 Al4 H54 O42'
_cell_volume   1068.16430838
_cell_formula_units_Z   2
loop_
 _symmetry_equiv_pos_site_id
 _symmetry_equiv_pos_as_xyz
  1  'x, y, z'
loop_
 _atom_site_type_symbol
 _atom_site_label
 _atom_site_symmetry_multiplicity
 _atom_site_fract_x
 _atom_site_fract_y
 _atom_site_fract_z
 _atom_site_occupancy
  Na  Na0  1  0.58107083  0.96938265  0.63804247  1
  Na  Na1  1  0.41892917  0.03061735  0.36195753  1
  Na  Na2  1  0.38987160  0.77531808  0.61983367  1
  Na  Na3  1  0.61012840  0.22468192  0.38016633  1
  Na  Na4  1  0.79436958  0.67477671  0.63430161  1
  Na  Na5  1  0.20563042  0.32522329  0.36569839  1
  Na  Na6  1  0.57522221  0.49016859  0.62954957  1
  Na  Na7  1  0.42477779  0.50983141  0.37045043  1
  Na  Na8  1  0.59595927  0.96626259  0.13358430  1
  Na  Na9  1  0.40404073  0.03373741  0.86641570  1
  Na  Na10  1  0.40471352  0.77633428  0.12010559  1
  Na  Na11  1  0.59528648  0.22366572  0.87989441  1
  Na  Na12  1  0.79850211  0.68166138  0.13298551  1
  Na  Na13  1  0.20149789  0.31833862  0.86701449  1
  Na  Na14  1  0.59874406  0.48519445  0.12094478  1
  Na  Na15  1  0.40125594  0.51480555  0.87905522  1
  Na  Na16  1  0.99498107  0.60046546  0.38050420  1
  Na  Na17  1  0.00501893  0.39953454  0.61949580  1
  Al  Al18  1  0.58896796  0.72578983  0.87319390  1
  Al  Al19  1  0.41103204  0.27421017  0.12680610  1
  Al  Al20  1  0.59618087  0.72461514  0.37691564  1
  Al  Al21  1  0.40381913  0.27538486  0.62308436  1
  H  H22  1  0.84152022  0.77518026  0.81905508  1
  H  H23  1  0.15847978  0.22481974  0.18094492  1
  H  H24  1  0.31092626  0.86936585  0.79238626  1
  H  H25  1  0.68907374  0.13063415  0.20761374  1
  H  H26  1  0.32772062  0.71922814  0.94221167  1
  H  H27  1  0.67227938  0.28077186  0.05778833  1
  H  H28  1  0.86026779  0.59526171  0.97065931  1
  H  H29  1  0.13973221  0.40473829  0.02934069  1
  H  H30  1  0.67824221  0.53759319  0.80988388  1
  H  H31  1  0.32175779  0.46240681  0.19011612  1
  H  H32  1  0.67371142  0.87638271  0.93921252  1
  H  H33  1  0.32628858  0.12361729  0.06078748  1
  H  H34  1  0.80047279  0.83651205  0.31472340  1
  H  H35  1  0.19952721  0.16348795  0.68527660  1
  H  H36  1  0.32325026  0.87922117  0.28457637  1
  H  H37  1  0.67674974  0.12077883  0.71542363  1
  H  H38  1  0.32693154  0.72350691  0.43147574  1
  H  H39  1  0.67306846  0.27649309  0.56852426  1
  H  H40  1  0.76398661  0.49548427  0.46328206  1
  H  H41  1  0.23601339  0.50451573  0.53671794  1
  H  H42  1  0.70884122  0.54629252  0.28642765  1
  H  H43  1  0.29115878  0.45370748  0.71357235  1
  H  H44  1  0.69021733  0.86280211  0.46609854  1
  H  H45  1  0.30978267  0.13719789  0.53390146  1
  H  H46  1  0.98720172  0.90593492  0.81745660  1
  H  H47  1  0.01279828  0.09406508  0.18254340  1
  H  H48  1  0.01104797  0.94620708  0.28544700  1
  H  H49  1  0.98895203  0.05379292  0.71455300  1
  H  H50  1  0.96903100  0.52548099  0.81623974  1
  H  H51  1  0.03096900  0.47451901  0.18376026  1
  H  H52  1  0.11071620  0.02778011  0.02734664  1
  H  H53  1  0.88928380  0.97221989  0.97265336  1
  H  H54  1  0.14496518  0.93467462  0.94192132  1
  H  H55  1  0.85503482  0.06532538  0.05807868  1
  H  H56  1  0.14096325  0.74153834  0.77343862  1
  H  H57  1  0.85903675  0.25846166  0.22656138  1
  H  H58  1  0.11043840  0.61454664  0.74170065  1
  H  H59  1  0.88956160  0.38545336  0.25829935  1
  H  H60  1  0.04741808  0.79878682  0.44158221  1
  H  H61  1  0.95258192  0.20121318  0.55841779  1
  H  H62  1  0.07541448  0.72956715  0.58306856  1
  H  H63  1  0.92458552  0.27043285  0.41693144  1
  H  H64  1  0.11975783  0.05285878  0.49410726  1
  H  H65  1  0.88024217  0.94714122  0.50589274  1
  H  H66  1  0.16052661  0.94587509  0.42385013  1
  H  H67  1  0.83947339  0.05412491  0.57614987  1
  H  H68  1  0.13200994  0.68697499  0.17080334  1
  H  H69  1  0.86799006  0.31302501  0.82919666  1
  H  H70  1  0.15100566  0.76379008  0.26688932  1
  H  H71  1  0.84899434  0.23620992  0.73311068  1
  H  H72  1  0.13126741  0.58302868  0.03171733  1
  H  H73  1  0.86873259  0.41697132  0.96828267  1
  H  H74  1  0.06261763  0.73968352  0.97134494  1
  H  H75  1  0.93738237  0.26031648  0.02865506  1
  O  O76  1  0.74002797  0.78960245  0.77836792  1
  O  O77  1  0.25997203  0.21039755  0.22163208  1
  O  O78  1  0.42002488  0.86666356  0.77078218  1
  O  O79  1  0.57997512  0.13333644  0.22921782  1
  O  O80  1  0.43785561  0.66739066  0.97358936  1
  O  O81  1  0.56214439  0.33260934  0.02641064  1
  O  O82  1  0.76244282  0.57259505  0.97232177  1
  O  O83  1  0.23755718  0.42740495  0.02767823  1
  O  O84  1  0.58853888  0.61384547  0.76976781  1
  O  O85  1  0.41146112  0.38615453  0.23023219  1
  O  O86  1  0.60368743  0.83152091  0.98220548  1
  O  O87  1  0.39631257  0.16847909  0.01779452  1
  O  O88  1  0.76268221  0.77826383  0.28589778  1
  O  O89  1  0.23731779  0.22173617  0.71410222  1
  O  O90  1  0.43697821  0.86606096  0.26825046  1
  O  O91  1  0.56302179  0.13393904  0.73174954  1
  O  O92  1  0.43377299  0.66965831  0.46828814  1
  O  O93  1  0.56622701  0.33034169  0.53171186  1
  O  O94  1  0.76306084  0.57116577  0.48701644  1
  O  O95  1  0.23693916  0.42883423  0.51298356  1
  O  O96  1  0.60445001  0.61548346  0.27038083  1
  O  O97  1  0.39554999  0.38451654  0.72961917  1
  O  O98  1  0.60200384  0.82858155  0.48459132  1
  O  O99  1  0.39799616  0.17141845  0.51540868  1
  O  O100  1  0.08492343  0.85674204  0.86913585  1
  O  O101  1  0.91507657  0.14325796  0.13086415  1
  O  O102  1  0.10706637  0.88133307  0.33128411  1
  O  O103  1  0.89293363  0.11866693  0.66871589  1
  O  O104  1  0.03213267  0.52457204  0.74677965  1
  O  O105  1  0.96786733  0.47542796  0.25322035  1
  O  O106  1  0.19857999  0.97240030  0.99282422  1
  O  O107  1  0.80142001  0.02759970  0.00717578  1
  O  O108  1  0.18221733  0.67931341  0.72560305  1
  O  O109  1  0.81778267  0.32068659  0.27439695  1
  O  O110  1  0.00580765  0.74475551  0.51138296  1
  O  O111  1  0.99419235  0.25524449  0.48861704  1
  O  O112  1  0.20525598  0.97505784  0.48647390  1
  O  O113  1  0.79474402  0.02494216  0.51352610  1
  O  O114  1  0.19246457  0.67927657  0.24429739  1
  O  O115  1  0.80753543  0.32072343  0.75570261  1
  O  O116  1  0.05169574  0.66697148  0.04033182  1
  O  O117  1  0.94830426  0.33302852  0.95966818  1
