# generated using pymatgen
data_Tb5Si4
_symmetry_space_group_name_H-M   'P 1'
_cell_length_a   7.46248157
_cell_length_b   7.71894335
_cell_length_c   14.68791922
_cell_angle_alpha   90.00000000
_cell_angle_beta   90.00000000
_cell_angle_gamma   90.00000000
_symmetry_Int_Tables_number   1
_chemical_formula_structural   Tb5Si4
_chemical_formula_sum   'Tb20 Si16'
_cell_volume   846.06046279
_cell_formula_units_Z   4
loop_
 _symmetry_equiv_pos_site_id
 _symmetry_equiv_pos_as_xyz
  1  'x, y, z'
loop_
 _atom_site_type_symbol
 _atom_site_label
 _atom_site_symmetry_multiplicity
 _atom_site_fract_x
 _atom_site_fract_y
 _atom_site_fract_z
 _atom_site_occupancy
  Tb  Tb0  1  0.32139965  0.81892758  0.87732697  1
  Tb  Tb1  1  0.82139965  0.68107242  0.62267303  1
  Tb  Tb2  1  0.67860035  0.18107242  0.37732697  1
  Tb  Tb3  1  0.17860035  0.31892758  0.12267303  1
  Tb  Tb4  1  0.67860035  0.18107242  0.12267303  1
  Tb  Tb5  1  0.17860035  0.31892758  0.37732697  1
  Tb  Tb6  1  0.32139965  0.81892758  0.62267303  1
  Tb  Tb7  1  0.82139965  0.68107242  0.87732697  1
  Tb  Tb8  1  0.47247735  0.31652810  0.90186848  1
  Tb  Tb9  1  0.97247735  0.18347190  0.59813152  1
  Tb  Tb10  1  0.52752265  0.68347190  0.40186848  1
  Tb  Tb11  1  0.02752265  0.81652810  0.09813152  1
  Tb  Tb12  1  0.52752265  0.68347190  0.09813152  1
  Tb  Tb13  1  0.02752265  0.81652810  0.40186848  1
  Tb  Tb14  1  0.47247735  0.31652810  0.59813152  1
  Tb  Tb15  1  0.97247735  0.18347190  0.90186848  1
  Tb  Tb16  1  0.15160651  0.48630068  0.75000000  1
  Tb  Tb17  1  0.65160651  0.01369932  0.75000000  1
  Tb  Tb18  1  0.84839349  0.51369932  0.25000000  1
  Tb  Tb19  1  0.34839349  0.98630068  0.25000000  1
  Si  Si20  1  0.35317276  0.02762715  0.04008065  1
  Si  Si21  1  0.85317276  0.47237285  0.45991935  1
  Si  Si22  1  0.64682724  0.97237285  0.54008065  1
  Si  Si23  1  0.14682724  0.52762715  0.95991935  1
  Si  Si24  1  0.64682724  0.97237285  0.95991935  1
  Si  Si25  1  0.14682724  0.52762715  0.54008065  1
  Si  Si26  1  0.35317276  0.02762715  0.45991935  1
  Si  Si27  1  0.85317276  0.47237285  0.04008065  1
  Si  Si28  1  0.52634113  0.60276422  0.75000000  1
  Si  Si29  1  0.02634113  0.89723578  0.75000000  1
  Si  Si30  1  0.47365887  0.39723578  0.25000000  1
  Si  Si31  1  0.97365887  0.10276422  0.25000000  1
  Si  Si32  1  0.26804510  0.12465975  0.75000000  1
  Si  Si33  1  0.76804510  0.37534025  0.75000000  1
  Si  Si34  1  0.73195490  0.87534025  0.25000000  1
  Si  Si35  1  0.23195490  0.62465975  0.25000000  1
