# generated using pymatgen
data_SiP2H18(C3Cl2)2
_symmetry_space_group_name_H-M   'P 1'
_cell_length_a   6.92069250
_cell_length_b   8.60405156
_cell_length_c   13.84042216
_cell_angle_alpha   90.00000000
_cell_angle_beta   102.12440801
_cell_angle_gamma   90.00000000
_symmetry_Int_Tables_number   1
_chemical_formula_structural   SiP2H18(C3Cl2)2
_chemical_formula_sum   'Si2 P4 H36 C12 Cl8'
_cell_volume   805.75828247
_cell_formula_units_Z   2
loop_
 _symmetry_equiv_pos_site_id
 _symmetry_equiv_pos_as_xyz
  1  'x, y, z'
loop_
 _atom_site_type_symbol
 _atom_site_label
 _atom_site_symmetry_multiplicity
 _atom_site_fract_x
 _atom_site_fract_y
 _atom_site_fract_z
 _atom_site_occupancy
  Si  Si0  1  0.00000000  0.50000000  0.50000000  1
  Si  Si1  1  0.00000000  -0.00000000  -0.00000000  1
  P  P2  1  0.17644661  0.29510869  0.60141410  1
  P  P3  1  0.82355339  0.79510869  0.89858590  1
  P  P4  1  0.82355339  0.70489131  0.39858590  1
  P  P5  1  0.17644661  0.20489131  0.10141410  1
  H  H6  1  0.09976373  0.04854730  0.66773616  1
  H  H7  1  0.90023627  0.54854730  0.83226384  1
  H  H8  1  0.90023627  0.95145270  0.33226384  1
  H  H9  1  0.09976373  0.45145270  0.16773616  1
  H  H10  1  0.93755559  0.19948583  0.69133412  1
  H  H11  1  0.06244441  0.69948583  0.80866588  1
  H  H12  1  0.06244441  0.80051417  0.30866588  1
  H  H13  1  0.93755559  0.30051417  0.19133412  1
  H  H14  1  0.90368203  0.11770184  0.56980117  1
  H  H15  1  0.09631797  0.61770184  0.93019883  1
  H  H16  1  0.09631797  0.88229816  0.43019883  1
  H  H17  1  0.90368203  0.38229816  0.06980117  1
  H  H18  1  0.26469660  0.14651753  0.47003594  1
  H  H19  1  0.73530340  0.64651753  0.02996406  1
  H  H20  1  0.73530340  0.85348247  0.52996406  1
  H  H21  1  0.26469660  0.35348247  0.97003594  1
  H  H22  1  0.46819500  0.26056718  0.53328386  1
  H  H23  1  0.53180500  0.76056718  0.96671614  1
  H  H24  1  0.53180500  0.73943282  0.46671614  1
  H  H25  1  0.46819500  0.23943282  0.03328386  1
  H  H26  1  0.40149172  0.08492818  0.58900086  1
  H  H27  1  0.59850828  0.58492818  0.91099914  1
  H  H28  1  0.59850828  0.91507182  0.41099914  1
  H  H29  1  0.40149172  0.41507182  0.08900086  1
  H  H30  1  0.44635343  0.43019032  0.70423302  1
  H  H31  1  0.55364657  0.93019032  0.79576698  1
  H  H32  1  0.55364657  0.56980968  0.29576698  1
  H  H33  1  0.44635343  0.06980968  0.20423302  1
  H  H34  1  0.23372946  0.42052160  0.75945570  1
  H  H35  1  0.76627054  0.92052160  0.74054430  1
  H  H36  1  0.76627054  0.57947840  0.24054430  1
  H  H37  1  0.23372946  0.07947840  0.25945570  1
  H  H38  1  0.38947083  0.25308068  0.76184588  1
  H  H39  1  0.61052917  0.75308068  0.73815412  1
  H  H40  1  0.61052917  0.74691932  0.23815412  1
  H  H41  1  0.38947083  0.24691932  0.26184588  1
  C  C42  1  0.01237878  0.15034010  0.63583572  1
  C  C43  1  0.98762122  0.65034010  0.86416428  1
  C  C44  1  0.98762122  0.84965990  0.36416428  1
  C  C45  1  0.01237878  0.34965990  0.13583572  1
  C  C46  1  0.34491548  0.18596071  0.54264020  1
  C  C47  1  0.65508452  0.68596071  0.95735980  1
  C  C48  1  0.65508452  0.81403929  0.45735980  1
  C  C49  1  0.34491548  0.31403929  0.04264020  1
  C  C50  1  0.32750225  0.35601488  0.71859862  1
  C  C51  1  0.67249775  0.85601488  0.78140138  1
  C  C52  1  0.67249775  0.64398512  0.28140138  1
  C  C53  1  0.32750225  0.14398512  0.21859862  1
  Cl  Cl54  1  0.82845392  0.31519664  0.40452545  1
  Cl  Cl55  1  0.17154608  0.81519664  0.09547455  1
  Cl  Cl56  1  0.17154608  0.68480336  0.59547455  1
  Cl  Cl57  1  0.82845392  0.18480336  0.90452545  1
  Cl  Cl58  1  0.77859423  0.49816419  0.59717077  1
  Cl  Cl59  1  0.22140577  0.99816419  0.90282923  1
  Cl  Cl60  1  0.22140577  0.50183581  0.40282923  1
  Cl  Cl61  1  0.77859423  0.00183581  0.09717077  1
