# generated using pymatgen
data_CuH12(NO6)2
_symmetry_space_group_name_H-M   'P 1'
_cell_length_a   5.89870776
_cell_length_b   7.65918292
_cell_length_c   11.47212112
_cell_angle_alpha   106.11378830
_cell_angle_beta   96.02648466
_cell_angle_gamma   100.26101284
_symmetry_Int_Tables_number   1
_chemical_formula_structural   CuH12(NO6)2
_chemical_formula_sum   'Cu2 H24 N4 O24'
_cell_volume   483.39378270
_cell_formula_units_Z   2
loop_
 _symmetry_equiv_pos_site_id
 _symmetry_equiv_pos_as_xyz
  1  'x, y, z'
loop_
 _atom_site_type_symbol
 _atom_site_label
 _atom_site_symmetry_multiplicity
 _atom_site_fract_x
 _atom_site_fract_y
 _atom_site_fract_z
 _atom_site_occupancy
  Cu  Cu0  1  0.82863246  0.85488890  0.76948277  1
  Cu  Cu1  1  0.17136754  0.14511110  0.23051723  1
  H  H2  1  0.76935351  0.05984092  0.98401743  1
  H  H3  1  0.23064649  0.94015908  0.01598257  1
  H  H4  1  0.83557391  0.18767593  0.89725497  1
  H  H5  1  0.16442609  0.81232407  0.10274503  1
  H  H6  1  0.37539671  0.62109962  0.66624475  1
  H  H7  1  0.62460329  0.37890038  0.33375525  1
  H  H8  1  0.40167590  0.77960191  0.60404766  1
  H  H9  1  0.59832410  0.22039809  0.39595234  1
  H  H10  1  0.80370312  0.51464463  0.62686271  1
  H  H11  1  0.19629688  0.48535537  0.37313729  1
  H  H12  1  0.84893813  0.65671974  0.55248605  1
  H  H13  1  0.15106187  0.34328026  0.44751395  1
  H  H14  1  0.30460964  0.90033217  0.81008681  1
  H  H15  1  0.69539036  0.09966783  0.18991319  1
  H  H16  1  0.25425072  0.09971673  0.86943474  1
  H  H17  1  0.74574928  0.90028327  0.13056526  1
  H  H18  1  0.60664976  0.65101737  0.88309361  1
  H  H19  1  0.39335024  0.34898263  0.11690639  1
  H  H20  1  0.85280719  0.58559147  0.86780698  1
  H  H21  1  0.14719281  0.41440853  0.13219302  1
  H  H22  1  0.03800566  0.05137173  0.64444893  1
  H  H23  1  0.96199434  0.94862827  0.35555107  1
  H  H24  1  0.78475046  0.10098262  0.64262921  1
  H  H25  1  0.21524954  0.89901738  0.35737079  1
  N  N26  1  0.20691024  0.44739101  0.87280323  1
  N  N27  1  0.79308976  0.55260899  0.12719677  1
  N  N28  1  0.41723891  0.23826630  0.60976384  1
  N  N29  1  0.58276109  0.76173370  0.39023616  1
  O  O30  1  0.74671205  0.06547170  0.89722134  1
  O  O31  1  0.25328795  0.93452830  0.10277866  1
  O  O32  1  0.43355217  0.75568849  0.68272508  1
  O  O33  1  0.56644783  0.24431151  0.31727492  1
  O  O34  1  0.89748800  0.63858350  0.63262604  1
  O  O35  1  0.10251200  0.36141650  0.36737396  1
  O  O36  1  0.20908398  0.96694365  0.86536483  1
  O  O37  1  0.79091602  0.03305635  0.13463517  1
  O  O38  1  0.77403812  0.69306507  0.87752627  1
  O  O39  1  0.22596188  0.30693493  0.12247373  1
  O  O40  1  0.87178080  0.00324369  0.64818132  1
  O  O41  1  0.12821920  0.99675631  0.35181868  1
  O  O42  1  0.33423699  0.33285865  0.87564300  1
  O  O43  1  0.66576301  0.66714135  0.12435700  1
  O  O44  1  0.29651128  0.61239144  0.87885272  1
  O  O45  1  0.70348872  0.38760856  0.12114728  1
  O  O46  1  0.98394837  0.39837768  0.86325238  1
  O  O47  1  0.01605163  0.60162232  0.13674762  1
  O  O48  1  0.33783935  0.08716081  0.62881163  1
  O  O49  1  0.66216065  0.91283919  0.37118837  1
  O  O50  1  0.63121666  0.27533928  0.59509738  1
  O  O51  1  0.36878334  0.72466072  0.40490262  1
  O  O52  1  0.28790175  0.35232435  0.60426009  1
  O  O53  1  0.71209825  0.64767565  0.39573991  1
