# generated using pymatgen
data_Na12(CuO2)7
_symmetry_space_group_name_H-M   'P 1'
_cell_length_a   5.72227212
_cell_length_b   8.34880860
_cell_length_c   10.81114106
_cell_angle_alpha   67.28667375
_cell_angle_beta   82.08465461
_cell_angle_gamma   69.10541059
_symmetry_Int_Tables_number   1
_chemical_formula_structural   Na12(CuO2)7
_chemical_formula_sum   'Na12 Cu7 O14'
_cell_volume   445.10675494
_cell_formula_units_Z   1
loop_
 _symmetry_equiv_pos_site_id
 _symmetry_equiv_pos_as_xyz
  1  'x, y, z'
loop_
 _atom_site_type_symbol
 _atom_site_label
 _atom_site_symmetry_multiplicity
 _atom_site_fract_x
 _atom_site_fract_y
 _atom_site_fract_z
 _atom_site_occupancy
  Na  Na0  1  0.60804024  0.84304233  0.04123985  1
  Na  Na1  1  0.60804024  0.38428218  0.95876015  1
  Na  Na2  1  0.38866794  0.23029543  0.80846268  1
  Na  Na3  1  0.38866794  0.53875811  0.19153732  1
  Na  Na4  1  0.38529097  0.37731934  0.50000000  1
  Na  Na5  1  0.61226374  0.69372693  0.34998342  1
  Na  Na6  1  0.61226374  0.54371035  0.65001658  1
  Na  Na7  1  0.34450866  0.77234948  0.83089091  1
  Na  Na8  1  0.34450866  0.10324039  0.16910909  1
  Na  Na9  1  0.67520981  0.97538381  0.66625542  1
  Na  Na10  1  0.67520981  0.14163922  0.33374458  1
  Na  Na11  1  0.32770442  0.94136763  0.50000000  1
  Cu  Cu12  1  0.00244786  0.53846493  0.92802887  1
  Cu  Cu13  1  0.00244786  0.96649380  0.07197113  1
  Cu  Cu14  1  0.02424081  0.66519425  0.64243458  1
  Cu  Cu15  1  0.02424081  0.80762883  0.35756542  1
  Cu  Cu16  1  0.98046883  0.11930124  0.78498420  1
  Cu  Cu17  1  0.98046883  0.40428544  0.21501580  1
  Cu  Cu18  1  0.97472769  0.26007318  0.50000000  1
  O  O19  1  0.22703236  0.41877253  0.07435881  1
  O  O20  1  0.22703236  0.99313134  0.92564119  1
  O  O21  1  0.75356054  0.53321873  0.06490072  1
  O  O22  1  0.75356054  0.09811944  0.93509928  1
  O  O23  1  0.25834651  0.53985275  0.79277105  1
  O  O24  1  0.25834651  0.83262380  0.20722895  1
  O  O25  1  0.26941384  0.67896614  0.50000000  1
  O  O26  1  0.23154149  0.11417368  0.64510171  1
  O  O27  1  0.23154149  0.25927539  0.35489829  1
  O  O28  1  0.76889994  0.65443509  0.78346617  1
  O  O29  1  0.76889994  0.93790126  0.21653383  1
  O  O30  1  0.76956527  0.81392084  0.50000000  1
  O  O31  1  0.73147018  0.24599601  0.64716012  1
  O  O32  1  0.73147018  0.39315613  0.35283988  1
