# generated using pymatgen
data_Pr2Co5B2
_symmetry_space_group_name_H-M   'P 1'
_cell_length_a   5.21875334
_cell_length_b   5.21875334
_cell_length_c   20.20017791
_cell_angle_alpha   90.00000000
_cell_angle_beta   90.00000000
_cell_angle_gamma   119.97719465
_symmetry_Int_Tables_number   1
_chemical_formula_structural   Pr2Co5B2
_chemical_formula_sum   'Pr8 Co20 B8'
_cell_volume   476.56168679
_cell_formula_units_Z   4
loop_
 _symmetry_equiv_pos_site_id
 _symmetry_equiv_pos_as_xyz
  1  'x, y, z'
loop_
 _atom_site_type_symbol
 _atom_site_label
 _atom_site_symmetry_multiplicity
 _atom_site_fract_x
 _atom_site_fract_y
 _atom_site_fract_z
 _atom_site_occupancy
  Pr  Pr0  1  0.66682310  0.33317690  0.52062865  1
  Pr  Pr1  1  0.33317690  0.66682310  0.47937135  1
  Pr  Pr2  1  0.33317690  0.66682310  0.02062865  1
  Pr  Pr3  1  0.66682310  0.33317690  0.97937135  1
  Pr  Pr4  1  0.66670540  0.33329460  0.67445124  1
  Pr  Pr5  1  0.33329460  0.66670540  0.32554876  1
  Pr  Pr6  1  0.33329460  0.66670540  0.17445124  1
  Pr  Pr7  1  0.66670540  0.33329460  0.82554876  1
  Co  Co8  1  0.00000000  0.00000000  0.50000000  1
  Co  Co9  1  0.00000000  0.00000000  -0.00000000  1
  Co  Co10  1  0.16812612  0.33615400  0.75000000  1
  Co  Co11  1  0.16809361  0.83190639  0.75000000  1
  Co  Co12  1  0.66384600  0.83187388  0.75000000  1
  Co  Co13  1  0.83187388  0.66384600  0.25000000  1
  Co  Co14  1  0.83190639  0.16809361  0.25000000  1
  Co  Co15  1  0.33615400  0.16812612  0.25000000  1
  Co  Co16  1  0.16044305  0.32044870  0.60873186  1
  Co  Co17  1  0.16044749  0.83955251  0.60870325  1
  Co  Co18  1  0.67955130  0.83955695  0.60873186  1
  Co  Co19  1  0.83955695  0.67955130  0.39126814  1
  Co  Co20  1  0.83955251  0.16044749  0.39129675  1
  Co  Co21  1  0.32044870  0.16044305  0.39126814  1
  Co  Co22  1  0.83955695  0.67955130  0.10873186  1
  Co  Co23  1  0.83955251  0.16044749  0.10870325  1
  Co  Co24  1  0.32044870  0.16044305  0.10873186  1
  Co  Co25  1  0.16044305  0.32044870  0.89126814  1
  Co  Co26  1  0.16044749  0.83955251  0.89129675  1
  Co  Co27  1  0.67955130  0.83955695  0.89126814  1
  B  B28  1  0.00005642  0.99994358  0.67890360  1
  B  B29  1  0.99994358  0.00005642  0.32109640  1
  B  B30  1  0.99994358  0.00005642  0.17890360  1
  B  B31  1  0.00005642  0.99994358  0.82109640  1
  B  B32  1  0.66659732  0.33340268  0.32544523  1
  B  B33  1  0.33340268  0.66659732  0.67455477  1
  B  B34  1  0.33340268  0.66659732  0.82544523  1
  B  B35  1  0.66659732  0.33340268  0.17455477  1
