# generated using pymatgen
data_SiO2
_symmetry_space_group_name_H-M   'P 1'
_cell_length_a   12.53908556
_cell_length_b   14.09496779
_cell_length_c   16.28671569
_cell_angle_alpha   115.63989920
_cell_angle_beta   103.67243352
_cell_angle_gamma   90.00000000
_symmetry_Int_Tables_number   1
_chemical_formula_structural   SiO2
_chemical_formula_sum   'Si38 O76'
_cell_volume   2504.25886292
_cell_formula_units_Z   38
loop_
 _symmetry_equiv_pos_site_id
 _symmetry_equiv_pos_as_xyz
  1  'x, y, z'
loop_
 _atom_site_type_symbol
 _atom_site_label
 _atom_site_symmetry_multiplicity
 _atom_site_fract_x
 _atom_site_fract_y
 _atom_site_fract_z
 _atom_site_occupancy
  Si  Si0  1  0.83265699  0.84161358  0.90422891  1
  Si  Si1  1  0.83265699  0.06261533  0.90422891  1
  Si  Si2  1  0.16734301  0.15838642  0.09577109  1
  Si  Si3  1  0.16734301  0.93738467  0.09577109  1
  Si  Si4  1  0.07846314  0.82968663  0.88108348  1
  Si  Si5  1  0.07846314  0.05139686  0.88108348  1
  Si  Si6  1  0.92153686  0.17031337  0.11891652  1
  Si  Si7  1  0.92153686  0.94860314  0.11891652  1
  Si  Si8  1  0.24333142  0.50094323  0.59265753  1
  Si  Si9  1  0.24333142  0.09171430  0.59265753  1
  Si  Si10  1  0.75666858  0.49905677  0.40734247  1
  Si  Si11  1  0.75666858  0.90828570  0.40734247  1
  Si  Si12  1  0.49858308  0.50673607  0.60211502  1
  Si  Si13  1  0.49858308  0.09537895  0.60211502  1
  Si  Si14  1  0.50141692  0.49326393  0.39788498  1
  Si  Si15  1  0.50141692  0.90462105  0.39788498  1
  Si  Si16  1  0.85731598  0.51204341  0.61390228  1
  Si  Si17  1  0.85731598  0.10185888  0.61390228  1
  Si  Si18  1  0.14268402  0.48795659  0.38609772  1
  Si  Si19  1  0.14268402  0.89814112  0.38609772  1
  Si  Si20  1  0.08370605  0.65005542  0.69090924  1
  Si  Si21  1  0.08370605  0.04085381  0.69090924  1
  Si  Si22  1  0.91629395  0.34994458  0.30909076  1
  Si  Si23  1  0.91629395  0.95914619  0.30909076  1
  Si  Si24  1  0.70802441  0.66641213  0.72271222  1
  Si  Si25  1  0.70802441  0.05630009  0.72271222  1
  Si  Si26  1  0.29197559  0.33358787  0.27728778  1
  Si  Si27  1  0.29197559  0.94369991  0.27728778  1
  Si  Si28  1  0.78499221  0.26633618  0.53267235  1
  Si  Si29  1  0.21500779  0.73366382  0.46732765  1
  Si  Si30  1  0.82732629  0.72575542  0.45151085  1
  Si  Si31  1  0.17267371  0.27424458  0.54848915  1
  Si  Si32  1  0.69274223  0.80453375  0.60906751  1
  Si  Si33  1  0.30725777  0.19546625  0.39093249  1
  Si  Si34  1  0.46027981  0.72807936  0.45615873  1
  Si  Si35  1  0.53972019  0.27192064  0.54384127  1
  Si  Si36  1  0.05594310  0.79285312  0.58570624  1
  Si  Si37  1  0.94405690  0.20714688  0.41429376  1
  O  O38  1  0.74009764  0.73927989  0.83683996  1
  O  O39  1  0.74009764  0.09756007  0.83683996  1
  O  O40  1  0.25990236  0.26072011  0.16316004  1
  O  O41  1  0.25990236  0.90243993  0.16316004  1
  O  O42  1  0.84015325  0.87406099  0.01457095  1
  O  O43  1  0.84015325  0.14050996  0.01457095  1
  O  O44  1  0.15984675  0.12593901  0.98542905  1
  O  O45  1  0.15984675  0.85949004  0.98542905  1
  O  O46  1  0.79706776  0.94017260  0.88034520  1
  O  O47  1  0.20293224  0.05982740  0.11965480  1
  O  O48  1  0.95099258  0.80972320  0.88201592  1
  O  O49  1  0.95099258  0.07229273  0.88201592  1
  O  O50  1  0.04900742  0.19027680  0.11798408  1
  O  O51  1  0.04900742  0.92770727  0.11798408  1
  O  O52  1  0.11113789  0.72108492  0.80504746  1
  O  O53  1  0.11113789  0.08396254  0.80504746  1
  O  O54  1  0.88886211  0.27891508  0.19495254  1
  O  O55  1  0.88886211  0.91603746  0.19495254  1
  O  O56  1  0.09183391  0.92637916  0.85275832  1
  O  O57  1  0.90816609  0.07362084  0.14724168  1
  O  O58  1  0.82194292  0.21692893  0.43385786  1
  O  O59  1  0.17805708  0.78307107  0.56614214  1
  O  O60  1  0.83546047  0.38985007  0.59363992  1
  O  O61  1  0.83546047  0.20378985  0.59363992  1
  O  O62  1  0.16453953  0.61014993  0.40636008  1
  O  O63  1  0.16453953  0.79621015  0.40636008  1
  O  O64  1  0.65072579  0.25312142  0.50624284  1
  O  O65  1  0.34927421  0.74687858  0.49375716  1
  O  O66  1  0.78531663  0.78899614  0.38877742  1
  O  O67  1  0.78531663  0.59978129  0.38877742  1
  O  O68  1  0.21468337  0.21100386  0.61122258  1
  O  O69  1  0.21468337  0.40021871  0.61122258  1
  O  O70  1  0.77786364  0.77168552  0.54337105  1
  O  O71  1  0.22213636  0.22831448  0.45662895  1
  O  O72  1  0.96171907  0.74271649  0.48543299  1
  O  O73  1  0.03828093  0.25728351  0.51456701  1
  O  O74  1  0.56439989  0.77456624  0.54913249  1
  O  O75  1  0.43560011  0.22543376  0.45086751  1
  O  O76  1  0.71692950  0.93046805  0.67387792  1
  O  O77  1  0.71692950  0.74340988  0.67387792  1
  O  O78  1  0.28307050  0.06953195  0.32612208  1
  O  O79  1  0.28307050  0.25659012  0.32612208  1
  O  O80  1  0.46510347  0.79072952  0.39316349  1
  O  O81  1  0.46510347  0.60243397  0.39316349  1
  O  O82  1  0.53489653  0.20927048  0.60683651  1
  O  O83  1  0.53489653  0.39756603  0.60683651  1
  O  O84  1  0.19498168  0.60352067  0.66199436  1
  O  O85  1  0.19498168  0.05847370  0.66199436  1
  O  O86  1  0.80501832  0.39647933  0.33800564  1
  O  O87  1  0.80501832  0.94152630  0.33800564  1
  O  O88  1  0.19011073  0.47295235  0.48175369  1
  O  O89  1  0.19011073  0.00880134  0.48175369  1
  O  O90  1  0.80988927  0.52704765  0.51824631  1
  O  O91  1  0.80988927  0.99119866  0.51824631  1
  O  O92  1  0.37640373  0.52688455  0.61792352  1
  O  O93  1  0.37640373  0.09103897  0.61792352  1
  O  O94  1  0.62359627  0.47311545  0.38207648  1
  O  O95  1  0.62359627  0.90896103  0.38207648  1
  O  O96  1  0.58406122  0.60578121  0.68726883  1
  O  O97  1  0.58406122  0.08148762  0.68726883  1
  O  O98  1  0.41593878  0.39421879  0.31273117  1
  O  O99  1  0.41593878  0.91851238  0.31273117  1
  O  O100  1  0.50000000  0.50000000  0.50000000  1
  O  O101  1  0.50000000  0.00000000  0.50000000  1
  O  O102  1  0.79700069  0.58189525  0.69510236  1
  O  O103  1  0.79700069  0.11320711  0.69510236  1
  O  O104  1  0.20299931  0.41810475  0.30489764  1
  O  O105  1  0.20299931  0.88679289  0.30489764  1
  O  O106  1  0.98954578  0.55042895  0.65337310  1
  O  O107  1  0.98954578  0.10294414  0.65337310  1
  O  O108  1  0.01045422  0.44957105  0.34662690  1
  O  O109  1  0.01045422  0.89705586  0.34662690  1
  O  O110  1  0.03930546  0.72837083  0.64420895  1
  O  O111  1  0.03930546  0.91583811  0.64420895  1
  O  O112  1  0.96069454  0.27162917  0.35579105  1
  O  O113  1  0.96069454  0.08416189  0.35579105  1
