# generated using pymatgen
data_AgB5H6N2Cl5
_symmetry_space_group_name_H-M   'P 1'
_cell_length_a   12.53220332
_cell_length_b   14.01437173
_cell_length_c   15.08461576
_cell_angle_alpha   90.00000000
_cell_angle_beta   90.00000000
_cell_angle_gamma   90.00000000
_symmetry_Int_Tables_number   1
_chemical_formula_structural   AgB5H6N2Cl5
_chemical_formula_sum   'Ag8 B40 H48 N16 Cl40'
_cell_volume   2649.32548565
_cell_formula_units_Z   8
loop_
 _symmetry_equiv_pos_site_id
 _symmetry_equiv_pos_as_xyz
  1  'x, y, z'
loop_
 _atom_site_type_symbol
 _atom_site_label
 _atom_site_symmetry_multiplicity
 _atom_site_fract_x
 _atom_site_fract_y
 _atom_site_fract_z
 _atom_site_occupancy
  Ag  Ag0  1  0.10165445  0.93655862  0.70589668  1
  Ag  Ag1  1  0.39834555  0.43655862  0.79410332  1
  Ag  Ag2  1  0.39834555  0.06344138  0.20589668  1
  Ag  Ag3  1  0.10165445  0.56344138  0.29410332  1
  Ag  Ag4  1  0.89834555  0.06344138  0.29410332  1
  Ag  Ag5  1  0.60165445  0.56344138  0.20589668  1
  Ag  Ag6  1  0.60165445  0.93655862  0.79410332  1
  Ag  Ag7  1  0.89834555  0.43655862  0.70589668  1
  B  B8  1  0.25916122  0.30043757  0.38703481  1
  B  B9  1  0.24083878  0.80043757  0.11296519  1
  B  B10  1  0.24083878  0.69956243  0.88703481  1
  B  B11  1  0.25916122  0.19956243  0.61296519  1
  B  B12  1  0.74083878  0.69956243  0.61296519  1
  B  B13  1  0.75916122  0.19956243  0.88703481  1
  B  B14  1  0.75916122  0.30043757  0.11296519  1
  B  B15  1  0.74083878  0.80043757  0.38703481  1
  B  B16  1  0.29745470  0.35048294  0.48401171  1
  B  B17  1  0.20254530  0.85048294  0.01598829  1
  B  B18  1  0.20254530  0.64951706  0.98401171  1
  B  B19  1  0.29745470  0.14951706  0.51598829  1
  B  B20  1  0.70254530  0.64951706  0.51598829  1
  B  B21  1  0.79745470  0.14951706  0.98401171  1
  B  B22  1  0.79745470  0.35048294  0.01598829  1
  B  B23  1  0.70254530  0.85048294  0.48401171  1
  B  B24  1  0.21911146  0.30845678  0.57758366  1
  B  B25  1  0.28088854  0.80845678  0.92241634  1
  B  B26  1  0.28088854  0.69154322  0.07758366  1
  B  B27  1  0.21911146  0.19154322  0.42241634  1
  B  B28  1  0.78088854  0.69154322  0.42241634  1
  B  B29  1  0.71911146  0.19154322  0.07758366  1
  B  B30  1  0.71911146  0.30845678  0.92241634  1
  B  B31  1  0.78088854  0.80845678  0.57758366  1
  B  B32  1  0.35531556  0.26167570  0.55924322  1
  B  B33  1  0.14468444  0.76167570  0.94075678  1
  B  B34  1  0.14468444  0.73832430  0.05924322  1
  B  B35  1  0.35531556  0.23832430  0.44075678  1
  B  B36  1  0.64468444  0.73832430  0.44075678  1
  B  B37  1  0.85531556  0.23832430  0.05924322  1
  B  B38  1  0.85531556  0.26167570  0.94075678  1
  B  B39  1  0.64468444  0.76167570  0.55924322  1
  B  B40  1  0.16226988  0.30326126  0.46554234  1
  B  B41  1  0.33773012  0.80326126  0.03445766  1
  B  B42  1  0.33773012  0.69673874  0.96554234  1
  B  B43  1  0.16226988  0.19673874  0.53445766  1
  B  B44  1  0.83773012  0.69673874  0.53445766  1
  B  B45  1  0.66226988  0.19673874  0.96554234  1
  B  B46  1  0.66226988  0.30326126  0.03445766  1
  B  B47  1  0.83773012  0.80326126  0.46554234  1
  H  H48  1  0.94626529  0.02653522  0.80174869  1
  H  H49  1  0.55373471  0.52653522  0.69825131  1
  H  H50  1  0.55373471  0.97346478  0.30174869  1
  H  H51  1  0.94626529  0.47346478  0.19825131  1
  H  H52  1  0.05373471  0.97346478  0.19825131  1
  H  H53  1  0.44626529  0.47346478  0.30174869  1
  H  H54  1  0.44626529  0.02653522  0.69825131  1
  H  H55  1  0.05373471  0.52653522  0.80174869  1
  H  H56  1  0.05716480  0.02884123  0.85940328  1
  H  H57  1  0.44283520  0.52884123  0.64059672  1
  H  H58  1  0.44283520  0.97115877  0.35940328  1
  H  H59  1  0.05716480  0.47115877  0.14059672  1
  H  H60  1  0.94283520  0.97115877  0.14059672  1
  H  H61  1  0.55716480  0.47115877  0.35940328  1
  H  H62  1  0.55716480  0.02884123  0.64059672  1
  H  H63  1  0.94283520  0.52884123  0.85940328  1
  H  H64  1  0.03875531  0.10509151  0.77748007  1
  H  H65  1  0.46124469  0.60509151  0.72251993  1
  H  H66  1  0.46124469  0.89490849  0.27748007  1
  H  H67  1  0.03875531  0.39490849  0.22251993  1
  H  H68  1  0.96124469  0.89490849  0.22251993  1
  H  H69  1  0.53875531  0.39490849  0.27748007  1
  H  H70  1  0.53875531  0.10509151  0.72251993  1
  H  H71  1  0.96124469  0.60509151  0.77748007  1
  H  H72  1  0.12022033  0.79122266  0.58859829  1
  H  H73  1  0.37977967  0.29122266  0.91140171  1
  H  H74  1  0.37977967  0.20877734  0.08859829  1
  H  H75  1  0.12022033  0.70877734  0.41140171  1
  H  H76  1  0.87977967  0.20877734  0.41140171  1
  H  H77  1  0.62022033  0.70877734  0.08859829  1
  H  H78  1  0.62022033  0.79122266  0.91140171  1
  H  H79  1  0.87977967  0.29122266  0.58859829  1
  H  H80  1  0.21148380  0.87228730  0.56304734  1
  H  H81  1  0.28851620  0.37228730  0.93695266  1
  H  H82  1  0.28851620  0.12771270  0.06304734  1
  H  H83  1  0.21148380  0.62771270  0.43695266  1
  H  H84  1  0.78851620  0.12771270  0.43695266  1
  H  H85  1  0.71148380  0.62771270  0.06304734  1
  H  H86  1  0.71148380  0.87228730  0.93695266  1
  H  H87  1  0.78851620  0.37228730  0.56304734  1
  H  H88  1  0.23283084  0.79677429  0.64564748  1
  H  H89  1  0.26716916  0.29677429  0.85435252  1
  H  H90  1  0.26716916  0.20322571  0.14564748  1
  H  H91  1  0.23283084  0.70322571  0.35435252  1
  H  H92  1  0.76716916  0.20322571  0.35435252  1
  H  H93  1  0.73283084  0.70322571  0.14564748  1
  H  H94  1  0.73283084  0.79677429  0.85435252  1
  H  H95  1  0.76716916  0.29677429  0.64564748  1
  N  N96  1  0.02703788  0.03599310  0.79673714  1
  N  N97  1  0.47296212  0.53599310  0.70326286  1
  N  N98  1  0.47296212  0.96400690  0.29673714  1
  N  N99  1  0.02703788  0.46400690  0.20326286  1
  N  N100  1  0.97296212  0.96400690  0.20326286  1
  N  N101  1  0.52703788  0.46400690  0.29673714  1
  N  N102  1  0.52703788  0.03599310  0.70326286  1
  N  N103  1  0.97296212  0.53599310  0.79673714  1
  N  N104  1  0.17620304  0.83681666  0.61421925  1
  N  N105  1  0.32379696  0.33681666  0.88578075  1
  N  N106  1  0.32379696  0.16318334  0.11421925  1
  N  N107  1  0.17620304  0.66318334  0.38578075  1
  N  N108  1  0.82379696  0.16318334  0.38578075  1
  N  N109  1  0.67620304  0.66318334  0.11421925  1
  N  N110  1  0.67620304  0.83681666  0.88578075  1
  N  N111  1  0.82379696  0.33681666  0.61421925  1
  Cl  Cl112  1  0.26144112  0.34905996  0.27768185  1
  Cl  Cl113  1  0.23855888  0.84905996  0.22231815  1
  Cl  Cl114  1  0.23855888  0.65094004  0.77768185  1
  Cl  Cl115  1  0.26144112  0.15094004  0.72231815  1
  Cl  Cl116  1  0.73855888  0.65094004  0.72231815  1
  Cl  Cl117  1  0.76144112  0.15094004  0.77768185  1
  Cl  Cl118  1  0.76144112  0.34905996  0.22231815  1
  Cl  Cl119  1  0.73855888  0.84905996  0.27768185  1
  Cl  Cl120  1  0.34599895  0.47196246  0.48576788  1
  Cl  Cl121  1  0.15400105  0.97196246  0.01423212  1
  Cl  Cl122  1  0.15400105  0.52803754  0.98576788  1
  Cl  Cl123  1  0.34599895  0.02803754  0.51423212  1
  Cl  Cl124  1  0.65400105  0.52803754  0.51423212  1
  Cl  Cl125  1  0.84599895  0.02803754  0.98576788  1
  Cl  Cl126  1  0.84599895  0.47196246  0.01423212  1
  Cl  Cl127  1  0.65400105  0.97196246  0.48576788  1
  Cl  Cl128  1  0.16870054  0.39390631  0.65618925  1
  Cl  Cl129  1  0.33129946  0.89390631  0.84381075  1
  Cl  Cl130  1  0.33129946  0.60609369  0.15618925  1
  Cl  Cl131  1  0.16870054  0.10609369  0.34381075  1
  Cl  Cl132  1  0.83129946  0.60609369  0.34381075  1
  Cl  Cl133  1  0.66870054  0.10609369  0.15618925  1
  Cl  Cl134  1  0.66870054  0.39390631  0.84381075  1
  Cl  Cl135  1  0.83129946  0.89390631  0.65618925  1
  Cl  Cl136  1  0.47987152  0.28711084  0.61423146  1
  Cl  Cl137  1  0.02012848  0.78711084  0.88576854  1
  Cl  Cl138  1  0.02012848  0.71288916  0.11423146  1
  Cl  Cl139  1  0.47987152  0.21288916  0.38576854  1
  Cl  Cl140  1  0.52012848  0.71288916  0.38576854  1
  Cl  Cl141  1  0.97987152  0.21288916  0.11423146  1
  Cl  Cl142  1  0.97987152  0.28711084  0.88576854  1
  Cl  Cl143  1  0.52012848  0.78711084  0.61423146  1
  Cl  Cl144  1  0.03758862  0.36267215  0.44225453  1
  Cl  Cl145  1  0.46241138  0.86267215  0.05774547  1
  Cl  Cl146  1  0.46241138  0.63732785  0.94225453  1
  Cl  Cl147  1  0.03758862  0.13732785  0.55774547  1
  Cl  Cl148  1  0.96241138  0.63732785  0.55774547  1
  Cl  Cl149  1  0.53758862  0.13732785  0.94225453  1
  Cl  Cl150  1  0.53758862  0.36267215  0.05774547  1
  Cl  Cl151  1  0.96241138  0.86267215  0.44225453  1
