# generated using pymatgen
data_SrV6O11
_symmetry_space_group_name_H-M   'P 1'
_cell_length_a   5.98381647
_cell_length_b   5.89370357
_cell_length_c   13.18432414
_cell_angle_alpha   90.00000000
_cell_angle_beta   90.00000000
_cell_angle_gamma   119.55052115
_symmetry_Int_Tables_number   1
_chemical_formula_structural   SrV6O11
_chemical_formula_sum   'Sr2 V12 O22'
_cell_volume   404.48676791
_cell_formula_units_Z   2
loop_
 _symmetry_equiv_pos_site_id
 _symmetry_equiv_pos_as_xyz
  1  'x, y, z'
loop_
 _atom_site_type_symbol
 _atom_site_label
 _atom_site_symmetry_multiplicity
 _atom_site_fract_x
 _atom_site_fract_y
 _atom_site_fract_z
 _atom_site_occupancy
  Sr  Sr0  1  0.33219023  0.66426564  0.24772528  1
  Sr  Sr1  1  0.66780977  0.33573436  0.74772528  1
  V  V2  1  0.50055486  0.49773995  0.99999183  1
  V  V3  1  0.00015836  0.50019712  0.99985408  1
  V  V4  1  0.50054960  0.00095406  0.99970893  1
  V  V5  1  0.49944514  0.50226005  0.49999183  1
  V  V6  1  0.99984164  0.49980288  0.49985408  1
  V  V7  1  0.49945040  0.99904594  0.49970893  1
  V  V8  1  0.00434322  -0.00028129  0.35580296  1
  V  V9  1  0.99565678  0.00028129  0.85580296  1
  V  V10  1  0.00143702  0.99829651  0.14302922  1
  V  V11  1  0.99856298  0.00170349  0.64302922  1
  V  V12  1  0.33818874  0.66749155  0.75194906  1
  V  V13  1  0.66181126  0.33250845  0.25194906  1
  O  O14  1  0.17691878  0.34891618  0.41821279  1
  O  O15  1  0.17702217  0.82535002  0.41722415  1
  O  O16  1  0.64329072  0.80954850  0.41895188  1
  O  O17  1  0.82308122  0.65108382  0.91821279  1
  O  O18  1  0.82297783  0.17464998  0.91722415  1
  O  O19  1  0.35670928  0.19045150  0.91895188  1
  O  O20  1  0.17762680  0.34859283  0.08123835  1
  O  O21  1  0.17759078  0.82593779  0.08214473  1
  O  O22  1  0.64326498  0.81037830  0.07976768  1
  O  O23  1  0.82237320  0.65140717  0.58123835  1
  O  O24  1  0.82240922  0.17406221  0.58214473  1
  O  O25  1  0.35673502  0.18962170  0.57976768  1
  O  O26  1  0.31751582  0.16199594  0.24980825  1
  O  O27  1  0.84863011  0.70067382  0.25013386  1
  O  O28  1  0.84730870  0.15488920  0.25027151  1
  O  O29  1  0.68248418  0.83800406  0.74980825  1
  O  O30  1  0.15136989  0.29932618  0.75013386  1
  O  O31  1  0.15269130  0.84511080  0.75027151  1
  O  O32  1  0.33821847  0.66101700  0.90907329  1
  O  O33  1  0.66178153  0.33898300  0.40907329  1
  O  O34  1  0.66307398  0.34074358  0.09098215  1
  O  O35  1  0.33692602  0.65925642  0.59098215  1
