# generated using pymatgen
data_LaVH2I4O15
_symmetry_space_group_name_H-M   'P 1'
_cell_length_a   7.25407461
_cell_length_b   7.35905707
_cell_length_c   14.28386478
_cell_angle_alpha   90.00000000
_cell_angle_beta   90.00000000
_cell_angle_gamma   115.48156863
_symmetry_Int_Tables_number   1
_chemical_formula_structural   LaVH2I4O15
_chemical_formula_sum   'La2 V2 H4 I8 O30'
_cell_volume   688.34280424
_cell_formula_units_Z   2
loop_
 _symmetry_equiv_pos_site_id
 _symmetry_equiv_pos_as_xyz
  1  'x, y, z'
loop_
 _atom_site_type_symbol
 _atom_site_label
 _atom_site_symmetry_multiplicity
 _atom_site_fract_x
 _atom_site_fract_y
 _atom_site_fract_z
 _atom_site_occupancy
  La  La0  1  0.08536511  0.43091536  0.24384528  1
  La  La1  1  0.91463489  0.56908464  0.74384528  1
  V  V2  1  0.57090687  0.78354018  0.07162096  1
  V  V3  1  0.42909313  0.21645982  0.57162096  1
  H  H4  1  0.83015713  0.62485366  0.44325910  1
  H  H5  1  0.16984287  0.37514634  0.94325910  1
  H  H6  1  0.77058608  0.71470121  0.53069900  1
  H  H7  1  0.22941392  0.28529879  0.03069900  1
  I  I8  1  0.14575252  0.92929886  0.11010891  1
  I  I9  1  0.85424748  0.07070114  0.61010891  1
  I  I10  1  0.74896410  0.30228811  0.99784696  1
  I  I11  1  0.25103590  0.69771189  0.49784696  1
  I  I12  1  0.47450829  0.23372270  0.33507723  1
  I  I13  1  0.52549171  0.76627730  0.83507723  1
  I  I14  1  0.74434786  0.86724624  0.30137043  1
  I  I15  1  0.25565214  0.13275376  0.80137043  1
  O  O16  1  0.19906471  0.18073138  0.15392811  1
  O  O17  1  0.80093529  0.81926862  0.65392811  1
  O  O18  1  0.08901347  0.78675696  0.21978651  1
  O  O19  1  0.91098653  0.21324304  0.71978651  1
  O  O20  1  0.41634293  0.99040591  0.09134223  1
  O  O21  1  0.58365707  0.00959409  0.59134223  1
  O  O22  1  0.94011718  0.41584371  0.08932260  1
  O  O23  1  0.05988282  0.58415629  0.58932260  1
  O  O24  1  0.75729306  0.05464160  0.99323726  1
  O  O25  1  0.24270694  0.94535840  0.49323726  1
  O  O26  1  0.08030894  0.58195477  0.39916801  1
  O  O27  1  0.91969106  0.41804523  0.89916801  1
  O  O28  1  0.71237043  0.35639023  0.27138655  1
  O  O29  1  0.28762957  0.64360977  0.77138655  1
  O  O30  1  0.59219712  0.28224628  0.45416094  1
  O  O31  1  0.40780288  0.71775372  0.95416094  1
  O  O32  1  0.39184199  0.43669712  0.32916823  1
  O  O33  1  0.60815801  0.56330288  0.82916823  1
  O  O34  1  0.52111594  0.89586112  0.34376683  1
  O  O35  1  0.47888406  0.10413888  0.84376683  1
  O  O36  1  0.74887689  0.95120648  0.17613127  1
  O  O37  1  0.25112311  0.04879352  0.67613127  1
  O  O38  1  0.94933918  0.10537438  0.33723645  1
  O  O39  1  0.05066082  0.89462562  0.83723645  1
  O  O40  1  0.38719021  0.61650491  0.14140147  1
  O  O41  1  0.61280979  0.38349509  0.64140147  1
  O  O42  1  0.72300108  0.67613415  0.04183778  1
  O  O43  1  0.27699892  0.32386585  0.54183778  1
  O  O44  1  0.76471926  0.71209688  0.46157788  1
  O  O45  1  0.23528074  0.28790312  0.96157788  1
