# generated using pymatgen
data_Er6(Ga3Co)7
_symmetry_space_group_name_H-M   'P 1'
_cell_length_a   4.13673994
_cell_length_b   16.59377028
_cell_length_c   16.59377028
_cell_angle_alpha   90.00000000
_cell_angle_beta   90.00000000
_cell_angle_gamma   90.00000000
_symmetry_Int_Tables_number   1
_chemical_formula_structural   Er6(Ga3Co)7
_chemical_formula_sum   'Er12 Ga42 Co14'
_cell_volume   1139.06463012
_cell_formula_units_Z   2
loop_
 _symmetry_equiv_pos_site_id
 _symmetry_equiv_pos_as_xyz
  1  'x, y, z'
loop_
 _atom_site_type_symbol
 _atom_site_label
 _atom_site_symmetry_multiplicity
 _atom_site_fract_x
 _atom_site_fract_y
 _atom_site_fract_z
 _atom_site_occupancy
  Er  Er0  1  0.50000000  0.10794895  0.60794895  1
  Er  Er1  1  0.50000000  0.89205105  0.39205105  1
  Er  Er2  1  0.50000000  0.39205105  0.10794895  1
  Er  Er3  1  0.50000000  0.60794895  0.89205105  1
  Er  Er4  1  0.00000000  0.65746476  0.58675855  1
  Er  Er5  1  -0.00000000  0.34253524  0.41324145  1
  Er  Er6  1  -0.00000000  0.84253524  0.08675855  1
  Er  Er7  1  0.00000000  0.15746476  0.91324145  1
  Er  Er8  1  0.00000000  0.58675855  0.34253524  1
  Er  Er9  1  -0.00000000  0.41324145  0.65746476  1
  Er  Er10  1  -0.00000000  0.08675855  0.15746476  1
  Er  Er11  1  0.00000000  0.91324145  0.84253524  1
  Ga  Ga12  1  0.00000000  0.00000000  0.50000000  1
  Ga  Ga13  1  0.00000000  0.50000000  0.00000000  1
  Ga  Ga14  1  -0.00000000  0.32051345  0.82051345  1
  Ga  Ga15  1  0.00000000  0.67948655  0.17948655  1
  Ga  Ga16  1  0.00000000  0.17948655  0.32051345  1
  Ga  Ga17  1  -0.00000000  0.82051345  0.67948655  1
  Ga  Ga18  1  0.50000000  0.42620339  0.92620339  1
  Ga  Ga19  1  0.50000000  0.57379661  0.07379661  1
  Ga  Ga20  1  0.50000000  0.07379661  0.42620339  1
  Ga  Ga21  1  0.50000000  0.92620339  0.57379661  1
  Ga  Ga22  1  0.00000000  0.57511689  0.75791378  1
  Ga  Ga23  1  -0.00000000  0.42488311  0.24208622  1
  Ga  Ga24  1  0.00000000  0.92488311  0.25791378  1
  Ga  Ga25  1  -0.00000000  0.07511689  0.74208622  1
  Ga  Ga26  1  -0.00000000  0.75791378  0.42488311  1
  Ga  Ga27  1  0.00000000  0.24208622  0.57511689  1
  Ga  Ga28  1  -0.00000000  0.25791378  0.07511689  1
  Ga  Ga29  1  0.00000000  0.74208622  0.92488311  1
  Ga  Ga30  1  0.50000000  0.53231703  0.61203066  1
  Ga  Ga31  1  0.50000000  0.46768297  0.38796934  1
  Ga  Ga32  1  0.50000000  0.96768297  0.11203066  1
  Ga  Ga33  1  0.50000000  0.03231703  0.88796934  1
  Ga  Ga34  1  0.50000000  0.61203066  0.46768297  1
  Ga  Ga35  1  0.50000000  0.38796934  0.53231703  1
  Ga  Ga36  1  0.50000000  0.11203066  0.03231703  1
  Ga  Ga37  1  0.50000000  0.88796934  0.96768297  1
  Ga  Ga38  1  0.50000000  0.67946691  0.70889416  1
  Ga  Ga39  1  0.50000000  0.32053309  0.29110584  1
  Ga  Ga40  1  0.50000000  0.82053309  0.20889416  1
  Ga  Ga41  1  0.50000000  0.17946691  0.79110584  1
  Ga  Ga42  1  0.50000000  0.70889416  0.32053309  1
  Ga  Ga43  1  0.50000000  0.29110584  0.67946691  1
  Ga  Ga44  1  0.50000000  0.20889416  0.17946691  1
  Ga  Ga45  1  0.50000000  0.79110584  0.82053309  1
  Ga  Ga46  1  0.50000000  0.77187430  0.54403456  1
  Ga  Ga47  1  0.50000000  0.22812570  0.45596544  1
  Ga  Ga48  1  0.50000000  0.72812570  0.04403456  1
  Ga  Ga49  1  0.50000000  0.27187430  0.95596544  1
  Ga  Ga50  1  0.50000000  0.54403456  0.22812570  1
  Ga  Ga51  1  0.50000000  0.45596544  0.77187430  1
  Ga  Ga52  1  0.50000000  0.04403456  0.27187430  1
  Ga  Ga53  1  0.50000000  0.95596544  0.72812570  1
  Co  Co54  1  0.00000000  0.21870797  0.71870797  1
  Co  Co55  1  -0.00000000  0.78129203  0.28129203  1
  Co  Co56  1  -0.00000000  0.28129203  0.21870797  1
  Co  Co57  1  0.00000000  0.71870797  0.78129203  1
  Co  Co58  1  -0.00000000  0.96435885  0.64865858  1
  Co  Co59  1  0.00000000  0.03564115  0.35134142  1
  Co  Co60  1  -0.00000000  0.53564115  0.14865858  1
  Co  Co61  1  0.00000000  0.46435885  0.85134142  1
  Co  Co62  1  0.00000000  0.64865858  0.03564115  1
  Co  Co63  1  -0.00000000  0.35134142  0.96435885  1
  Co  Co64  1  0.00000000  0.14865858  0.46435885  1
  Co  Co65  1  -0.00000000  0.85134142  0.53564115  1
  Co  Co66  1  0.00000000  0.50000000  0.50000000  1
  Co  Co67  1  0.00000000  0.00000000  0.00000000  1
