# generated using pymatgen
data_Y5(Si5Ir2)2
_symmetry_space_group_name_H-M   'P 1'
_cell_length_a   4.28521570
_cell_length_b   12.66164216
_cell_length_c   12.66164216
_cell_angle_alpha   90.00000000
_cell_angle_beta   90.00000000
_cell_angle_gamma   90.00000000
_symmetry_Int_Tables_number   1
_chemical_formula_structural   Y5(Si5Ir2)2
_chemical_formula_sum   'Y10 Si20 Ir8'
_cell_volume   686.99370609
_cell_formula_units_Z   2
loop_
 _symmetry_equiv_pos_site_id
 _symmetry_equiv_pos_as_xyz
  1  'x, y, z'
loop_
 _atom_site_type_symbol
 _atom_site_label
 _atom_site_symmetry_multiplicity
 _atom_site_fract_x
 _atom_site_fract_y
 _atom_site_fract_z
 _atom_site_occupancy
  Y  Y0  1  0.00000000  0.50000000  0.50000000  1
  Y  Y1  1  -0.00000000  -0.00000000  0.00000000  1
  Y  Y2  1  0.50000000  0.17576208  0.67576208  1
  Y  Y3  1  0.50000000  0.82423792  0.32423792  1
  Y  Y4  1  0.50000000  0.32423792  0.17576208  1
  Y  Y5  1  0.50000000  0.67576208  0.82423792  1
  Y  Y6  1  0.50000000  0.38362454  0.88362454  1
  Y  Y7  1  0.50000000  0.61637546  0.11637546  1
  Y  Y8  1  0.50000000  0.11637546  0.38362454  1
  Y  Y9  1  0.50000000  0.88362454  0.61637546  1
  Si  Si10  1  0.00000000  0.06612212  0.56612212  1
  Si  Si11  1  -0.00000000  0.93387788  0.43387788  1
  Si  Si12  1  -0.00000000  0.43387788  0.06612212  1
  Si  Si13  1  0.00000000  0.56612212  0.93387788  1
  Si  Si14  1  -0.00000000  0.70041733  0.66350947  1
  Si  Si15  1  0.00000000  0.29958267  0.33649053  1
  Si  Si16  1  -0.00000000  0.79958267  0.16350947  1
  Si  Si17  1  0.00000000  0.20041733  0.83649053  1
  Si  Si18  1  0.00000000  0.66350947  0.29958267  1
  Si  Si19  1  -0.00000000  0.33649053  0.70041733  1
  Si  Si20  1  0.00000000  0.16350947  0.20041733  1
  Si  Si21  1  -0.00000000  0.83649053  0.79958267  1
  Si  Si22  1  0.50000000  0.50333180  0.65733111  1
  Si  Si23  1  0.50000000  0.49666820  0.34266889  1
  Si  Si24  1  0.50000000  0.99666820  0.15733111  1
  Si  Si25  1  0.50000000  0.00333180  0.84266889  1
  Si  Si26  1  0.50000000  0.65733111  0.49666820  1
  Si  Si27  1  0.50000000  0.34266889  0.50333180  1
  Si  Si28  1  0.50000000  0.15733111  0.00333180  1
  Si  Si29  1  0.50000000  0.84266889  0.99666820  1
  Ir  Ir30  1  -0.00000000  0.52054470  0.74539210  1
  Ir  Ir31  1  0.00000000  0.47945530  0.25460790  1
  Ir  Ir32  1  0.00000000  0.97945530  0.24539210  1
  Ir  Ir33  1  -0.00000000  0.02054470  0.75460790  1
  Ir  Ir34  1  -0.00000000  0.74539210  0.47945530  1
  Ir  Ir35  1  0.00000000  0.25460790  0.52054470  1
  Ir  Ir36  1  0.00000000  0.24539210  0.02054470  1
  Ir  Ir37  1  -0.00000000  0.75460790  0.97945530  1
