# generated using pymatgen
data_Ga2Sb2H16C4S7N2
_symmetry_space_group_name_H-M   'P 1'
_cell_length_a   10.35849663
_cell_length_b   12.74622256
_cell_length_c   16.41040638
_cell_angle_alpha   90.00000000
_cell_angle_beta   90.66825506
_cell_angle_gamma   90.00000000
_symmetry_Int_Tables_number   1
_chemical_formula_structural   Ga2Sb2H16C4S7N2
_chemical_formula_sum   'Ga8 Sb8 H64 C16 S28 N8'
_cell_volume   2166.54654040
_cell_formula_units_Z   4
loop_
 _symmetry_equiv_pos_site_id
 _symmetry_equiv_pos_as_xyz
  1  'x, y, z'
loop_
 _atom_site_type_symbol
 _atom_site_label
 _atom_site_symmetry_multiplicity
 _atom_site_fract_x
 _atom_site_fract_y
 _atom_site_fract_z
 _atom_site_occupancy
  Ga  Ga0  1  0.89975493  0.06727176  0.71702200  1
  Ga  Ga1  1  0.10024507  0.56727176  0.78297800  1
  Ga  Ga2  1  0.10024507  0.93272824  0.28297800  1
  Ga  Ga3  1  0.89975493  0.43272824  0.21702200  1
  Ga  Ga4  1  0.60439276  0.20088310  0.72484064  1
  Ga  Ga5  1  0.39560724  0.70088310  0.77515936  1
  Ga  Ga6  1  0.39560724  0.79911690  0.27515936  1
  Ga  Ga7  1  0.60439276  0.29911690  0.22484064  1
  Sb  Sb8  1  0.89452180  0.34128477  0.75264794  1
  Sb  Sb9  1  0.10547820  0.84128477  0.74735206  1
  Sb  Sb10  1  0.10547820  0.65871523  0.24735206  1
  Sb  Sb11  1  0.89452180  0.15871523  0.25264794  1
  Sb  Sb12  1  0.60862407  0.92245754  0.74314699  1
  Sb  Sb13  1  0.39137593  0.42245754  0.75685301  1
  Sb  Sb14  1  0.39137593  0.07754246  0.25685301  1
  Sb  Sb15  1  0.60862407  0.57754246  0.24314699  1
  H  H16  1  0.31009581  0.16178752  0.63586584  1
  H  H17  1  0.68990419  0.66178752  0.86413416  1
  H  H18  1  0.68990419  0.83821248  0.36413416  1
  H  H19  1  0.31009581  0.33821248  0.13586584  1
  H  H20  1  0.19469946  0.06777273  0.61900969  1
  H  H21  1  0.80530054  0.56777273  0.88099031  1
  H  H22  1  0.80530054  0.93222727  0.38099031  1
  H  H23  1  0.19469946  0.43222727  0.11900969  1
  H  H24  1  0.40366231  0.00620301  0.58053997  1
  H  H25  1  0.59633769  0.50620301  0.91946003  1
  H  H26  1  0.59633769  0.99379699  0.41946003  1
  H  H27  1  0.40366231  0.49379699  0.08053997  1
  H  H28  1  0.29945716  0.01909979  0.49287012  1
  H  H29  1  0.70054284  0.51909979  0.00712988  1
  H  H30  1  0.70054284  0.98090021  0.50712988  1
  H  H31  1  0.29945716  0.48090021  0.99287012  1
  H  H32  1  0.41971843  0.11798580  0.51451010  1
  H  H33  1  0.58028157  0.61798580  0.98548990  1
  H  H34  1  0.58028157  0.88201420  0.48548990  1
  H  H35  1  0.41971843  0.38201420  0.01451010  1
  H  H36  1  0.11587053  0.23778738  0.58487458  1
  H  H37  1  0.88412947  0.73778738  0.91512542  1
  H  H38  1  0.88412947  0.76221262  0.41512542  1
  H  H39  1  0.11587053  0.26221262  0.08487458  1
  H  H40  1  0.24703831  0.25394687  0.51555148  1
  H  H41  1  0.75296169  0.75394687  0.98444852  1
  H  H42  1  0.75296169  0.74605313  0.48444852  1
  H  H43  1  0.24703831  0.24605313  0.01555148  1
  H  H44  1  0.12629271  0.15489038  0.49590130  1
  H  H45  1  0.87370729  0.65489038  0.00409870  1
  H  H46  1  0.87370729  0.84510962  0.50409870  1
  H  H47  1  0.12629271  0.34510962  0.99590130  1
  H  H48  1  0.71153714  0.18214167  0.03970991  1
  H  H49  1  0.28846286  0.68214167  0.46029009  1
  H  H50  1  0.28846286  0.81785833  0.96029009  1
  H  H51  1  0.71153714  0.31785833  0.53970991  1
  H  H52  1  0.71204245  0.13462563  0.94452838  1
  H  H53  1  0.28795755  0.63462563  0.55547162  1
  H  H54  1  0.28795755  0.86537437  0.05547162  1
  H  H55  1  0.71204245  0.36537437  0.44452838  1
  H  H56  1  0.90573983  0.22460981  0.97245059  1
  H  H57  1  0.09426017  0.72460981  0.52754941  1
  H  H58  1  0.09426017  0.77539019  0.02754941  1
  H  H59  1  0.90573983  0.27539019  0.47245059  1
  H  H60  1  0.93643021  0.13793462  0.05749352  1
  H  H61  1  0.06356979  0.63793462  0.44250648  1
  H  H62  1  0.06356979  0.86206538  0.94250648  1
  H  H63  1  0.93643021  0.36206538  0.55749352  1
  H  H64  1  0.93342735  0.08794587  0.95436561  1
  H  H65  1  0.06657265  0.58794587  0.54563439  1
  H  H66  1  0.06657265  0.91205413  0.04563439  1
  H  H67  1  0.93342735  0.41205413  0.45436561  1
  H  H68  1  0.61528098  0.01146275  0.03968598  1
  H  H69  1  0.38471902  0.51146275  0.46031402  1
  H  H70  1  0.38471902  0.98853725  0.96031402  1
  H  H71  1  0.61528098  0.48853725  0.53968598  1
  H  H72  1  0.75938825  0.95993376  0.99391519  1
  H  H73  1  0.24061175  0.45993376  0.50608481  1
  H  H74  1  0.24061175  0.04006624  0.00608481  1
  H  H75  1  0.75938825  0.54006624  0.49391519  1
  H  H76  1  0.76335328  0.01128093  0.09631413  1
  H  H77  1  0.23664672  0.51128093  0.40368587  1
  H  H78  1  0.23664672  0.98871907  0.90368587  1
  H  H79  1  0.76335328  0.48871907  0.59631413  1
  C  C80  1  0.35210804  0.06165780  0.54095600  1
  C  C81  1  0.64789196  0.56165780  0.95904400  1
  C  C82  1  0.64789196  0.93834220  0.45904400  1
  C  C83  1  0.35210804  0.43834220  0.04095600  1
  C  C84  1  0.18082673  0.19746126  0.54310023  1
  C  C85  1  0.81917327  0.69746126  0.95689977  1
  C  C86  1  0.81917327  0.80253874  0.45689977  1
  C  C87  1  0.18082673  0.30253874  0.04310023  1
  C  C88  1  0.89283768  0.14532086  0.99647519  1
  C  C89  1  0.10716232  0.64532086  0.50352481  1
  C  C90  1  0.10716232  0.85467914  0.00352481  1
  C  C91  1  0.89283768  0.35467914  0.49647519  1
  C  C92  1  0.72025150  0.01890875  0.03532637  1
  C  C93  1  0.27974850  0.51890875  0.46467363  1
  C  C94  1  0.27974850  0.98109125  0.96467363  1
  C  C95  1  0.72025150  0.48109125  0.53532637  1
  S  S96  1  0.03464683  0.18885167  0.77676873  1
  S  S97  1  0.96535317  0.68885167  0.72323127  1
  S  S98  1  0.96535317  0.81114833  0.22323127  1
  S  S99  1  0.03464683  0.31114833  0.27676873  1
  S  S100  1  0.70196572  0.28946215  0.83131296  1
  S  S101  1  0.29803428  0.78946215  0.66868704  1
  S  S102  1  0.29803428  0.71053785  0.16868704  1
  S  S103  1  0.70196572  0.21053785  0.33131296  1
  S  S104  1  0.80681020  0.97028387  0.81969330  1
  S  S105  1  0.19318980  0.47028387  0.68030670  1
  S  S106  1  0.19318980  0.02971613  0.18030670  1
  S  S107  1  0.80681020  0.52971613  0.31969330  1
  S  S108  1  0.47340703  0.07394506  0.77777925  1
  S  S109  1  0.52659297  0.57394506  0.72222075  1
  S  S110  1  0.52659297  0.92605494  0.22222075  1
  S  S111  1  0.47340703  0.42605494  0.27777925  1
  S  S112  1  0.74899663  0.14148152  0.63097835  1
  S  S113  1  0.25100337  0.64148152  0.86902165  1
  S  S114  1  0.25100337  0.85851848  0.36902165  1
  S  S115  1  0.74899663  0.35851848  0.13097835  1
  S  S116  1  0.02380559  0.95633825  0.63711710  1
  S  S117  1  0.97619441  0.45633825  0.86288290  1
  S  S118  1  0.97619441  0.04366175  0.36288290  1
  S  S119  1  0.02380559  0.54366175  0.13711710  1
  S  S120  1  0.47269072  0.30947611  0.64658889  1
  S  S121  1  0.52730928  0.80947611  0.85341111  1
  S  S122  1  0.52730928  0.69052389  0.35341111  1
  S  S123  1  0.47269072  0.19052389  0.14658889  1
  N  N124  1  0.25869588  0.12096008  0.59120441  1
  N  N125  1  0.74130412  0.62096008  0.90879559  1
  N  N126  1  0.74130412  0.87903992  0.40879559  1
  N  N127  1  0.25869588  0.37903992  0.09120441  1
  N  N128  1  0.75183765  0.12477141  0.00264002  1
  N  N129  1  0.24816235  0.62477141  0.49735998  1
  N  N130  1  0.24816235  0.87522859  0.99735998  1
  N  N131  1  0.75183765  0.37522859  0.50264002  1
