# generated using pymatgen
data_H8PbC5S2IN
_symmetry_space_group_name_H-M   'P 1'
_cell_length_a   4.98706980
_cell_length_b   11.45990790
_cell_length_c   20.69057390
_cell_angle_alpha   90.00000000
_cell_angle_beta   94.78397175
_cell_angle_gamma   90.00000000
_symmetry_Int_Tables_number   1
_chemical_formula_structural   H8PbC5S2IN
_chemical_formula_sum   'H32 Pb4 C20 S8 I4 N4'
_cell_volume   1178.37491075
_cell_formula_units_Z   4
loop_
 _symmetry_equiv_pos_site_id
 _symmetry_equiv_pos_as_xyz
  1  'x, y, z'
loop_
 _atom_site_type_symbol
 _atom_site_label
 _atom_site_symmetry_multiplicity
 _atom_site_fract_x
 _atom_site_fract_y
 _atom_site_fract_z
 _atom_site_occupancy
  H  H0  1  0.08072815  0.46980462  0.57019638  1
  H  H1  1  0.91927185  0.96980462  0.92980362  1
  H  H2  1  0.91927185  0.53019538  0.42980362  1
  H  H3  1  0.08072815  0.03019538  0.07019638  1
  H  H4  1  0.80433513  0.56841628  0.56357106  1
  H  H5  1  0.19566487  0.06841628  0.93642894  1
  H  H6  1  0.19566487  0.43158372  0.43642894  1
  H  H7  1  0.80433513  0.93158372  0.06357106  1
  H  H8  1  0.12284714  0.69413990  0.62289545  1
  H  H9  1  0.87715286  0.19413990  0.87710455  1
  H  H10  1  0.87715286  0.30586010  0.37710455  1
  H  H11  1  0.12284714  0.80586010  0.12289545  1
  H  H12  1  0.30794087  0.57373777  0.65748035  1
  H  H13  1  0.69205913  0.07373777  0.84251965  1
  H  H14  1  0.69205913  0.42626223  0.34251965  1
  H  H15  1  0.30794087  0.92626223  0.15748035  1
  H  H16  1  0.78214758  0.67558314  0.69858474  1
  H  H17  1  0.21785242  0.17558314  0.80141526  1
  H  H18  1  0.21785242  0.32441686  0.30141526  1
  H  H19  1  0.78214758  0.82441686  0.19858474  1
  H  H20  1  0.06997212  0.63218971  0.74928979  1
  H  H21  1  0.93002788  0.13218971  0.75071021  1
  H  H22  1  0.93002788  0.36781029  0.25071021  1
  H  H23  1  0.06997212  0.86781029  0.24928979  1
  H  H24  1  0.96291651  0.42755372  0.73668855  1
  H  H25  1  0.03708349  0.92755372  0.76331145  1
  H  H26  1  0.03708349  0.57244628  0.26331145  1
  H  H27  1  0.96291651  0.07244628  0.23668855  1
  H  H28  1  0.63100190  0.48483141  0.72885767  1
  H  H29  1  0.36899810  0.98483141  0.77114233  1
  H  H30  1  0.36899810  0.51516859  0.27114233  1
  H  H31  1  0.63100190  0.01516859  0.22885767  1
  Pb  Pb32  1  0.27896633  0.14547419  0.56403296  1
  Pb  Pb33  1  0.72103367  0.64547419  0.93596704  1
  Pb  Pb34  1  0.72103367  0.85452581  0.43596704  1
  Pb  Pb35  1  0.27896633  0.35452581  0.06403296  1
  C  C36  1  0.65476057  0.35501022  0.61969459  1
  C  C37  1  0.34523943  0.85501022  0.88030541  1
  C  C38  1  0.34523943  0.64498978  0.38030541  1
  C  C39  1  0.65476057  0.14498978  0.11969459  1
  C  C40  1  0.94890693  0.52321542  0.59816889  1
  C  C41  1  0.05109307  0.02321542  0.90183111  1
  C  C42  1  0.05109307  0.47678458  0.40183111  1
  C  C43  1  0.94890693  0.97678458  0.09816889  1
  C  C44  1  0.10461527  0.60763653  0.64473555  1
  C  C45  1  0.89538473  0.10763653  0.85526445  1
  C  C46  1  0.89538473  0.39236347  0.35526445  1
  C  C47  1  0.10461527  0.89236347  0.14473555  1
  C  C48  1  0.94392778  0.61046111  0.70487620  1
  C  C49  1  0.05607222  0.11046111  0.79512380  1
  C  C50  1  0.05607222  0.38953889  0.29512380  1
  C  C51  1  0.94392778  0.88953889  0.20487620  1
  C  C52  1  0.82670017  0.48779783  0.70832506  1
  C  C53  1  0.17329983  0.98779783  0.79167494  1
  C  C54  1  0.17329983  0.51220217  0.29167494  1
  C  C55  1  0.82670017  0.01220217  0.20832506  1
  S  S56  1  0.65934310  0.31184517  0.53912547  1
  S  S57  1  0.34065690  0.81184517  0.96087453  1
  S  S58  1  0.34065690  0.68815483  0.46087453  1
  S  S59  1  0.65934310  0.18815483  0.03912547  1
  S  S60  1  0.46817714  0.27936811  0.67223045  1
  S  S61  1  0.53182286  0.77936811  0.82776955  1
  S  S62  1  0.53182286  0.72063189  0.32776955  1
  S  S63  1  0.46817714  0.22063189  0.17223045  1
  I  I64  1  0.66275354  0.94235894  0.59894644  1
  I  I65  1  0.33724646  0.44235894  0.90105356  1
  I  I66  1  0.33724646  0.05764106  0.40105356  1
  I  I67  1  0.66275354  0.55764106  0.09894644  1
  N  N68  1  0.79778364  0.44776019  0.64030173  1
  N  N69  1  0.20221636  0.94776019  0.85969827  1
  N  N70  1  0.20221636  0.55223981  0.35969827  1
  N  N71  1  0.79778364  0.05223981  0.14030173  1
