# generated using pymatgen
data_Np2H2SeO10
_symmetry_space_group_name_H-M   'P 1'
_cell_length_a   6.01151086
_cell_length_b   10.53965852
_cell_length_c   13.54054580
_cell_angle_alpha   96.32336504
_cell_angle_beta   90.00000000
_cell_angle_gamma   90.00000000
_symmetry_Int_Tables_number   1
_chemical_formula_structural   Np2H2SeO10
_chemical_formula_sum   'Np8 H8 Se4 O40'
_cell_volume   852.69964546
_cell_formula_units_Z   4
loop_
 _symmetry_equiv_pos_site_id
 _symmetry_equiv_pos_as_xyz
  1  'x, y, z'
loop_
 _atom_site_type_symbol
 _atom_site_label
 _atom_site_symmetry_multiplicity
 _atom_site_fract_x
 _atom_site_fract_y
 _atom_site_fract_z
 _atom_site_occupancy
  Np  Np0  1  0.29212633  0.89777595  0.31252022  1
  Np  Np1  1  0.79212633  0.10222405  0.18747978  1
  Np  Np2  1  0.70787367  0.10222405  0.68747978  1
  Np  Np3  1  0.20787367  0.89777595  0.81252022  1
  Np  Np4  1  0.77988403  0.61330313  0.32725642  1
  Np  Np5  1  0.27988403  0.38669687  0.17274358  1
  Np  Np6  1  0.22011597  0.38669687  0.67274358  1
  Np  Np7  1  0.72011597  0.61330313  0.82725642  1
  H  H8  1  0.20775430  0.95398779  0.04330033  1
  H  H9  1  0.70775430  0.04601221  0.45669967  1
  H  H10  1  0.79224570  0.04601221  0.95669967  1
  H  H11  1  0.29224570  0.95398779  0.54330033  1
  H  H12  1  0.01755756  0.85528048  0.01602609  1
  H  H13  1  0.51755756  0.14471952  0.48397391  1
  H  H14  1  0.98244244  0.14471952  0.98397391  1
  H  H15  1  0.48244244  0.85528048  0.51602609  1
  Se  Se16  1  0.60044799  0.75835956  0.09985152  1
  Se  Se17  1  0.10044799  0.24164044  0.40014848  1
  Se  Se18  1  0.39955201  0.24164044  0.90014848  1
  Se  Se19  1  0.89955201  0.75835956  0.59985152  1
  O  O20  1  0.56088419  0.98288184  0.29397638  1
  O  O21  1  0.06088419  0.01711816  0.20602362  1
  O  O22  1  0.43911581  0.01711816  0.70602362  1
  O  O23  1  0.93911581  0.98288184  0.79397638  1
  O  O24  1  0.69373103  0.90437268  0.07941089  1
  O  O25  1  0.19373103  0.09562732  0.42058911  1
  O  O26  1  0.30626897  0.09562732  0.92058911  1
  O  O27  1  0.80626897  0.90437268  0.57941089  1
  O  O28  1  0.15770814  0.88769799  0.99244346  1
  O  O29  1  0.65770814  0.11230201  0.50755654  1
  O  O30  1  0.84229186  0.11230201  0.00755654  1
  O  O31  1  0.34229186  0.88769799  0.49244346  1
  O  O32  1  0.03150696  0.81196818  0.32986113  1
  O  O33  1  0.53150696  0.18803182  0.17013887  1
  O  O34  1  0.96849304  0.18803182  0.67013887  1
  O  O35  1  0.46849304  0.81196818  0.82986113  1
  O  O36  1  0.54284612  0.72700910  0.35496648  1
  O  O37  1  0.04284612  0.27299090  0.14503352  1
  O  O38  1  0.45715388  0.27299090  0.64503352  1
  O  O39  1  0.95715388  0.72700910  0.85496648  1
  O  O40  1  0.79170485  0.68987311  0.16708369  1
  O  O41  1  0.29170485  0.31012689  0.33291631  1
  O  O42  1  0.20829515  0.31012689  0.83291631  1
  O  O43  1  0.70829515  0.68987311  0.66708369  1
  O  O44  1  0.95006730  0.67349498  0.49284711  1
  O  O45  1  0.45006730  0.32650502  0.00715289  1
  O  O46  1  0.04993270  0.32650502  0.50715289  1
  O  O47  1  0.54993270  0.67349498  0.99284711  1
  O  O48  1  0.53520979  0.47746103  0.21311141  1
  O  O49  1  0.03520979  0.52253897  0.28688859  1
  O  O50  1  0.46479021  0.52253897  0.78688859  1
  O  O51  1  0.96479021  0.47746103  0.71311141  1
  O  O52  1  0.67772515  0.49223690  0.40405780  1
  O  O53  1  0.17772515  0.50776310  0.09594220  1
  O  O54  1  0.32227485  0.50776310  0.59594220  1
  O  O55  1  0.82227485  0.49223690  0.90405780  1
  O  O56  1  0.86073015  0.22382742  0.33458329  1
  O  O57  1  0.36073015  0.77617258  0.16541671  1
  O  O58  1  0.13926985  0.77617258  0.66541671  1
  O  O59  1  0.63926985  0.22382742  0.83458329  1
