# generated using pymatgen
data_NaZnAsO4
_symmetry_space_group_name_H-M   'P 1'
_cell_length_a   8.47028841
_cell_length_b   9.13233712
_cell_length_c   9.13241787
_cell_angle_alpha   120.00041790
_cell_angle_beta   90.00000000
_cell_angle_gamma   90.00000000
_symmetry_Int_Tables_number   1
_chemical_formula_structural   NaZnAsO4
_chemical_formula_sum   'Na6 Zn6 As6 O24'
_cell_volume   611.77920569
_cell_formula_units_Z   6
loop_
 _symmetry_equiv_pos_site_id
 _symmetry_equiv_pos_as_xyz
  1  'x, y, z'
loop_
 _atom_site_type_symbol
 _atom_site_label
 _atom_site_symmetry_multiplicity
 _atom_site_fract_x
 _atom_site_fract_y
 _atom_site_fract_z
 _atom_site_occupancy
  Na  Na0  1  0.81810512  0.33334442  0.66667482  1
  Na  Na1  1  0.31810512  0.66665558  0.33332518  1
  Na  Na2  1  0.29663878  0.00000413  0.00000386  1
  Na  Na3  1  0.79663878  0.99999587  0.99999614  1
  Na  Na4  1  0.35709455  0.33333720  0.66667020  1
  Na  Na5  1  0.85709455  0.66666280  0.33332980  1
  Zn  Zn6  1  0.60108184  0.67535304  0.02312969  1
  Zn  Zn7  1  0.60108459  0.97687440  0.65221687  1
  Zn  Zn8  1  0.60107965  0.34777466  0.32465094  1
  Zn  Zn9  1  0.10108184  0.32464696  0.97687031  1
  Zn  Zn10  1  0.10108459  0.02312560  0.34778313  1
  Zn  Zn11  1  0.10107965  0.65222534  0.67534906  1
  As  As12  1  0.48959720  0.02821034  0.33835801  1
  As  As13  1  0.48959497  0.66165827  0.68986566  1
  As  As14  1  0.48959724  0.31014333  0.97178729  1
  As  As15  1  0.98959720  0.97178966  0.66164199  1
  As  As16  1  0.98959497  0.33834173  0.31013434  1
  As  As17  1  0.98959724  0.68985667  0.02821271  1
  O  O18  1  0.62434580  0.19356139  0.42016087  1
  O  O19  1  0.62434335  0.57984802  0.77340677  1
  O  O20  1  0.62434637  0.22659915  0.80644333  1
  O  O21  1  0.12434580  0.80643861  0.57983913  1
  O  O22  1  0.12434335  0.42015198  0.22659323  1
  O  O23  1  0.12434637  0.77340085  0.19355667  1
  O  O24  1  0.31054102  0.13158237  0.38713561  1
  O  O25  1  0.31053907  0.61287997  0.74445305  1
  O  O26  1  0.31054014  0.25555370  0.86841750  1
  O  O27  1  0.81054102  0.86841763  0.61286439  1
  O  O28  1  0.81053907  0.38712003  0.25554695  1
  O  O29  1  0.81054014  0.74444630  0.13158250  1
  O  O30  1  0.50525868  0.90481406  0.43079951  1
  O  O31  1  0.50526039  0.56919517  0.47401245  1
  O  O32  1  0.50526118  0.52598632  0.09518337  1
  O  O33  1  0.00525868  0.09518594  0.56920049  1
  O  O34  1  0.00526039  0.43080483  0.52598755  1
  O  O35  1  0.00526118  0.47401368  0.90481663  1
  O  O36  1  0.50096376  0.90208606  0.12285092  1
  O  O37  1  0.50096911  0.87715048  0.77923156  1
  O  O38  1  0.50095718  0.22077033  0.09791846  1
  O  O39  1  0.00096376  0.09791394  0.87714908  1
  O  O40  1  0.00096911  0.12284952  0.22076844  1
  O  O41  1  0.00095718  0.77922967  0.90208154  1
