# generated using pymatgen
data_CoBH18N6(ClF2)2
_symmetry_space_group_name_H-M   'P 1'
_cell_length_a   7.64064458
_cell_length_b   12.41074827
_cell_length_c   13.76225696
_cell_angle_alpha   109.79260687
_cell_angle_beta   90.00000000
_cell_angle_gamma   90.00000000
_symmetry_Int_Tables_number   1
_chemical_formula_structural   CoBH18N6(ClF2)2
_chemical_formula_sum   'Co4 B4 H72 N24 Cl8 F16'
_cell_volume   1227.92655163
_cell_formula_units_Z   4
loop_
 _symmetry_equiv_pos_site_id
 _symmetry_equiv_pos_as_xyz
  1  'x, y, z'
loop_
 _atom_site_type_symbol
 _atom_site_label
 _atom_site_symmetry_multiplicity
 _atom_site_fract_x
 _atom_site_fract_y
 _atom_site_fract_z
 _atom_site_occupancy
  Co  Co0  1  -0.00000000  -0.00000000  0.50000000  1
  Co  Co1  1  0.50000000  0.50000000  0.50000000  1
  Co  Co2  1  -0.00000000  0.50000000  -0.00000000  1
  Co  Co3  1  0.50000000  -0.00000000  -0.00000000  1
  B  B4  1  0.04430384  0.72796710  0.69946040  1
  B  B5  1  0.54430384  0.77203290  0.30053960  1
  B  B6  1  0.95569616  0.27203290  0.30053960  1
  B  B7  1  0.45569616  0.22796710  0.69946040  1
  H  H8  1  0.29746273  0.90310578  0.49759099  1
  H  H9  1  0.79746273  0.59689422  0.50240901  1
  H  H10  1  0.70253727  0.09689422  0.50240901  1
  H  H11  1  0.20253727  0.40310578  0.49759099  1
  H  H12  1  0.28862912  0.02240068  0.59681698  1
  H  H13  1  0.78862912  0.47759932  0.40318302  1
  H  H14  1  0.71137088  0.97759932  0.40318302  1
  H  H15  1  0.21137088  0.52240068  0.59681698  1
  H  H16  1  0.18979734  0.90826911  0.60306759  1
  H  H17  1  0.68979734  0.59173089  0.39693241  1
  H  H18  1  0.81020266  0.09173089  0.39693241  1
  H  H19  1  0.31020266  0.40826911  0.60306759  1
  H  H20  1  0.75503937  0.85823606  0.49232603  1
  H  H21  1  0.25503937  0.64176394  0.50767397  1
  H  H22  1  0.24496063  0.14176394  0.50767397  1
  H  H23  1  0.74496063  0.35823606  0.49232603  1
  H  H24  1  0.93188543  0.78491966  0.43318092  1
  H  H25  1  0.43188543  0.71508034  0.56681908  1
  H  H26  1  0.06811457  0.21508034  0.56681908  1
  H  H27  1  0.56811457  0.28491966  0.43318092  1
  H  H28  1  0.91597899  0.83632560  0.56055887  1
  H  H29  1  0.41597899  0.66367440  0.43944113  1
  H  H30  1  0.08402101  0.16367440  0.43944113  1
  H  H31  1  0.58402101  0.33632560  0.56055887  1
  H  H32  1  0.00190893  0.93107712  0.30072323  1
  H  H33  1  0.50190893  0.56892288  0.69927677  1
  H  H34  1  0.99809107  0.06892288  0.69927677  1
  H  H35  1  0.49809107  0.43107712  0.30072323  1
  H  H36  1  0.20102424  0.96790461  0.34438037  1
  H  H37  1  0.70102424  0.53209539  0.65561963  1
  H  H38  1  0.79897576  0.03209539  0.65561963  1
  H  H39  1  0.29897576  0.46790461  0.34438037  1
  H  H40  1  0.11751462  0.84267102  0.34039248  1
  H  H41  1  0.61751462  0.65732898  0.65960752  1
  H  H42  1  0.88248538  0.15732898  0.65960752  1
  H  H43  1  0.38248538  0.34267102  0.34039248  1
  H  H44  1  0.78394233  0.58562669  0.14918644  1
  H  H45  1  0.28394233  0.91437331  0.85081356  1
  H  H46  1  0.21605767  0.41437331  0.85081356  1
  H  H47  1  0.71605767  0.08562669  0.14918644  1
  H  H48  1  0.87306368  0.68928481  0.11690673  1
  H  H49  1  0.37306368  0.81071519  0.88309327  1
  H  H50  1  0.12693632  0.31071519  0.88309327  1
  H  H51  1  0.62693632  0.18928481  0.11690673  1
  H  H52  1  0.71588984  0.61196712  0.04467546  1
  H  H53  1  0.21588984  0.88803288  0.95532454  1
  H  H54  1  0.28411016  0.38803288  0.95532454  1
  H  H55  1  0.78411016  0.11196712  0.04467546  1
  H  H56  1  0.30208297  0.59299232  0.03717319  1
  H  H57  1  0.80208297  0.90700768  0.96282681  1
  H  H58  1  0.69791703  0.40700768  0.96282681  1
  H  H59  1  0.19791703  0.09299232  0.03717319  1
  H  H60  1  0.15678439  0.67936752  0.11092655  1
  H  H61  1  0.65678439  0.82063248  0.88907345  1
  H  H62  1  0.84321561  0.32063248  0.88907345  1
  H  H63  1  0.34321561  0.17936752  0.11092655  1
  H  H64  1  0.22868168  0.57304148  0.14415665  1
  H  H65  1  0.72868168  0.92695852  0.85584335  1
  H  H66  1  0.77131832  0.42695852  0.85584335  1
  H  H67  1  0.27131832  0.07304148  0.14415665  1
  H  H68  1  0.91981880  0.57310457  0.85262220  1
  H  H69  1  0.41981880  0.92689543  0.14737780  1
  H  H70  1  0.08018120  0.42689543  0.14737780  1
  H  H71  1  0.58018120  0.07310457  0.85262220  1
  H  H72  1  0.99195569  0.68090741  0.95401669  1
  H  H73  1  0.49195569  0.81909259  0.04598331  1
  H  H74  1  0.00804431  0.31909259  0.04598331  1
  H  H75  1  0.50804431  0.18090741  0.95401669  1
  H  H76  1  0.12992785  0.59094806  0.87604708  1
  H  H77  1  0.62992785  0.90905194  0.12395292  1
  H  H78  1  0.87007215  0.40905194  0.12395292  1
  H  H79  1  0.37007215  0.09094806  0.87604708  1
  N  N80  1  0.21545253  0.95315509  0.55418008  1
  N  N81  1  0.71545253  0.54684491  0.44581992  1
  N  N82  1  0.78454747  0.04684491  0.44581992  1
  N  N83  1  0.28454747  0.45315509  0.55418008  1
  N  N84  1  0.88916983  0.85467542  0.49471595  1
  N  N85  1  0.38916983  0.64532458  0.50528405  1
  N  N86  1  0.11083017  0.14532458  0.50528405  1
  N  N87  1  0.61083017  0.35467542  0.49471595  1
  N  N88  1  0.08877558  0.92826138  0.35677742  1
  N  N89  1  0.58877558  0.57173862  0.64322258  1
  N  N90  1  0.91122442  0.07173862  0.64322258  1
  N  N91  1  0.41122442  0.42826138  0.35677742  1
  N  N92  1  0.82513465  0.60697954  0.08721678  1
  N  N93  1  0.32513465  0.89302046  0.91278322  1
  N  N94  1  0.17486535  0.39302046  0.91278322  1
  N  N95  1  0.67486535  0.10697954  0.08721678  1
  N  N96  1  0.19204939  0.59451308  0.08126083  1
  N  N97  1  0.69204939  0.90548692  0.91873917  1
  N  N98  1  0.80795061  0.40548692  0.91873917  1
  N  N99  1  0.30795061  0.09451308  0.08126083  1
  N  N100  1  0.01014566  0.59518896  0.91111861  1
  N  N101  1  0.51014566  0.90481104  0.08888139  1
  N  N102  1  0.98985434  0.40481104  0.08888139  1
  N  N103  1  0.48985434  0.09518896  0.91111861  1
  Cl  Cl104  1  0.00023299  0.85899117  0.07685878  1
  Cl  Cl105  1  0.50023299  0.64100883  0.92314122  1
  Cl  Cl106  1  0.99976701  0.14100883  0.92314122  1
  Cl  Cl107  1  0.49976701  0.35899117  0.07685878  1
  Cl  Cl108  1  0.07902130  0.62774459  0.32868951  1
  Cl  Cl109  1  0.57902130  0.87225541  0.67131049  1
  Cl  Cl110  1  0.92097870  0.37225541  0.67131049  1
  Cl  Cl111  1  0.42097870  0.12774459  0.32868951  1
  F  F112  1  0.99325037  0.66081479  0.59634033  1
  F  F113  1  0.49325037  0.83918521  0.40365967  1
  F  F114  1  0.00674963  0.33918521  0.40365967  1
  F  F115  1  0.50674963  0.16081479  0.59634033  1
  F  F116  1  0.20198085  0.68102544  0.72223829  1
  F  F117  1  0.70198085  0.81897456  0.27776171  1
  F  F118  1  0.79801915  0.31897456  0.27776171  1
  F  F119  1  0.29801915  0.18102544  0.72223829  1
  F  F120  1  0.91301965  0.72556154  0.76944294  1
  F  F121  1  0.41301965  0.77443846  0.23055706  1
  F  F122  1  0.08698035  0.27443846  0.23055706  1
  F  F123  1  0.58698035  0.22556154  0.76944294  1
  F  F124  1  0.07494604  0.84218502  0.70193017  1
  F  F125  1  0.57494604  0.65781498  0.29806983  1
  F  F126  1  0.92505396  0.15781498  0.29806983  1
  F  F127  1  0.42505396  0.34218502  0.70193017  1
