# generated using pymatgen
data_K2Mn(BH4)4
_symmetry_space_group_name_H-M   'P 1'
_cell_length_a   8.24041651
_cell_length_b   10.26233190
_cell_length_c   12.91910283
_cell_angle_alpha   90.00000000
_cell_angle_beta   100.02746473
_cell_angle_gamma   90.00000000
_symmetry_Int_Tables_number   1
_chemical_formula_structural   K2Mn(BH4)4
_chemical_formula_sum   'K8 Mn4 B16 H64'
_cell_volume   1075.82659228
_cell_formula_units_Z   4
loop_
 _symmetry_equiv_pos_site_id
 _symmetry_equiv_pos_as_xyz
  1  'x, y, z'
loop_
 _atom_site_type_symbol
 _atom_site_label
 _atom_site_symmetry_multiplicity
 _atom_site_fract_x
 _atom_site_fract_y
 _atom_site_fract_z
 _atom_site_occupancy
  K  K0  1  0.22452970  0.85662973  0.93888413  1
  K  K1  1  0.72452970  0.64337027  0.43888413  1
  K  K2  1  0.77547030  0.14337027  0.06111587  1
  K  K3  1  0.27547030  0.35662973  0.56111587  1
  K  K4  1  0.31264339  0.01451954  0.29514164  1
  K  K5  1  0.81264339  0.48548046  0.79514164  1
  K  K6  1  0.68735661  0.98548046  0.70485836  1
  K  K7  1  0.18735661  0.51451954  0.20485836  1
  Mn  Mn8  1  0.72807718  0.71250844  0.08268048  1
  Mn  Mn9  1  0.22807718  0.78749156  0.58268048  1
  Mn  Mn10  1  0.27192282  0.28749156  0.91731952  1
  Mn  Mn11  1  0.77192282  0.21250844  0.41731952  1
  B  B12  1  0.01323149  0.17270100  0.86622994  1
  B  B13  1  0.51323149  0.32729900  0.36622994  1
  B  B14  1  0.98676851  0.82729900  0.13377006  1
  B  B15  1  0.48676851  0.67270100  0.63377006  1
  B  B16  1  0.99691954  0.77459025  0.69162028  1
  B  B17  1  0.49691954  0.72540975  0.19162028  1
  B  B18  1  0.00308046  0.22540975  0.30837972  1
  B  B19  1  0.50308046  0.27459025  0.80837972  1
  B  B20  1  0.64064470  0.84857216  0.92770075  1
  B  B21  1  0.14064470  0.65142784  0.42770075  1
  B  B22  1  0.35935530  0.15142784  0.07229925  1
  B  B23  1  0.85935530  0.34857216  0.57229925  1
  B  B24  1  0.28773540  0.00848341  0.57881453  1
  B  B25  1  0.78773540  0.49151659  0.07881453  1
  B  B26  1  0.71226460  0.99151659  0.42118547  1
  B  B27  1  0.21226460  0.50848341  0.92118547  1
  H  H28  1  0.05006104  0.22453592  0.95433440  1
  H  H29  1  0.55006104  0.27546408  0.45433440  1
  H  H30  1  0.94993896  0.77546408  0.04566560  1
  H  H31  1  0.44993896  0.72453592  0.54566560  1
  H  H32  1  0.07653166  0.23385640  0.80084712  1
  H  H33  1  0.57653166  0.26614360  0.30084712  1
  H  H34  1  0.92346834  0.76614360  0.19915288  1
  H  H35  1  0.42346834  0.73385640  0.69915288  1
  H  H36  1  0.86383216  0.18097698  0.84058737  1
  H  H37  1  0.36383216  0.31902302  0.34058737  1
  H  H38  1  0.13616784  0.81902302  0.15941263  1
  H  H39  1  0.63616784  0.68097698  0.65941263  1
  H  H40  1  0.06131129  0.06069912  0.86899727  1
  H  H41  1  0.56131129  0.43930088  0.36899727  1
  H  H42  1  0.93868871  0.93930088  0.13100273  1
  H  H43  1  0.43868871  0.56069912  0.63100273  1
  H  H44  1  0.95489639  0.75571848  0.77700603  1
  H  H45  1  0.45489639  0.74428152  0.27700603  1
  H  H46  1  0.04510361  0.24428152  0.22299397  1
  H  H47  1  0.54510361  0.25571848  0.72299397  1
  H  H48  1  0.91110360  0.71151449  0.62356613  1
  H  H49  1  0.41110360  0.78848551  0.12356613  1
  H  H50  1  0.08889640  0.28848551  0.37643387  1
  H  H51  1  0.58889640  0.21151449  0.87643387  1
  H  H52  1  0.14226603  0.73116160  0.70476086  1
  H  H53  1  0.64226603  0.76883840  0.20476086  1
  H  H54  1  0.85773397  0.26883840  0.29523914  1
  H  H55  1  0.35773397  0.23116160  0.79523914  1
  H  H56  1  0.99406577  0.89040333  0.67025023  1
  H  H57  1  0.49406577  0.60959667  0.17025023  1
  H  H58  1  0.00593423  0.10959667  0.32974977  1
  H  H59  1  0.50593423  0.39040333  0.82974977  1
  H  H60  1  0.59247814  0.86655639  0.01263016  1
  H  H61  1  0.09247814  0.63344361  0.51263016  1
  H  H62  1  0.40752186  0.13344361  0.98736984  1
  H  H63  1  0.90752186  0.36655639  0.48736984  1
  H  H64  1  0.74771789  0.92811472  0.91959655  1
  H  H65  1  0.24771789  0.57188528  0.41959655  1
  H  H66  1  0.25228211  0.07188528  0.08040345  1
  H  H67  1  0.75228211  0.42811472  0.58040345  1
  H  H68  1  0.52232009  0.85517244  0.85679881  1
  H  H69  1  0.02232009  0.64482756  0.35679881  1
  H  H70  1  0.47767991  0.14482756  0.14320119  1
  H  H71  1  0.97767991  0.35517244  0.64320119  1
  H  H72  1  0.70086743  0.73731324  0.92517787  1
  H  H73  1  0.20086743  0.76268676  0.42517787  1
  H  H74  1  0.29913257  0.26268676  0.07482213  1
  H  H75  1  0.79913257  0.23731324  0.57482213  1
  H  H76  1  0.32259762  0.94463813  0.66153567  1
  H  H77  1  0.82259762  0.55536187  0.16153567  1
  H  H78  1  0.67740238  0.05536187  0.33846433  1
  H  H79  1  0.17740238  0.44463813  0.83846433  1
  H  H80  1  0.15225423  0.97241088  0.52945426  1
  H  H81  1  0.65225423  0.52758912  0.02945426  1
  H  H82  1  0.84774577  0.02758912  0.47054574  1
  H  H83  1  0.34774577  0.47241088  0.97054574  1
  H  H84  1  0.39537517  0.99446046  0.52602297  1
  H  H85  1  0.89537517  0.50553954  0.02602297  1
  H  H86  1  0.60462483  0.00553954  0.47397703  1
  H  H87  1  0.10462483  0.49446046  0.97397703  1
  H  H88  1  0.27479756  0.11916954  0.60865237  1
  H  H89  1  0.77479756  0.38083046  0.10865237  1
  H  H90  1  0.72520244  0.88083046  0.39134763  1
  H  H91  1  0.22520244  0.61916954  0.89134763  1
