# generated using pymatgen
data_TaTlSe3
_symmetry_space_group_name_H-M   'P 1'
_cell_length_a   3.65071270
_cell_length_b   9.84224267
_cell_length_c   15.34572550
_cell_angle_alpha   90.00000000
_cell_angle_beta   90.00000000
_cell_angle_gamma   90.00000000
_symmetry_Int_Tables_number   1
_chemical_formula_structural   TaTlSe3
_chemical_formula_sum   'Ta4 Tl4 Se12'
_cell_volume   551.39033687
_cell_formula_units_Z   4
loop_
 _symmetry_equiv_pos_site_id
 _symmetry_equiv_pos_as_xyz
  1  'x, y, z'
loop_
 _atom_site_type_symbol
 _atom_site_label
 _atom_site_symmetry_multiplicity
 _atom_site_fract_x
 _atom_site_fract_y
 _atom_site_fract_z
 _atom_site_occupancy
  Se  Se0  1  0.25000000  0.52884561  0.09645079  1
  Se  Se1  1  0.75000000  0.47115439  0.90354921  1
  Se  Se2  1  0.25000000  0.02884561  0.40354921  1
  Se  Se3  1  0.75000000  0.97115439  0.59645079  1
  Se  Se4  1  0.25000000  0.74377720  0.78145537  1
  Se  Se5  1  0.75000000  0.25622280  0.21854463  1
  Se  Se6  1  0.25000000  0.24377720  0.71854463  1
  Se  Se7  1  0.75000000  0.75622280  0.28145537  1
  Se  Se8  1  0.25000000  0.68894360  0.49782159  1
  Se  Se9  1  0.75000000  0.31105640  0.50217841  1
  Se  Se10  1  0.25000000  0.18894360  0.00217841  1
  Se  Se11  1  0.75000000  0.81105640  0.99782159  1
  Ta  Ta12  1  0.25000000  0.65829561  0.92798832  1
  Ta  Ta13  1  0.75000000  0.34170439  0.07201168  1
  Ta  Ta14  1  0.25000000  0.15829561  0.57201168  1
  Ta  Ta15  1  0.75000000  0.84170439  0.42798832  1
  Tl  Tl16  1  0.75000000  0.49912816  0.67197644  1
  Tl  Tl17  1  0.25000000  0.50087184  0.32802356  1
  Tl  Tl18  1  0.75000000  0.99912816  0.82802356  1
  Tl  Tl19  1  0.25000000  0.00087184  0.17197644  1
