# generated using pymatgen
data_Al13Rh4
_symmetry_space_group_name_H-M   'P 1'
_cell_length_a   8.33002318
_cell_length_b   8.89981232
_cell_length_c   12.91243308
_cell_angle_alpha   105.97398223
_cell_angle_beta   90.00000000
_cell_angle_gamma   117.90381484
_symmetry_Int_Tables_number   1
_chemical_formula_structural   Al13Rh4
_chemical_formula_sum   'Al39 Rh12'
_cell_volume   803.90926876
_cell_formula_units_Z   3
loop_
 _symmetry_equiv_pos_site_id
 _symmetry_equiv_pos_as_xyz
  1  'x, y, z'
loop_
 _atom_site_type_symbol
 _atom_site_label
 _atom_site_symmetry_multiplicity
 _atom_site_fract_x
 _atom_site_fract_y
 _atom_site_fract_z
 _atom_site_occupancy
  Al  Al0  1  0.07094383  0.14188767  0.17612102  1
  Al  Al1  1  0.92905617  0.85811233  0.82387898  1
  Al  Al2  1  0.32566295  0.65132590  0.28555896  1
  Al  Al3  1  0.67433705  0.34867410  0.71444104  1
  Al  Al4  1  0.23790447  0.47580894  0.52023354  1
  Al  Al5  1  0.76209553  0.52419106  0.47976646  1
  Al  Al6  1  0.07635905  0.15271809  0.58107444  1
  Al  Al7  1  0.92364095  0.84728191  0.41892556  1
  Al  Al8  1  0.24436758  0.48873515  0.97809762  1
  Al  Al9  1  0.75563242  0.51126485  0.02190238  1
  Al  Al10  1  0.48202858  0.96405717  0.83035723  1
  Al  Al11  1  0.51797142  0.03594283  0.16964277  1
  Al  Al12  1  0.50000000  0.00000000  0.50000000  1
  Al  Al13  1  0.30058360  0.60116721  0.76957138  1
  Al  Al14  1  0.69941640  0.39883279  0.23042862  1
  Al  Al15  1  0.08656692  0.17313384  0.78522202  1
  Al  Al16  1  0.91343308  0.82686616  0.21477798  1
  Al  Al17  1  0.96591995  0.36831431  0.11430396  1
  Al  Al18  1  0.40239435  0.36831431  0.11430396  1
  Al  Al19  1  0.03408005  0.63168569  0.88569604  1
  Al  Al20  1  0.59760565  0.63168569  0.88569604  1
  Al  Al21  1  0.15289617  0.73754392  0.11000322  1
  Al  Al22  1  0.58464775  0.73754392  0.11000322  1
  Al  Al23  1  0.84710383  0.26245608  0.88999678  1
  Al  Al24  1  0.41535225  0.26245608  0.88999678  1
  Al  Al25  1  0.95913754  0.35541378  0.32998563  1
  Al  Al26  1  0.39627624  0.35541378  0.32998563  1
  Al  Al27  1  0.04086246  0.64458622  0.67001437  1
  Al  Al28  1  0.60372376  0.64458622  0.67001437  1
  Al  Al29  1  0.26143148  0.98199309  0.32748494  1
  Al  Al30  1  0.72056161  0.98199309  0.32748494  1
  Al  Al31  1  0.73856852  0.01800691  0.67251506  1
  Al  Al32  1  0.27943839  0.01800691  0.67251506  1
  Al  Al33  1  0.14115663  0.72277566  0.48062345  1
  Al  Al34  1  0.58161904  0.72277566  0.48062345  1
  Al  Al35  1  0.85884337  0.27722434  0.51937655  1
  Al  Al36  1  0.41838096  0.27722434  0.51937655  1
  Al  Al37  1  0.75075615  0.00000000  0.00000000  1
  Al  Al38  1  0.24924385  1.00000000  1.00000000  1
  Rh  Rh39  1  0.08185441  0.16370882  0.38556780  1
  Rh  Rh40  1  0.91814559  0.83629118  0.61443220  1
  Rh  Rh41  1  0.39781287  0.79562574  0.62762460  1
  Rh  Rh42  1  0.60218713  0.20437426  0.37237540  1
  Rh  Rh43  1  0.08994187  0.17988374  0.97913040  1
  Rh  Rh44  1  0.91005813  0.82011626  0.02086960  1
  Rh  Rh45  1  0.39839146  0.79678292  0.97768261  1
  Rh  Rh46  1  0.60160854  0.20321708  0.02231739  1
  Rh  Rh47  1  0.03844611  0.64522160  0.28081641  1
  Rh  Rh48  1  0.60677548  0.64522160  0.28081641  1
  Rh  Rh49  1  0.96155389  0.35477840  0.71918359  1
  Rh  Rh50  1  0.39322452  0.35477840  0.71918359  1
