# generated using pymatgen
data_BaH8(IO6)2
_symmetry_space_group_name_H-M   'P 1'
_cell_length_a   7.63437137
_cell_length_b   7.63437137
_cell_length_c   9.61153358
_cell_angle_alpha   85.63616646
_cell_angle_beta   85.63616646
_cell_angle_gamma   63.89226702
_symmetry_Int_Tables_number   1
_chemical_formula_structural   BaH8(IO6)2
_chemical_formula_sum   'Ba2 H16 I4 O24'
_cell_volume   501.01081885
_cell_formula_units_Z   2
loop_
 _symmetry_equiv_pos_site_id
 _symmetry_equiv_pos_as_xyz
  1  'x, y, z'
loop_
 _atom_site_type_symbol
 _atom_site_label
 _atom_site_symmetry_multiplicity
 _atom_site_fract_x
 _atom_site_fract_y
 _atom_site_fract_z
 _atom_site_occupancy
  Ba  Ba0  1  0.56533450  0.43466550  0.25000000  1
  Ba  Ba1  1  0.43466550  0.56533450  0.75000000  1
  H  H2  1  0.57391589  0.19237221  0.99591218  1
  H  H3  1  0.80762779  0.42608411  0.50408782  1
  H  H4  1  0.42608411  0.80762779  0.00408782  1
  H  H5  1  0.19237221  0.57391589  0.49591218  1
  H  H6  1  0.77090312  0.21719686  0.96232293  1
  H  H7  1  0.78280314  0.22909688  0.53767707  1
  H  H8  1  0.22909688  0.78280314  0.03767707  1
  H  H9  1  0.21719686  0.77090312  0.46232293  1
  H  H10  1  0.04871303  0.55109072  0.28097911  1
  H  H11  1  0.44890928  0.95128697  0.21902089  1
  H  H12  1  0.95128697  0.44890928  0.71902089  1
  H  H13  1  0.55109072  0.04871303  0.78097911  1
  H  H14  1  0.12495533  0.12712222  0.89528368  1
  H  H15  1  0.87287778  0.87504467  0.60471632  1
  H  H16  1  0.87504467  0.87287778  0.10471632  1
  H  H17  1  0.12712222  0.12495533  0.39528368  1
  I  I18  1  0.11058074  0.31656295  0.10242968  1
  I  I19  1  0.68343705  0.88941926  0.39757032  1
  I  I20  1  0.88941926  0.68343705  0.89757032  1
  I  I21  1  0.31656295  0.11058074  0.60242968  1
  O  O22  1  0.62760895  0.28789806  0.97260851  1
  O  O23  1  0.71210194  0.37239105  0.52739149  1
  O  O24  1  0.37239105  0.71210194  0.02739149  1
  O  O25  1  0.28789806  0.62760895  0.47260851  1
  O  O26  1  0.15794313  0.45960462  0.93102593  1
  O  O27  1  0.54039538  0.84205687  0.56897407  1
  O  O28  1  0.84205687  0.54039538  0.06897407  1
  O  O29  1  0.45960462  0.15794313  0.43102593  1
  O  O30  1  0.99543881  0.24140722  0.25235643  1
  O  O31  1  0.75859278  0.00456119  0.24764357  1
  O  O32  1  0.00456119  0.75859278  0.74764357  1
  O  O33  1  0.24140722  0.99543881  0.75235643  1
  O  O34  1  0.16432800  0.49229723  0.21195870  1
  O  O35  1  0.50770277  0.83567200  0.28804130  1
  O  O36  1  0.83567200  0.50770277  0.78804130  1
  O  O37  1  0.49229723  0.16432800  0.71195870  1
  O  O38  1  0.03972668  0.16496857  0.98402969  1
  O  O39  1  0.83503143  0.96027332  0.51597031  1
  O  O40  1  0.96027332  0.83503143  0.01597031  1
  O  O41  1  0.16496857  0.03972668  0.48402969  1
  O  O42  1  0.36615854  0.14111903  0.10195536  1
  O  O43  1  0.85888097  0.63384146  0.39804464  1
  O  O44  1  0.63384146  0.85888097  0.89804464  1
  O  O45  1  0.14111903  0.36615854  0.60195536  1
