# generated using pymatgen
data_K2NaCa2TiSi7O20
_symmetry_space_group_name_H-M   'P 1'
_cell_length_a   7.16255035
_cell_length_b   10.49861827
_cell_length_c   12.34099006
_cell_angle_alpha   93.09877297
_cell_angle_beta   90.94421338
_cell_angle_gamma   99.17336801
_symmetry_Int_Tables_number   1
_chemical_formula_structural   K2NaCa2TiSi7O20
_chemical_formula_sum   'K4 Na2 Ca4 Ti2 Si14 O40'
_cell_volume   914.49917425
_cell_formula_units_Z   2
loop_
 _symmetry_equiv_pos_site_id
 _symmetry_equiv_pos_as_xyz
  1  'x, y, z'
loop_
 _atom_site_type_symbol
 _atom_site_label
 _atom_site_symmetry_multiplicity
 _atom_site_fract_x
 _atom_site_fract_y
 _atom_site_fract_z
 _atom_site_occupancy
  K  K0  1  0.92946365  0.65136664  0.99409862  1
  K  K1  1  0.38051206  0.53843725  0.75589676  1
  K  K2  1  0.36525357  0.32424060  0.19712306  1
  K  K3  1  0.84116733  0.42272041  0.44586777  1
  Na  Na4  1  0.50111456  0.99738616  0.98949164  1
  Na  Na5  1  0.72681829  0.96537172  0.21320342  1
  Ca  Ca6  1  0.02553901  0.10253607  0.69238437  1
  Ca  Ca7  1  0.52201004  0.10547265  0.68100078  1
  Ca  Ca8  1  0.20363729  0.85987990  0.51026078  1
  Ca  Ca9  1  0.70633619  0.85598222  0.52159790  1
  Ti  Ti10  1  0.01808196  0.99381517  0.00055464  1
  Ti  Ti11  1  0.21080872  0.97135183  0.20471674  1
  Si  Si12  1  0.54272096  0.29150700  0.91161391  1
  Si  Si13  1  0.11638596  0.29786290  0.92109903  1
  Si  Si14  1  0.98413183  0.11174071  0.40998138  1
  Si  Si15  1  0.53755498  0.10840319  0.40257720  1
  Si  Si16  1  0.24214936  0.85176503  0.79402976  1
  Si  Si17  1  0.69007670  0.85593011  0.79970215  1
  Si  Si18  1  0.11345856  0.66718841  0.28411462  1
  Si  Si19  1  0.68342696  0.67116089  0.28906438  1
  Si  Si20  1  0.31012132  0.29675652  0.51594672  1
  Si  Si21  1  0.83531752  0.26170780  0.09259959  1
  Si  Si22  1  0.39757293  0.70354844  0.11160197  1
  Si  Si23  1  0.38232171  0.58394140  0.45095089  1
  Si  Si24  1  0.91691651  0.66629397  0.68648482  1
  Si  Si25  1  0.84434332  0.37837832  0.75109583  1
  O  O26  1  0.82973102  0.30969354  0.22056122  1
  O  O27  1  0.10827521  0.25590686  0.44601416  1
  O  O28  1  0.47903967  0.25257749  0.43839207  1
  O  O29  1  0.35290037  0.45626399  0.52486693  1
  O  O30  1  0.05872482  0.06162917  0.29422100  1
  O  O31  1  0.70308662  0.81420306  0.34053097  1
  O  O32  1  0.38527647  0.66044903  0.98199037  1
  O  O33  1  0.82476117  0.10605621  0.07697592  1
  O  O34  1  0.03079765  0.33746824  0.03962910  1
  O  O35  1  0.65136943  0.30929600  0.03276010  1
  O  O36  1  0.58316760  0.65313462  0.16549082  1
  O  O37  1  0.20577948  0.62701425  0.16795663  1
  O  O38  1  0.88471969  0.61586044  0.27244404  1
  O  O39  1  0.55486637  0.56404414  0.36545186  1
  O  O40  1  0.18486865  0.57576441  0.37685881  1
  O  O41  1  0.76817904  0.14038992  0.38770338  1
  O  O42  1  0.03764349  0.38881064  0.82992492  1
  O  O43  1  0.05613459  0.14633644  0.88779364  1
  O  O44  1  0.34507088  0.35125679  0.93128923  1
  O  O45  1  0.16914222  0.90098528  0.91058015  1
  O  O46  1  0.78775408  0.90513113  0.91740967  1
  O  O47  1  0.74556785  0.71142520  0.76136971  1
  O  O48  1  0.23360115  0.94805448  0.69657094  1
  O  O49  1  0.73776228  0.95375452  0.70298385  1
  O  O50  1  0.80875075  0.24861696  0.67482062  1
  O  O51  1  0.30282817  0.23911137  0.63355667  1
  O  O52  1  0.92780172  0.72367618  0.56894603  1
  O  O53  1  0.42131828  0.71375542  0.52747484  1
  O  O54  1  0.48919824  0.01094431  0.49924617  1
  O  O55  1  0.11612890  0.70691230  0.75977119  1
  O  O56  1  0.45954243  0.82568209  0.81482055  1
  O  O57  1  0.87545808  0.50667062  0.67768634  1
  O  O58  1  0.44305114  0.05926446  0.28406860  1
  O  O59  1  0.98983588  0.01342581  0.50613334  1
  O  O60  1  0.51428801  0.14742558  0.86196286  1
  O  O61  1  0.99590182  0.88362156  0.11428065  1
  O  O62  1  0.23378308  0.08010476  0.08987538  1
  O  O63  1  0.66711160  0.39656775  0.83286092  1
  O  O64  1  0.17584842  0.81877485  0.31688319  1
  O  O65  1  0.40769239  0.85919485  0.12778442  1
