# generated using pymatgen
data_NaZn2(BH4)5
_symmetry_space_group_name_H-M   'P 1'
_cell_length_a   9.46027268
_cell_length_b   9.91536173
_cell_length_c   16.50814746
_cell_angle_alpha   90.00000000
_cell_angle_beta   90.00000000
_cell_angle_gamma   114.38071277
_symmetry_Int_Tables_number   1
_chemical_formula_structural   NaZn2(BH4)5
_chemical_formula_sum   'Na4 Zn8 B20 H80'
_cell_volume   1410.40678541
_cell_formula_units_Z   4
loop_
 _symmetry_equiv_pos_site_id
 _symmetry_equiv_pos_as_xyz
  1  'x, y, z'
loop_
 _atom_site_type_symbol
 _atom_site_label
 _atom_site_symmetry_multiplicity
 _atom_site_fract_x
 _atom_site_fract_y
 _atom_site_fract_z
 _atom_site_occupancy
  Na  Na0  1  0.64616893  0.28980473  0.07341140  1
  Na  Na1  1  0.85383107  0.71019527  0.57341140  1
  Na  Na2  1  0.35383107  0.71019527  0.92658860  1
  Na  Na3  1  0.14616893  0.28980473  0.42658860  1
  Zn  Zn4  1  0.12752394  0.30730727  0.72426535  1
  Zn  Zn5  1  0.37247606  0.69269273  0.22426535  1
  Zn  Zn6  1  0.87247606  0.69269273  0.27573465  1
  Zn  Zn7  1  0.62752394  0.30730727  0.77573465  1
  Zn  Zn8  1  0.91121089  0.85773867  0.86993521  1
  Zn  Zn9  1  0.58878911  0.14226133  0.36993521  1
  Zn  Zn10  1  0.08878911  0.14226133  0.13006479  1
  Zn  Zn11  1  0.41121089  0.85773867  0.63006479  1
  B  B12  1  0.77887951  0.50583620  0.19162080  1
  B  B13  1  0.72112049  0.49416380  0.69162080  1
  B  B14  1  0.22112049  0.49416380  0.80837920  1
  B  B15  1  0.27887951  0.50583620  0.30837920  1
  B  B16  1  0.85870300  0.67934478  0.40715894  1
  B  B17  1  0.64129700  0.32065522  0.90715894  1
  B  B18  1  0.14129700  0.32065522  0.59284106  1
  B  B19  1  0.35870300  0.67934478  0.09284106  1
  B  B20  1  0.96822414  0.05947214  0.78297158  1
  B  B21  1  0.53177586  0.94052786  0.28297158  1
  B  B22  1  0.03177586  0.94052786  0.21702842  1
  B  B23  1  0.46822414  0.05947214  0.71702842  1
  B  B24  1  0.08570914  0.78407728  0.91542291  1
  B  B25  1  0.41429086  0.21592272  0.41542291  1
  B  B26  1  0.91429086  0.21592272  0.08457709  1
  B  B27  1  0.58570914  0.78407728  0.58457709  1
  B  B28  1  0.16202984  0.76410138  0.60498948  1
  B  B29  1  0.33797016  0.23589862  0.10498948  1
  B  B30  1  0.83797016  0.23589862  0.39501052  1
  B  B31  1  0.66202984  0.76410138  0.89501052  1
  H  H32  1  0.91175757  0.54869673  0.22296636  1
  H  H33  1  0.58824243  0.45130327  0.72296636  1
  H  H34  1  0.08824243  0.45130327  0.77703364  1
  H  H35  1  0.41175757  0.54869673  0.27703364  1
  H  H36  1  0.70247791  0.38342401  0.21805161  1
  H  H37  1  0.79752209  0.61657599  0.71805161  1
  H  H38  1  0.29752209  0.61657599  0.78194839  1
  H  H39  1  0.20247791  0.38342401  0.28194839  1
  H  H40  1  0.70781984  0.58511392  0.21023522  1
  H  H41  1  0.79218016  0.41488608  0.71023522  1
  H  H42  1  0.29218016  0.41488608  0.78976478  1
  H  H43  1  0.20781984  0.58511392  0.28976478  1
  H  H44  1  0.80241794  0.52124136  0.11972033  1
  H  H45  1  0.69758206  0.47875864  0.61972033  1
  H  H46  1  0.19758206  0.47875864  0.88027967  1
  H  H47  1  0.30241794  0.52124136  0.38027967  1
  H  H48  1  0.98083192  0.73633474  0.44310794  1
  H  H49  1  0.51916808  0.26366526  0.94310794  1
  H  H50  1  0.01916808  0.26366526  0.55689206  1
  H  H51  1  0.48083192  0.73633474  0.05689206  1
  H  H52  1  0.84694723  0.78132763  0.36535684  1
  H  H53  1  0.65305277  0.21867237  0.86535684  1
  H  H54  1  0.15305277  0.21867237  0.63464316  1
  H  H55  1  0.34694723  0.78132763  0.13464316  1
  H  H56  1  0.85896552  0.57171738  0.36926097  1
  H  H57  1  0.64103448  0.42828262  0.86926097  1
  H  H58  1  0.14103448  0.42828262  0.63073903  1
  H  H59  1  0.35896552  0.57171738  0.13073903  1
  H  H60  1  0.73928092  0.63163915  0.44552662  1
  H  H61  1  0.76071908  0.36836085  0.94552662  1
  H  H62  1  0.26071908  0.36836085  0.55447338  1
  H  H63  1  0.23928092  0.63163915  0.05447338  1
  H  H64  1  0.05129192  0.99282559  0.79894556  1
  H  H65  1  0.44870808  0.00717441  0.29894556  1
  H  H66  1  0.94870808  0.00717441  0.20105444  1
  H  H67  1  0.55129192  0.99282559  0.70105444  1
  H  H68  1  0.85056502  0.02952259  0.82280923  1
  H  H69  1  0.64943498  0.97047741  0.32280923  1
  H  H70  1  0.14943498  0.97047741  0.17719077  1
  H  H71  1  0.35056502  0.02952259  0.67719077  1
  H  H72  1  0.05078032  0.18589931  0.80921154  1
  H  H73  1  0.44921968  0.81410069  0.30921154  1
  H  H74  1  0.94921968  0.81410069  0.19078846  1
  H  H75  1  0.55078032  0.18589931  0.69078846  1
  H  H76  1  0.93637052  0.04095693  0.71231117  1
  H  H77  1  0.56362948  0.95904307  0.21231117  1
  H  H78  1  0.06362948  0.95904307  0.28768883  1
  H  H79  1  0.43637052  0.04095693  0.78768883  1
  H  H80  1  0.98388008  0.71323541  0.86389702  1
  H  H81  1  0.51611992  0.28676459  0.36389702  1
  H  H82  1  0.01611992  0.28676459  0.13610298  1
  H  H83  1  0.48388008  0.71323541  0.63610298  1
  H  H84  1  0.20877896  0.83029046  0.87960827  1
  H  H85  1  0.29122104  0.16970954  0.37960827  1
  H  H86  1  0.79122104  0.16970954  0.12039173  1
  H  H87  1  0.70877896  0.83029046  0.62039173  1
  H  H88  1  0.07295369  0.89637113  0.94378679  1
  H  H89  1  0.42704631  0.10362887  0.44378679  1
  H  H90  1  0.92704631  0.10362887  0.05621321  1
  H  H91  1  0.57295369  0.89637113  0.55621321  1
  H  H92  1  0.06613433  0.70002025  0.97127361  1
  H  H93  1  0.43386567  0.29997975  0.47127361  1
  H  H94  1  0.93386567  0.29997975  0.02872639  1
  H  H95  1  0.56613433  0.70002025  0.52872639  1
  H  H96  1  0.08203651  0.64204894  0.57906885  1
  H  H97  1  0.41796349  0.35795106  0.07906885  1
  H  H98  1  0.91796349  0.35795106  0.42093115  1
  H  H99  1  0.58203651  0.64204894  0.92093115  1
  H  H100  1  0.21688847  0.74215059  0.67046322  1
  H  H101  1  0.28311153  0.25784941  0.17046322  1
  H  H102  1  0.78311153  0.25784941  0.32953678  1
  H  H103  1  0.71688847  0.74215059  0.82953678  1
  H  H104  1  0.26161380  0.82590965  0.55094219  1
  H  H105  1  0.23838620  0.17409035  0.05094219  1
  H  H106  1  0.73838620  0.17409035  0.44905781  1
  H  H107  1  0.76161380  0.82590965  0.94905781  1
  H  H108  1  0.10175057  0.84755813  0.62068448  1
  H  H109  1  0.39824943  0.15244187  0.12068448  1
  H  H110  1  0.89824943  0.15244187  0.37931552  1
  H  H111  1  0.60175057  0.84755813  0.87931552  1
