# generated using pymatgen
data_Ba2V3BiO11
_symmetry_space_group_name_H-M   'P 1'
_cell_length_a   5.87761534
_cell_length_b   7.86735293
_cell_length_c   24.53300056
_cell_angle_alpha   90.00000000
_cell_angle_beta   90.92831075
_cell_angle_gamma   90.00000000
_symmetry_Int_Tables_number   1
_chemical_formula_structural   Ba2V3BiO11
_chemical_formula_sum   'Ba8 V12 Bi4 O44'
_cell_volume   1134.28831213
_cell_formula_units_Z   4
loop_
 _symmetry_equiv_pos_site_id
 _symmetry_equiv_pos_as_xyz
  1  'x, y, z'
loop_
 _atom_site_type_symbol
 _atom_site_label
 _atom_site_symmetry_multiplicity
 _atom_site_fract_x
 _atom_site_fract_y
 _atom_site_fract_z
 _atom_site_occupancy
  Ba  Ba0  1  0.75111955  0.75853751  0.52740185  1
  Ba  Ba1  1  0.74888045  0.25853751  0.97259815  1
  Ba  Ba2  1  0.24888045  0.24146249  0.47259815  1
  Ba  Ba3  1  0.25111955  0.74146249  0.02740185  1
  Ba  Ba4  1  0.25407335  0.25181016  0.13059494  1
  Ba  Ba5  1  0.24592665  0.75181016  0.36940506  1
  Ba  Ba6  1  0.74592665  0.74818984  0.86940506  1
  Ba  Ba7  1  0.75407335  0.24818984  0.63059494  1
  V  V8  1  0.74535002  0.01742963  0.40770791  1
  V  V9  1  0.75464998  0.51742963  0.09229209  1
  V  V10  1  0.25464998  0.98257037  0.59229209  1
  V  V11  1  0.24535002  0.48257037  0.90770791  1
  V  V12  1  0.25113750  0.74453590  0.20108667  1
  V  V13  1  0.24886250  0.24453590  0.29891333  1
  V  V14  1  0.74886250  0.25546410  0.79891333  1
  V  V15  1  0.75113750  0.75546410  0.70108667  1
  V  V16  1  0.74732224  0.97868330  0.09065924  1
  V  V17  1  0.75267776  0.47868330  0.40934076  1
  V  V18  1  0.25267776  0.02131670  0.90934076  1
  V  V19  1  0.24732224  0.52131670  0.59065924  1
  Bi  Bi20  1  0.74010118  0.99745637  0.24752214  1
  Bi  Bi21  1  0.75989882  0.49745637  0.25247786  1
  Bi  Bi22  1  0.25989882  0.00254363  0.75247786  1
  Bi  Bi23  1  0.24010118  0.50254363  0.74752214  1
  O  O24  1  0.74524730  0.74791811  0.08402309  1
  O  O25  1  0.75475270  0.24791811  0.41597691  1
  O  O26  1  0.25475270  0.25208189  0.91597691  1
  O  O27  1  0.24524730  0.75208189  0.58402309  1
  O  O28  1  0.23766981  0.44184208  0.65637070  1
  O  O29  1  0.26233019  0.94184208  0.84362930  1
  O  O30  1  0.76233019  0.55815792  0.34362930  1
  O  O31  1  0.73766981  0.05815792  0.15637070  1
  O  O32  1  0.51282302  0.55242697  0.43995925  1
  O  O33  1  0.98717698  0.05242697  0.06004075  1
  O  O34  1  0.48717698  0.44757303  0.56004075  1
  O  O35  1  0.01282302  0.94757303  0.93995925  1
  O  O36  1  0.02040371  0.56025848  0.94314929  1
  O  O37  1  0.47959629  0.06025848  0.55685071  1
  O  O38  1  0.97959629  0.43974152  0.05685071  1
  O  O39  1  0.52040371  0.93974152  0.44314929  1
  O  O40  1  0.98566618  0.55453976  0.44347649  1
  O  O41  1  0.51433382  0.05453976  0.05652351  1
  O  O42  1  0.01433382  0.44546024  0.55652351  1
  O  O43  1  0.48566618  0.94546024  0.94347649  1
  O  O44  1  0.50561323  0.70818034  0.24150462  1
  O  O45  1  0.99438677  0.20818034  0.25849538  1
  O  O46  1  0.49438677  0.29181966  0.75849538  1
  O  O47  1  0.00561323  0.79181966  0.74150462  1
  O  O48  1  0.76861758  0.44219886  0.15887386  1
  O  O49  1  0.73138242  0.94219886  0.34112614  1
  O  O50  1  0.23138242  0.55780114  0.84112614  1
  O  O51  1  0.26861758  0.05780114  0.65887386  1
  O  O52  1  0.00444533  0.71334037  0.24306108  1
  O  O53  1  0.49555467  0.21334037  0.25693892  1
  O  O54  1  0.99555467  0.28665963  0.75693892  1
  O  O55  1  0.50444533  0.78665963  0.74306108  1
  O  O56  1  0.75182467  0.54755044  0.68457768  1
  O  O57  1  0.74817533  0.04755044  0.81542232  1
  O  O58  1  0.24817533  0.45244956  0.31542232  1
  O  O59  1  0.25182467  0.95244956  0.18457768  1
  O  O60  1  0.74475455  0.87794071  0.64399554  1
  O  O61  1  0.75524545  0.37794071  0.85600446  1
  O  O62  1  0.25524545  0.12205929  0.35600446  1
  O  O63  1  0.24475455  0.62205929  0.14399554  1
  O  O64  1  0.51892164  0.43839200  0.05946910  1
  O  O65  1  0.98107836  0.93839200  0.44053090  1
  O  O66  1  0.48107836  0.56160800  0.94053090  1
  O  O67  1  0.01892164  0.06160800  0.55946910  1
