# generated using pymatgen
data_Ba5Mn3O12F
_symmetry_space_group_name_H-M   'P 1'
_cell_length_a   7.78055464
_cell_length_b   10.51573942
_cell_length_c   10.51656391
_cell_angle_alpha   119.99634445
_cell_angle_beta   90.00000000
_cell_angle_gamma   90.00000000
_symmetry_Int_Tables_number   1
_chemical_formula_structural   Ba5Mn3O12F
_chemical_formula_sum   'Ba10 Mn6 O24 F2'
_cell_volume   745.19660269
_cell_formula_units_Z   2
loop_
 _symmetry_equiv_pos_site_id
 _symmetry_equiv_pos_as_xyz
  1  'x, y, z'
loop_
 _atom_site_type_symbol
 _atom_site_label
 _atom_site_symmetry_multiplicity
 _atom_site_fract_x
 _atom_site_fract_y
 _atom_site_fract_z
 _atom_site_occupancy
  Ba  Ba0  1  0.50120478  0.66666680  0.33334664  1
  Ba  Ba1  1  0.00120478  0.33333320  0.66665336  1
  Ba  Ba2  1  0.49879522  0.33333320  0.66665336  1
  Ba  Ba3  1  0.99879522  0.66666680  0.33334664  1
  Ba  Ba4  1  0.75000000  0.23250481  0.99042540  1
  Ba  Ba5  1  0.75000000  0.00951402  0.24203424  1
  Ba  Ba6  1  0.75000000  0.75793630  0.76748297  1
  Ba  Ba7  1  0.25000000  0.76749519  0.00957460  1
  Ba  Ba8  1  0.25000000  0.99048598  0.75796576  1
  Ba  Ba9  1  0.25000000  0.24206370  0.23251703  1
  Mn  Mn10  1  0.75000000  0.96830834  0.59614552  1
  Mn  Mn11  1  0.75000000  0.40402600  0.37225775  1
  Mn  Mn12  1  0.75000000  0.62763415  0.03174574  1
  Mn  Mn13  1  0.25000000  0.03169166  0.40385448  1
  Mn  Mn14  1  0.25000000  0.59597400  0.62774225  1
  Mn  Mn15  1  0.25000000  0.37236585  0.96825426  1
  O  O16  1  0.75000000  0.15629124  0.67854608  1
  O  O17  1  0.75000000  0.32147483  0.47773121  1
  O  O18  1  0.75000000  0.52220034  0.84368106  1
  O  O19  1  0.25000000  0.84370876  0.32145392  1
  O  O20  1  0.25000000  0.67852517  0.52226879  1
  O  O21  1  0.25000000  0.47779966  0.15631894  1
  O  O22  1  0.75000000  0.88091620  0.40748746  1
  O  O23  1  0.75000000  0.59245863  0.47339799  1
  O  O24  1  0.75000000  0.52659995  0.11903658  1
  O  O25  1  0.25000000  0.11908380  0.59251254  1
  O  O26  1  0.25000000  0.40754137  0.52660201  1
  O  O27  1  0.25000000  0.47340005  0.88096342  1
  O  O28  1  0.57496064  0.90612796  0.64865676  1
  O  O29  1  0.57497038  0.35136977  0.25746583  1
  O  O30  1  0.57497528  0.74247529  0.09385850  1
  O  O31  1  0.07496064  0.09387204  0.35134324  1
  O  O32  1  0.07497038  0.64863023  0.74253417  1
  O  O33  1  0.07497528  0.25752471  0.90614150  1
  O  O34  1  0.42503936  0.09387204  0.35134324  1
  O  O35  1  0.42502962  0.64863023  0.74253417  1
  O  O36  1  0.42502472  0.25752471  0.90614150  1
  O  O37  1  0.92503936  0.90612796  0.64865676  1
  O  O38  1  0.92502962  0.35136977  0.25746583  1
  O  O39  1  0.92502472  0.74247529  0.09385850  1
  F  F40  1  0.50000000  -0.00000000  0.00000000  1
  F  F41  1  -0.00000000  -0.00000000  0.00000000  1
