# generated using pymatgen
data_CsH6Rh(N3O4)2
_symmetry_space_group_name_H-M   'P 1'
_cell_length_a   7.32589054
_cell_length_b   12.24079451
_cell_length_c   14.06732200
_cell_angle_alpha   90.00000000
_cell_angle_beta   90.00000000
_cell_angle_gamma   90.00000000
_symmetry_Int_Tables_number   1
_chemical_formula_structural   CsH6Rh(N3O4)2
_chemical_formula_sum   'Cs4 H24 Rh4 N24 O32'
_cell_volume   1261.48317139
_cell_formula_units_Z   4
loop_
 _symmetry_equiv_pos_site_id
 _symmetry_equiv_pos_as_xyz
  1  'x, y, z'
loop_
 _atom_site_type_symbol
 _atom_site_label
 _atom_site_symmetry_multiplicity
 _atom_site_fract_x
 _atom_site_fract_y
 _atom_site_fract_z
 _atom_site_occupancy
  Cs  Cs0  1  0.29486750  0.38030435  0.97395915  1
  Cs  Cs1  1  0.20513250  0.61969565  0.47395915  1
  Cs  Cs2  1  0.79486750  0.11969565  0.02604085  1
  Cs  Cs3  1  0.70513250  0.88030435  0.52604085  1
  H  H4  1  0.90442009  0.59652539  0.71384661  1
  H  H5  1  0.59557991  0.40347461  0.21384661  1
  H  H6  1  0.40442009  0.90347461  0.28615339  1
  H  H7  1  0.09557991  0.09652539  0.78615339  1
  H  H8  1  0.05093681  0.49845601  0.74267596  1
  H  H9  1  0.44906319  0.50154399  0.24267596  1
  H  H10  1  0.55093681  0.00154399  0.25732404  1
  H  H11  1  0.94906319  0.99845601  0.75732404  1
  H  H12  1  0.88449923  0.53366917  0.81835685  1
  H  H13  1  0.61550077  0.46633083  0.31835685  1
  H  H14  1  0.38449923  0.96633083  0.18164315  1
  H  H15  1  0.11550077  0.03366917  0.68164315  1
  H  H16  1  0.57702016  0.22411622  0.64289120  1
  H  H17  1  0.92297984  0.77588378  0.14289120  1
  H  H18  1  0.07702016  0.27588378  0.35710880  1
  H  H19  1  0.42297984  0.72411622  0.85710880  1
  H  H20  1  0.56719709  0.30518696  0.54752268  1
  H  H21  1  0.93280291  0.69481304  0.04752268  1
  H  H22  1  0.06719709  0.19481304  0.45247732  1
  H  H23  1  0.43280291  0.80518696  0.95247732  1
  H  H24  1  0.42776566  0.32759894  0.63849611  1
  H  H25  1  0.07223434  0.67240106  0.13849611  1
  H  H26  1  0.92776566  0.17240106  0.36150389  1
  H  H27  1  0.57223434  0.82759894  0.86150389  1
  Rh  Rh28  1  0.73780545  0.41249850  0.68413909  1
  Rh  Rh29  1  0.76219455  0.58750150  0.18413909  1
  Rh  Rh30  1  0.23780545  0.08750150  0.31586091  1
  Rh  Rh31  1  0.26219455  0.91249850  0.81586091  1
  N  N32  1  0.76933051  0.30891581  0.79853365  1
  N  N33  1  0.73066949  0.69108419  0.29853365  1
  N  N34  1  0.26933051  0.19108419  0.20146635  1
  N  N35  1  0.23066949  0.80891581  0.70146635  1
  N  N36  1  0.70040078  0.52026323  0.57137063  1
  N  N37  1  0.79959922  0.47973677  0.07137063  1
  N  N38  1  0.20040078  0.97973677  0.42862937  1
  N  N39  1  0.29959922  0.02026323  0.92862937  1
  N  N40  1  0.95021490  0.33888473  0.61325660  1
  N  N41  1  0.54978510  0.66111527  0.11325660  1
  N  N42  1  0.45021490  0.16111527  0.38674340  1
  N  N43  1  0.04978510  0.83888473  0.88674340  1
  N  N44  1  0.51921543  0.48545791  0.75502292  1
  N  N45  1  0.98078457  0.51454209  0.25502292  1
  N  N46  1  0.01921543  0.01454209  0.24497708  1
  N  N47  1  0.48078457  0.98545791  0.74497708  1
  N  N48  1  0.91775089  0.52321475  0.74834320  1
  N  N49  1  0.58224911  0.47678525  0.24834320  1
  N  N50  1  0.41775089  0.97678525  0.25165680  1
  N  N51  1  0.08224911  0.02321475  0.75165680  1
  N  N52  1  0.55679478  0.30266744  0.62020792  1
  N  N53  1  0.94320522  0.69733256  0.12020792  1
  N  N54  1  0.05679478  0.19733256  0.37979208  1
  N  N55  1  0.44320522  0.80266744  0.87979208  1
  O  O56  1  0.07157793  0.39681406  0.57611280  1
  O  O57  1  0.42842207  0.60318594  0.07611280  1
  O  O58  1  0.57157793  0.10318594  0.42388720  1
  O  O59  1  0.92842207  0.89681406  0.92388720  1
  O  O60  1  0.95383178  0.23744974  0.60644191  1
  O  O61  1  0.54616822  0.76255026  0.10644191  1
  O  O62  1  0.45383178  0.26255026  0.39355809  1
  O  O63  1  0.04616822  0.73744974  0.89355809  1
  O  O64  1  0.78238965  0.61030169  0.57122753  1
  O  O65  1  0.71761035  0.38969831  0.07122753  1
  O  O66  1  0.28238965  0.88969831  0.42877247  1
  O  O67  1  0.21761035  0.11030169  0.92877247  1
  O  O68  1  0.92471561  0.29131462  0.83202041  1
  O  O69  1  0.57528439  0.70868538  0.33202041  1
  O  O70  1  0.42471561  0.20868538  0.16797959  1
  O  O71  1  0.07528439  0.79131462  0.66797959  1
  O  O72  1  0.54841984  0.54604899  0.82484867  1
  O  O73  1  0.95158016  0.45395101  0.32484867  1
  O  O74  1  0.04841984  0.95395101  0.17515133  1
  O  O75  1  0.45158016  0.04604899  0.67515133  1
  O  O76  1  0.59344890  0.49612213  0.50569284  1
  O  O77  1  0.90655110  0.50387787  0.00569284  1
  O  O78  1  0.09344890  0.00387787  0.49430716  1
  O  O79  1  0.40655110  0.99612213  0.99430716  1
  O  O80  1  0.63109690  0.26518205  0.83467939  1
  O  O81  1  0.86890310  0.73481795  0.33467939  1
  O  O82  1  0.13109690  0.23481795  0.16532061  1
  O  O83  1  0.36890310  0.76518205  0.66532061  1
  O  O84  1  0.35897345  0.46447960  0.72951049  1
  O  O85  1  0.14102655  0.53552040  0.22951049  1
  O  O86  1  0.85897345  0.03552040  0.27048951  1
  O  O87  1  0.64102655  0.96447960  0.77048951  1
