# generated using pymatgen
data_Pb3NO6
_symmetry_space_group_name_H-M   'P 1'
_cell_length_a   5.66874244
_cell_length_b   8.98513830
_cell_length_c   14.06689733
_cell_angle_alpha   90.00000000
_cell_angle_beta   90.00000000
_cell_angle_gamma   90.00000000
_symmetry_Int_Tables_number   1
_chemical_formula_structural   Pb3NO6
_chemical_formula_sum   'Pb12 N4 O24'
_cell_volume   716.48946504
_cell_formula_units_Z   4
loop_
 _symmetry_equiv_pos_site_id
 _symmetry_equiv_pos_as_xyz
  1  'x, y, z'
loop_
 _atom_site_type_symbol
 _atom_site_label
 _atom_site_symmetry_multiplicity
 _atom_site_fract_x
 _atom_site_fract_y
 _atom_site_fract_z
 _atom_site_occupancy
  Pb  Pb0  1  0.75000000  0.76693748  0.16234107  1
  Pb  Pb1  1  0.25000000  0.23306252  0.83765893  1
  Pb  Pb2  1  0.25000000  0.76693748  0.33765893  1
  Pb  Pb3  1  0.75000000  0.23306252  0.66234107  1
  Pb  Pb4  1  0.75000000  0.45550396  0.33538763  1
  Pb  Pb5  1  0.25000000  0.54449604  0.66461237  1
  Pb  Pb6  1  0.25000000  0.45550396  0.16461237  1
  Pb  Pb7  1  0.75000000  0.54449604  0.83538763  1
  Pb  Pb8  1  0.25000000  0.07813504  0.16589143  1
  Pb  Pb9  1  0.75000000  0.92186496  0.83410857  1
  Pb  Pb10  1  0.75000000  0.07813504  0.33410857  1
  Pb  Pb11  1  0.25000000  0.92186496  0.66589143  1
  N  N12  1  0.75000000  0.76918382  0.51038393  1
  N  N13  1  0.25000000  0.23081618  0.48961607  1
  N  N14  1  0.25000000  0.76918382  0.98961607  1
  N  N15  1  0.75000000  0.23081618  0.01038393  1
  O  O16  1  0.50000000  0.60486533  0.25000000  1
  O  O17  1  0.00000000  0.39513467  0.75000000  1
  O  O18  1  0.50000000  0.39513467  0.75000000  1
  O  O19  1  -0.00000000  0.60486533  0.25000000  1
  O  O20  1  0.50000000  0.92687521  0.25000000  1
  O  O21  1  -0.00000000  0.07312479  0.75000000  1
  O  O22  1  0.50000000  0.07312479  0.75000000  1
  O  O23  1  0.00000000  0.92687521  0.25000000  1
  O  O24  1  0.50000000  0.26635802  0.25000000  1
  O  O25  1  -0.00000000  0.73364198  0.75000000  1
  O  O26  1  0.50000000  0.73364198  0.75000000  1
  O  O27  1  0.00000000  0.26635802  0.25000000  1
  O  O28  1  0.75000000  0.77262559  0.41841124  1
  O  O29  1  0.25000000  0.22737441  0.58158876  1
  O  O30  1  0.25000000  0.77262559  0.08158876  1
  O  O31  1  0.75000000  0.22737441  0.91841124  1
  O  O32  1  0.75000000  0.89044715  0.55566050  1
  O  O33  1  0.25000000  0.10955285  0.44433950  1
  O  O34  1  0.25000000  0.89044715  0.94433950  1
  O  O35  1  0.75000000  0.10955285  0.05566050  1
  O  O36  1  0.75000000  0.64452966  0.55164606  1
  O  O37  1  0.25000000  0.35547034  0.44835394  1
  O  O38  1  0.25000000  0.64452966  0.94835394  1
  O  O39  1  0.75000000  0.35547034  0.05164606  1
