# generated using pymatgen
data_Lu3(CuSn)4
_symmetry_space_group_name_H-M   'P 1'
_cell_length_a   4.41617657
_cell_length_b   6.89342005
_cell_length_c   8.28091998
_cell_angle_alpha   113.53324756
_cell_angle_beta   105.46488259
_cell_angle_gamma   90.00000000
_symmetry_Int_Tables_number   1
_chemical_formula_structural   Lu3(CuSn)4
_chemical_formula_sum   'Lu3 Cu4 Sn4'
_cell_volume   221.13455509
_cell_formula_units_Z   1
loop_
 _symmetry_equiv_pos_site_id
 _symmetry_equiv_pos_as_xyz
  1  'x, y, z'
loop_
 _atom_site_type_symbol
 _atom_site_label
 _atom_site_symmetry_multiplicity
 _atom_site_fract_x
 _atom_site_fract_y
 _atom_site_fract_z
 _atom_site_occupancy
  Lu  Lu0  1  0.12916458  0.64508292  0.25832917  1
  Lu  Lu1  1  0.87083542  0.35491708  0.74167083  1
  Lu  Lu2  1  0.00000000  0.00000000  0.00000000  1
  Cu  Cu3  1  0.31258939  0.61608477  0.62517878  1
  Cu  Cu4  1  0.68741061  0.38391523  0.37482122  1
  Cu  Cu5  1  0.34279597  0.02362385  0.68559194  1
  Cu  Cu6  1  0.65720403  0.97637615  0.31440806  1
  Sn  Sn7  1  0.21664778  0.19508524  0.43329557  1
  Sn  Sn8  1  0.78335222  0.80491476  0.56670443  1
  Sn  Sn9  1  0.51206883  0.30778364  0.02413766  1
  Sn  Sn10  1  0.48793117  0.69221636  0.97586234  1
