# generated using pymatgen
data_Mn(BH4)2
_symmetry_space_group_name_H-M   'P 1'
_cell_length_a   10.27912814
_cell_length_b   10.28081125
_cell_length_c   10.97785828
_cell_angle_alpha   90.01518595
_cell_angle_beta   89.99593680
_cell_angle_gamma   120.00194213
_symmetry_Int_Tables_number   1
_chemical_formula_structural   Mn(BH4)2
_chemical_formula_sum   'Mn9 B18 H72'
_cell_volume   1004.66992445
_cell_formula_units_Z   9
loop_
 _symmetry_equiv_pos_site_id
 _symmetry_equiv_pos_as_xyz
  1  'x, y, z'
loop_
 _atom_site_type_symbol
 _atom_site_label
 _atom_site_symmetry_multiplicity
 _atom_site_fract_x
 _atom_site_fract_y
 _atom_site_fract_z
 _atom_site_occupancy
  Mn  Mn0  1  0.31347502  0.22114962  0.78882581  1
  Mn  Mn1  1  0.90827761  0.68699390  0.45544886  1
  Mn  Mn2  1  0.77878428  0.09208345  0.12222338  1
  Mn  Mn3  1  0.31282798  0.09183051  0.21110324  1
  Mn  Mn4  1  0.90822618  0.22136678  0.54472619  1
  Mn  Mn5  1  0.77886312  0.68684447  0.87782689  1
  Mn  Mn6  1  0.43359111  0.56656870  0.33326758  1
  Mn  Mn7  1  0.13301694  0.56637456  0.99997423  1
  Mn  Mn8  1  0.43330716  0.86675384  0.66672031  1
  B  B9  1  0.35121712  0.04553754  0.66444961  1
  B  B10  1  0.69435818  0.64880005  0.33106894  1
  B  B11  1  0.95439814  0.30553759  0.99778779  1
  B  B12  1  0.35113421  0.30544858  0.33550476  1
  B  B13  1  0.69448986  0.04569407  0.66884119  1
  B  B14  1  0.95436227  0.64880607  0.00219831  1
  B  B15  1  0.53139986  0.46864637  0.83332558  1
  B  B16  1  0.93733616  0.46883096  0.50000317  1
  B  B17  1  0.53129214  0.06272699  0.16663945  1
  B  B18  1  0.11402277  0.22784038  0.66670139  1
  B  B19  1  0.11381911  0.88604806  0.33333143  1
  B  B20  1  0.77217995  0.88615454  0.00002799  1
  B  B21  1  0.26951026  0.13475338  0.99991181  1
  B  B22  1  0.86523862  0.73049871  0.66669280  1
  B  B23  1  0.86538986  0.13495347  0.33340122  1
  B  B24  1  0.40062581  0.70026920  0.49997907  1
  B  B25  1  0.29962262  0.59927127  0.16660072  1
  B  B26  1  0.29961198  0.70025926  0.83337269  1
  H  H27  1  0.25994318  0.91070651  0.67466478  1
  H  H28  1  0.65067672  0.73995980  0.34131563  1
  H  H29  1  0.08923464  0.34901564  0.00793089  1
  H  H30  1  0.25980411  0.34902070  0.32537405  1
  H  H31  1  0.65092791  0.91081725  0.65864004  1
  H  H32  1  0.08922767  0.74010068  0.99204961  1
  H  H33  1  0.44660142  0.07416807  0.58666116  1
  H  H34  1  0.62756250  0.55333141  0.25332076  1
  H  H35  1  0.92578514  0.37229007  0.91997945  1
  H  H36  1  0.44656406  0.37227913  0.41328818  1
  H  H37  1  0.62767904  0.07426962  0.74666542  1
  H  H38  1  0.92572548  0.55340712  0.07995095  1
  H  H39  1  0.41372277  0.09239724  0.76387030  1
  H  H40  1  0.67876977  0.58635433  0.43050167  1
  H  H41  1  0.90765438  0.32132822  0.09719998  1
  H  H42  1  0.41360858  0.32120539  0.23608166  1
  H  H43  1  0.67870508  0.09240537  0.56945266  1
  H  H44  1  0.90765123  0.58631490  0.90274798  1
  H  H45  1  0.27568685  0.10041197  0.63105384  1
  H  H46  1  0.82475191  0.72432497  0.29764346  1
  H  H47  1  0.89936336  0.17512728  0.96437381  1
  H  H48  1  0.27569420  0.17510002  0.36886077  1
  H  H49  1  0.82488361  0.10058391  0.70219706  1
  H  H50  1  0.89942992  0.72425293  0.03562327  1
  H  H51  1  0.40828126  0.42842863  0.88051174  1
  H  H52  1  0.02023484  0.59193384  0.54718107  1
  H  H53  1  0.57148230  0.97987728  0.21388214  1
  H  H54  1  0.40818150  0.97968710  0.11940846  1
  H  H55  1  0.02034777  0.42874863  0.45277121  1
  H  H56  1  0.57149387  0.59169193  0.78613454  1
  H  H57  1  0.52929727  0.38442187  0.75149202  1
  H  H58  1  0.85518674  0.47085699  0.41819228  1
  H  H59  1  0.61545568  0.14485311  0.08485260  1
  H  H60  1  0.52898629  0.14474657  0.24847204  1
  H  H61  1  0.85528956  0.38464680  0.58184634  1
  H  H62  1  0.61564217  0.47081849  0.91514885  1
  H  H63  1  0.05019743  0.14196942  0.57977622  1
  H  H64  1  0.09169393  0.94979598  0.24640855  1
  H  H65  1  0.85812912  0.90823981  0.91316225  1
  H  H66  1  0.05003678  0.90812701  0.42028137  1
  H  H67  1  0.09198456  0.14198861  0.75360677  1
  H  H68  1  0.85805001  0.95006815  0.08697354  1
  H  H69  1  0.24698543  0.30800466  0.63836644  1
  H  H70  1  0.06108659  0.75311182  0.30502742  1
  H  H71  1  0.69196746  0.93886916  0.97163626  1
  H  H72  1  0.24678801  0.93883611  0.36163287  1
  H  H73  1  0.06131827  0.30805048  0.69511387  1
  H  H74  1  0.69203812  0.75327917  0.02843070  1
  H  H75  1  0.18793079  0.01148708  0.04729323  1
  H  H76  1  0.82347192  0.81199302  0.71410256  1
  H  H77  1  0.98872524  0.17666277  0.38070416  1
  H  H78  1  0.18801816  0.17651576  0.95252784  1
  H  H79  1  0.82347916  0.01162074  0.28605073  1
  H  H80  1  0.98848655  0.81199927  0.61927640  1
  H  H81  1  0.35267117  0.11828955  0.92912756  1
  H  H82  1  0.76561676  0.64731654  0.59587733  1
  H  H83  1  0.88172213  0.23448270  0.26262490  1
  H  H84  1  0.35257844  0.23430145  0.07080861  1
  H  H85  1  0.76591247  0.11852527  0.40435348  1
  H  H86  1  0.88176344  0.64741120  0.73749336  1
  H  H87  1  0.31701090  0.75268267  0.51597289  1
  H  H88  1  0.43563389  0.68293077  0.18261544  1
  H  H89  1  0.24718529  0.56424413  0.84933485  1
  H  H90  1  0.31700409  0.56421866  0.48404408  1
  H  H91  1  0.43565830  0.75262187  0.81745260  1
  H  H92  1  0.24715195  0.68284198  0.15065712  1
  H  H93  1  0.48115949  0.71249233  0.58700369  1
  H  H94  1  0.23132830  0.51880872  0.25364640  1
  H  H95  1  0.28740596  0.76855640  0.92041782  1
  H  H96  1  0.48110788  0.76848331  0.41296301  1
  H  H97  1  0.23136419  0.71248978  0.74634737  1
  H  H98  1  0.28742673  0.51875756  0.07959324  1
