# generated using pymatgen
data_InTe2O5F
_symmetry_space_group_name_H-M   'P 1'
_cell_length_a   6.78185661
_cell_length_b   6.78185661
_cell_length_c   13.43239399
_cell_angle_alpha   90.00000000
_cell_angle_beta   90.00000000
_cell_angle_gamma   116.23200436
_symmetry_Int_Tables_number   1
_chemical_formula_structural   InTe2O5F
_chemical_formula_sum   'In4 Te8 O20 F4'
_cell_volume   554.17725102
_cell_formula_units_Z   4
loop_
 _symmetry_equiv_pos_site_id
 _symmetry_equiv_pos_as_xyz
  1  'x, y, z'
loop_
 _atom_site_type_symbol
 _atom_site_label
 _atom_site_symmetry_multiplicity
 _atom_site_fract_x
 _atom_site_fract_y
 _atom_site_fract_z
 _atom_site_occupancy
  In  In0  1  0.24627267  0.05113908  0.12584197  1
  In  In1  1  0.05113908  0.24627267  0.87415803  1
  In  In2  1  0.75372733  0.94886092  0.62584197  1
  In  In3  1  0.94886092  0.75372733  0.37415803  1
  Te  Te4  1  0.85407669  0.31766379  0.10862200  1
  Te  Te5  1  0.31766379  0.85407669  0.89137800  1
  Te  Te6  1  0.14592331  0.68233621  0.60862200  1
  Te  Te7  1  0.68233621  0.14592331  0.39137800  1
  Te  Te8  1  0.62685637  0.73177254  0.14636138  1
  Te  Te9  1  0.73177254  0.62685637  0.85363862  1
  Te  Te10  1  0.37314363  0.26822746  0.64636138  1
  Te  Te11  1  0.26822746  0.37314363  0.35363862  1
  O  O12  1  0.90251755  0.98962367  0.12516707  1
  O  O13  1  0.98962367  0.90251755  0.87483293  1
  O  O14  1  0.09748245  0.01037633  0.62516707  1
  O  O15  1  0.01037633  0.09748245  0.37483293  1
  O  O16  1  0.66619562  0.70288687  0.28466109  1
  O  O17  1  0.70288687  0.66619562  0.71533891  1
  O  O18  1  0.33380438  0.29711313  0.78466109  1
  O  O19  1  0.29711313  0.33380438  0.21533891  1
  O  O20  1  0.11317410  0.58103475  0.83660602  1
  O  O21  1  0.58103475  0.11317410  0.16339398  1
  O  O22  1  0.88682590  0.41896525  0.33660602  1
  O  O23  1  0.41896525  0.88682590  0.66339398  1
  O  O24  1  0.73691815  0.54099690  0.08501496  1
  O  O25  1  0.54099690  0.73691815  0.91498504  1
  O  O26  1  0.26308185  0.45900310  0.58501496  1
  O  O27  1  0.45900310  0.26308185  0.41498504  1
  O  O28  1  0.23670680  0.79950700  0.02706359  1
  O  O29  1  0.79950700  0.23670680  0.97293641  1
  O  O30  1  0.76329320  0.20049300  0.52706359  1
  O  O31  1  0.20049300  0.76329320  0.47293641  1
  F  F32  1  0.17494702  0.82505298  0.25000000  1
  F  F33  1  0.82505298  0.17494702  0.75000000  1
  F  F34  1  0.26633880  0.26633880  0.00000000  1
  F  F35  1  0.73366120  0.73366120  0.50000000  1
