# generated using pymatgen
data_Ca4Al2P2H10O13F8
_symmetry_space_group_name_H-M   'P 1'
_cell_length_a   6.26571687
_cell_length_b   9.93954417
_cell_length_c   13.59596913
_cell_angle_alpha   89.66430887
_cell_angle_beta   77.73913208
_cell_angle_gamma   88.59176905
_symmetry_Int_Tables_number   1
_chemical_formula_structural   Ca4Al2P2H10O13F8
_chemical_formula_sum   'Ca8 Al4 P4 H20 O26 F16'
_cell_volume   827.17139879
_cell_formula_units_Z   2
loop_
 _symmetry_equiv_pos_site_id
 _symmetry_equiv_pos_as_xyz
  1  'x, y, z'
loop_
 _atom_site_type_symbol
 _atom_site_label
 _atom_site_symmetry_multiplicity
 _atom_site_fract_x
 _atom_site_fract_y
 _atom_site_fract_z
 _atom_site_occupancy
  Ca  Ca0  1  0.98923995  0.29919998  0.85453118  1
  Ca  Ca1  1  0.01076005  0.70080002  0.14546882  1
  Ca  Ca2  1  0.54316238  0.22068634  0.36768848  1
  Ca  Ca3  1  0.45683762  0.77931366  0.63231152  1
  Ca  Ca4  1  0.33065217  0.40155491  0.60611940  1
  Ca  Ca5  1  0.66934783  0.59844509  0.39388060  1
  Ca  Ca6  1  0.12871577  0.88577002  0.89716571  1
  Ca  Ca7  1  0.87128423  0.11422998  0.10283429  1
  Al  Al8  1  0.69902769  0.44638494  0.12165739  1
  Al  Al9  1  0.30097231  0.55361506  0.87834261  1
  Al  Al10  1  0.20402265  0.05935512  0.62415388  1
  Al  Al11  1  0.79597735  0.94064488  0.37584612  1
  P  P12  1  0.28741891  0.88824306  0.41929066  1
  P  P13  1  0.71258109  0.11175694  0.58070934  1
  P  P14  1  0.22206731  0.38092204  0.07809627  1
  P  P15  1  0.77793269  0.61907796  0.92190373  1
  H  H16  1  0.21347341  0.21848209  0.23615048  1
  H  H17  1  0.78652659  0.78151791  0.76384952  1
  H  H18  1  0.14567332  0.12320198  0.32989081  1
  H  H19  1  0.85432668  0.87679802  0.67010919  1
  H  H20  1  0.98422375  0.32501539  0.37233948  1
  H  H21  1  0.01577625  0.67498461  0.62766052  1
  H  H22  1  0.82063601  0.34526067  0.47781992  1
  H  H23  1  0.17936399  0.65473933  0.52218008  1
  H  H24  1  0.59485960  0.23225726  0.77875921  1
  H  H25  1  0.40514040  0.76774274  0.22124079  1
  H  H26  1  0.50788685  0.28241731  0.88913690  1
  H  H27  1  0.49211315  0.71758269  0.11086310  1
  H  H28  1  0.46352055  0.95495264  0.11659032  1
  H  H29  1  0.53647945  0.04504736  0.88340968  1
  H  H30  1  0.40014622  0.10938991  0.09752538  1
  H  H31  1  0.59985378  0.89061009  0.90247462  1
  H  H32  1  0.83797854  0.48241676  0.71340974  1
  H  H33  1  0.16202146  0.51758324  0.28659026  1
  H  H34  1  0.82612488  0.34641938  0.65583031  1
  H  H35  1  0.17387512  0.65358062  0.34416969  1
  O  O36  1  0.09920546  0.93619908  0.36985529  1
  O  O37  1  0.90079454  0.06380092  0.63014471  1
  O  O38  1  0.49131712  0.96996314  0.37185095  1
  O  O39  1  0.50868288  0.03003686  0.62814905  1
  O  O40  1  0.33296055  0.73446478  0.40170044  1
  O  O41  1  0.66703945  0.26553522  0.59829956  1
  O  O42  1  0.23420218  0.91037802  0.53519044  1
  O  O43  1  0.76579782  0.08962198  0.46480956  1
  O  O44  1  0.19242357  0.23099373  0.10754504  1
  O  O45  1  0.80757643  0.76900627  0.89245496  1
  O  O46  1  0.39996920  0.44407747  0.12424729  1
  O  O47  1  0.60003080  0.55592253  0.87575271  1
  O  O48  1  0.00719810  0.46223203  0.12139244  1
  O  O49  1  0.99280190  0.53776797  0.87860756  1
  O  O50  1  0.27395509  0.39191071  0.96022979  1
  O  O51  1  0.72604491  0.60808929  0.03977021  1
  O  O52  1  0.20663977  0.21317668  0.31002042  1
  O  O53  1  0.79336023  0.78682332  0.68997958  1
  O  O54  1  0.84562401  0.37143689  0.40587946  1
  O  O55  1  0.15437599  0.62856311  0.59412054  1
  O  O56  1  0.61817903  0.22134217  0.84757808  1
  O  O57  1  0.38182097  0.77865783  0.15242192  1
  O  O58  1  0.52030486  0.04706655  0.10670129  1
  O  O59  1  0.47969514  0.95293345  0.89329871  1
  O  O60  1  0.91975615  0.39865391  0.69380443  1
  O  O61  1  0.08024385  0.60134609  0.30619557  1
  F  F62  1  0.19029667  0.19627862  0.71396336  1
  F  F63  1  0.80970333  0.80372138  0.28603664  1
  F  F64  1  0.27050157  0.18853019  0.52472390  1
  F  F65  1  0.72949843  0.81146981  0.47527610  1
  F  F66  1  0.00471943  0.09892098  0.92953094  1
  F  F67  1  0.99528057  0.90107902  0.07046906  1
  F  F68  1  0.65962312  0.56297995  0.22838778  1
  F  F69  1  0.34037688  0.43702005  0.77161222  1
  F  F70  1  0.41339324  0.42667356  0.43294755  1
  F  F71  1  0.58660676  0.57332644  0.56705245  1
  F  F72  1  0.68112852  0.29977797  0.20668289  1
  F  F73  1  0.31887148  0.70022203  0.79331711  1
  F  F74  1  0.16145727  0.93297262  0.72651161  1
  F  F75  1  0.83854273  0.06702738  0.27348839  1
  F  F76  1  0.77224510  0.32375664  0.01855753  1
  F  F77  1  0.22775490  0.67624336  0.98144247  1
