# generated using pymatgen
data_Mg2B4H15
_symmetry_space_group_name_H-M   'P 1'
_cell_length_a   8.03198370
_cell_length_b   7.95632128
_cell_length_c   10.15940324
_cell_angle_alpha   88.38922806
_cell_angle_beta   92.45418044
_cell_angle_gamma   90.32305790
_symmetry_Int_Tables_number   1
_chemical_formula_structural   Mg2B4H15
_chemical_formula_sum   'Mg4 B8 H30'
_cell_volume   648.37890420
_cell_formula_units_Z   2
loop_
 _symmetry_equiv_pos_site_id
 _symmetry_equiv_pos_as_xyz
  1  'x, y, z'
loop_
 _atom_site_type_symbol
 _atom_site_label
 _atom_site_symmetry_multiplicity
 _atom_site_fract_x
 _atom_site_fract_y
 _atom_site_fract_z
 _atom_site_occupancy
  Mg  Mg0  1  0.10897492  0.53639363  0.20618228  1
  Mg  Mg1  1  0.37874261  0.96741674  0.79658618  1
  Mg  Mg2  1  0.93057383  0.02811356  0.00278849  1
  Mg  Mg3  1  0.28268479  0.47872655  0.52760839  1
  B  B4  1  0.35021975  0.72949393  0.64768787  1
  B  B5  1  0.17574077  0.89895014  0.94891944  1
  B  B6  1  0.65491568  0.00618386  0.91021967  1
  B  B7  1  0.08080297  0.79094477  0.08113945  1
  B  B8  1  0.99773535  0.29393848  0.08875900  1
  B  B9  1  0.01430988  0.58718137  0.43209630  1
  B  B10  1  0.37190731  0.41127928  0.30333403  1
  B  B11  1  0.34126602  0.22441956  0.65970469  1
  H  H12  1  0.77854519  0.01308904  0.84222535  1
  H  H13  1  0.18686574  0.77633883  0.17160759  1
  H  H14  1  0.90218051  0.39525554  0.13210325  1
  H  H15  1  0.14619871  0.65415028  0.39863817  1
  H  H16  1  0.45032443  0.29989979  0.25846237  1
  H  H17  1  0.27958938  0.20550467  0.76780793  1
  H  H18  1  0.47102442  0.74437405  0.72432261  1
  H  H19  1  0.56854897  0.12607108  0.87454005  1
  H  H20  1  0.14487424  0.33485588  0.08813973  1
  H  H21  1  0.02910336  0.65519046  0.03909683  1
  H  H22  1  0.45253217  0.47554062  0.39564330  1
  H  H23  1  0.94136229  0.51615031  0.33942094  1
  H  H24  1  0.25982493  0.85228896  0.63359724  1
  H  H25  1  0.22391585  0.23407183  0.57818269  1
  H  H26  1  0.26728840  0.01641420  0.98341452  1
  H  H27  1  0.59412265  0.86657244  0.89456605  1
  H  H28  1  0.08195717  0.95648774  0.85686625  1
  H  H29  1  0.95368000  0.27833150  0.97200423  1
  H  H30  1  0.25390170  0.78847961  0.89799116  1
  H  H31  1  0.68188865  0.01935600  0.02983571  1
  H  H32  1  0.99018152  0.16639835  0.15966975  1
  H  H33  1  0.95883644  0.84766738  0.13752986  1
  H  H34  1  0.03840856  0.47128880  0.51443021  1
  H  H35  1  0.35310699  0.52918663  0.22229990  1
  H  H36  1  0.42964384  0.10960674  0.62645184  1
  H  H37  1  0.26430396  0.61472802  0.69280213  1
  H  H38  1  0.92767550  0.69368771  0.47458890  1
  H  H39  1  0.23705384  0.35220612  0.33831738  1
  H  H40  1  0.40793273  0.70421477  0.53997297  1
  H  H41  1  0.43122097  0.34955079  0.66742231  1
