# generated using pymatgen
data_Na3P2H19O16
_symmetry_space_group_name_H-M   'P 1'
_cell_length_a   6.17360831
_cell_length_b   8.32790619
_cell_length_c   31.77280878
_cell_angle_alpha   90.00000000
_cell_angle_beta   90.00000000
_cell_angle_gamma   108.94247573
_symmetry_Int_Tables_number   1
_chemical_formula_structural   Na3P2H19O16
_chemical_formula_sum   'Na12 P8 H76 O64'
_cell_volume   1545.07818896
_cell_formula_units_Z   4
loop_
 _symmetry_equiv_pos_site_id
 _symmetry_equiv_pos_as_xyz
  1  'x, y, z'
loop_
 _atom_site_type_symbol
 _atom_site_label
 _atom_site_symmetry_multiplicity
 _atom_site_fract_x
 _atom_site_fract_y
 _atom_site_fract_z
 _atom_site_occupancy
  Na  Na0  1  0.85751686  0.62035276  0.24145861  1
  Na  Na1  1  0.35751686  0.12035276  0.25854139  1
  Na  Na2  1  0.14248314  0.37964724  0.75854139  1
  Na  Na3  1  0.64248314  0.87964724  0.74145861  1
  Na  Na4  1  0.17814099  0.66726023  0.33366088  1
  Na  Na5  1  0.67814099  0.16726023  0.16633912  1
  Na  Na6  1  0.82185901  0.33273977  0.66633912  1
  Na  Na7  1  0.32185901  0.83273977  0.83366088  1
  Na  Na8  1  0.28998773  0.09284019  0.51731425  1
  Na  Na9  1  0.78998773  0.59284019  0.98268575  1
  Na  Na10  1  0.71001227  0.90715981  0.48268575  1
  Na  Na11  1  0.21001227  0.40715981  0.01731425  1
  P  P12  1  0.88540119  0.90139902  0.10875106  1
  P  P13  1  0.38540119  0.40139902  0.39124894  1
  P  P14  1  0.11459881  0.09860098  0.89124894  1
  P  P15  1  0.61459881  0.59860098  0.60875106  1
  P  P16  1  0.49398203  0.71632099  0.16386367  1
  P  P17  1  0.99398203  0.21632099  0.33613633  1
  P  P18  1  0.50601797  0.28367901  0.83613633  1
  P  P19  1  0.00601797  0.78367901  0.66386367  1
  H  H20  1  0.21444162  0.84421407  0.11875582  1
  H  H21  1  0.71444162  0.34421407  0.38124418  1
  H  H22  1  0.78555838  0.15578593  0.88124418  1
  H  H23  1  0.28555838  0.65578593  0.61875582  1
  H  H24  1  0.72556880  0.37452164  0.30456600  1
  H  H25  1  0.22556880  0.87452164  0.19543400  1
  H  H26  1  0.27443120  0.62547836  0.69543400  1
  H  H27  1  0.77443120  0.12547836  0.80456600  1
  H  H28  1  0.50417613  0.42111196  0.29863304  1
  H  H29  1  0.00417613  0.92111196  0.20136696  1
  H  H30  1  0.49582387  0.57888804  0.70136696  1
  H  H31  1  0.99582387  0.07888804  0.79863304  1
  H  H32  1  0.05116409  0.49745602  0.16710986  1
  H  H33  1  0.55116409  0.99745602  0.33289014  1
  H  H34  1  0.94883591  0.50254398  0.83289014  1
  H  H35  1  0.44883591  0.00254398  0.66710986  1
  H  H36  1  0.82441431  0.53275258  0.15572602  1
  H  H37  1  0.32441431  0.03275258  0.34427398  1
  H  H38  1  0.17558569  0.46724742  0.84427398  1
  H  H39  1  0.67558569  0.96724742  0.65572602  1
  H  H40  1  0.71738931  0.67168600  0.32709890  1
  H  H41  1  0.21738931  0.17168600  0.17290110  1
  H  H42  1  0.28261069  0.32831400  0.67290110  1
  H  H43  1  0.78261069  0.82831400  0.82709890  1
  H  H44  1  0.86467255  0.86030521  0.32049004  1
  H  H45  1  0.36467255  0.36030521  0.17950996  1
  H  H46  1  0.13532745  0.13969479  0.67950996  1
  H  H47  1  0.63532745  0.63969479  0.82049004  1
  H  H48  1  0.17187428  0.44084135  0.26846151  1
  H  H49  1  0.67187428  0.94084135  0.23153849  1
  H  H50  1  0.82812572  0.55915865  0.73153849  1
  H  H51  1  0.32812572  0.05915865  0.76846151  1
  H  H52  1  0.33255722  0.60787316  0.24459056  1
  H  H53  1  0.83255722  0.10787316  0.25540944  1
  H  H54  1  0.66744278  0.39212684  0.75540944  1
  H  H55  1  0.16744278  0.89212684  0.74459056  1
  H  H56  1  0.99194448  0.73865076  0.41276290  1
  H  H57  1  0.49194448  0.23865076  0.08723710  1
  H  H58  1  0.00805552  0.26134924  0.58723710  1
  H  H59  1  0.50805552  0.76134924  0.91276290  1
  H  H60  1  0.14888251  0.61754810  0.41924043  1
  H  H61  1  0.64888251  0.11754810  0.08075957  1
  H  H62  1  0.85111749  0.38245190  0.58075957  1
  H  H63  1  0.35111749  0.88245190  0.91924043  1
  H  H64  1  0.07616564  0.26358337  0.46222506  1
  H  H65  1  0.57616564  0.76358337  0.03777494  1
  H  H66  1  0.92383436  0.73641663  0.53777494  1
  H  H67  1  0.42383436  0.23641663  0.96222506  1
  H  H68  1  0.88126131  0.24698196  0.49506209  1
  H  H69  1  0.38126131  0.74698196  0.00493791  1
  H  H70  1  0.11873869  0.75301804  0.50493791  1
  H  H71  1  0.61873869  0.25301804  0.99506209  1
  H  H72  1  0.36426945  0.26960251  0.60150501  1
  H  H73  1  0.86426945  0.76960251  0.89849499  1
  H  H74  1  0.63573055  0.73039749  0.39849499  1
  H  H75  1  0.13573055  0.23039749  0.10150501  1
  H  H76  1  0.19990469  0.08502328  0.60720533  1
  H  H77  1  0.69990469  0.58502328  0.89279467  1
  H  H78  1  0.80009531  0.91497672  0.39279467  1
  H  H79  1  0.30009531  0.41497672  0.10720533  1
  H  H80  1  0.51950408  0.89483662  0.56808621  1
  H  H81  1  0.01950408  0.39483662  0.93191379  1
  H  H82  1  0.48049592  0.10516338  0.43191379  1
  H  H83  1  0.98049592  0.60516338  0.06808621  1
  H  H84  1  0.67472784  0.08854569  0.56522997  1
  H  H85  1  0.17472784  0.58854569  0.93477003  1
  H  H86  1  0.32527216  0.91145431  0.43477003  1
  H  H87  1  0.82527216  0.41145431  0.06522997  1
  H  H88  1  0.38251279  0.61245291  0.52522216  1
  H  H89  1  0.88251279  0.11245291  0.97477784  1
  H  H90  1  0.61748721  0.38754709  0.47477784  1
  H  H91  1  0.11748721  0.88754709  0.02522216  1
  H  H92  1  0.34232855  0.56596590  0.47658452  1
  H  H93  1  0.84232855  0.06596590  0.02341548  1
  H  H94  1  0.65767145  0.43403410  0.52341548  1
  H  H95  1  0.15767145  0.93403410  0.97658452  1
  O  O96  1  0.96459142  0.05051871  0.13881605  1
  O  O97  1  0.46459142  0.55051871  0.36118395  1
  O  O98  1  0.03540858  0.94948129  0.86118395  1
  O  O99  1  0.53540858  0.44948129  0.63881605  1
  O  O100  1  0.76775064  0.93076867  0.06892032  1
  O  O101  1  0.26775064  0.43076867  0.43107968  1
  O  O102  1  0.23224936  0.06923133  0.93107968  1
  O  O103  1  0.73224936  0.56923133  0.56892032  1
  O  O104  1  0.09104476  0.83515245  0.09562368  1
  O  O105  1  0.59104476  0.33515245  0.40437632  1
  O  O106  1  0.90895524  0.16484755  0.90437632  1
  O  O107  1  0.40895524  0.66484755  0.59562368  1
  O  O108  1  0.71862808  0.73566852  0.13293275  1
  O  O109  1  0.21862808  0.23566852  0.36706725  1
  O  O110  1  0.28137192  0.26433148  0.86706725  1
  O  O111  1  0.78137192  0.76433148  0.63293275  1
  O  O112  1  0.58311604  0.72856762  0.20894904  1
  O  O113  1  0.08311604  0.22856762  0.29105096  1
  O  O114  1  0.41688396  0.27143238  0.79105096  1
  O  O115  1  0.91688396  0.77143238  0.70894904  1
  O  O116  1  0.40062719  0.86139556  0.15256863  1
  O  O117  1  0.90062719  0.36139556  0.34743137  1
  O  O118  1  0.59937281  0.13860444  0.84743137  1
  O  O119  1  0.09937281  0.63860444  0.65256863  1
  O  O120  1  0.33163010  0.53977614  0.15228766  1
  O  O121  1  0.83163010  0.03977614  0.34771234  1
  O  O122  1  0.66836990  0.46022386  0.84771234  1
  O  O123  1  0.16836990  0.96022386  0.65228766  1
  O  O124  1  0.61611289  0.38617931  0.28262344  1
  O  O125  1  0.11611289  0.88617931  0.21737656  1
  O  O126  1  0.38388711  0.61382069  0.71737656  1
  O  O127  1  0.88388711  0.11382069  0.78262344  1
  O  O128  1  0.88639077  0.46778002  0.17513841  1
  O  O129  1  0.38639077  0.96778002  0.32486159  1
  O  O130  1  0.11360923  0.53221998  0.82486159  1
  O  O131  1  0.61360923  0.03221998  0.67513841  1
  O  O132  1  0.85131260  0.74355473  0.31141586  1
  O  O133  1  0.35131260  0.24355473  0.18858414  1
  O  O134  1  0.14868740  0.25644527  0.68858414  1
  O  O135  1  0.64868740  0.75644527  0.81141586  1
  O  O136  1  0.20226130  0.56405319  0.26420118  1
  O  O137  1  0.70226130  0.06405319  0.23579882  1
  O  O138  1  0.79773870  0.43594681  0.73579882  1
  O  O139  1  0.29773870  0.93594681  0.76420118  1
  O  O140  1  0.14577493  0.72708925  0.40807976  1
  O  O141  1  0.64577493  0.22708925  0.09192024  1
  O  O142  1  0.85422507  0.27291075  0.59192024  1
  O  O143  1  0.35422507  0.77291075  0.90807976  1
  O  O144  1  0.98834174  0.18956990  0.48501428  1
  O  O145  1  0.48834174  0.68956990  0.01498572  1
  O  O146  1  0.01165826  0.81043010  0.51498572  1
  O  O147  1  0.51165826  0.31043010  0.98501428  1
  O  O148  1  0.24042450  0.18153761  0.58687394  1
  O  O149  1  0.74042450  0.68153761  0.91312606  1
  O  O150  1  0.75957550  0.81846239  0.41312606  1
  O  O151  1  0.25957550  0.31846239  0.08687394  1
  O  O152  1  0.58124264  0.98882748  0.54847578  1
  O  O153  1  0.08124264  0.48882748  0.95152422  1
  O  O154  1  0.41875736  0.01117252  0.45152422  1
  O  O155  1  0.91875736  0.51117252  0.04847578  1
  O  O156  1  0.37010549  0.65897686  0.49751526  1
  O  O157  1  0.87010549  0.15897686  0.00248474  1
  O  O158  1  0.62989451  0.34102314  0.50248474  1
  O  O159  1  0.12989451  0.84102314  0.99751526  1
