# generated using pymatgen
data_U2CoSi2(H7O9)2
_symmetry_space_group_name_H-M   'P 1'
_cell_length_a   7.08175856
_cell_length_b   9.55110406
_cell_length_c   12.83381399
_cell_angle_alpha   90.00000000
_cell_angle_beta   90.00000000
_cell_angle_gamma   111.76063545
_symmetry_Int_Tables_number   1
_chemical_formula_structural   U2CoSi2(H7O9)2
_chemical_formula_sum   'U4 Co2 Si4 H28 O36'
_cell_volume   806.20397626
_cell_formula_units_Z   2
loop_
 _symmetry_equiv_pos_site_id
 _symmetry_equiv_pos_as_xyz
  1  'x, y, z'
loop_
 _atom_site_type_symbol
 _atom_site_label
 _atom_site_symmetry_multiplicity
 _atom_site_fract_x
 _atom_site_fract_y
 _atom_site_fract_z
 _atom_site_occupancy
  U  U0  1  0.29190416  0.58380831  0.18037526  1
  U  U1  1  0.70809584  0.41619169  0.81962474  1
  U  U2  1  0.20809584  0.41619169  0.68037526  1
  U  U3  1  0.79190416  0.58380831  0.31962474  1
  Co  Co4  1  0.00000000  0.00000000  0.00000000  1
  Co  Co5  1  0.50000000  0.00000000  0.50000000  1
  Si  Si6  1  0.29901569  0.59803138  0.42985347  1
  Si  Si7  1  0.70098431  0.40196862  0.57014653  1
  Si  Si8  1  0.20098431  0.40196862  0.92985347  1
  Si  Si9  1  0.79901569  0.59803138  0.07014653  1
  H  H10  1  0.13768884  0.27537768  0.07969703  1
  H  H11  1  0.86231116  0.72462232  0.92030297  1
  H  H12  1  0.36231116  0.72462232  0.57969703  1
  H  H13  1  0.63768884  0.27537768  0.42030297  1
  H  H14  1  0.11907905  0.23815810  0.32210285  1
  H  H15  1  0.88092095  0.76184190  0.67789715  1
  H  H16  1  0.38092095  0.76184190  0.82210285  1
  H  H17  1  0.61907905  0.23815810  0.17789715  1
  H  H18  1  0.69394189  0.90090280  0.13972609  1
  H  H19  1  0.30605811  0.09909720  0.86027391  1
  H  H20  1  0.80605811  0.09909720  0.63972609  1
  H  H21  1  0.70696091  0.90090280  0.36027391  1
  H  H22  1  0.19394189  0.90090280  0.36027391  1
  H  H23  1  0.29303909  0.09909720  0.63972609  1
  H  H24  1  0.79303909  0.09909720  0.86027391  1
  H  H25  1  0.20696091  0.90090280  0.13972609  1
  H  H26  1  0.13874413  0.27748827  0.44112475  1
  H  H27  1  0.86125587  0.72251173  0.55887525  1
  H  H28  1  0.36125587  0.72251173  0.94112475  1
  H  H29  1  0.63874413  0.27748827  0.05887525  1
  H  H30  1  0.34937816  0.06550939  0.10764753  1
  H  H31  1  0.65062184  0.93449061  0.89235247  1
  H  H32  1  0.15062184  0.93449061  0.60764753  1
  H  H33  1  0.21613124  0.06550939  0.39235247  1
  H  H34  1  0.84937816  0.06550939  0.39235247  1
  H  H35  1  0.78386876  0.93449061  0.60764753  1
  H  H36  1  0.28386876  0.93449061  0.89235247  1
  H  H37  1  0.71613124  0.06550939  0.10764753  1
  O  O38  1  0.12369405  0.24738810  0.00467835  1
  O  O39  1  0.87630595  0.75261190  0.99532165  1
  O  O40  1  0.37630595  0.75261190  0.50467835  1
  O  O41  1  0.62369405  0.24738810  0.49532165  1
  O  O42  1  0.20328553  0.99646767  0.11462245  1
  O  O43  1  0.79671447  0.00353233  0.88537755  1
  O  O44  1  0.29671447  0.00353233  0.61462245  1
  O  O45  1  0.29318214  0.99646767  0.38537755  1
  O  O46  1  0.70328553  0.99646767  0.38537755  1
  O  O47  1  0.70681786  0.00353233  0.61462245  1
  O  O48  1  0.20681786  0.00353233  0.88537755  1
  O  O49  1  0.79318214  0.99646767  0.11462245  1
  O  O50  1  0.62454398  0.60085161  0.15363082  1
  O  O51  1  0.37545602  0.39914839  0.84636918  1
  O  O52  1  0.87545602  0.39914839  0.65363082  1
  O  O53  1  0.47630762  0.60085161  0.34636918  1
  O  O54  1  0.12454398  0.60085161  0.34636918  1
  O  O55  1  0.52369238  0.39914839  0.65363082  1
  O  O56  1  0.02369238  0.39914839  0.84636918  1
  O  O57  1  0.97630762  0.60085161  0.15363082  1
  O  O58  1  0.27406824  0.54813649  0.00700205  1
  O  O59  1  0.72593176  0.45186351  0.99299795  1
  O  O60  1  0.22593176  0.45186351  0.50700205  1
  O  O61  1  0.77406824  0.54813649  0.49299795  1
  O  O62  1  0.39492033  0.78984065  0.16555514  1
  O  O63  1  0.60507967  0.21015935  0.83444486  1
  O  O64  1  0.10507967  0.21015935  0.66555514  1
  O  O65  1  0.89492033  0.78984065  0.33444486  1
  O  O66  1  0.18761513  0.37523026  0.19700896  1
  O  O67  1  0.81238487  0.62476974  0.80299104  1
  O  O68  1  0.31238487  0.62476974  0.69700896  1
  O  O69  1  0.68761513  0.37523026  0.30299104  1
  O  O70  1  0.09528046  0.19056092  0.39135977  1
  O  O71  1  0.90471954  0.80943908  0.60864023  1
  O  O72  1  0.40471954  0.80943908  0.89135977  1
  O  O73  1  0.59528046  0.19056092  0.10864023  1
