# generated using pymatgen
data_YWClO4
_symmetry_space_group_name_H-M   'P 1'
_cell_length_a   6.36565381
_cell_length_b   6.36565381
_cell_length_c   6.95230579
_cell_angle_alpha   76.02704180
_cell_angle_beta   76.02704180
_cell_angle_gamma   70.81285904
_symmetry_Int_Tables_number   1
_chemical_formula_structural   YWClO4
_chemical_formula_sum   'Y2 W2 Cl2 O8'
_cell_volume   254.12492180
_cell_formula_units_Z   2
loop_
 _symmetry_equiv_pos_site_id
 _symmetry_equiv_pos_as_xyz
  1  'x, y, z'
loop_
 _atom_site_type_symbol
 _atom_site_label
 _atom_site_symmetry_multiplicity
 _atom_site_fract_x
 _atom_site_fract_y
 _atom_site_fract_z
 _atom_site_occupancy
  Y  Y0  1  0.27790230  0.27790230  0.61596342  1
  Y  Y1  1  0.72209770  0.72209770  0.38403658  1
  W  W2  1  0.13723828  0.13723828  0.23238948  1
  W  W3  1  0.86276172  0.86276172  0.76761052  1
  Cl  Cl4  1  0.51070564  0.51070564  0.73161653  1
  Cl  Cl5  1  0.48929436  0.48929436  0.26838347  1
  O  O6  1  0.04398654  0.04398654  0.70188491  1
  O  O7  1  0.95601346  0.95601346  0.29811509  1
  O  O8  1  0.61015072  0.99056703  0.65130205  1
  O  O9  1  0.38984928  0.00943297  0.34869795  1
  O  O10  1  0.00943297  0.38984928  0.34869795  1
  O  O11  1  0.99056703  0.61015072  0.65130205  1
  O  O12  1  0.20640826  0.20640826  0.96380177  1
  O  O13  1  0.79359174  0.79359174  0.03619823  1
