# generated using pymatgen
data_Yb4Si7
_symmetry_space_group_name_H-M   'P 1'
_cell_length_a   7.84658848
_cell_length_b   7.84658862
_cell_length_c   8.71980057
_cell_angle_alpha   90.00000000
_cell_angle_beta   90.00000000
_cell_angle_gamma   120.44221072
_symmetry_Int_Tables_number   1
_chemical_formula_structural   Yb4Si7
_chemical_formula_sum   'Yb8 Si14'
_cell_volume   462.85656294
_cell_formula_units_Z   2
loop_
 _symmetry_equiv_pos_site_id
 _symmetry_equiv_pos_as_xyz
  1  'x, y, z'
loop_
 _atom_site_type_symbol
 _atom_site_label
 _atom_site_symmetry_multiplicity
 _atom_site_fract_x
 _atom_site_fract_y
 _atom_site_fract_z
 _atom_site_occupancy
  Yb  Yb0  1  0.25291077  0.25291077  0.00000000  1
  Yb  Yb1  1  0.74708923  0.74708923  0.00000000  1
  Yb  Yb2  1  0.74708923  0.74708923  0.50000000  1
  Yb  Yb3  1  0.25291077  0.25291077  0.50000000  1
  Yb  Yb4  1  0.25254920  0.74745080  0.49370372  1
  Yb  Yb5  1  0.74745080  0.25254920  0.50629628  1
  Yb  Yb6  1  0.74745080  0.25254920  0.99370372  1
  Yb  Yb7  1  0.25254920  0.74745080  0.00629628  1
  Si  Si8  1  0.05682016  0.37032197  0.25000000  1
  Si  Si9  1  0.94317984  0.62967803  0.75000000  1
  Si  Si10  1  0.58368323  0.41631677  0.25000000  1
  Si  Si11  1  0.41631677  0.58368323  0.75000000  1
  Si  Si12  1  0.41065924  0.58934076  0.25000000  1
  Si  Si13  1  0.58934076  0.41065924  0.75000000  1
  Si  Si14  1  0.06495406  0.93504594  0.25000000  1
  Si  Si15  1  0.93504594  0.06495406  0.75000000  1
  Si  Si16  1  0.62967803  0.94317984  0.25000000  1
  Si  Si17  1  0.37032197  0.05682016  0.75000000  1
  Si  Si18  1  0.93051779  0.58797043  0.25000000  1
  Si  Si19  1  0.06948221  0.41202957  0.75000000  1
  Si  Si20  1  0.41202957  0.06948221  0.25000000  1
  Si  Si21  1  0.58797043  0.93051779  0.75000000  1
