# generated using pymatgen
data_V3Pb2O9
_symmetry_space_group_name_H-M   'P 1'
_cell_length_a   7.14739370
_cell_length_b   7.46019447
_cell_length_c   9.16557468
_cell_angle_alpha   103.48993586
_cell_angle_beta   102.04085207
_cell_angle_gamma   116.45389482
_symmetry_Int_Tables_number   1
_chemical_formula_structural   V3Pb2O9
_chemical_formula_sum   'V6 Pb4 O18'
_cell_volume   397.11335150
_cell_formula_units_Z   2
loop_
 _symmetry_equiv_pos_site_id
 _symmetry_equiv_pos_as_xyz
  1  'x, y, z'
loop_
 _atom_site_type_symbol
 _atom_site_label
 _atom_site_symmetry_multiplicity
 _atom_site_fract_x
 _atom_site_fract_y
 _atom_site_fract_z
 _atom_site_occupancy
  V  V0  1  0.75290862  0.97373629  0.51218937  1
  V  V1  1  0.74071925  0.46154692  0.48781063  1
  V  V2  1  0.57322728  0.57710617  0.15976630  1
  V  V3  1  0.91346098  0.41733987  0.84023370  1
  V  V4  1  0.33485168  0.83762831  0.67946011  1
  V  V5  1  0.15539157  0.15816820  0.32053989  1
  Pb  Pb6  1  0.95454486  0.95501529  0.90689787  1
  Pb  Pb7  1  0.54764699  0.04811742  0.09310213  1
  Pb  Pb8  1  0.37353607  0.37777249  0.75897750  1
  Pb  Pb9  1  0.11455856  0.61879498  0.24102250  1
  O  O10  1  0.02791882  0.06607084  0.45371325  1
  O  O11  1  0.07420557  0.61235759  0.54628675  1
  O  O12  1  0.48262802  0.94830234  0.56227441  1
  O  O13  1  0.42035361  0.38602793  0.43772559  1
  O  O14  1  0.78026032  0.78251328  0.57147465  1
  O  O15  1  0.70878568  0.21103863  0.42852535  1
  O  O16  1  0.78475211  0.32517613  0.96715107  1
  O  O17  1  0.31760105  0.35802506  0.03284893  1
  O  O18  1  0.49986682  0.77799140  0.80336308  1
  O  O19  1  0.19650374  0.97462832  0.19663692  1
  O  O20  1  0.29175754  0.01648278  0.80774325  1
  O  O21  1  0.98401429  0.20873953  0.19225675  1
  O  O22  1  0.95426412  0.21536465  0.72658146  1
  O  O23  1  0.72768267  0.48878319  0.27341854  1
  O  O24  1  0.16614851  0.64429663  0.95706170  1
  O  O25  1  0.70908681  0.68723493  0.04293830  1
  O  O26  1  0.54004047  0.77474866  0.28535650  1
  O  O27  1  0.75468398  0.48939216  0.71464350  1
