# generated using pymatgen
data_Ti3NbZnBi3O14
_symmetry_space_group_name_H-M   'P 1'
_cell_length_a   10.44510144
_cell_length_b   10.44510144
_cell_length_c   10.44510144
_cell_angle_alpha   90.00000000
_cell_angle_beta   90.00000000
_cell_angle_gamma   90.00000000
_symmetry_Int_Tables_number   1
_chemical_formula_structural   Ti3NbZnBi3O14
_chemical_formula_sum   'Ti12 Nb4 Zn4 Bi12 O56'
_cell_volume   1139.56207216
_cell_formula_units_Z   4
loop_
 _symmetry_equiv_pos_site_id
 _symmetry_equiv_pos_as_xyz
  1  'x, y, z'
loop_
 _atom_site_type_symbol
 _atom_site_label
 _atom_site_symmetry_multiplicity
 _atom_site_fract_x
 _atom_site_fract_y
 _atom_site_fract_z
 _atom_site_occupancy
  Ti  Ti0  1  0.12500000  0.88632234  0.13632234  1
  Ti  Ti1  1  0.37500000  0.11367766  0.63632234  1
  Ti  Ti2  1  0.87500000  0.38632234  0.36367766  1
  Ti  Ti3  1  0.13632234  0.12500000  0.88632234  1
  Ti  Ti4  1  0.63632234  0.37500000  0.11367766  1
  Ti  Ti5  1  0.62500000  0.61367766  0.86367766  1
  Ti  Ti6  1  0.86367766  0.62500000  0.61367766  1
  Ti  Ti7  1  0.36367766  0.87500000  0.38632234  1
  Ti  Ti8  1  0.88632234  0.13632234  0.12500000  1
  Ti  Ti9  1  0.38632234  0.36367766  0.87500000  1
  Ti  Ti10  1  0.61367766  0.86367766  0.62500000  1
  Ti  Ti11  1  0.11367766  0.63632234  0.37500000  1
  Nb  Nb12  1  0.87500000  0.87500000  0.87500000  1
  Nb  Nb13  1  0.62500000  0.12500000  0.37500000  1
  Nb  Nb14  1  0.12500000  0.37500000  0.62500000  1
  Nb  Nb15  1  0.37500000  0.62500000  0.12500000  1
  Zn  Zn16  1  0.37500000  0.37500000  0.37500000  1
  Zn  Zn17  1  0.12500000  0.62500000  0.87500000  1
  Zn  Zn18  1  0.62500000  0.87500000  0.12500000  1
  Zn  Zn19  1  0.87500000  0.12500000  0.62500000  1
  Bi  Bi20  1  0.12500000  0.14628434  0.39628434  1
  Bi  Bi21  1  0.37500000  0.85371566  0.89628434  1
  Bi  Bi22  1  0.87500000  0.64628434  0.10371566  1
  Bi  Bi23  1  0.39628434  0.12500000  0.14628434  1
  Bi  Bi24  1  0.89628434  0.37500000  0.85371566  1
  Bi  Bi25  1  0.62500000  0.35371566  0.60371566  1
  Bi  Bi26  1  0.60371566  0.62500000  0.35371566  1
  Bi  Bi27  1  0.10371566  0.87500000  0.64628434  1
  Bi  Bi28  1  0.14628434  0.39628434  0.12500000  1
  Bi  Bi29  1  0.64628434  0.10371566  0.87500000  1
  Bi  Bi30  1  0.35371566  0.60371566  0.62500000  1
  Bi  Bi31  1  0.85371566  0.89628434  0.37500000  1
  O  O32  1  0.00516009  0.30328665  0.49203932  1
  O  O33  1  0.49483991  0.69671335  0.99203932  1
  O  O34  1  0.99483991  0.80328665  0.00796068  1
  O  O35  1  0.49203932  0.00516009  0.30328665  1
  O  O36  1  0.05328665  0.25516009  0.75796068  1
  O  O37  1  0.50516009  0.19671335  0.50796068  1
  O  O38  1  0.99203932  0.49483991  0.69671335  1
  O  O39  1  0.44671335  0.74483991  0.25796068  1
  O  O40  1  0.00796068  0.99483991  0.80328665  1
  O  O41  1  0.55328665  0.24483991  0.24203932  1
  O  O42  1  0.50796068  0.50516009  0.19671335  1
  O  O43  1  0.94671335  0.75516009  0.74203932  1
  O  O44  1  0.30328665  0.49203932  0.00516009  1
  O  O45  1  0.75516009  0.74203932  0.94671335  1
  O  O46  1  0.80328665  0.00796068  0.99483991  1
  O  O47  1  0.74483991  0.25796068  0.44671335  1
  O  O48  1  0.19671335  0.50796068  0.50516009  1
  O  O49  1  0.25516009  0.75796068  0.05328665  1
  O  O50  1  0.69671335  0.99203932  0.49483991  1
  O  O51  1  0.24483991  0.24203932  0.55328665  1
  O  O52  1  0.75796068  0.05328665  0.25516009  1
  O  O53  1  0.25796068  0.44671335  0.74483991  1
  O  O54  1  0.74203932  0.94671335  0.75516009  1
  O  O55  1  0.24203932  0.55328665  0.24483991  1
  O  O56  1  0.27013284  0.27013284  0.27013284  1
  O  O57  1  0.22986716  0.72986716  0.77013284  1
  O  O58  1  0.72986716  0.77013284  0.22986716  1
  O  O59  1  0.02013284  0.52013284  0.97986716  1
  O  O60  1  0.77013284  0.22986716  0.72986716  1
  O  O61  1  0.47986716  0.47986716  0.47986716  1
  O  O62  1  0.52013284  0.97986716  0.02013284  1
  O  O63  1  0.97986716  0.02013284  0.52013284  1
  O  O64  1  0.99757712  0.00034939  0.19471429  1
  O  O65  1  0.50242288  0.99965061  0.69471429  1
  O  O66  1  0.00242288  0.50034939  0.30528571  1
  O  O67  1  0.19471429  0.99757712  0.00034939  1
  O  O68  1  0.75034939  0.24757712  0.05528571  1
  O  O69  1  0.49757712  0.49965061  0.80528571  1
  O  O70  1  0.69471429  0.50242288  0.99965061  1
  O  O71  1  0.74965061  0.75242288  0.55528571  1
  O  O72  1  0.30528571  0.00242288  0.50034939  1
  O  O73  1  0.25034939  0.25242288  0.94471429  1
  O  O74  1  0.80528571  0.49757712  0.49965061  1
  O  O75  1  0.24965061  0.74757712  0.44471429  1
  O  O76  1  0.00034939  0.19471429  0.99757712  1
  O  O77  1  0.74757712  0.44471429  0.24965061  1
  O  O78  1  0.50034939  0.30528571  0.00242288  1
  O  O79  1  0.75242288  0.55528571  0.74965061  1
  O  O80  1  0.49965061  0.80528571  0.49757712  1
  O  O81  1  0.24757712  0.05528571  0.75034939  1
  O  O82  1  0.99965061  0.69471429  0.50242288  1
  O  O83  1  0.25242288  0.94471429  0.25034939  1
  O  O84  1  0.05528571  0.75034939  0.24757712  1
  O  O85  1  0.55528571  0.74965061  0.75242288  1
  O  O86  1  0.44471429  0.24965061  0.74757712  1
  O  O87  1  0.94471429  0.25034939  0.25242288  1
