# generated using pymatgen
data_Cd2Hg2S2O11
_symmetry_space_group_name_H-M   'P 1'
_cell_length_a   6.32136390
_cell_length_b   7.89456308
_cell_length_c   10.66396063
_cell_angle_alpha   102.18809147
_cell_angle_beta   90.00000000
_cell_angle_gamma   90.00000000
_symmetry_Int_Tables_number   1
_chemical_formula_structural   Cd2Hg2S2O11
_chemical_formula_sum   'Cd4 Hg4 S4 O22'
_cell_volume   520.18320625
_cell_formula_units_Z   2
loop_
 _symmetry_equiv_pos_site_id
 _symmetry_equiv_pos_as_xyz
  1  'x, y, z'
loop_
 _atom_site_type_symbol
 _atom_site_label
 _atom_site_symmetry_multiplicity
 _atom_site_fract_x
 _atom_site_fract_y
 _atom_site_fract_z
 _atom_site_occupancy
  Cd  Cd0  1  0.48978996  0.67580479  0.41542399  1
  Cd  Cd1  1  0.51021004  0.32419521  0.58457601  1
  Cd  Cd2  1  0.48978996  0.82419521  0.08457601  1
  Cd  Cd3  1  0.51021004  0.17580479  0.91542399  1
  Hg  Hg4  1  0.28187425  0.25000000  0.25000000  1
  Hg  Hg5  1  0.71812575  0.75000000  0.75000000  1
  Hg  Hg6  1  -0.00000000  0.50000000  0.50000000  1
  Hg  Hg7  1  -0.00000000  0.00000000  0.00000000  1
  S  S8  1  0.78107585  0.47757407  0.14518541  1
  S  S9  1  0.21892415  0.52242593  0.85481459  1
  S  S10  1  0.78107585  0.02242593  0.35481459  1
  S  S11  1  0.21892415  0.97757407  0.64518541  1
  O  O12  1  0.29917732  0.42164264  0.43181406  1
  O  O13  1  0.70082268  0.57835736  0.56818594  1
  O  O14  1  0.29917732  0.07835736  0.06818594  1
  O  O15  1  0.70082268  0.92164264  0.93181406  1
  O  O16  1  0.28681923  0.75000000  0.25000000  1
  O  O17  1  0.71318077  0.25000000  0.75000000  1
  O  O18  1  0.76765746  0.31058492  0.04869623  1
  O  O19  1  0.23234254  0.68941508  0.95130377  1
  O  O20  1  0.76765746  0.18941508  0.45130377  1
  O  O21  1  0.23234254  0.81058492  0.54869623  1
  O  O22  1  0.60533329  0.47607013  0.24095328  1
  O  O23  1  0.39466671  0.52392987  0.75904672  1
  O  O24  1  0.60533329  0.02392987  0.25904672  1
  O  O25  1  0.39466671  0.97607013  0.74095328  1
  O  O26  1  0.75182897  0.62628681  0.08191916  1
  O  O27  1  0.24817103  0.37371319  0.91808084  1
  O  O28  1  0.75182897  0.87371319  0.41808084  1
  O  O29  1  0.24817103  0.12628681  0.58191916  1
  O  O30  1  0.98913387  0.48815924  0.21017986  1
  O  O31  1  0.01086613  0.51184076  0.78982014  1
  O  O32  1  0.98913387  0.01184076  0.28982014  1
  O  O33  1  0.01086613  0.98815924  0.71017986  1
