# generated using pymatgen
data_Pr9(Ni13P6)2
_symmetry_space_group_name_H-M   'P 1'
_cell_length_a   3.87631558
_cell_length_b   14.42436113
_cell_length_c   14.42436113
_cell_angle_alpha   120.00000177
_cell_angle_beta   90.00000000
_cell_angle_gamma   90.00000000
_symmetry_Int_Tables_number   1
_chemical_formula_structural   Pr9(Ni13P6)2
_chemical_formula_sum   'Pr9 Ni26 P12'
_cell_volume   698.46222688
_cell_formula_units_Z   1
loop_
 _symmetry_equiv_pos_site_id
 _symmetry_equiv_pos_as_xyz
  1  'x, y, z'
loop_
 _atom_site_type_symbol
 _atom_site_label
 _atom_site_symmetry_multiplicity
 _atom_site_fract_x
 _atom_site_fract_y
 _atom_site_fract_z
 _atom_site_occupancy
  Pr  Pr0  1  0.50000000  0.80895201  0.61790401  1
  Pr  Pr1  1  0.50000000  0.80895201  0.19104799  1
  Pr  Pr2  1  0.50000000  0.38209599  0.19104799  1
  Pr  Pr3  1  0.50000000  0.09246443  0.18492886  1
  Pr  Pr4  1  0.50000000  0.09246443  0.90753557  1
  Pr  Pr5  1  0.50000000  0.81507114  0.90753557  1
  Pr  Pr6  1  0.00000000  0.42448354  0.84896708  1
  Pr  Pr7  1  -0.00000000  0.42448354  0.57551646  1
  Pr  Pr8  1  -0.00000000  0.15103292  0.57551646  1
  Ni  Ni9  1  0.00000000  0.19098656  0.38197312  1
  Ni  Ni10  1  0.00000000  0.19098656  0.80901344  1
  Ni  Ni11  1  -0.00000000  0.61802688  0.80901344  1
  Ni  Ni12  1  0.50000000  0.60012896  0.20025792  1
  Ni  Ni13  1  0.50000000  0.60012896  0.39987104  1
  Ni  Ni14  1  0.50000000  0.79974208  0.39987104  1
  Ni  Ni15  1  -0.00000000  0.72193937  0.44387873  1
  Ni  Ni16  1  -0.00000000  0.72193937  0.27806063  1
  Ni  Ni17  1  0.00000000  0.55612127  0.27806063  1
  Ni  Ni18  1  0.00000000  0.90196687  0.80393374  1
  Ni  Ni19  1  0.00000000  0.90196687  0.09803313  1
  Ni  Ni20  1  -0.00000000  0.19606626  0.09803313  1
  Ni  Ni21  1  0.50000000  0.62039159  0.67243969  1
  Ni  Ni22  1  0.50000000  0.05204810  0.37960841  1
  Ni  Ni23  1  0.50000000  0.05204810  0.67243969  1
  Ni  Ni24  1  0.50000000  0.32756031  0.94795190  1
  Ni  Ni25  1  0.50000000  0.32756031  0.37960841  1
  Ni  Ni26  1  0.50000000  0.62039159  0.94795190  1
  Ni  Ni27  1  -0.00000000  0.92354068  0.37823736  1
  Ni  Ni28  1  0.00000000  0.45469668  0.07645932  1
  Ni  Ni29  1  -0.00000000  0.45469668  0.37823736  1
  Ni  Ni30  1  -0.00000000  0.62176264  0.54530332  1
  Ni  Ni31  1  0.00000000  0.62176264  0.07645932  1
  Ni  Ni32  1  0.00000000  0.92354068  0.54530332  1
  Ni  Ni33  1  0.50000000  0.33333300  0.66666700  1
  Ni  Ni34  1  -0.00000000  -0.00000000  -0.00000000  1
  P  P35  1  0.50000000  0.51364268  0.02728536  1
  P  P36  1  0.50000000  0.51364268  0.48635732  1
  P  P37  1  0.50000000  0.97271464  0.48635732  1
  P  P38  1  -0.00000000  0.00401434  0.27978275  1
  P  P39  1  -0.00000000  0.27576841  0.99598566  1
  P  P40  1  -0.00000000  0.27576841  0.27978275  1
  P  P41  1  -0.00000000  0.72021725  0.72423159  1
  P  P42  1  -0.00000000  0.72021725  0.99598566  1
  P  P43  1  -0.00000000  0.00401434  0.72423159  1
  P  P44  1  0.50000000  0.24076693  0.48153385  1
  P  P45  1  0.50000000  0.24076693  0.75923307  1
  P  P46  1  0.50000000  0.51846615  0.75923307  1
