# generated using pymatgen
data_NiMo2P
_symmetry_space_group_name_H-M   'P 1'
_cell_length_a   4.78868496
_cell_length_b   7.08648555
_cell_length_c   7.08648555
_cell_angle_alpha   73.66893120
_cell_angle_beta   71.45112999
_cell_angle_gamma   71.45112999
_symmetry_Int_Tables_number   1
_chemical_formula_structural   NiMo2P
_chemical_formula_sum   'Ni4 Mo8 P4'
_cell_volume   211.76561022
_cell_formula_units_Z   4
loop_
 _symmetry_equiv_pos_site_id
 _symmetry_equiv_pos_as_xyz
  1  'x, y, z'
loop_
 _atom_site_type_symbol
 _atom_site_label
 _atom_site_symmetry_multiplicity
 _atom_site_fract_x
 _atom_site_fract_y
 _atom_site_fract_z
 _atom_site_occupancy
  Ni  Ni0  1  0.58243107  0.01532411  0.31005995  1
  Ni  Ni1  1  0.58243107  0.31005995  0.01532411  1
  Ni  Ni2  1  0.76328151  0.33480749  0.63577392  1
  Ni  Ni3  1  0.76328151  0.63577392  0.33480749  1
  Mo  Mo4  1  0.80123970  0.68945353  0.68945353  1
  Mo  Mo5  1  0.31771160  0.40290173  0.40290173  1
  Mo  Mo6  1  0.17716887  0.98440487  0.66084465  1
  Mo  Mo7  1  0.17716887  0.66084465  0.98440487  1
  Mo  Mo8  1  0.54969045  0.95503267  0.95503267  1
  Mo  Mo9  1  0.17435965  0.82371296  0.32158774  1
  Mo  Mo10  1  0.17435965  0.32158774  0.82371296  1
  Mo  Mo11  1  0.03208769  0.24371814  0.24371814  1
  P  P12  1  0.97344997  0.02477230  0.02477230  1
  P  P13  1  0.37720502  0.62064959  0.62064959  1
  P  P14  1  0.67721668  0.07761101  0.56604534  1
  P  P15  1  0.67721668  0.56604534  0.07761101  1
