# generated using pymatgen
data_Tb2Cu(GeO4)2
_symmetry_space_group_name_H-M   'P 1'
_cell_length_a   5.15505033
_cell_length_b   8.23769419
_cell_length_c   8.97349935
_cell_angle_alpha   117.07075952
_cell_angle_beta   106.31919560
_cell_angle_gamma   90.78009438
_symmetry_Int_Tables_number   1
_chemical_formula_structural   Tb2Cu(GeO4)2
_chemical_formula_sum   'Tb4 Cu2 Ge4 O16'
_cell_volume   321.15331503
_cell_formula_units_Z   2
loop_
 _symmetry_equiv_pos_site_id
 _symmetry_equiv_pos_as_xyz
  1  'x, y, z'
loop_
 _atom_site_type_symbol
 _atom_site_label
 _atom_site_symmetry_multiplicity
 _atom_site_fract_x
 _atom_site_fract_y
 _atom_site_fract_z
 _atom_site_occupancy
  Tb  Tb0  1  0.11561891  0.29940563  0.75960928  1
  Tb  Tb1  1  0.35600963  0.53979635  0.24039072  1
  Tb  Tb2  1  0.36587429  0.04384465  0.24168050  1
  Tb  Tb3  1  0.12419380  0.80216415  0.75831950  1
  Cu  Cu4  1  0.54723218  0.92625732  0.58595605  1
  Cu  Cu5  1  0.96127614  0.34030127  0.41404395  1
  Ge  Ge6  1  0.78803781  0.16277838  0.00000000  1
  Ge  Ge7  1  0.96981411  0.88848967  0.42093459  1
  Ge  Ge8  1  0.54887952  0.46755508  0.57906541  1
  Ge  Ge9  1  0.68925568  0.66652966  0.00000000  1
  O  O10  1  0.16934005  0.09442385  0.46812833  1
  O  O11  1  0.70121173  0.62629553  0.53187167  1
  O  O12  1  0.48126111  0.06424536  0.81264226  1
  O  O13  1  0.66861886  0.25160310  0.18735774  1
  O  O14  1  0.48201719  0.49282896  0.00000000  1
  O  O15  1  0.19698831  0.74765729  0.48245977  1
  O  O16  1  0.71452853  0.26519752  0.51754023  1
  O  O17  1  0.00278677  0.75768402  0.18437516  1
  O  O18  1  0.81841161  0.57330886  0.81562484  1
  O  O19  1  0.00036794  0.33611868  0.00000000  1
  O  O20  1  0.48124529  0.83551984  0.00000000  1
  O  O21  1  0.59622978  0.83896850  0.34095447  1
  O  O22  1  0.25527531  0.49801403  0.65904553  1
  O  O23  1  0.00806109  0.99668200  0.00000000  1
  O  O24  1  0.93199505  0.00302801  0.65732572  1
  O  O25  1  0.27466933  0.34570228  0.34267428  1
