# generated using pymatgen
data_SmBr2
_symmetry_space_group_name_H-M   'P 1'
_cell_length_a   3.97052000
_cell_length_b   7.07191789
_cell_length_c   15.16998046
_cell_angle_alpha   90.00000000
_cell_angle_beta   90.00000000
_cell_angle_gamma   90.00000000
_symmetry_Int_Tables_number   1
_chemical_formula_structural   SmBr2
_chemical_formula_sum   'Sm4 Br8'
_cell_volume   425.96078518
_cell_formula_units_Z   4
loop_
 _symmetry_equiv_pos_site_id
 _symmetry_equiv_pos_as_xyz
  1  'x, y, z'
loop_
 _atom_site_type_symbol
 _atom_site_label
 _atom_site_symmetry_multiplicity
 _atom_site_fract_x
 _atom_site_fract_y
 _atom_site_fract_z
 _atom_site_occupancy
  Sm  Sm0  1  0.75000000  0.71109977  0.49885848  1
  Sm  Sm1  1  0.25000000  0.28890023  0.50114152  1
  Sm  Sm2  1  0.25000000  0.78890023  -0.00114152  1
  Sm  Sm3  1  0.75000000  0.21109977  0.00114152  1
  Br  Br4  1  0.75000000  0.90794225  0.86358664  1
  Br  Br5  1  0.25000000  0.09205775  0.13641336  1
  Br  Br6  1  0.25000000  0.59205775  0.36358664  1
  Br  Br7  1  0.75000000  0.40794225  0.63641336  1
  Br  Br8  1  0.75000000  0.07622692  0.39310763  1
  Br  Br9  1  0.25000000  0.92377308  0.60689237  1
  Br  Br10  1  0.25000000  0.42377308  0.89310763  1
  Br  Br11  1  0.75000000  0.57622692  0.10689237  1
