# generated using pymatgen
data_ScH17C2N3Cl3O8
_symmetry_space_group_name_H-M   'P 1'
_cell_length_a   7.75595804
_cell_length_b   15.63294846
_cell_length_c   14.37869869
_cell_angle_alpha   117.86764201
_cell_angle_beta   90.00000000
_cell_angle_gamma   90.00000000
_symmetry_Int_Tables_number   1
_chemical_formula_structural   ScH17C2N3Cl3O8
_chemical_formula_sum   'Sc4 H68 C8 N12 Cl12 O32'
_cell_volume   1541.21352802
_cell_formula_units_Z   4
loop_
 _symmetry_equiv_pos_site_id
 _symmetry_equiv_pos_as_xyz
  1  'x, y, z'
loop_
 _atom_site_type_symbol
 _atom_site_label
 _atom_site_symmetry_multiplicity
 _atom_site_fract_x
 _atom_site_fract_y
 _atom_site_fract_z
 _atom_site_occupancy
  Sc  Sc0  1  0.97949418  0.72103584  0.73315241  1
  Sc  Sc1  1  0.02050582  0.27896416  0.26684759  1
  Sc  Sc2  1  0.47949418  0.27896416  0.76684759  1
  Sc  Sc3  1  0.52050582  0.72103584  0.23315241  1
  H  H4  1  0.31734455  0.76859471  0.81241397  1
  H  H5  1  0.68265545  0.23140529  0.18758603  1
  H  H6  1  0.81734455  0.23140529  0.68758603  1
  H  H7  1  0.18265545  0.76859471  0.31241397  1
  H  H8  1  0.66393715  0.94287486  0.57622603  1
  H  H9  1  0.33606285  0.05712514  0.42377397  1
  H  H10  1  0.16393715  0.05712514  0.92377397  1
  H  H11  1  0.83606285  0.94287486  0.07622603  1
  H  H12  1  0.99348526  0.78238865  0.56839856  1
  H  H13  1  0.00651474  0.21761135  0.43160144  1
  H  H14  1  0.49348526  0.21761135  0.93160144  1
  H  H15  1  0.50651474  0.78238865  0.06839856  1
  H  H16  1  0.91802546  0.59803666  0.51643262  1
  H  H17  1  0.08197454  0.40196334  0.48356738  1
  H  H18  1  0.41802546  0.40196334  0.98356738  1
  H  H19  1  0.58197454  0.59803666  0.01643262  1
  H  H20  1  0.32457725  0.97049555  0.97292394  1
  H  H21  1  0.67542275  0.02950445  0.02707606  1
  H  H22  1  0.82457725  0.02950445  0.52707606  1
  H  H23  1  0.17542275  0.97049555  0.47292394  1
  H  H24  1  0.15918671  0.99678564  0.60530068  1
  H  H25  1  0.84081329  0.00321436  0.39469932  1
  H  H26  1  0.65918671  0.00321436  0.89469932  1
  H  H27  1  0.34081329  0.99678564  0.10530068  1
  H  H28  1  0.62740298  0.40292888  0.69396065  1
  H  H29  1  0.37259702  0.59707112  0.30603935  1
  H  H30  1  0.12740298  0.59707112  0.80603935  1
  H  H31  1  0.87259702  0.40292888  0.19396065  1
  H  H32  1  0.50432509  0.85598136  0.64203381  1
  H  H33  1  0.49567491  0.14401864  0.35796619  1
  H  H34  1  0.00432509  0.14401864  0.85796619  1
  H  H35  1  0.99567491  0.85598136  0.14203381  1
  H  H36  1  0.26441923  0.84587224  0.77217648  1
  H  H37  1  0.73558077  0.15412776  0.22782352  1
  H  H38  1  0.76441923  0.15412776  0.72782352  1
  H  H39  1  0.23558077  0.84587224  0.27217648  1
  H  H40  1  0.69933376  0.58802399  0.66110264  1
  H  H41  1  0.30066624  0.41197601  0.33889736  1
  H  H42  1  0.19933376  0.41197601  0.83889736  1
  H  H43  1  0.80066624  0.58802399  0.16110264  1
  H  H44  1  0.64235162  0.68568132  0.76597000  1
  H  H45  1  0.35764838  0.31431868  0.23403000  1
  H  H46  1  0.14235162  0.31431868  0.73403000  1
  H  H47  1  0.85764838  0.68568132  0.26597000  1
  H  H48  1  0.85654244  0.56444452  0.93302107  1
  H  H49  1  0.14345756  0.43555548  0.06697893  1
  H  H50  1  0.35654244  0.43555548  0.56697893  1
  H  H51  1  0.64345756  0.56444452  0.43302107  1
  H  H52  1  0.93092740  0.87239575  0.67488076  1
  H  H53  1  0.06907260  0.12760425  0.32511924  1
  H  H54  1  0.43092740  0.12760425  0.82511924  1
  H  H55  1  0.56907260  0.87239575  0.17488076  1
  H  H56  1  0.65185977  0.46161619  0.81978481  1
  H  H57  1  0.34814023  0.53838381  0.18021519  1
  H  H58  1  0.15185977  0.53838381  0.68021519  1
  H  H59  1  0.84814023  0.46161619  0.31978481  1
  H  H60  1  0.72183517  0.62251651  0.90146199  1
  H  H61  1  0.27816483  0.37748349  0.09853801  1
  H  H62  1  0.22183517  0.37748349  0.59853801  1
  H  H63  1  0.77816483  0.62251651  0.40146199  1
  H  H64  1  0.62365862  0.40169828  0.97099949  1
  H  H65  1  0.37634138  0.59830172  0.02900051  1
  H  H66  1  0.12365862  0.59830172  0.52900051  1
  H  H67  1  0.87634138  0.40169828  0.47099949  1
  H  H68  1  0.45146297  0.73515698  0.55315595  1
  H  H69  1  0.54853703  0.26484302  0.44684405  1
  H  H70  1  0.95146297  0.26484302  0.94684405  1
  H  H71  1  0.04853703  0.73515698  0.05315595  1
  C  C72  1  0.81343040  0.91233397  0.92090808  1
  C  C73  1  0.18656960  0.08766603  0.07909192  1
  C  C74  1  0.31343040  0.08766603  0.57909192  1
  C  C75  1  0.68656960  0.91233397  0.42090808  1
  C  C76  1  0.94774972  0.80862899  0.98334094  1
  C  C77  1  0.05225028  0.19137101  0.01665906  1
  C  C78  1  0.44774972  0.19137101  0.51665906  1
  C  C79  1  0.55225028  0.80862899  0.48334094  1
  N  N80  1  0.62087917  0.89652198  0.50100198  1
  N  N81  1  0.37912083  0.10347802  0.49899802  1
  N  N82  1  0.12087917  0.10347802  0.99899802  1
  N  N83  1  0.87912083  0.89652198  0.00100198  1
  N  N84  1  0.71867359  0.99249380  0.95151909  1
  N  N85  1  0.28132641  0.00750620  0.04848091  1
  N  N86  1  0.21867359  0.00750620  0.54848091  1
  N  N87  1  0.78132641  0.99249380  0.45151909  1
  N  N88  1  0.50789118  0.79919615  0.56762576  1
  N  N89  1  0.49210882  0.20080385  0.43237424  1
  N  N90  1  0.00789118  0.20080385  0.93237424  1
  N  N91  1  0.99210882  0.79919615  0.06762576  1
  Cl  Cl92  1  0.50073670  0.74983547  0.90222868  1
  Cl  Cl93  1  0.49926330  0.25016453  0.09777132  1
  Cl  Cl94  1  0.00073670  0.25016453  0.59777132  1
  Cl  Cl95  1  0.99926330  0.74983547  0.40222868  1
  Cl  Cl96  1  0.64868324  0.43970211  0.56300538  1
  Cl  Cl97  1  0.35131676  0.56029789  0.43699462  1
  Cl  Cl98  1  0.14868324  0.56029789  0.93699462  1
  Cl  Cl99  1  0.85131676  0.43970211  0.06300538  1
  Cl  Cl100  1  0.35268301  0.97858977  0.79762634  1
  Cl  Cl101  1  0.64731699  0.02141023  0.20237366  1
  Cl  Cl102  1  0.85268301  0.02141023  0.70237366  1
  Cl  Cl103  1  0.14731699  0.97858977  0.29762634  1
  O  O104  1  0.23153314  0.78291949  0.76926272  1
  O  O105  1  0.76846686  0.21708051  0.23073728  1
  O  O106  1  0.73153314  0.21708051  0.73073728  1
  O  O107  1  0.26846686  0.78291949  0.26926272  1
  O  O108  1  0.51311492  0.38626318  0.93106244  1
  O  O109  1  0.48688508  0.61373682  0.06893756  1
  O  O110  1  0.01311492  0.61373682  0.56893756  1
  O  O111  1  0.98688508  0.38626318  0.43106244  1
  O  O112  1  0.73211622  0.57021444  0.92061661  1
  O  O113  1  0.26788378  0.42978556  0.07938339  1
  O  O114  1  0.23211622  0.42978556  0.57938339  1
  O  O115  1  0.76788378  0.57021444  0.42061661  1
  O  O116  1  0.72580224  0.65827809  0.70571415  1
  O  O117  1  0.27419776  0.34172191  0.29428585  1
  O  O118  1  0.22580224  0.34172191  0.79428585  1
  O  O119  1  0.77419776  0.65827809  0.20571415  1
  O  O120  1  0.84613158  0.85782565  0.82512110  1
  O  O121  1  0.15386842  0.14217435  0.17487890  1
  O  O122  1  0.34613158  0.14217435  0.67487890  1
  O  O123  1  0.65386842  0.85782565  0.32512110  1
  O  O124  1  0.96551636  0.73898952  0.89187306  1
  O  O125  1  0.03448364  0.26101048  0.10812694  1
  O  O126  1  0.46551636  0.26101048  0.60812694  1
  O  O127  1  0.53448364  0.73898952  0.39187306  1
  O  O128  1  0.97159798  0.80481296  0.64413137  1
  O  O129  1  0.02840202  0.19518704  0.35586863  1
  O  O130  1  0.47159798  0.19518704  0.85586863  1
  O  O131  1  0.52840202  0.80481296  0.14413137  1
  O  O132  1  0.60838906  0.40042847  0.76082831  1
  O  O133  1  0.39161094  0.59957153  0.23917169  1
  O  O134  1  0.10838906  0.59957153  0.73917169  1
  O  O135  1  0.89161094  0.40042847  0.26082831  1
