# generated using pymatgen
data_SrNiF4
_symmetry_space_group_name_H-M   'P 1'
_cell_length_a   4.02157107
_cell_length_b   5.64857943
_cell_length_c   7.53530618
_cell_angle_alpha   90.00000000
_cell_angle_beta   105.47681870
_cell_angle_gamma   90.00000000
_symmetry_Int_Tables_number   1
_chemical_formula_structural   SrNiF4
_chemical_formula_sum   'Sr2 Ni2 F8'
_cell_volume   164.96624871
_cell_formula_units_Z   2
loop_
 _symmetry_equiv_pos_site_id
 _symmetry_equiv_pos_as_xyz
  1  'x, y, z'
loop_
 _atom_site_type_symbol
 _atom_site_label
 _atom_site_symmetry_multiplicity
 _atom_site_fract_x
 _atom_site_fract_y
 _atom_site_fract_z
 _atom_site_occupancy
  Sr  Sr0  1  0.65582365  0.37447417  0.31164730  1
  Sr  Sr1  1  0.34417635  0.87447417  0.68835270  1
  Ni  Ni2  1  0.91326705  0.32077361  0.82653409  1
  Ni  Ni3  1  0.08673295  0.82077361  0.17346591  1
  F  F4  1  0.83745545  0.61155382  0.67491089  1
  F  F5  1  0.16254455  0.11155382  0.32508911  1
  F  F6  1  0.96505694  0.98279899  0.93011389  1
  F  F7  1  0.03494306  0.48279899  0.06988611  1
  F  F8  1  0.41538003  0.30149409  0.83076006  1
  F  F9  1  0.58461997  0.80149409  0.16923994  1
  F  F10  1  0.79620607  0.12500532  0.59241213  1
  F  F11  1  0.20379393  0.62500532  0.40758787  1
