# generated using pymatgen
data_Nd2Co23B3
_symmetry_space_group_name_H-M   'P 1'
_cell_length_a   11.91815492
_cell_length_b   11.91815492
_cell_length_c   11.91815492
_cell_angle_alpha   109.47122063
_cell_angle_beta   109.47122063
_cell_angle_gamma   109.47122063
_symmetry_Int_Tables_number   1
_chemical_formula_structural   Nd2Co23B3
_chemical_formula_sum   'Nd8 Co92 B12'
_cell_volume   1303.18234627
_cell_formula_units_Z   4
loop_
 _symmetry_equiv_pos_site_id
 _symmetry_equiv_pos_as_xyz
  1  'x, y, z'
loop_
 _atom_site_type_symbol
 _atom_site_label
 _atom_site_symmetry_multiplicity
 _atom_site_fract_x
 _atom_site_fract_y
 _atom_site_fract_z
 _atom_site_occupancy
  Nd  Nd0  1  0.61408437  0.61408437  0.61408437  1
  Nd  Nd1  1  0.88591563  -0.00000000  0.50000000  1
  Nd  Nd2  1  0.50000000  0.88591563  0.00000000  1
  Nd  Nd3  1  0.11408437  0.11408437  0.11408437  1
  Nd  Nd4  1  -0.00000000  0.50000000  0.88591563  1
  Nd  Nd5  1  0.38591563  0.00000000  0.50000000  1
  Nd  Nd6  1  -0.00000000  0.50000000  0.38591563  1
  Nd  Nd7  1  0.50000000  0.38591563  0.00000000  1
  Co  Co8  1  0.80518892  0.55651866  0.49314621  1
  Co  Co9  1  0.69481108  0.68795729  0.25132975  1
  Co  Co10  1  0.43662754  0.94348134  0.24867025  1
  Co  Co11  1  0.55651866  0.49314621  0.80518892  1
  Co  Co12  1  0.30518892  0.99314621  0.05651866  1
  Co  Co13  1  0.06337246  0.81204271  0.00685379  1
  Co  Co14  1  0.68795729  0.25132975  0.69481108  1
  Co  Co15  1  0.19481108  0.75132975  0.18795729  1
  Co  Co16  1  0.94348134  0.24867025  0.43662754  1
  Co  Co17  1  0.93662754  0.74867025  0.44348134  1
  Co  Co18  1  0.81204271  0.00685379  0.06337246  1
  Co  Co19  1  0.56337246  0.50685379  0.31204271  1
  Co  Co20  1  0.49314621  0.80518892  0.55651866  1
  Co  Co21  1  0.05651866  0.30518892  0.99314621  1
  Co  Co22  1  0.24867025  0.43662754  0.94348134  1
  Co  Co23  1  0.44348134  0.93662754  0.74867025  1
  Co  Co24  1  0.00685379  0.06337246  0.81204271  1
  Co  Co25  1  0.31204271  0.56337246  0.50685379  1
  Co  Co26  1  0.25132975  0.69481108  0.68795729  1
  Co  Co27  1  0.18795729  0.19481108  0.75132975  1
  Co  Co28  1  0.99314621  0.05651866  0.30518892  1
  Co  Co29  1  0.75132975  0.18795729  0.19481108  1
  Co  Co30  1  0.50685379  0.31204271  0.56337246  1
  Co  Co31  1  0.74867025  0.44348134  0.93662754  1
  Co  Co32  1  0.91872994  0.66872994  0.75000000  1
  Co  Co33  1  0.58127006  0.83127006  0.25000000  1
  Co  Co34  1  0.66872994  0.75000000  0.91872994  1
  Co  Co35  1  0.41872994  0.25000000  0.16872994  1
  Co  Co36  1  0.83127006  0.25000000  0.58127006  1
  Co  Co37  1  0.08127006  0.75000000  0.33127006  1
  Co  Co38  1  0.75000000  0.91872994  0.66872994  1
  Co  Co39  1  0.16872994  0.41872994  0.25000000  1
  Co  Co40  1  0.25000000  0.58127006  0.83127006  1
  Co  Co41  1  0.33127006  0.08127006  0.75000000  1
  Co  Co42  1  0.25000000  0.16872994  0.41872994  1
  Co  Co43  1  0.75000000  0.33127006  0.08127006  1
  Co  Co44  1  0.62325860  0.76225811  0.43012989  1
  Co  Co45  1  0.87674140  0.80687129  0.63899951  1
  Co  Co46  1  0.16787178  0.73774189  0.86100049  1
  Co  Co47  1  0.76225811  0.43012989  0.62325860  1
  Co  Co48  1  0.12325860  0.93012989  0.26225811  1
  Co  Co49  1  0.33212822  0.69312871  0.06987011  1
  Co  Co50  1  0.80687129  0.63899951  0.87674140  1
  Co  Co51  1  0.37674140  0.13899951  0.30687129  1
  Co  Co52  1  0.73774189  0.86100049  0.16787178  1
  Co  Co53  1  0.66787178  0.36100049  0.23774189  1
  Co  Co54  1  0.69312871  0.06987011  0.33212822  1
  Co  Co55  1  0.83212822  0.56987011  0.19312871  1
  Co  Co56  1  0.43012989  0.62325860  0.76225811  1
  Co  Co57  1  0.26225811  0.12325860  0.93012989  1
  Co  Co58  1  0.86100049  0.16787178  0.73774189  1
  Co  Co59  1  0.23774189  0.66787178  0.36100049  1
  Co  Co60  1  0.06987011  0.33212822  0.69312871  1
  Co  Co61  1  0.19312871  0.83212822  0.56987011  1
  Co  Co62  1  0.63899951  0.87674140  0.80687129  1
  Co  Co63  1  0.30687129  0.37674140  0.13899951  1
  Co  Co64  1  0.93012989  0.26225811  0.12325860  1
  Co  Co65  1  0.13899951  0.30687129  0.37674140  1
  Co  Co66  1  0.56987011  0.19312871  0.83212822  1
  Co  Co67  1  0.36100049  0.23774189  0.66787178  1
  Co  Co68  1  0.40356047  0.57970151  0.35438240  1
  Co  Co69  1  0.09643953  0.95082193  0.67614104  1
  Co  Co70  1  0.27468089  0.92029849  0.82385896  1
  Co  Co71  1  0.57970151  0.35438240  0.40356047  1
  Co  Co72  1  0.90356047  0.85438240  0.07970151  1
  Co  Co73  1  0.22531911  0.54917807  0.14561760  1
  Co  Co74  1  0.95082193  0.67614104  0.09643953  1
  Co  Co75  1  0.59643953  0.17614104  0.45082193  1
  Co  Co76  1  0.92029849  0.82385896  0.27468089  1
  Co  Co77  1  0.77468089  0.32385896  0.42029849  1
  Co  Co78  1  0.54917807  0.14561760  0.22531911  1
  Co  Co79  1  0.72531911  0.64561760  0.04917807  1
  Co  Co80  1  0.35438240  0.40356047  0.57970151  1
  Co  Co81  1  0.07970151  0.90356047  0.85438240  1
  Co  Co82  1  0.82385896  0.27468089  0.92029849  1
  Co  Co83  1  0.42029849  0.77468089  0.32385896  1
  Co  Co84  1  0.14561760  0.22531911  0.54917807  1
  Co  Co85  1  0.04917807  0.72531911  0.64561760  1
  Co  Co86  1  0.67614104  0.09643953  0.95082193  1
  Co  Co87  1  0.45082193  0.59643953  0.17614104  1
  Co  Co88  1  0.85438240  0.07970151  0.90356047  1
  Co  Co89  1  0.17614104  0.45082193  0.59643953  1
  Co  Co90  1  0.64561760  0.04917807  0.72531911  1
  Co  Co91  1  0.32385896  0.42029849  0.77468089  1
  Co  Co92  1  0.86539812  0.86539812  0.86539812  1
  Co  Co93  1  0.63460188  -0.00000000  0.50000000  1
  Co  Co94  1  0.50000000  0.63460188  -0.00000000  1
  Co  Co95  1  0.36539812  0.36539812  0.36539812  1
  Co  Co96  1  -0.00000000  0.50000000  0.63460188  1
  Co  Co97  1  0.13460188  0.00000000  0.50000000  1
  Co  Co98  1  0.00000000  0.50000000  0.13460188  1
  Co  Co99  1  0.50000000  0.13460188  -0.00000000  1
  B  B100  1  0.68866682  0.43866682  0.75000000  1
  B  B101  1  0.81133318  0.06133318  0.25000000  1
  B  B102  1  0.43866682  0.75000000  0.68866682  1
  B  B103  1  0.18866682  0.25000000  0.93866682  1
  B  B104  1  0.06133318  0.25000000  0.81133318  1
  B  B105  1  0.31133318  0.75000000  0.56133318  1
  B  B106  1  0.75000000  0.68866682  0.43866682  1
  B  B107  1  0.93866682  0.18866682  0.25000000  1
  B  B108  1  0.25000000  0.81133318  0.06133318  1
  B  B109  1  0.56133318  0.31133318  0.75000000  1
  B  B110  1  0.25000000  0.93866682  0.18866682  1
  B  B111  1  0.75000000  0.56133318  0.31133318  1
