# generated using pymatgen
data_UH4(C2O5)2
_symmetry_space_group_name_H-M   'P 1'
_cell_length_a   7.03854717
_cell_length_b   7.03854717
_cell_length_c   9.48868101
_cell_angle_alpha   89.27956544
_cell_angle_beta   89.27956544
_cell_angle_gamma   75.98114279
_symmetry_Int_Tables_number   1
_chemical_formula_structural   UH4(C2O5)2
_chemical_formula_sum   'U2 H8 C8 O20'
_cell_volume   456.02124386
_cell_formula_units_Z   2
loop_
 _symmetry_equiv_pos_site_id
 _symmetry_equiv_pos_as_xyz
  1  'x, y, z'
loop_
 _atom_site_type_symbol
 _atom_site_label
 _atom_site_symmetry_multiplicity
 _atom_site_fract_x
 _atom_site_fract_y
 _atom_site_fract_z
 _atom_site_occupancy
  U  U0  1  0.75035210  0.24964790  0.25000000  1
  U  U1  1  0.24964790  0.75035210  0.75000000  1
  H  H2  1  0.37569276  0.08321256  0.28881008  1
  H  H3  1  0.91678744  0.62430724  0.21118992  1
  H  H4  1  0.62430724  0.91678744  0.71118992  1
  H  H5  1  0.08321256  0.37569276  0.78881008  1
  H  H6  1  0.50710382  0.94022284  0.17624708  1
  H  H7  1  0.05977716  0.49289618  0.32375292  1
  H  H8  1  0.49289618  0.05977716  0.82375292  1
  H  H9  1  0.94022284  0.50710382  0.67624708  1
  C  C10  1  0.90653034  0.97508941  0.52794345  1
  C  C11  1  0.02491059  0.09346966  0.97205655  1
  C  C12  1  0.09346966  0.02491059  0.47205655  1
  C  C13  1  0.97508941  0.90653034  0.02794345  1
  C  C14  1  0.40700095  0.49350004  0.46182751  1
  C  C15  1  0.50649996  0.59299905  0.03817249  1
  C  C16  1  0.59299905  0.50649996  0.53817249  1
  C  C17  1  0.49350004  0.40700095  0.96182751  1
  O  O18  1  0.50410905  0.04657117  0.24174820  1
  O  O19  1  0.95342883  0.49589095  0.25825180  1
  O  O20  1  0.49589095  0.95342883  0.75825180  1
  O  O21  1  0.04657117  0.50410905  0.74174820  1
  O  O22  1  0.43054397  0.39262826  0.35020334  1
  O  O23  1  0.60737174  0.56945603  0.14979666  1
  O  O24  1  0.56945603  0.60737174  0.64979666  1
  O  O25  1  0.39262826  0.43054397  0.85020334  1
  O  O26  1  0.75441655  0.41722897  0.48482037  1
  O  O27  1  0.58277103  0.24558345  0.01517963  1
  O  O28  1  0.24558345  0.58277103  0.51517963  1
  O  O29  1  0.41722897  0.75441655  0.98482037  1
  O  O30  1  0.08051803  0.11852276  0.35544035  1
  O  O31  1  0.88147724  0.91948197  0.14455965  1
  O  O32  1  0.91948197  0.88147724  0.64455965  1
  O  O33  1  0.11852276  0.08051803  0.85544035  1
  O  O34  1  0.75542120  0.03132984  0.45408933  1
  O  O35  1  0.96867016  0.24457880  0.04591067  1
  O  O36  1  0.24457880  0.96867016  0.54591067  1
  O  O37  1  0.03132984  0.75542120  0.95408933  1
