# generated using pymatgen
data_K2B(PO4)2
_symmetry_space_group_name_H-M   'P 1'
_cell_length_a   7.34262988
_cell_length_b   7.34262988
_cell_length_c   8.97916004
_cell_angle_alpha   114.13390644
_cell_angle_beta   114.13390644
_cell_angle_gamma   90.00000000
_symmetry_Int_Tables_number   1
_chemical_formula_structural   K2B(PO4)2
_chemical_formula_sum   'K4 B2 P4 O16'
_cell_volume   394.96794816
_cell_formula_units_Z   2
loop_
 _symmetry_equiv_pos_site_id
 _symmetry_equiv_pos_as_xyz
  1  'x, y, z'
loop_
 _atom_site_type_symbol
 _atom_site_label
 _atom_site_symmetry_multiplicity
 _atom_site_fract_x
 _atom_site_fract_y
 _atom_site_fract_z
 _atom_site_occupancy
  K  K0  1  0.76298612  0.37500000  0.25000000  1
  K  K1  1  0.48701388  0.87500000  0.25000000  1
  K  K2  1  0.12500000  0.23701388  0.75000000  1
  K  K3  1  0.62500000  0.51298612  0.75000000  1
  B  B4  1  -0.00000000  0.00000000  -0.00000000  1
  B  B5  1  0.25000000  0.75000000  0.50000000  1
  P  P6  1  0.27671443  0.37500000  0.25000000  1
  P  P7  1  0.97328557  0.87500000  0.25000000  1
  P  P8  1  0.12500000  0.72328557  0.75000000  1
  P  P9  1  0.62500000  0.02671443  0.75000000  1
  O  O10  1  0.44263657  0.27896025  0.34262413  1
  O  O11  1  0.89998756  0.06366389  0.34262413  1
  O  O12  1  0.93633611  0.55736343  0.65737587  1
  O  O13  1  0.80736343  0.68633611  0.15737587  1
  O  O14  1  0.72103975  0.10001244  0.65737587  1
  O  O15  1  0.35001244  0.47103975  0.15737587  1
  O  O16  1  0.31366389  0.64998756  0.84262413  1
  O  O17  1  0.52896025  0.19263657  0.84262413  1
  O  O18  1  0.06668221  0.22148157  0.11036056  1
  O  O19  1  0.04367834  0.88887898  0.11036056  1
  O  O20  1  0.11112102  0.93331779  0.88963944  1
  O  O21  1  0.18331779  0.86112102  0.38963944  1
  O  O22  1  0.77851843  0.95632166  0.88963944  1
  O  O23  1  0.20632166  0.52851843  0.38963944  1
  O  O24  1  0.13887898  0.79367834  0.61036056  1
  O  O25  1  0.47148157  0.81668221  0.61036056  1
