# generated using pymatgen
data_Pr6GaFe13
_symmetry_space_group_name_H-M   'P 1'
_cell_length_a   8.06206586
_cell_length_b   8.06206586
_cell_length_c   13.04024491
_cell_angle_alpha   108.00635541
_cell_angle_beta   108.00635541
_cell_angle_gamma   90.00000000
_symmetry_Int_Tables_number   1
_chemical_formula_structural   Pr6GaFe13
_chemical_formula_sum   'Pr12 Ga2 Fe26'
_cell_volume   762.29355069
_cell_formula_units_Z   2
loop_
 _symmetry_equiv_pos_site_id
 _symmetry_equiv_pos_as_xyz
  1  'x, y, z'
loop_
 _atom_site_type_symbol
 _atom_site_label
 _atom_site_symmetry_multiplicity
 _atom_site_fract_x
 _atom_site_fract_y
 _atom_site_fract_z
 _atom_site_occupancy
  Pr  Pr0  1  0.10682124  0.10682124  0.21364248  1
  Pr  Pr1  1  0.89317876  0.89317876  0.78635752  1
  Pr  Pr2  1  0.39317876  0.39317876  0.78635752  1
  Pr  Pr3  1  0.60682124  0.60682124  0.21364248  1
  Pr  Pr4  1  0.35363900  0.85363900  0.37442683  1
  Pr  Pr5  1  0.64636100  0.14636100  0.62557317  1
  Pr  Pr6  1  0.02078783  0.52078783  0.37442683  1
  Pr  Pr7  1  0.52078783  0.35363900  0.37442683  1
  Pr  Pr8  1  0.14636100  0.97921217  0.62557317  1
  Pr  Pr9  1  0.97921217  0.47921217  0.62557317  1
  Pr  Pr10  1  0.47921217  0.64636100  0.62557317  1
  Pr  Pr11  1  0.85363900  0.02078783  0.37442683  1
  Ga  Ga12  1  0.25000000  0.25000000  0.50000000  1
  Ga  Ga13  1  0.75000000  0.75000000  0.50000000  1
  Fe  Fe14  1  0.23705145  0.73705145  0.11759628  1
  Fe  Fe15  1  0.76294855  0.26294855  0.88240372  1
  Fe  Fe16  1  0.88054483  0.38054483  0.11759628  1
  Fe  Fe17  1  0.38054483  0.23705145  0.11759628  1
  Fe  Fe18  1  0.26294855  0.11945517  0.88240372  1
  Fe  Fe19  1  0.11945517  0.61945517  0.88240372  1
  Fe  Fe20  1  0.61945517  0.76294855  0.88240372  1
  Fe  Fe21  1  0.73705145  0.88054483  0.11759628  1
  Fe  Fe22  1  -0.00000000  0.50000000  -0.00000000  1
  Fe  Fe23  1  0.50000000  -0.00000000  -0.00000000  1
  Fe  Fe24  1  0.06609911  0.20981287  -0.00000000  1
  Fe  Fe25  1  0.93390089  0.79018713  -0.00000000  1
  Fe  Fe26  1  0.79018713  0.06609911  -0.00000000  1
  Fe  Fe27  1  0.43390089  0.70981287  -0.00000000  1
  Fe  Fe28  1  0.20981287  0.93390089  -0.00000000  1
  Fe  Fe29  1  0.56609911  0.29018713  -0.00000000  1
  Fe  Fe30  1  0.70981287  0.56609911  -0.00000000  1
  Fe  Fe31  1  0.29018713  0.43390089  -0.00000000  1
  Fe  Fe32  1  0.70644319  0.20644319  0.18631601  1
  Fe  Fe33  1  0.29355681  0.79355681  0.81368399  1
  Fe  Fe34  1  0.47987282  0.97987282  0.18631601  1
  Fe  Fe35  1  0.97987282  0.70644319  0.18631601  1
  Fe  Fe36  1  0.79355681  0.52012718  0.81368399  1
  Fe  Fe37  1  0.52012718  0.02012718  0.81368399  1
  Fe  Fe38  1  0.02012718  0.29355681  0.81368399  1
  Fe  Fe39  1  0.20644319  0.47987282  0.18631601  1
