# generated using pymatgen
data_Li2NiGeO4
_symmetry_space_group_name_H-M   'P 1'
_cell_length_a   5.05477495
_cell_length_b   6.47074726
_cell_length_c   11.00424918
_cell_angle_alpha   90.00000000
_cell_angle_beta   90.00000000
_cell_angle_gamma   90.00000000
_symmetry_Int_Tables_number   1
_chemical_formula_structural   Li2NiGeO4
_chemical_formula_sum   'Li8 Ni4 Ge4 O16'
_cell_volume   359.92886564
_cell_formula_units_Z   4
loop_
 _symmetry_equiv_pos_site_id
 _symmetry_equiv_pos_as_xyz
  1  'x, y, z'
loop_
 _atom_site_type_symbol
 _atom_site_label
 _atom_site_symmetry_multiplicity
 _atom_site_fract_x
 _atom_site_fract_y
 _atom_site_fract_z
 _atom_site_occupancy
  Li  Li0  1  0.82173342  0.00156973  0.91165665  1
  Li  Li1  1  0.17826658  0.99843027  0.08834335  1
  Li  Li2  1  0.32173342  0.99843027  0.58834335  1
  Li  Li3  1  0.17826658  0.50156973  0.08834335  1
  Li  Li4  1  0.67826658  0.00156973  0.41165665  1
  Li  Li5  1  0.82173342  0.49843027  0.91165665  1
  Li  Li6  1  0.67826658  0.49843027  0.41165665  1
  Li  Li7  1  0.32173342  0.50156973  0.58834335  1
  Ni  Ni8  1  0.81919509  0.75000000  0.66290934  1
  Ni  Ni9  1  0.18080491  0.25000000  0.33709066  1
  Ni  Ni10  1  0.31919509  0.25000000  0.83709066  1
  Ni  Ni11  1  0.68080491  0.75000000  0.16290934  1
  Ge  Ge12  1  0.32913032  0.75000000  0.83537837  1
  Ge  Ge13  1  0.67086968  0.25000000  0.16462163  1
  Ge  Ge14  1  0.82913032  0.25000000  0.66462163  1
  Ge  Ge15  1  0.17086968  0.75000000  0.33537837  1
  O  O16  1  0.71969162  0.47833986  0.59051550  1
  O  O17  1  0.28030838  0.52166014  0.40948450  1
  O  O18  1  0.21969162  0.52166014  0.90948450  1
  O  O19  1  0.28030838  0.97833986  0.40948450  1
  O  O20  1  0.78030838  0.47833986  0.09051550  1
  O  O21  1  0.71969162  0.02166014  0.59051550  1
  O  O22  1  0.78030838  0.02166014  0.09051550  1
  O  O23  1  0.21969162  0.97833986  0.90948450  1
  O  O24  1  0.21355400  0.75000000  0.68182308  1
  O  O25  1  0.78644600  0.25000000  0.31817692  1
  O  O26  1  0.71355400  0.25000000  0.81817692  1
  O  O27  1  0.28644600  0.75000000  0.18182308  1
  O  O28  1  0.68295572  0.75000000  0.83344177  1
  O  O29  1  0.31704428  0.25000000  0.16655823  1
  O  O30  1  0.18295572  0.25000000  0.66655823  1
  O  O31  1  0.81704428  0.75000000  0.33344177  1
