# generated using pymatgen
data_NdIn2Ni
_symmetry_space_group_name_H-M   'P 1'
_cell_length_a   4.42543312
_cell_length_b   9.51776370
_cell_length_c   21.85743828
_cell_angle_alpha   90.00000000
_cell_angle_beta   90.00000000
_cell_angle_gamma   103.44329307
_symmetry_Int_Tables_number   1
_chemical_formula_structural   NdIn2Ni
_chemical_formula_sum   'Nd10 In20 Ni10'
_cell_volume   895.41516385
_cell_formula_units_Z   10
loop_
 _symmetry_equiv_pos_site_id
 _symmetry_equiv_pos_as_xyz
  1  'x, y, z'
loop_
 _atom_site_type_symbol
 _atom_site_label
 _atom_site_symmetry_multiplicity
 _atom_site_fract_x
 _atom_site_fract_y
 _atom_site_fract_z
 _atom_site_occupancy
  Nd  Nd0  1  0.46925155  0.93850310  0.25000000  1
  Nd  Nd1  1  0.53074845  0.06149690  0.75000000  1
  Nd  Nd2  1  0.22852149  0.45704298  0.12804245  1
  Nd  Nd3  1  0.77147851  0.54295702  0.87195755  1
  Nd  Nd4  1  0.77147851  0.54295702  0.62804245  1
  Nd  Nd5  1  0.22852149  0.45704298  0.37195755  1
  Nd  Nd6  1  0.43749453  0.87498907  0.08001626  1
  Nd  Nd7  1  0.56250547  0.12501093  0.91998374  1
  Nd  Nd8  1  0.56250547  0.12501093  0.58001626  1
  Nd  Nd9  1  0.43749453  0.87498907  0.41998374  1
  In  In10  1  0.72467035  0.44934069  0.25000000  1
  In  In11  1  0.27532965  0.55065931  0.75000000  1
  In  In12  1  0.06683651  0.13367303  0.04289706  1
  In  In13  1  0.93316349  0.86632697  0.95710294  1
  In  In14  1  0.93316349  0.86632697  0.54289706  1
  In  In15  1  0.06683651  0.13367303  0.45710294  1
  In  In16  1  0.13625579  0.27251157  0.67496664  1
  In  In17  1  0.86374421  0.72748843  0.32503336  1
  In  In18  1  0.86374421  0.72748843  0.17496664  1
  In  In19  1  0.13625579  0.27251157  0.82503336  1
  In  In20  1  0.10920198  0.21840395  0.25000000  1
  In  In21  1  0.89079802  0.78159605  0.75000000  1
  In  In22  1  0.19989376  0.39978753  0.53356841  1
  In  In23  1  0.80010624  0.60021247  0.46643159  1
  In  In24  1  0.80010624  0.60021247  0.03356841  1
  In  In25  1  0.19989376  0.39978753  0.96643159  1
  In  In26  1  0.59918405  0.19836810  0.14370710  1
  In  In27  1  0.40081595  0.80163190  0.85629290  1
  In  In28  1  0.40081595  0.80163190  0.64370710  1
  In  In29  1  0.59918405  0.19836810  0.35629290  1
  Ni  Ni30  1  0.34434526  0.68869053  0.53204549  1
  Ni  Ni31  1  0.65565474  0.31130947  0.46795451  1
  Ni  Ni32  1  0.65565474  0.31130947  0.03204549  1
  Ni  Ni33  1  0.34434526  0.68869053  0.96795451  1
  Ni  Ni34  1  0.31639407  0.63278814  0.25000000  1
  Ni  Ni35  1  0.68360593  0.36721186  0.75000000  1
  Ni  Ni36  1  0.01414906  0.02829811  0.15799950  1
  Ni  Ni37  1  0.98585094  0.97170189  0.84200050  1
  Ni  Ni38  1  0.98585094  0.97170189  0.65799950  1
  Ni  Ni39  1  0.01414906  0.02829811  0.34200050  1
