# generated using pymatgen
data_NaCu2H3O10
_symmetry_space_group_name_H-M   'P 1'
_cell_length_a   6.21355814
_cell_length_b   6.21355814
_cell_length_c   7.24388006
_cell_angle_alpha   119.16986320
_cell_angle_beta   84.45978817
_cell_angle_gamma   122.97907894
_symmetry_Int_Tables_number   1
_chemical_formula_structural   NaCu2H3O10
_chemical_formula_sum   'Na1 Cu2 H3 O10'
_cell_volume   199.34490004
_cell_formula_units_Z   1
loop_
 _symmetry_equiv_pos_site_id
 _symmetry_equiv_pos_as_xyz
  1  'x, y, z'
loop_
 _atom_site_type_symbol
 _atom_site_label
 _atom_site_symmetry_multiplicity
 _atom_site_fract_x
 _atom_site_fract_y
 _atom_site_fract_z
 _atom_site_occupancy
  Na  Na0  1  0.00000000  0.00000000  0.00000000  1
  Cu  Cu1  1  0.00000000  0.00000000  0.50000000  1
  Cu  Cu2  1  0.50000000  0.50000000  0.50000000  1
  H  H3  1  0.49453497  0.25361250  0.74814748  1
  H  H4  1  0.50546503  0.74638750  0.25185252  1
  H  H5  1  0.50000000  0.00000000  0.50000000  1
  O  O6  1  0.27905029  0.88938018  0.16843047  1
  O  O7  1  0.72094971  0.11061982  0.83156953  1
  O  O8  1  0.42841003  0.16704355  0.59545358  1
  O  O9  1  0.57158997  0.83295645  0.40454642  1
  O  O10  1  0.01971108  0.77349846  0.18213424  1
  O  O11  1  0.98028892  0.22650154  0.81786576  1
  O  O12  1  0.59136422  0.83757685  0.81786576  1
  O  O13  1  0.40863578  0.16242315  0.18213424  1
  O  O14  1  0.14809213  0.32280262  0.47089475  1
  O  O15  1  0.85190787  0.67719738  0.52910525  1
