# generated using pymatgen
data_Na7YbC4(O3F)4
_symmetry_space_group_name_H-M   'P 1'
_cell_length_a   7.10178572
_cell_length_b   7.34908929
_cell_length_c   15.73061143
_cell_angle_alpha   76.49136074
_cell_angle_beta   85.01098367
_cell_angle_gamma   68.14286852
_symmetry_Int_Tables_number   1
_chemical_formula_structural   Na7YbC4(O3F)4
_chemical_formula_sum   'Na14 Yb2 C8 O24 F8'
_cell_volume   740.90803030
_cell_formula_units_Z   2
loop_
 _symmetry_equiv_pos_site_id
 _symmetry_equiv_pos_as_xyz
  1  'x, y, z'
loop_
 _atom_site_type_symbol
 _atom_site_label
 _atom_site_symmetry_multiplicity
 _atom_site_fract_x
 _atom_site_fract_y
 _atom_site_fract_z
 _atom_site_occupancy
  Na  Na0  1  0.27752301  0.48028898  0.75867382  1
  Na  Na1  1  0.77752301  0.23896279  0.24132618  1
  Na  Na2  1  0.02536499  0.27376057  0.93843302  1
  Na  Na3  1  0.52536499  0.21219359  0.06156698  1
  Na  Na4  1  0.29118593  0.97937452  0.25528684  1
  Na  Na5  1  0.79118593  0.23466136  0.74471316  1
  Na  Na6  1  0.03653991  0.26773203  0.43295213  1
  Na  Na7  1  0.53653991  0.70068416  0.56704787  1
  Na  Na8  1  0.78302666  0.74535042  0.74172147  1
  Na  Na9  1  0.28302666  0.48707188  0.25827853  1
  Na  Na10  1  0.27012966  0.99391703  0.76016883  1
  Na  Na11  1  0.77012966  0.75408587  0.23983117  1
  Na  Na12  1  0.02719733  0.76795360  0.93578290  1
  Na  Na13  1  0.52719733  0.70373650  0.06421710  1
  Yb  Yb14  1  0.52705647  0.20663216  0.55317588  1
  Yb  Yb15  1  0.02705647  0.75980805  0.44682412  1
  C  C16  1  0.54518265  0.05681249  0.39094403  1
  C  C17  1  0.04518265  0.44775652  0.60905597  1
  C  C18  1  0.53813134  0.05242666  0.88793678  1
  C  C19  1  0.03813134  0.94036344  0.11206322  1
  C  C20  1  0.04204618  0.92675541  0.61228753  1
  C  C21  1  0.54204618  0.53904294  0.38771247  1
  C  C22  1  0.03935372  0.44175389  0.11567272  1
  C  C23  1  0.53935372  0.55742661  0.88432728  1
  O  O24  1  0.06621462  0.86508931  0.69574314  1
  O  O25  1  0.56621462  0.56083244  0.30425686  1
  O  O26  1  0.38410367  0.70419317  0.90052979  1
  O  O27  1  0.88410367  0.60472296  0.09947021  1
  O  O28  1  0.38115438  0.65728607  0.41881848  1
  O  O29  1  0.88115438  0.07610455  0.58118152  1
  O  O30  1  0.15373755  0.38536680  0.05221957  1
  O  O31  1  0.65373755  0.43758637  0.94778043  1
  O  O32  1  0.07586081  0.34156037  0.68769333  1
  O  O33  1  0.57586081  0.02925370  0.31230667  1
  O  O34  1  0.39001300  0.19829904  0.90942188  1
  O  O35  1  0.89001300  0.10772091  0.09057812  1
  O  O36  1  0.17474342  0.84153601  0.55913396  1
  O  O37  1  0.67474342  0.40066997  0.44086604  1
  O  O38  1  0.39225200  0.20625245  0.40860362  1
  O  O39  1  0.89225200  0.61485607  0.59139638  1
  O  O40  1  0.07709761  0.34011948  0.19473709  1
  O  O41  1  0.57709761  0.53485657  0.80526291  1
  O  O42  1  0.65538598  0.91976121  0.94775261  1
  O  O43  1  0.15538598  0.86751382  0.05224739  1
  O  O44  1  0.56798899  0.04180949  0.80728454  1
  O  O45  1  0.06798899  0.84909402  0.19271546  1
  O  O46  1  0.66883569  0.93767587  0.45349228  1
  O  O47  1  0.16883569  0.39116815  0.54650772  1
  F  F48  1  0.00881211  0.07210076  0.85495501  1
  F  F49  1  0.50881211  0.92705577  0.14504499  1
  F  F50  1  0.01154466  0.56870394  0.84927098  1
  F  F51  1  0.51154466  0.41797492  0.15072902  1
  F  F52  1  0.50641836  0.94259353  0.64487257  1
  F  F53  1  0.00641836  0.58746610  0.35512743  1
  F  F54  1  0.02459931  0.03859509  0.35663451  1
  F  F55  1  0.52459931  0.39522960  0.64336549  1
