# generated using pymatgen
data_GdSbO4
_symmetry_space_group_name_H-M   'P 1'
_cell_length_a   5.38705498
_cell_length_b   7.46104046
_cell_length_c   8.14903728
_cell_angle_alpha   85.68387408
_cell_angle_beta   91.49173044
_cell_angle_gamma   96.35832762
_symmetry_Int_Tables_number   1
_chemical_formula_structural   GdSbO4
_chemical_formula_sum   'Gd4 Sb4 O16'
_cell_volume   324.54484790
_cell_formula_units_Z   4
loop_
 _symmetry_equiv_pos_site_id
 _symmetry_equiv_pos_as_xyz
  1  'x, y, z'
loop_
 _atom_site_type_symbol
 _atom_site_label
 _atom_site_symmetry_multiplicity
 _atom_site_fract_x
 _atom_site_fract_y
 _atom_site_fract_z
 _atom_site_occupancy
  Gd  Gd0  1  0.23261934  0.13309371  0.63687734  1
  Gd  Gd1  1  0.76739182  0.86688531  0.36310030  1
  Gd  Gd2  1  0.23370852  0.16934695  0.10572801  1
  Gd  Gd3  1  0.76627713  0.83063342  0.89429415  1
  Sb  Sb4  1  0.21857786  0.62962756  0.21719285  1
  Sb  Sb5  1  0.78143483  0.37034684  0.78279090  1
  Sb  Sb6  1  0.75833014  0.33041238  0.33388666  1
  Sb  Sb7  1  0.24169609  0.66962273  0.66609535  1
  O  O8  1  0.08793194  0.41858445  0.62978966  1
  O  O9  1  0.91202322  0.58144879  0.37021971  1
  O  O10  1  0.62647530  0.27978746  0.56499190  1
  O  O11  1  0.37357419  0.72019403  0.43506127  1
  O  O12  1  0.97586965  0.40604969  0.13025367  1
  O  O13  1  0.02411879  0.59392251  0.86971465  1
  O  O14  1  0.42757650  0.41694301  0.24526776  1
  O  O15  1  0.57242175  0.58305076  0.75471148  1
  O  O16  1  0.04304823  0.85469079  0.14386540  1
  O  O17  1  0.95693461  0.14533602  0.85613378  1
  O  O18  1  0.57241025  0.10733295  0.25689106  1
  O  O19  1  0.42749051  0.89265741  0.74315602  1
  O  O20  1  0.48438704  0.23651254  0.88554018  1
  O  O21  1  0.51570605  0.76349731  0.11445355  1
  O  O22  1  0.01821086  0.15415767  0.38443235  1
  O  O23  1  0.98178538  0.84586571  0.61555199  1
