# generated using pymatgen
data_Dy2(MoO4)3
_symmetry_space_group_name_H-M   'P 1'
_cell_length_a   6.92076643
_cell_length_b   6.92076643
_cell_length_c   11.42452214
_cell_angle_alpha   100.64185388
_cell_angle_beta   100.64185388
_cell_angle_gamma   112.45982818
_symmetry_Int_Tables_number   1
_chemical_formula_structural   Dy2(MoO4)3
_chemical_formula_sum   'Dy4 Mo6 O24'
_cell_volume   476.97122057
_cell_formula_units_Z   2
loop_
 _symmetry_equiv_pos_site_id
 _symmetry_equiv_pos_as_xyz
  1  'x, y, z'
loop_
 _atom_site_type_symbol
 _atom_site_label
 _atom_site_symmetry_multiplicity
 _atom_site_fract_x
 _atom_site_fract_y
 _atom_site_fract_z
 _atom_site_occupancy
  Dy  Dy0  1  0.54407243  0.78832551  0.59118578  1
  Dy  Dy1  1  0.45592757  0.21167449  0.40881422  1
  Dy  Dy2  1  0.21167449  0.45592757  0.90881422  1
  Dy  Dy3  1  0.78832551  0.54407243  0.09118578  1
  Mo  Mo4  1  0.74560560  0.96184032  0.94914208  1
  Mo  Mo5  1  0.25439440  0.03815968  0.05085792  1
  Mo  Mo6  1  0.03815968  0.25439440  0.55085792  1
  Mo  Mo7  1  0.96184032  0.74560560  0.44914208  1
  Mo  Mo8  1  0.63127598  0.36872402  0.75000000  1
  Mo  Mo9  1  0.36872402  0.63127598  0.25000000  1
  O  O10  1  0.57602372  0.15817968  0.60766151  1
  O  O11  1  0.42397628  0.84182032  0.39233849  1
  O  O12  1  0.84182032  0.42397628  0.89233849  1
  O  O13  1  0.15817968  0.57602372  0.10766151  1
  O  O14  1  0.37608156  0.29349926  0.78257569  1
  O  O15  1  0.62391844  0.70650074  0.21742431  1
  O  O16  1  0.70650074  0.62391844  0.71742431  1
  O  O17  1  0.29349926  0.37608156  0.28257569  1
  O  O18  1  0.58360332  0.68350792  0.96208237  1
  O  O19  1  0.41639668  0.31649208  0.03791763  1
  O  O20  1  0.31649208  0.41639668  0.53791763  1
  O  O21  1  0.68350792  0.58360332  0.46208237  1
  O  O22  1  0.89775391  0.97506377  0.57673450  1
  O  O23  1  0.10224609  0.02493623  0.42326550  1
  O  O24  1  0.02493623  0.10224609  0.92326550  1
  O  O25  1  0.97506377  0.89775391  0.07673450  1
  O  O26  1  0.59468807  0.94991010  0.79899113  1
  O  O27  1  0.40531193  0.05008990  0.20100887  1
  O  O28  1  0.05008990  0.40531193  0.70100887  1
  O  O29  1  0.94991010  0.59468807  0.29899113  1
  O  O30  1  0.26787799  0.83167627  0.94116143  1
  O  O31  1  0.73212201  0.16832373  0.05883857  1
  O  O32  1  0.16832373  0.73212201  0.55883857  1
  O  O33  1  0.83167627  0.26787799  0.44116143  1
