# generated using pymatgen
data_Eu4PdO7
_symmetry_space_group_name_H-M   'P 1'
_cell_length_a   6.89690211
_cell_length_b   7.21165426
_cell_length_c   7.97473013
_cell_angle_alpha   70.50084453
_cell_angle_beta   72.16660327
_cell_angle_gamma   83.85722428
_symmetry_Int_Tables_number   1
_chemical_formula_structural   Eu4PdO7
_chemical_formula_sum   'Eu8 Pd2 O14'
_cell_volume   355.92805518
_cell_formula_units_Z   2
loop_
 _symmetry_equiv_pos_site_id
 _symmetry_equiv_pos_as_xyz
  1  'x, y, z'
loop_
 _atom_site_type_symbol
 _atom_site_label
 _atom_site_symmetry_multiplicity
 _atom_site_fract_x
 _atom_site_fract_y
 _atom_site_fract_z
 _atom_site_occupancy
  Eu  Eu0  1  0.78425753  0.38299390  0.20925513  1
  Eu  Eu1  1  0.21574247  0.61700610  0.79074487  1
  Eu  Eu2  1  0.35729881  0.14772457  0.13951681  1
  Eu  Eu3  1  0.64270119  0.85227543  0.86048319  1
  Eu  Eu4  1  0.20732794  0.60522296  0.27838342  1
  Eu  Eu5  1  0.79267206  0.39477704  0.72161658  1
  Eu  Eu6  1  0.33938721  0.16886316  0.61955335  1
  Eu  Eu7  1  0.66061279  0.83113684  0.38044665  1
  Pd  Pd8  1  0.00000000  -0.00000000  -0.00000000  1
  Pd  Pd9  1  0.00000000  -0.00000000  0.50000000  1
  O  O10  1  0.70612837  0.07941164  0.51176469  1
  O  O11  1  0.29387163  0.92058836  0.48823531  1
  O  O12  1  0.14379983  0.41769550  0.10086368  1
  O  O13  1  0.85620017  0.58230450  0.89913632  1
  O  O14  1  0.52629316  0.75596395  0.17733394  1
  O  O15  1  0.47370684  0.24403605  0.82266606  1
  O  O16  1  0.43265325  0.33282221  0.30360709  1
  O  O17  1  0.56734675  0.66717779  0.69639291  1
  O  O18  1  0.05144410  0.93332640  0.25642774  1
  O  O19  1  0.94855590  0.06667360  0.74357226  1
  O  O20  1  0.73283436  0.13477051  0.08309598  1
  O  O21  1  0.26716564  0.86522949  0.91690402  1
  O  O22  1  0.15500006  0.46076067  0.60134634  1
  O  O23  1  0.84499994  0.53923933  0.39865366  1
