# generated using pymatgen
data_Cu3BO5
_symmetry_space_group_name_H-M   'P 1'
_cell_length_a   3.27530548
_cell_length_b   9.85269375
_cell_length_c   11.89142457
_cell_angle_alpha   90.00000000
_cell_angle_beta   90.00000000
_cell_angle_gamma   103.08723501
_symmetry_Int_Tables_number   1
_chemical_formula_structural   Cu3BO5
_chemical_formula_sum   'Cu12 B4 O20'
_cell_volume   373.77601231
_cell_formula_units_Z   4
loop_
 _symmetry_equiv_pos_site_id
 _symmetry_equiv_pos_as_xyz
  1  'x, y, z'
loop_
 _atom_site_type_symbol
 _atom_site_label
 _atom_site_symmetry_multiplicity
 _atom_site_fract_x
 _atom_site_fract_y
 _atom_site_fract_z
 _atom_site_occupancy
  Cu  Cu0  1  0.50000000  0.50000000  0.00000000  1
  Cu  Cu1  1  0.50000000  -0.00000000  0.50000000  1
  Cu  Cu2  1  0.93591258  0.76437972  0.61500085  1
  Cu  Cu3  1  0.06408742  0.23562028  0.38499915  1
  Cu  Cu4  1  0.06408742  0.73562028  0.11500085  1
  Cu  Cu5  1  0.93591258  0.26437972  0.88499915  1
  Cu  Cu6  1  0.44363409  0.50609571  0.72280741  1
  Cu  Cu7  1  0.55636591  0.49390429  0.27719259  1
  Cu  Cu8  1  0.55636591  0.99390429  0.22280741  1
  Cu  Cu9  1  0.44363409  0.00609571  0.77719259  1
  Cu  Cu10  1  -0.00000000  -0.00000000  0.00000000  1
  Cu  Cu11  1  -0.00000000  0.50000000  0.50000000  1
  B  B12  1  0.94781070  0.73516722  0.86385718  1
  B  B13  1  0.05218930  0.26483278  0.13614282  1
  B  B14  1  0.05218930  0.76483278  0.36385718  1
  B  B15  1  0.94781070  0.23516722  0.63614282  1
  O  O16  1  0.43550829  0.90683152  0.64409204  1
  O  O17  1  0.56449171  0.09316848  0.35590796  1
  O  O18  1  0.56449171  0.59316848  0.14409204  1
  O  O19  1  0.43550829  0.40683152  0.85590796  1
  O  O20  1  0.47767758  0.60875552  0.58499507  1
  O  O21  1  0.52232242  0.39124448  0.41500493  1
  O  O22  1  0.52232242  0.89124448  0.08499507  1
  O  O23  1  0.47767758  0.10875552  0.91500493  1
  O  O24  1  0.93624480  0.65921123  0.96158593  1
  O  O25  1  0.06375520  0.34078877  0.03841407  1
  O  O26  1  0.06375520  0.84078877  0.46158593  1
  O  O27  1  0.93624480  0.15921123  0.53841407  1
  O  O28  1  0.87377071  0.66744440  0.76193283  1
  O  O29  1  0.12622929  0.33255560  0.23806717  1
  O  O30  1  0.12622929  0.83255560  0.26193283  1
  O  O31  1  0.87377071  0.16744440  0.73806717  1
  O  O32  1  0.03972044  0.87877450  0.86657366  1
  O  O33  1  0.96027956  0.12122550  0.13342634  1
  O  O34  1  0.96027956  0.62122550  0.36657366  1
  O  O35  1  0.03972044  0.37877450  0.63342634  1
