# generated using pymatgen
data_La2Sn3(PbS4)3
_symmetry_space_group_name_H-M   'P 1'
_cell_length_a   4.02560859
_cell_length_b   11.76650124
_cell_length_c   20.70955958
_cell_angle_alpha   90.00000000
_cell_angle_beta   90.00000000
_cell_angle_gamma   90.00000000
_symmetry_Int_Tables_number   1
_chemical_formula_structural   La2Sn3(PbS4)3
_chemical_formula_sum   'La4 Sn6 Pb6 S24'
_cell_volume   980.95651101
_cell_formula_units_Z   2
loop_
 _symmetry_equiv_pos_site_id
 _symmetry_equiv_pos_as_xyz
  1  'x, y, z'
loop_
 _atom_site_type_symbol
 _atom_site_label
 _atom_site_symmetry_multiplicity
 _atom_site_fract_x
 _atom_site_fract_y
 _atom_site_fract_z
 _atom_site_occupancy
  La  La0  1  0.50000000  0.65325264  0.41249460  1
  La  La1  1  0.50000000  0.15325264  0.58750540  1
  La  La2  1  0.50000000  0.82420287  0.89482975  1
  La  La3  1  0.50000000  0.32420287  0.10517025  1
  Sn  Sn4  1  -0.00000000  0.00129333  0.74983194  1
  Sn  Sn5  1  0.00000000  0.50129333  0.25016806  1
  Sn  Sn6  1  -0.00000000  0.51773363  0.91140626  1
  Sn  Sn7  1  0.00000000  0.01773363  0.08859374  1
  Sn  Sn8  1  -0.00000000  0.99487248  0.42294985  1
  Sn  Sn9  1  -0.00000000  0.49487248  0.57705015  1
  Pb  Pb10  1  0.50000000  0.40371639  0.74332761  1
  Pb  Pb11  1  0.50000000  0.90371639  0.25667239  1
  Pb  Pb12  1  0.50000000  0.19753468  0.91254974  1
  Pb  Pb13  1  0.50000000  0.69753468  0.08745026  1
  Pb  Pb14  1  0.50000000  0.77145634  0.62302368  1
  Pb  Pb15  1  0.50000000  0.27145634  0.37697632  1
  S  S16  1  0.00000000  0.99935944  0.87420340  1
  S  S17  1  0.00000000  0.49935944  0.12579660  1
  S  S18  1  0.00000000  0.97916485  0.62739479  1
  S  S19  1  0.00000000  0.47916485  0.37260521  1
  S  S20  1  0.00000000  0.68401463  0.51440463  1
  S  S21  1  0.00000000  0.18401463  0.48559537  1
  S  S22  1  0.50000000  0.64370340  0.25658399  1
  S  S23  1  0.50000000  0.14370340  0.74341601  1
  S  S24  1  0.50000000  0.85114834  0.75492811  1
  S  S25  1  0.50000000  0.35114834  0.24507189  1
  S  S26  1  0.50000000  0.59543969  0.84060631  1
  S  S27  1  0.50000000  0.09543969  0.15939369  1
  S  S28  1  0.50000000  0.44159177  0.98092584  1
  S  S29  1  0.50000000  0.94159177  0.01907416  1
  S  S30  1  0.50000000  0.93343463  0.48609159  1
  S  S31  1  0.50000000  0.43343463  0.51390841  1
  S  S32  1  0.00000000  0.33771817  0.84276163  1
  S  S33  1  0.00000000  0.83771817  0.15723837  1
  S  S34  1  0.00000000  0.70723077  0.97274198  1
  S  S35  1  0.00000000  0.20723077  0.02725802  1
  S  S36  1  0.00000000  0.81000348  0.35619311  1
  S  S37  1  0.00000000  0.31000348  0.64380689  1
  S  S38  1  0.00000000  0.60242847  0.67764384  1
  S  S39  1  0.00000000  0.10242847  0.32235616  1
