# generated using pymatgen
data_Ho2Cu(SiO3)4
_symmetry_space_group_name_H-M   'P 1'
_cell_length_a   4.81478221
_cell_length_b   7.08552303
_cell_length_c   7.82228338
_cell_angle_alpha   65.44768459
_cell_angle_beta   86.43501040
_cell_angle_gamma   77.05342448
_symmetry_Int_Tables_number   1
_chemical_formula_structural   Ho2Cu(SiO3)4
_chemical_formula_sum   'Ho2 Cu1 Si4 O12'
_cell_volume   236.41610182
_cell_formula_units_Z   1
loop_
 _symmetry_equiv_pos_site_id
 _symmetry_equiv_pos_as_xyz
  1  'x, y, z'
loop_
 _atom_site_type_symbol
 _atom_site_label
 _atom_site_symmetry_multiplicity
 _atom_site_fract_x
 _atom_site_fract_y
 _atom_site_fract_z
 _atom_site_occupancy
  Ho  Ho0  1  0.03667615  0.77231700  0.44936659  1
  Ho  Ho1  1  0.96332385  0.22768300  0.55063341  1
  Cu  Cu2  1  -0.00000000  0.00000000  0.00000000  1
  Si  Si3  1  0.57505916  0.61126538  0.20387171  1
  Si  Si4  1  0.42494084  0.38873462  0.79612829  1
  Si  Si5  1  0.45481097  0.17751432  0.21433534  1
  Si  Si6  1  0.54518903  0.82248568  0.78566466  1
  O  O7  1  0.26551014  0.76488812  0.19621378  1
  O  O8  1  0.73448986  0.23511188  0.80378622  1
  O  O9  1  0.28809690  0.29826646  0.00579358  1
  O  O10  1  0.71190310  0.70173354  0.99420642  1
  O  O11  1  0.21962462  0.42363742  0.62358969  1
  O  O12  1  0.78037538  0.57636258  0.37641031  1
  O  O13  1  0.25803783  0.99047788  0.79414588  1
  O  O14  1  0.74196217  0.00952212  0.20585412  1
  O  O15  1  0.55783989  0.35835694  0.26503536  1
  O  O16  1  0.44216011  0.64164306  0.73496464  1
  O  O17  1  0.23393207  0.07320518  0.37463977  1
  O  O18  1  0.76606793  0.92679482  0.62536023  1
