# generated using pymatgen
data_LiEu(MoO4)2
_symmetry_space_group_name_H-M   'P 1'
_cell_length_a   5.16045641
_cell_length_b   6.03337012
_cell_length_c   10.22894861
_cell_angle_alpha   90.00000000
_cell_angle_beta   93.59294579
_cell_angle_gamma   90.00000000
_symmetry_Int_Tables_number   1
_chemical_formula_structural   LiEu(MoO4)2
_chemical_formula_sum   'Li2 Eu2 Mo4 O16'
_cell_volume   317.85175382
_cell_formula_units_Z   2
loop_
 _symmetry_equiv_pos_site_id
 _symmetry_equiv_pos_as_xyz
  1  'x, y, z'
loop_
 _atom_site_type_symbol
 _atom_site_label
 _atom_site_symmetry_multiplicity
 _atom_site_fract_x
 _atom_site_fract_y
 _atom_site_fract_z
 _atom_site_occupancy
  Li  Li0  1  0.25000000  0.69688305  0.25000000  1
  Li  Li1  1  0.75000000  0.30311695  0.75000000  1
  Eu  Eu2  1  0.75000000  0.29978898  0.25000000  1
  Eu  Eu3  1  0.25000000  0.70021102  0.75000000  1
  Mo  Mo4  1  0.75263408  0.82145260  0.02039330  1
  Mo  Mo5  1  0.24736592  0.17854740  0.97960670  1
  Mo  Mo6  1  0.74736592  0.82145260  0.47960670  1
  Mo  Mo7  1  0.25263408  0.17854740  0.52039330  1
  O  O8  1  0.44815253  0.89981769  0.59305814  1
  O  O9  1  0.55184747  0.10018231  0.40694186  1
  O  O10  1  0.05184747  0.89981769  0.90694186  1
  O  O11  1  0.94815253  0.10018231  0.09305814  1
  O  O12  1  0.11754125  0.35865907  0.39052990  1
  O  O13  1  0.88245875  0.64134093  0.60947010  1
  O  O14  1  0.38245875  0.35865907  0.10947010  1
  O  O15  1  0.61754125  0.64134093  0.89052990  1
  O  O16  1  0.02811510  0.90616458  0.38701647  1
  O  O17  1  0.97188490  0.09383542  0.61298353  1
  O  O18  1  0.47188490  0.90616458  0.11298353  1
  O  O19  1  0.52811510  0.09383542  0.88701647  1
  O  O20  1  0.90815249  0.62760026  0.13321087  1
  O  O21  1  0.09184751  0.37239974  0.86678913  1
  O  O22  1  0.59184751  0.62760026  0.36678913  1
  O  O23  1  0.40815249  0.37239974  0.63321087  1
