# generated using pymatgen
data_Al19Co6
_symmetry_space_group_name_H-M   'P 1'
_cell_length_a   8.04456106
_cell_length_b   8.54512879
_cell_length_c   12.50991181
_cell_angle_alpha   106.47898726
_cell_angle_beta   90.00000000
_cell_angle_gamma   118.08041652
_symmetry_Int_Tables_number   1
_chemical_formula_structural   Al19Co6
_chemical_formula_sum   'Al38 Co12'
_cell_volume   718.44339962
_cell_formula_units_Z   2
loop_
 _symmetry_equiv_pos_site_id
 _symmetry_equiv_pos_as_xyz
  1  'x, y, z'
loop_
 _atom_site_type_symbol
 _atom_site_label
 _atom_site_symmetry_multiplicity
 _atom_site_fract_x
 _atom_site_fract_y
 _atom_site_fract_z
 _atom_site_occupancy
  Al  Al0  1  0.23186555  0.00866704  0.67248092  1
  Al  Al1  1  0.76813445  0.99133296  0.32751908  1
  Al  Al2  1  0.22319851  0.99133296  0.32751908  1
  Al  Al3  1  0.77680149  0.00866704  0.67248092  1
  Al  Al4  1  0.57828929  0.15657858  0.58055724  1
  Al  Al5  1  0.42171071  0.84342142  0.41944276  1
  Al  Al6  1  0.73512921  0.47025842  0.51921060  1
  Al  Al7  1  0.26487079  0.52974158  0.48078940  1
  Al  Al8  1  0.53711244  0.63520804  0.66388059  1
  Al  Al9  1  0.46288756  0.36479196  0.33611941  1
  Al  Al10  1  0.90190440  0.36479196  0.33611941  1
  Al  Al11  1  0.09809560  0.63520804  0.66388059  1
  Al  Al12  1  0.74524901  0.49049801  0.97907883  1
  Al  Al13  1  0.25475099  0.50950199  0.02092117  1
  Al  Al14  1  0.97191983  0.94383966  0.83212928  1
  Al  Al15  1  0.02808017  0.05616034  0.16787072  1
  Al  Al16  1  0.59198084  0.18396168  0.78595380  1
  Al  Al17  1  0.40801916  0.81603832  0.21404620  1
  Al  Al18  1  0.67530168  0.74440571  0.47841707  1
  Al  Al19  1  0.32469832  0.25559429  0.52158293  1
  Al  Al20  1  0.93089597  0.25559429  0.52158293  1
  Al  Al21  1  0.06910403  0.74440571  0.47841707  1
  Al  Al22  1  0.83859897  0.67719794  0.27894089  1
  Al  Al23  1  0.16140103  0.32280206  0.72105911  1
  Al  Al24  1  0.34578180  0.25695691  0.89150784  1
  Al  Al25  1  0.65421820  0.74304309  0.10849216  1
  Al  Al26  1  0.08882489  0.74304309  0.10849216  1
  Al  Al27  1  0.91117511  0.25695691  0.89150784  1
  Al  Al28  1  0.74792092  0.00000000  0.00000000  1
  Al  Al29  1  0.25207908  -0.00000000  0.00000000  1
  Al  Al30  1  0.43416747  0.86833493  0.82612416  1
  Al  Al31  1  0.56583253  0.13166507  0.17387584  1
  Al  Al32  1  0.78654398  0.57308796  0.76247851  1
  Al  Al33  1  0.21345602  0.42691204  0.23752149  1
  Al  Al34  1  0.53204370  0.62710853  0.88259698  1
  Al  Al35  1  0.46795630  0.37289147  0.11740302  1
  Al  Al36  1  0.90493517  0.37289147  0.11740302  1
  Al  Al37  1  0.09506483  0.62710853  0.88259698  1
  Co  Co38  1  0.41758033  0.83516065  0.61777366  1
  Co  Co39  1  0.58241967  0.16483935  0.38222634  1
  Co  Co40  1  0.59202977  0.18405954  0.98338087  1
  Co  Co41  1  0.40797023  0.81594046  0.01661913  1
  Co  Co42  1  0.90102098  0.80204196  0.98460047  1
  Co  Co43  1  0.09897902  0.19795804  0.01539953  1
  Co  Co44  1  0.89164218  0.78328435  0.63376503  1
  Co  Co45  1  0.10835782  0.21671565  0.36623497  1
  Co  Co46  1  0.44853719  0.34471382  0.71858307  1
  Co  Co47  1  0.55146281  0.65528618  0.28141693  1
  Co  Co48  1  0.10382337  0.65528618  0.28141693  1
  Co  Co49  1  0.89617663  0.34471382  0.71858307  1
