# generated using pymatgen
data_MgH2(CO2)2
_symmetry_space_group_name_H-M   'P 1'
_cell_length_a   7.65533939
_cell_length_b   14.23765887
_cell_length_c   25.46634956
_cell_angle_alpha   90.00000000
_cell_angle_beta   90.00000000
_cell_angle_gamma   90.00000000
_symmetry_Int_Tables_number   1
_chemical_formula_structural   MgH2(CO2)2
_chemical_formula_sum   'Mg24 H48 C48 O96'
_cell_volume   2775.68212482
_cell_formula_units_Z   24
loop_
 _symmetry_equiv_pos_site_id
 _symmetry_equiv_pos_as_xyz
  1  'x, y, z'
loop_
 _atom_site_type_symbol
 _atom_site_label
 _atom_site_symmetry_multiplicity
 _atom_site_fract_x
 _atom_site_fract_y
 _atom_site_fract_z
 _atom_site_occupancy
  Mg  Mg0  1  0.15252974  0.04045869  0.82983243  1
  Mg  Mg1  1  0.84747026  0.95954131  0.32983243  1
  Mg  Mg2  1  0.15252974  0.45954131  0.32983243  1
  Mg  Mg3  1  0.84747026  0.54045869  0.82983243  1
  Mg  Mg4  1  0.82343190  0.15911598  0.87532732  1
  Mg  Mg5  1  0.17656810  0.84088402  0.37532732  1
  Mg  Mg6  1  0.82343190  0.34088402  0.37532732  1
  Mg  Mg7  1  0.17656810  0.65911598  0.87532732  1
  Mg  Mg8  1  0.49060175  0.16528504  0.79514508  1
  Mg  Mg9  1  0.50939825  0.83471496  0.29514508  1
  Mg  Mg10  1  0.49060175  0.33471496  0.29514508  1
  Mg  Mg11  1  0.50939825  0.66528504  0.79514508  1
  Mg  Mg12  1  0.51297317  0.41869500  0.11307208  1
  Mg  Mg13  1  0.48702683  0.58130500  0.61307208  1
  Mg  Mg14  1  0.51297317  0.08130500  0.61307208  1
  Mg  Mg15  1  0.48702683  0.91869500  0.11307208  1
  Mg  Mg16  1  0.17885619  0.41078346  0.03633581  1
  Mg  Mg17  1  0.82114381  0.58921654  0.53633581  1
  Mg  Mg18  1  0.17885619  0.08921654  0.53633581  1
  Mg  Mg19  1  0.82114381  0.91078346  0.03633581  1
  Mg  Mg20  1  0.84539238  0.29187623  0.07715697  1
  Mg  Mg21  1  0.15460762  0.70812377  0.57715697  1
  Mg  Mg22  1  0.84539238  0.20812377  0.57715697  1
  Mg  Mg23  1  0.15460762  0.79187623  0.07715697  1
  H  H24  1  0.71774898  0.99968401  0.74358001  1
  H  H25  1  0.28225102  0.00031599  0.24358001  1
  H  H26  1  0.71774898  0.50031599  0.24358001  1
  H  H27  1  0.28225102  0.49968401  0.74358001  1
  H  H28  1  0.05510736  0.32157327  0.81471414  1
  H  H29  1  0.94489264  0.67842673  0.31471414  1
  H  H30  1  0.05510736  0.17842673  0.31471414  1
  H  H31  1  0.94489264  0.82157327  0.81471414  1
  H  H32  1  0.07361141  0.92627826  0.93163853  1
  H  H33  1  0.92638859  0.07372174  0.43163853  1
  H  H34  1  0.07361141  0.57372174  0.43163853  1
  H  H35  1  0.92638859  0.42627826  0.93163853  1
  H  H36  1  0.53832007  0.38007153  0.81558718  1
  H  H37  1  0.46167993  0.61992847  0.31558718  1
  H  H38  1  0.53832007  0.11992847  0.31558718  1
  H  H39  1  0.46167993  0.88007153  0.81558718  1
  H  H40  1  0.37941420  0.05343882  0.93880803  1
  H  H41  1  0.62058580  0.94656118  0.43880803  1
  H  H42  1  0.37941420  0.44656118  0.43880803  1
  H  H43  1  0.62058580  0.55343882  0.93880803  1
  H  H44  1  0.19951412  0.98123243  0.70799146  1
  H  H45  1  0.80048588  0.01876757  0.20799146  1
  H  H46  1  0.19951412  0.51876757  0.20799146  1
  H  H47  1  0.80048588  0.48123243  0.70799146  1
  H  H48  1  0.14812580  0.22702708  0.95402637  1
  H  H49  1  0.85187420  0.77297292  0.45402637  1
  H  H50  1  0.14812580  0.27297292  0.45402637  1
  H  H51  1  0.85187420  0.72702708  0.95402637  1
  H  H52  1  0.28126740  0.24657543  0.16457054  1
  H  H53  1  0.71873260  0.75342457  0.66457054  1
  H  H54  1  0.28126740  0.25342457  0.66457054  1
  H  H55  1  0.71873260  0.74657543  0.16457054  1
  H  H56  1  0.61319370  0.29581712  0.97133493  1
  H  H57  1  0.38680630  0.70418288  0.47133493  1
  H  H58  1  0.61319370  0.20418288  0.47133493  1
  H  H59  1  0.38680630  0.79581712  0.97133493  1
  H  H60  1  0.95342854  0.57143363  0.09493501  1
  H  H61  1  0.04657146  0.42856637  0.59493501  1
  H  H62  1  0.95342854  0.92856637  0.59493501  1
  H  H63  1  0.04657146  0.07143363  0.09493501  1
  H  H64  1  0.47417715  0.63556719  0.08079054  1
  H  H65  1  0.52582285  0.36443281  0.58079054  1
  H  H66  1  0.47417715  0.86443281  0.58079054  1
  H  H67  1  0.52582285  0.13556719  0.08079054  1
  H  H68  1  0.80080475  0.22772200  0.19739701  1
  H  H69  1  0.19919525  0.77227800  0.69739701  1
  H  H70  1  0.80080475  0.27227800  0.69739701  1
  H  H71  1  0.19919525  0.72772200  0.19739701  1
  C  C72  1  0.79588722  0.02722089  0.77665723  1
  C  C73  1  0.20411278  0.97277911  0.27665723  1
  C  C74  1  0.79588722  0.47277911  0.27665723  1
  C  C75  1  0.20411278  0.52722089  0.77665723  1
  C  C76  1  0.13064471  0.25554525  0.81331752  1
  C  C77  1  0.86935529  0.74445475  0.31331752  1
  C  C78  1  0.13064471  0.24445475  0.31331752  1
  C  C79  1  0.86935529  0.75554525  0.81331752  1
  C  C80  1  0.98347012  0.98682143  0.93496764  1
  C  C81  1  0.01652988  0.01317857  0.43496764  1
  C  C82  1  0.98347012  0.51317857  0.43496764  1
  C  C83  1  0.01652988  0.48682143  0.93496764  1
  C  C84  1  0.65788862  0.34920886  0.83273252  1
  C  C85  1  0.34211138  0.65079114  0.33273252  1
  C  C86  1  0.65788862  0.15079114  0.33273252  1
  C  C87  1  0.34211138  0.84920886  0.83273252  1
  C  C88  1  0.45649131  0.08744115  0.90719467  1
  C  C89  1  0.54350869  0.91255885  0.40719467  1
  C  C90  1  0.45649131  0.41255885  0.40719467  1
  C  C91  1  0.54350869  0.58744115  0.90719467  1
  C  C92  1  0.31795856  0.02260236  0.71777163  1
  C  C93  1  0.68204144  0.97739764  0.21777163  1
  C  C94  1  0.31795856  0.47739764  0.21777163  1
  C  C95  1  0.68204144  0.52260236  0.71777163  1
  C  C96  1  0.01865933  0.25202992  0.96774182  1
  C  C97  1  0.98134067  0.74797008  0.46774182  1
  C  C98  1  0.01865933  0.24797008  0.46774182  1
  C  C99  1  0.98134067  0.75202992  0.96774182  1
  C  C100  1  0.20487124  0.27732816  0.13193104  1
  C  C101  1  0.79512876  0.72267184  0.63193104  1
  C  C102  1  0.20487124  0.22267184  0.63193104  1
  C  C103  1  0.79512876  0.77732816  0.13193104  1
  C  C104  1  0.53625645  0.33270059  0.00173224  1
  C  C105  1  0.46374355  0.66729941  0.50173224  1
  C  C106  1  0.53625645  0.16729941  0.50173224  1
  C  C107  1  0.46374355  0.83270059  0.00173224  1
  C  C108  1  0.87379162  0.50681185  0.09570243  1
  C  C109  1  0.12620838  0.49318815  0.59570243  1
  C  C110  1  0.87379162  0.99318815  0.59570243  1
  C  C111  1  0.12620838  0.00681185  0.09570243  1
  C  C112  1  0.34682034  0.60191760  0.07227999  1
  C  C113  1  0.65317966  0.39808240  0.57227999  1
  C  C114  1  0.34682034  0.89808240  0.57227999  1
  C  C115  1  0.65317966  0.10191760  0.07227999  1
  C  C116  1  0.68641244  0.27340054  0.18971632  1
  C  C117  1  0.31358756  0.72659946  0.68971632  1
  C  C118  1  0.68641244  0.22659946  0.68971632  1
  C  C119  1  0.31358756  0.77340054  0.18971632  1
  O  O120  1  0.95110543  0.99983912  0.78127855  1
  O  O121  1  0.04889457  0.00016088  0.28127855  1
  O  O122  1  0.95110543  0.50016088  0.28127855  1
  O  O123  1  0.04889457  0.49983912  0.78127855  1
  O  O124  1  0.71889334  0.08565133  0.80736818  1
  O  O125  1  0.28110666  0.91434867  0.30736818  1
  O  O126  1  0.71889334  0.41434867  0.30736818  1
  O  O127  1  0.28110666  0.58565133  0.80736818  1
  O  O128  1  0.05156115  0.18127329  0.82939647  1
  O  O129  1  0.94843885  0.81872671  0.32939647  1
  O  O130  1  0.05156115  0.31872671  0.32939647  1
  O  O131  1  0.94843885  0.68127329  0.82939647  1
  O  O132  1  0.28469978  0.25832166  0.79639069  1
  O  O133  1  0.71530022  0.74167834  0.29639069  1
  O  O134  1  0.28469978  0.24167834  0.29639069  1
  O  O135  1  0.71530022  0.75832166  0.79639069  1
  O  O136  1  0.98637828  0.04416862  0.89590155  1
  O  O137  1  0.01362172  0.95583138  0.39590155  1
  O  O138  1  0.98637828  0.45583138  0.39590155  1
  O  O139  1  0.01362172  0.54416862  0.89590155  1
  O  O140  1  0.88931266  0.99522837  0.97467199  1
  O  O141  1  0.11068734  0.00477163  0.47467199  1
  O  O142  1  0.88931266  0.50477163  0.47467199  1
  O  O143  1  0.11068734  0.49522837  0.97467199  1
  O  O144  1  0.65633780  0.25988505  0.83913055  1
  O  O145  1  0.34366220  0.74011495  0.33913055  1
  O  O146  1  0.65633780  0.24011495  0.33913055  1
  O  O147  1  0.34366220  0.75988505  0.83913055  1
  O  O148  1  0.78388300  0.40195004  0.84437539  1
  O  O149  1  0.21611700  0.59804996  0.34437539  1
  O  O150  1  0.78388300  0.09804996  0.34437539  1
  O  O151  1  0.21611700  0.90195004  0.84437539  1
  O  O152  1  0.37910660  0.09742225  0.86287291  1
  O  O153  1  0.62089340  0.90257775  0.36287291  1
  O  O154  1  0.37910660  0.40257775  0.36287291  1
  O  O155  1  0.62089340  0.59742225  0.86287291  1
  O  O156  1  0.60878810  0.11279141  0.91737010  1
  O  O157  1  0.39121190  0.88720859  0.41737010  1
  O  O158  1  0.60878810  0.38720859  0.41737010  1
  O  O159  1  0.39121190  0.61279141  0.91737010  1
  O  O160  1  0.32233684  0.05818565  0.76404258  1
  O  O161  1  0.67766316  0.94181435  0.26404258  1
  O  O162  1  0.32233684  0.44181435  0.26404258  1
  O  O163  1  0.67766316  0.55818565  0.76404258  1
  O  O164  1  0.43638333  0.03069921  0.68433558  1
  O  O165  1  0.56361667  0.96930079  0.18433558  1
  O  O166  1  0.43638333  0.46930079  0.18433558  1
  O  O167  1  0.56361667  0.53069921  0.68433558  1
  O  O168  1  0.88716656  0.23752060  0.93982092  1
  O  O169  1  0.11283344  0.76247940  0.43982092  1
  O  O170  1  0.88716656  0.26247940  0.43982092  1
  O  O171  1  0.11283344  0.73752060  0.93982092  1
  O  O172  1  0.01663395  0.29587813  0.01171024  1
  O  O173  1  0.98336605  0.70412187  0.51171024  1
  O  O174  1  0.01663395  0.20412187  0.51171024  1
  O  O175  1  0.98336605  0.79587813  0.01171024  1
  O  O176  1  0.28399223  0.33821685  0.10332803  1
  O  O177  1  0.71600777  0.66178315  0.60332803  1
  O  O178  1  0.28399223  0.16178315  0.60332803  1
  O  O179  1  0.71600777  0.83821685  0.10332803  1
  O  O180  1  0.05002988  0.25075040  0.12574769  1
  O  O181  1  0.94997012  0.74924960  0.62574769  1
  O  O182  1  0.05002988  0.24924960  0.62574769  1
  O  O183  1  0.94997012  0.75075040  0.12574769  1
  O  O184  1  0.61618587  0.34923726  0.04521420  1
  O  O185  1  0.38381413  0.65076274  0.54521420  1
  O  O186  1  0.61618587  0.15076274  0.54521420  1
  O  O187  1  0.38381413  0.84923726  0.04521420  1
  O  O188  1  0.38126079  0.35513741  0.99201984  1
  O  O189  1  0.61873921  0.64486259  0.49201984  1
  O  O190  1  0.38126079  0.14486259  0.49201984  1
  O  O191  1  0.61873921  0.85513741  0.99201984  1
  O  O192  1  0.94993022  0.43110073  0.08036905  1
  O  O193  1  0.05006978  0.56889927  0.58036905  1
  O  O194  1  0.94993022  0.06889927  0.58036905  1
  O  O195  1  0.05006978  0.93110073  0.08036905  1
  O  O196  1  0.71822298  0.51193649  0.11111350  1
  O  O197  1  0.28177702  0.48806351  0.61111350  1
  O  O198  1  0.71822298  0.98806351  0.61111350  1
  O  O199  1  0.28177702  0.01193649  0.11111350  1
  O  O200  1  0.34771618  0.51189272  0.06986218  1
  O  O201  1  0.65228382  0.48810728  0.56986218  1
  O  O202  1  0.34771618  0.98810728  0.56986218  1
  O  O203  1  0.65228382  0.01189272  0.06986218  1
  O  O204  1  0.21419590  0.65242191  0.06628458  1
  O  O205  1  0.78580410  0.34757809  0.56628458  1
  O  O206  1  0.21419590  0.84757809  0.56628458  1
  O  O207  1  0.78580410  0.15242191  0.06628458  1
  O  O208  1  0.68043471  0.31142713  0.14410264  1
  O  O209  1  0.31956529  0.68857287  0.64410264  1
  O  O210  1  0.68043471  0.18857287  0.64410264  1
  O  O211  1  0.31956529  0.81142713  0.14410264  1
  O  O212  1  0.57360461  0.28352140  0.22484413  1
  O  O213  1  0.42639539  0.71647860  0.72484413  1
  O  O214  1  0.57360461  0.21647860  0.72484413  1
  O  O215  1  0.42639539  0.78352140  0.22484413  1
