# generated using pymatgen
data_Bi17As5Pb5O43
_symmetry_space_group_name_H-M   'P 1'
_cell_length_a   11.93835095
_cell_length_b   11.96118911
_cell_length_c   11.87380116
_cell_angle_alpha   118.14856631
_cell_angle_beta   118.08212401
_cell_angle_gamma   93.64048297
_symmetry_Int_Tables_number   1
_chemical_formula_structural   Bi17As5Pb5O43
_chemical_formula_sum   'Bi17 As5 Pb5 O43'
_cell_volume   1226.91722199
_cell_formula_units_Z   1
loop_
 _symmetry_equiv_pos_site_id
 _symmetry_equiv_pos_as_xyz
  1  'x, y, z'
loop_
 _atom_site_type_symbol
 _atom_site_label
 _atom_site_symmetry_multiplicity
 _atom_site_fract_x
 _atom_site_fract_y
 _atom_site_fract_z
 _atom_site_occupancy
  Bi  Bi0  1  0.65138135  0.00211511  0.00000000  1
  Bi  Bi1  1  0.68268459  0.98386695  0.33793895  1
  Bi  Bi2  1  0.34474563  0.64592800  0.66206105  1
  Bi  Bi3  1  0.35242425  0.35761675  0.71445652  1
  Bi  Bi4  1  0.63796773  0.64316022  0.28554348  1
  Bi  Bi5  1  0.96589417  0.36962788  1.00000000  1
  Bi  Bi6  1  0.95800494  0.97089571  0.63933481  1
  Bi  Bi7  1  0.31867013  0.33156090  0.36066519  1
  Bi  Bi8  1  0.33128383  0.34182493  0.00000000  1
  Bi  Bi9  1  0.97265073  0.99360901  0.31644974  1
  Bi  Bi10  1  0.65620099  0.67715927  0.68355026  1
  Bi  Bi11  1  0.64799643  0.00490799  0.65933460  1
  Bi  Bi12  1  0.98866182  0.34557338  0.34066540  1
  Bi  Bi13  1  0.33772050  0.99210800  0.34785295  1
  Bi  Bi14  1  0.98986755  0.64425504  0.65214705  1
  Bi  Bi15  1  0.31968581  0.96789306  0.00000000  1
  Bi  Bi16  1  0.97372805  0.67011412  1.00000000  1
  As  As17  1  0.32397831  0.02989107  0.68812118  1
  As  As18  1  0.63585713  0.34176989  0.31187882  1
  As  As19  1  0.98961643  0.01864380  1.00000000  1
  As  As20  1  0.31120682  0.65486145  0.30529364  1
  As  As21  1  0.00591318  0.34956781  0.69470636  1
  Pb  Pb22  1  0.33886994  0.66586063  0.00000000  1
  Pb  Pb23  1  0.66602442  0.66064210  0.00000000  1
  Pb  Pb24  1  0.98646265  0.66288010  0.33045866  1
  Pb  Pb25  1  0.65600399  0.33242144  0.66954134  1
  Pb  Pb26  1  0.65785119  0.34249649  0.00000000  1
  O  O27  1  0.17182222  0.35547535  0.79946827  1
  O  O28  1  0.37235395  0.55600709  0.20053173  1
  O  O29  1  0.86603078  0.93598849  0.00000000  1
  O  O30  1  0.87079116  0.51432651  0.00000000  1
  O  O31  1  0.93518688  0.78854144  0.17626743  1
  O  O32  1  0.75891945  0.61227401  0.82373257  1
  O  O33  1  0.73833270  0.93324816  0.52241413  1
  O  O34  1  0.21591857  0.41083403  0.47758587  1
  O  O35  1  0.76291979  0.97323653  0.18701659  1
  O  O36  1  0.57590320  0.78621994  0.81298341  1
  O  O37  1  0.75557389  0.22927683  0.82261091  1
  O  O38  1  0.93296299  0.40666592  0.17738909  1
  O  O39  1  0.48153923  0.01275942  0.75207559  1
  O  O40  1  0.72946363  0.26068383  0.24792441  1
  O  O41  1  0.90957921  0.02235197  0.83596455  1
  O  O42  1  0.07361466  0.18638742  0.16403545  1
  O  O43  1  0.09995656  0.93303892  1.00000000  1
  O  O44  1  0.36552853  0.21798705  0.46037149  1
  O  O45  1  0.90515704  0.75761556  0.53962851  1
  O  O46  1  0.45089782  0.47781996  0.00000000  1
  O  O47  1  0.88407418  0.92795765  0.40627767  1
  O  O48  1  0.47779652  0.52167998  0.59372233  1
  O  O49  1  0.58011379  0.76184895  0.18337873  1
  O  O50  1  0.39673506  0.57847022  0.81662127  1
  O  O51  1  0.24151607  0.99874064  0.50641429  1
  O  O52  1  0.73510179  0.49232636  0.49358571  1
  O  O53  1  0.36990393  0.20857982  0.81483507  1
  O  O54  1  0.55506886  0.39374475  0.18516493  1
  O  O55  1  0.41606118  0.82047274  0.40353557  1
  O  O56  1  0.01252561  0.41693718  0.59646443  1
  O  O57  1  0.55089343  0.07865379  0.51856618  1
  O  O58  1  0.03232725  0.56008761  0.48143382  1
  O  O59  1  0.89442673  0.18723653  0.58552530  1
  O  O60  1  0.30890143  0.60171123  0.41447470  1
  O  O61  1  0.39133154  0.92746741  0.17684131  1
  O  O62  1  0.21449022  0.75062610  0.82315869  1
  O  O63  1  0.56494590  0.39773707  0.81502382  1
  O  O64  1  0.74992208  0.58271324  0.18497618  1
  O  O65  1  0.22039116  0.94864210  0.70964308  1
  O  O66  1  0.51074808  0.23899902  0.29035692  1
  O  O67  1  0.48999699  0.92320574  1.00000000  1
  O  O68  1  0.14545452  0.62757900  0.17698569  1
  O  O69  1  0.96846883  0.45059331  0.82301431  1
