# generated using pymatgen
data_ZrTiS6
_symmetry_space_group_name_H-M   'P 1'
_cell_length_a   3.54511151
_cell_length_b   5.12676184
_cell_length_c   9.16939071
_cell_angle_alpha   83.63159599
_cell_angle_beta   90.00000000
_cell_angle_gamma   90.00000000
_symmetry_Int_Tables_number   1
_chemical_formula_structural   ZrTiS6
_chemical_formula_sum   'Zr1 Ti1 S6'
_cell_volume   165.62477106
_cell_formula_units_Z   1
loop_
 _symmetry_equiv_pos_site_id
 _symmetry_equiv_pos_as_xyz
  1  'x, y, z'
loop_
 _atom_site_type_symbol
 _atom_site_label
 _atom_site_symmetry_multiplicity
 _atom_site_fract_x
 _atom_site_fract_y
 _atom_site_fract_z
 _atom_site_occupancy
  Zr  Zr0  1  0.25000000  0.72277578  0.64760726  1
  Ti  Ti1  1  0.75000000  0.27893315  0.34792323  1
  S  S2  1  0.75000000  0.48120781  0.82290176  1
  S  S3  1  0.25000000  0.50984196  0.18734902  1
  S  S4  1  0.75000000  0.88406736  0.82717544  1
  S  S5  1  0.25000000  0.11511247  0.18440154  1
  S  S6  1  0.75000000  0.76484357  0.44014178  1
  S  S7  1  0.25000000  0.24321790  0.54249997  1
