# generated using pymatgen
data_ZrTi2(PbO3)3
_symmetry_space_group_name_H-M   'P 1'
_cell_length_a   4.00882357
_cell_length_b   11.86075541
_cell_length_c   4.49290999
_cell_angle_alpha   90.00000000
_cell_angle_beta   90.00000000
_cell_angle_gamma   90.00000000
_symmetry_Int_Tables_number   1
_chemical_formula_structural   ZrTi2(PbO3)3
_chemical_formula_sum   'Zr1 Ti2 Pb3 O9'
_cell_volume   213.62742781
_cell_formula_units_Z   1
loop_
 _symmetry_equiv_pos_site_id
 _symmetry_equiv_pos_as_xyz
  1  'x, y, z'
loop_
 _atom_site_type_symbol
 _atom_site_label
 _atom_site_symmetry_multiplicity
 _atom_site_fract_x
 _atom_site_fract_y
 _atom_site_fract_z
 _atom_site_occupancy
  Zr  Zr0  1  0.50000000  0.16666700  0.53738203  1
  Ti  Ti1  1  0.50000000  0.50313443  0.53007856  1
  Ti  Ti2  1  0.50000000  0.83019857  0.53007856  1
  Pb  Pb3  1  0.00000000  0.99261933  0.97942838  1
  Pb  Pb4  1  0.00000000  0.34071367  0.97942838  1
  Pb  Pb5  1  -0.00000000  0.66666700  0.96722347  1
  O  O6  1  -0.00000000  0.16666700  0.64081247  1
  O  O7  1  -0.00000000  0.50257789  0.62675351  1
  O  O8  1  -0.00000000  0.83075511  0.62675351  1
  O  O9  1  0.50000000  0.99023771  0.63346595  1
  O  O10  1  0.50000000  0.34309529  0.63346595  1
  O  O11  1  0.50000000  0.66666700  0.63258808  1
  O  O12  1  0.50000000  0.16666700  0.09819846  1
  O  O13  1  0.50000000  0.50106369  0.14007134  1
  O  O14  1  0.50000000  0.83226931  0.14007134  1
