# generated using pymatgen
data_Zn3CdSe4
_symmetry_space_group_name_H-M   'P 1'
_cell_length_a   4.13955135
_cell_length_b   7.17994836
_cell_length_c   7.17994836
_cell_angle_alpha   70.49375717
_cell_angle_beta   90.00000000
_cell_angle_gamma   90.00000000
_symmetry_Int_Tables_number   1
_chemical_formula_structural   Zn3CdSe4
_chemical_formula_sum   'Zn3 Cd1 Se4'
_cell_volume   201.15262642
_cell_formula_units_Z   1
loop_
 _symmetry_equiv_pos_site_id
 _symmetry_equiv_pos_as_xyz
  1  'x, y, z'
loop_
 _atom_site_type_symbol
 _atom_site_label
 _atom_site_symmetry_multiplicity
 _atom_site_fract_x
 _atom_site_fract_y
 _atom_site_fract_z
 _atom_site_occupancy
  Zn  Zn0  1  0.00000000  0.99981557  0.99981557  1
  Zn  Zn1  1  0.50000000  0.99909247  0.50065190  1
  Zn  Zn2  1  0.50000000  0.50065190  0.99909247  1
  Cd  Cd3  1  0.00000000  0.50113946  0.50113946  1
  Se  Se4  1  0.50000000  0.36324133  0.36324133  1
  Se  Se5  1  -0.00000000  0.36982066  0.89146714  1
  Se  Se6  1  -0.00000000  0.89146714  0.36982066  1
  Se  Se7  1  0.50000000  0.87477148  0.87477148  1
