# generated using pymatgen
data_Zr10CrSb5
_symmetry_space_group_name_H-M   'P 1'
_cell_length_a   5.58344674
_cell_length_b   8.41891487
_cell_length_c   8.41891487
_cell_angle_alpha   96.31297942
_cell_angle_beta   109.36600132
_cell_angle_gamma   70.63399868
_symmetry_Int_Tables_number   1
_chemical_formula_structural   Zr10CrSb5
_chemical_formula_sum   'Zr10 Cr1 Sb5'
_cell_volume   352.22842118
_cell_formula_units_Z   1
loop_
 _symmetry_equiv_pos_site_id
 _symmetry_equiv_pos_as_xyz
  1  'x, y, z'
loop_
 _atom_site_type_symbol
 _atom_site_label
 _atom_site_symmetry_multiplicity
 _atom_site_fract_x
 _atom_site_fract_y
 _atom_site_fract_z
 _atom_site_occupancy
  Zr  Zr0  1  0.41130800  0.86354844  0.70981594  1
  Zr  Zr1  1  0.56504050  0.13645156  0.29018406  1
  Zr  Zr2  1  0.93495950  0.29018406  0.13645156  1
  Zr  Zr3  1  0.08869200  0.70981594  0.86354844  1
  Zr  Zr4  1  0.70149206  0.70981594  0.13645156  1
  Zr  Zr5  1  0.27485644  0.29018406  0.86354844  1
  Zr  Zr6  1  0.79850794  0.13645156  0.70981594  1
  Zr  Zr7  1  0.22514356  0.86354844  0.29018406  1
  Zr  Zr8  1  0.25000000  0.50000000  0.50000000  1
  Zr  Zr9  1  0.75000000  0.50000000  0.50000000  1
  Cr  Cr10  1  0.25000000  0.00000000  0.00000000  1
  Sb  Sb11  1  0.33679396  0.50000000  0.17358792  1
  Sb  Sb12  1  0.66320604  0.50000000  0.82641208  1
  Sb  Sb13  1  0.83679396  0.82641208  0.50000000  1
  Sb  Sb14  1  0.16320604  0.17358792  0.50000000  1
  Sb  Sb15  1  0.75000000  -0.00000000  0.00000000  1
