# generated using pymatgen
data_ZnCu2SnSe3S
_symmetry_space_group_name_H-M   'P 1'
_cell_length_a   5.66522314
_cell_length_b   5.66522314
_cell_length_c   6.97516956
_cell_angle_alpha   66.03860086
_cell_angle_beta   66.03860086
_cell_angle_gamma   90.03177367
_symmetry_Int_Tables_number   1
_chemical_formula_structural   ZnCu2SnSe3S
_chemical_formula_sum   'Zn1 Cu2 Sn1 Se3 S1'
_cell_volume   183.23540289
_cell_formula_units_Z   1
loop_
 _symmetry_equiv_pos_site_id
 _symmetry_equiv_pos_as_xyz
  1  'x, y, z'
loop_
 _atom_site_type_symbol
 _atom_site_label
 _atom_site_symmetry_multiplicity
 _atom_site_fract_x
 _atom_site_fract_y
 _atom_site_fract_z
 _atom_site_occupancy
  Zn  Zn0  1  0.01093861  0.01093861  0.99297340  1
  Cu  Cu1  1  0.25467858  0.73788396  0.50707060  1
  Cu  Cu2  1  0.73788396  0.25467858  0.50707060  1
  Sn  Sn3  1  0.49572538  0.49572538  0.99396162  1
  Se  Se4  1  0.89423614  0.89423614  0.72810804  1
  Se  Se5  1  0.62526518  0.10594273  0.26891629  1
  Se  Se6  1  0.10594273  0.62526518  0.26891629  1
  S  S7  1  0.37532941  0.37532941  0.73298316  1
