# generated using pymatgen
data_Zn3(GaTe3)2
_symmetry_space_group_name_H-M   'P 1'
_cell_length_a   6.06379640
_cell_length_b   8.66452452
_cell_length_c   7.52308896
_cell_angle_alpha   72.35458553
_cell_angle_beta   113.76663805
_cell_angle_gamma   90.00000006
_symmetry_Int_Tables_number   1
_chemical_formula_structural   Zn3(GaTe3)2
_chemical_formula_sum   'Zn3 Ga2 Te6'
_cell_volume   341.32370092
_cell_formula_units_Z   1
loop_
 _symmetry_equiv_pos_site_id
 _symmetry_equiv_pos_as_xyz
  1  'x, y, z'
loop_
 _atom_site_type_symbol
 _atom_site_label
 _atom_site_symmetry_multiplicity
 _atom_site_fract_x
 _atom_site_fract_y
 _atom_site_fract_z
 _atom_site_occupancy
  Zn  Zn0  1  0.00297057  0.99214219  0.01066789  1
  Zn  Zn1  1  0.69698652  0.16666700  0.33333300  1
  Zn  Zn2  1  0.32563569  0.34119081  0.65599911  1
  Ga  Ga3  1  0.98840765  0.50382985  0.00132342  1
  Ga  Ga4  1  0.32041723  0.82950315  0.66534358  1
  Te  Te5  1  0.27493818  0.74148073  0.02022744  1
  Te  Te6  1  0.90142259  0.89680568  0.33563153  1
  Te  Te7  1  0.58435526  0.08299519  0.66665773  1
  Te  Te8  1  0.25103153  0.25033781  0.00000927  1
  Te  Te9  1  0.89912405  0.43652832  0.33103447  1
  Te  Te10  1  0.58804374  0.59185227  0.64643956  1
