# generated using pymatgen
data_Zr2Ga3Ni
_symmetry_space_group_name_H-M   'P 1'
_cell_length_a   4.16775874
_cell_length_b   5.39530648
_cell_length_c   5.35213024
_cell_angle_alpha   92.88472060
_cell_angle_beta   112.91437454
_cell_angle_gamma   67.27930644
_symmetry_Int_Tables_number   1
_chemical_formula_structural   Zr2Ga3Ni
_chemical_formula_sum   'Zr2 Ga3 Ni1'
_cell_volume   101.53884682
_cell_formula_units_Z   1
loop_
 _symmetry_equiv_pos_site_id
 _symmetry_equiv_pos_as_xyz
  1  'x, y, z'
loop_
 _atom_site_type_symbol
 _atom_site_label
 _atom_site_symmetry_multiplicity
 _atom_site_fract_x
 _atom_site_fract_y
 _atom_site_fract_z
 _atom_site_occupancy
  Zr  Zr0  1  0.74265884  0.71861280  0.20393048  1
  Zr  Zr1  1  0.24531315  0.29886347  0.78948976  1
  Ga  Ga2  1  0.47124267  0.67457290  0.61705824  1
  Ga  Ga3  1  0.04033040  0.13703481  0.21769560  1
  Ga  Ga4  1  0.94415355  0.89509912  0.78340623  1
  Ni  Ni5  1  0.55630140  0.27581690  0.38841970  1
