# generated using pymatgen
data_ZnInGaO4
_symmetry_space_group_name_H-M   'P 1'
_cell_length_a   3.36065424
_cell_length_b   3.36065379
_cell_length_c   8.92681938
_cell_angle_alpha   79.15028225
_cell_angle_beta   100.84971701
_cell_angle_gamma   120.00000696
_symmetry_Int_Tables_number   1
_chemical_formula_structural   ZnInGaO4
_chemical_formula_sum   'Zn1 In1 Ga1 O4'
_cell_volume   85.22482942
_cell_formula_units_Z   1
loop_
 _symmetry_equiv_pos_site_id
 _symmetry_equiv_pos_as_xyz
  1  'x, y, z'
loop_
 _atom_site_type_symbol
 _atom_site_label
 _atom_site_symmetry_multiplicity
 _atom_site_fract_x
 _atom_site_fract_y
 _atom_site_fract_z
 _atom_site_occupancy
  Zn  Zn0  1  0.78161839  0.21838161  0.34485517  1
  In  In1  1  0.99723231  0.00276769  0.99169692  1
  Ga  Ga2  1  0.21296627  0.78703373  0.63889882  1
  O  O3  1  0.70485706  0.29514294  0.11457117  1
  O  O4  1  0.28864179  0.71135821  0.86592538  1
  O  O5  1  0.87828332  0.12171668  0.63484995  1
  O  O6  1  0.13640086  0.86359914  0.40920259  1
