# generated using pymatgen
data_Zn3Cr8FeSe16
_symmetry_space_group_name_H-M   'P 1'
_cell_length_a   7.47819536
_cell_length_b   7.47819536
_cell_length_c   12.95506772
_cell_angle_alpha   73.22461986
_cell_angle_beta   90.00000000
_cell_angle_gamma   120.00000000
_symmetry_Int_Tables_number   1
_chemical_formula_structural   Zn3Cr8FeSe16
_chemical_formula_sum   'Zn3 Cr8 Fe1 Se16'
_cell_volume   591.55885596
_cell_formula_units_Z   1
loop_
 _symmetry_equiv_pos_site_id
 _symmetry_equiv_pos_as_xyz
  1  'x, y, z'
loop_
 _atom_site_type_symbol
 _atom_site_label
 _atom_site_symmetry_multiplicity
 _atom_site_fract_x
 _atom_site_fract_y
 _atom_site_fract_z
 _atom_site_occupancy
  Zn  Zn0  1  0.81246708  0.12493417  0.56259875  1
  Zn  Zn1  1  0.18749616  0.87499231  0.43751153  1
  Zn  Zn2  1  0.68749457  0.87498913  0.93751630  1
  Cr  Cr3  1  0.00012757  0.50025514  0.99961729  1
  Cr  Cr4  1  0.49993940  0.49987879  0.50018181  1
  Cr  Cr5  1  0.74982921  0.99965841  0.25043554  1
  Cr  Cr6  1  0.24996543  0.99993086  0.74966350  1
  Cr  Cr7  1  0.74982921  0.49973526  0.25043554  1
  Cr  Cr8  1  0.24996543  0.50037107  0.74966350  1
  Cr  Cr9  1  0.24990605  0.49973526  0.25043554  1
  Cr  Cr10  1  0.75040564  0.50037107  0.74966350  1
  Fe  Fe11  1  0.31260952  0.12521905  0.06217143  1
  Se  Se12  1  0.88029028  0.26058057  0.35912915  1
  Se  Se13  1  0.37931559  0.25863119  0.86205322  1
  Se  Se14  1  0.11182477  0.72364955  0.12938619  1
  Se  Se15  1  0.60929988  0.71859977  0.63027669  1
  Se  Se16  1  0.11182477  0.25878904  0.12938619  1
  Se  Se17  1  0.60929988  0.26042343  0.63027669  1
  Se  Se18  1  0.64696427  0.25878904  0.12938619  1
  Se  Se19  1  0.15112355  0.26042343  0.63027669  1
  Se  Se20  1  0.61982370  0.73964740  0.14052890  1
  Se  Se21  1  0.11981896  0.73963791  0.64054313  1
  Se  Se22  1  0.39052571  0.28105142  0.36985163  1
  Se  Se23  1  0.89055448  0.28110896  0.86976929  1
  Se  Se24  1  0.39052571  0.73962266  0.36985163  1
  Se  Se25  1  0.89055448  0.73967623  0.86976929  1
  Se  Se26  1  0.84909695  0.73962266  0.36985163  1
  Se  Se27  1  0.34912175  0.73967623  0.86976929  1
