# generated using pymatgen
data_NpB8O17
_symmetry_space_group_name_H-M   'P 1'
_cell_length_a   6.49913298
_cell_length_b   9.15266221
_cell_length_c   11.09435969
_cell_angle_alpha   89.86711499
_cell_angle_beta   89.62571133
_cell_angle_gamma   69.20406669
_symmetry_Int_Tables_number   1
_chemical_formula_structural   NpB8O17
_chemical_formula_sum   'Np2 B16 O34'
_cell_volume   616.93324430
_cell_formula_units_Z   2
loop_
 _symmetry_equiv_pos_site_id
 _symmetry_equiv_pos_as_xyz
  1  'x, y, z'
loop_
 _atom_site_type_symbol
 _atom_site_label
 _atom_site_symmetry_multiplicity
 _atom_site_fract_x
 _atom_site_fract_y
 _atom_site_fract_z
 _atom_site_occupancy
  Np  Np0  1  0.52598665  0.46383232  0.24666231  1
  Np  Np1  1  0.98981897  0.53616768  0.74666231  1
  B  B2  1  0.10854799  0.39921455  0.31123001  1
  B  B3  1  0.50776254  0.60078545  0.81123001  1
  B  B4  1  0.33142902  0.46281978  0.94875396  1
  B  B5  1  0.79424880  0.53718022  0.44875396  1
  B  B6  1  0.73328879  0.40627841  0.98330986  1
  B  B7  1  0.13956720  0.59372159  0.48330986  1
  B  B8  1  0.06912385  0.38636741  0.08368099  1
  B  B9  1  0.45549126  0.61363259  0.58368099  1
  B  B10  1  0.03667422  0.11630064  0.99609309  1
  B  B11  1  0.15297486  0.88369936  0.49609309  1
  B  B12  1  0.10693328  0.14426546  0.41270765  1
  B  B13  1  0.25119875  0.85573454  0.91270765  1
  B  B14  1  0.99903365  0.87708334  0.07406572  1
  B  B15  1  0.87611698  0.12291666  0.57406572  1
  B  B16  1  0.70680187  0.88689132  0.21189677  1
  B  B17  1  0.59369320  0.11310868  0.71189677  1
  O  O18  1  0.58576545  0.54417739  0.47261229  1
  O  O19  1  0.12994285  0.45582261  0.97261229  1
  O  O20  1  0.50751384  0.42005292  0.02619434  1
  O  O21  1  0.92756676  0.57994708  0.52619434  1
  O  O22  1  0.64191183  0.26178229  0.27419934  1
  O  O23  1  0.90369412  0.73821771  0.77419934  1
  O  O24  1  0.14457846  0.21621644  0.05932687  1
  O  O25  1  0.36079490  0.78378356  0.55932687  1
  O  O26  1  0.17380300  0.42427746  0.18799288  1
  O  O27  1  0.59808046  0.57572254  0.68799288  1
  O  O28  1  0.86436691  0.48439281  0.33315282  1
  O  O29  1  0.34875971  0.51560719  0.83315282  1
  O  O30  1  0.23464226  0.47994163  0.38205234  1
  O  O31  1  0.71458389  0.52005837  0.88205234  1
  O  O32  1  0.82519631  0.44617340  0.09336047  1
  O  O33  1  0.27136971  0.55382660  0.59336047  1
  O  O34  1  0.19849410  0.98500647  0.40856311  1
  O  O35  1  0.18350057  0.01499353  0.90856311  1
  O  O36  1  0.42184054  0.66623519  0.21950026  1
  O  O37  1  0.08807573  0.33376481  0.71950026  1
  O  O38  1  0.17196398  0.23656246  0.33595952  1
  O  O39  1  0.40852644  0.76343754  0.83595952  1
  O  O40  1  0.86690719  0.25181254  0.93780417  1
  O  O41  1  0.11871972  0.74818746  0.43780417  1
  O  O42  1  0.15801043  0.78253124  0.99689492  1
  O  O43  1  0.94054167  0.21746876  0.49689492  1
  O  O44  1  0.89083159  0.80598396  0.14689495  1
  O  O45  1  0.69681555  0.19401604  0.64689495  1
  O  O46  1  0.94563486  0.03563116  0.08045166  1
  O  O47  1  0.98126603  0.96436884  0.58045166  1
  O  O48  1  0.67209470  0.87641582  0.33213866  1
  O  O49  1  0.54851052  0.12358418  0.83213866  1
  O  O50  1  0.50742278  0.98583844  0.17078102  1
  O  O51  1  0.49326122  0.01416156  0.67078102  1
