# generated using pymatgen
data_FeN2
_symmetry_space_group_name_H-M   'P 1'
_cell_length_a   4.65074495
_cell_length_b   4.62944780
_cell_length_c   4.65074592
_cell_angle_alpha   90.02015103
_cell_angle_beta   112.71122089
_cell_angle_gamma   89.97986343
_symmetry_Int_Tables_number   1
_chemical_formula_structural   FeN2
_chemical_formula_sum   'Fe4 N8'
_cell_volume   92.36831216
_cell_formula_units_Z   4
loop_
 _symmetry_equiv_pos_site_id
 _symmetry_equiv_pos_as_xyz
  1  'x, y, z'
loop_
 _atom_site_type_symbol
 _atom_site_label
 _atom_site_symmetry_multiplicity
 _atom_site_fract_x
 _atom_site_fract_y
 _atom_site_fract_z
 _atom_site_occupancy
  Fe  Fe0  1  0.24999989  0.50000326  0.74999931  1
  Fe  Fe1  1  0.74999939  0.00000387  0.75000156  1
  Fe  Fe2  1  0.75000011  0.49999674  0.25000069  1
  Fe  Fe3  1  0.25000061  0.99999613  0.24999844  1
  N  N4  1  0.18570682  0.90521916  0.81429110  1
  N  N5  1  0.81427901  0.40512461  0.68572254  1
  N  N6  1  0.81429318  0.09478084  0.18570890  1
  N  N7  1  0.18572099  0.59487539  0.31427746  1
  N  N8  1  0.31429360  0.09479168  0.68570488  1
  N  N9  1  0.68572050  0.59488596  0.81428134  1
  N  N10  1  0.68570640  0.90520832  0.31429512  1
  N  N11  1  0.31427950  0.40511404  0.18571866  1
