# generated using pymatgen
data_Y4Ti6Bi2O21
_symmetry_space_group_name_H-M   'P 1'
_cell_length_a   7.27977889
_cell_length_b   16.21891173
_cell_length_c   7.23303416
_cell_angle_alpha   77.36739237
_cell_angle_beta   90.00000000
_cell_angle_gamma   77.03107594
_symmetry_Int_Tables_number   1
_chemical_formula_structural   Y4Ti6Bi2O21
_chemical_formula_sum   'Y8 Ti12 Bi4 O42'
_cell_volume   810.99250432
_cell_formula_units_Z   2
loop_
 _symmetry_equiv_pos_site_id
 _symmetry_equiv_pos_as_xyz
  1  'x, y, z'
loop_
 _atom_site_type_symbol
 _atom_site_label
 _atom_site_symmetry_multiplicity
 _atom_site_fract_x
 _atom_site_fract_y
 _atom_site_fract_z
 _atom_site_occupancy
  Y  Y0  1  0.83316269  0.83367362  0.33308769  1
  Y  Y1  1  0.16683731  0.16632638  0.66691231  1
  Y  Y2  1  0.83498926  0.33288011  0.33342831  1
  Y  Y3  1  0.16501074  0.66711989  0.66657169  1
  Y  Y4  1  0.50000000  0.00000000  0.00000000  1
  Y  Y5  1  0.00000000  0.00000000  0.00000000  1
  Y  Y6  1  0.33212962  0.33288011  0.33342831  1
  Y  Y7  1  0.66787038  0.66711989  0.66657169  1
  Ti  Ti8  1  0.66680971  0.16638157  0.66641563  1
  Ti  Ti9  1  0.00000000  0.50000000  0.00000000  1
  Ti  Ti10  1  0.33319029  0.83361843  0.33358437  1
  Ti  Ti11  1  0.66659365  0.16681369  0.16669189  1
  Ti  Ti12  1  0.00000000  0.50000000  0.50000000  1
  Ti  Ti13  1  0.33340635  0.83318631  0.83330811  1
  Ti  Ti14  1  0.33298069  0.33260074  0.83196979  1
  Ti  Ti15  1  0.66701931  0.66739926  0.16803021  1
  Ti  Ti16  1  0.00000000  0.00000000  0.50000000  1
  Ti  Ti17  1  0.83441757  0.33260074  0.83196979  1
  Ti  Ti18  1  0.16558243  0.66739926  0.16803021  1
  Ti  Ti19  1  0.50000000  0.00000000  0.50000000  1
  Bi  Bi20  1  0.50000000  0.50000000  0.50000000  1
  Bi  Bi21  1  0.83321781  0.83356338  0.83324099  1
  Bi  Bi22  1  0.16678219  0.16643662  0.16675901  1
  Bi  Bi23  1  0.50000000  0.50000000  0.00000000  1
  O  O24  1  0.20979726  0.08040448  0.95130640  1
  O  O25  1  0.54481537  0.41037026  0.29495471  1
  O  O26  1  0.87616671  0.74766659  0.61714154  1
  O  O27  1  0.45518463  0.58962974  0.70504529  1
  O  O28  1  0.79020274  0.91959552  0.04869360  1
  O  O29  1  0.12383329  0.25233341  0.38285846  1
  O  O30  1  0.97363185  0.55273530  0.72362284  1
  O  O31  1  0.30699735  0.88600630  0.05734173  1
  O  O32  1  0.64062893  0.21874215  0.39099424  1
  O  O33  1  0.10941946  0.28116107  0.85637980  1
  O  O34  1  0.44161492  0.61676917  0.19193996  1
  O  O35  1  0.77590678  0.94818745  0.52312516  1
  O  O36  1  0.24277430  0.41561027  0.99587237  1
  O  O37  1  0.57891504  0.75035712  0.32917977  1
  O  O38  1  0.91209116  0.08344493  0.66235830  1
  O  O39  1  0.84129743  0.41575013  0.58835849  1
  O  O40  1  0.17404733  0.74925312  0.92110703  1
  O  O41  1  0.50743228  0.08235786  0.25468588  1
  O  O42  1  0.24295344  0.41575013  0.58835849  1
  O  O43  1  0.57669956  0.74925312  0.92110703  1
  O  O44  1  0.91020886  0.08235786  0.25468588  1
  O  O45  1  0.84161643  0.41561027  0.99587237  1
  O  O46  1  0.17072784  0.75035712  0.32917977  1
  O  O47  1  0.50446291  0.08344493  0.66235830  1
  O  O48  1  0.69300265  0.11399370  0.94265827  1
  O  O49  1  0.02636815  0.44726470  0.27637716  1
  O  O50  1  0.35937107  0.78125785  0.60900576  1
  O  O51  1  0.55838508  0.38323083  0.80806004  1
  O  O52  1  0.89058054  0.71883893  0.14362020  1
  O  O53  1  0.22409322  0.05181255  0.47687484  1
  O  O54  1  0.42108496  0.24964288  0.67082023  1
  O  O55  1  0.75722570  0.58438973  0.00412763  1
  O  O56  1  0.08790884  0.91655507  0.33764170  1
  O  O57  1  0.82595267  0.25074688  0.07889297  1
  O  O58  1  0.15870257  0.58424987  0.41164151  1
  O  O59  1  0.49256772  0.91764214  0.74531412  1
  O  O60  1  0.42330044  0.25074688  0.07889297  1
  O  O61  1  0.75704656  0.58424987  0.41164151  1
  O  O62  1  0.08979114  0.91764214  0.74531412  1
  O  O63  1  0.82927216  0.24964288  0.67082023  1
  O  O64  1  0.15838357  0.58438973  0.00412763  1
  O  O65  1  0.49553709  0.91655507  0.33764170  1
