# generated using pymatgen
data_ZnSi2Ni3
_symmetry_space_group_name_H-M   'P 1'
_cell_length_a   4.53911919
_cell_length_b   4.55723827
_cell_length_c   13.59940482
_cell_angle_alpha   91.29090641
_cell_angle_beta   90.56150074
_cell_angle_gamma   89.13625000
_symmetry_Int_Tables_number   1
_chemical_formula_structural   ZnSi2Ni3
_chemical_formula_sum   'Zn4 Si8 Ni12'
_cell_volume   281.19926699
_cell_formula_units_Z   4
loop_
 _symmetry_equiv_pos_site_id
 _symmetry_equiv_pos_as_xyz
  1  'x, y, z'
loop_
 _atom_site_type_symbol
 _atom_site_label
 _atom_site_symmetry_multiplicity
 _atom_site_fract_x
 _atom_site_fract_y
 _atom_site_fract_z
 _atom_site_occupancy
  Zn  Zn0  1  0.64963237  0.16914932  0.11870294  1
  Zn  Zn1  1  0.65157212  0.14796106  0.44978226  1
  Zn  Zn2  1  0.65220934  0.15106659  0.78246490  1
  Zn  Zn3  1  0.15312499  0.33323466  0.21552070  1
  Si  Si4  1  0.15518853  0.33412612  0.54970197  1
  Si  Si5  1  0.15406421  0.33825842  0.88193059  1
  Si  Si6  1  0.34318841  0.65341266  0.05631009  1
  Si  Si7  1  0.34576076  0.64893225  0.38494229  1
  Si  Si8  1  0.35029367  0.65560146  0.72014019  1
  Si  Si9  1  0.84645504  0.85427395  0.27958373  1
  Si  Si10  1  0.83698299  0.85213946  0.61566340  1
  Si  Si11  1  0.83209847  0.85188464  0.94818179  1
  Ni  Ni12  1  0.35916338  0.83935101  0.21910995  1
  Ni  Ni13  1  0.34503599  0.83895192  0.55143708  1
  Ni  Ni14  1  0.34407301  0.83975654  0.88323795  1
  Ni  Ni15  1  0.85864646  0.66362308  0.11356474  1
  Ni  Ni16  1  0.87178008  0.64220606  0.45420529  1
  Ni  Ni17  1  0.86867834  0.64471127  0.78544793  1
  Ni  Ni18  1  0.65406757  0.37484091  0.29068781  1
  Ni  Ni19  1  0.64615418  0.37239265  0.61862129  1
  Ni  Ni20  1  0.64312946  0.37256501  0.95149663  1
  Ni  Ni21  1  0.14470147  0.14255508  0.03655887  1
  Ni  Ni22  1  0.14702719  0.13249079  0.38368535  1
  Ni  Ni23  1  0.14697198  0.14651508  0.70902228  1
