# generated using pymatgen
data_Yb(InCu)6
_symmetry_space_group_name_H-M   'P 1'
_cell_length_a   5.36535534
_cell_length_b   7.11594352
_cell_length_c   7.11594352
_cell_angle_alpha   98.33358471
_cell_angle_beta   112.14769190
_cell_angle_gamma   67.85230810
_symmetry_Int_Tables_number   1
_chemical_formula_structural   Yb(InCu)6
_chemical_formula_sum   'Yb1 In6 Cu6'
_cell_volume   233.06920934
_cell_formula_units_Z   1
loop_
 _symmetry_equiv_pos_site_id
 _symmetry_equiv_pos_as_xyz
  1  'x, y, z'
loop_
 _atom_site_type_symbol
 _atom_site_label
 _atom_site_symmetry_multiplicity
 _atom_site_fract_x
 _atom_site_fract_y
 _atom_site_fract_z
 _atom_site_occupancy
  Yb  Yb0  1  -0.00000000  0.00000000  -0.00000000  1
  In  In1  1  0.65948807  0.34051193  0.65948807  1
  In  In2  1  0.34051193  0.65948807  0.34051193  1
  In  In3  1  -0.00000000  0.33755295  0.33755295  1
  In  In4  1  -0.00000000  0.66244705  0.66244705  1
  In  In5  1  0.67633853  0.82366147  0.17633853  1
  In  In6  1  0.32366147  0.17633853  0.82366147  1
  Cu  Cu7  1  0.50000000  0.00000000  0.50000000  1
  Cu  Cu8  1  -0.00000000  0.00000000  0.50000000  1
  Cu  Cu9  1  0.50000000  0.50000000  -0.00000000  1
  Cu  Cu10  1  -0.00000000  0.50000000  -0.00000000  1
  Cu  Cu11  1  0.50000000  0.23551706  0.23551706  1
  Cu  Cu12  1  0.50000000  0.76448294  0.76448294  1
