# generated using pymatgen
data_VFe3(PO4)4
_symmetry_space_group_name_H-M   'P 1'
_cell_length_a   4.88080640
_cell_length_b   5.87676585
_cell_length_c   9.98086811
_cell_angle_alpha   90.00000000
_cell_angle_beta   90.01191974
_cell_angle_gamma   90.00000000
_symmetry_Int_Tables_number   1
_chemical_formula_structural   VFe3(PO4)4
_chemical_formula_sum   'V1 Fe3 P4 O16'
_cell_volume   286.28479091
_cell_formula_units_Z   1
loop_
 _symmetry_equiv_pos_site_id
 _symmetry_equiv_pos_as_xyz
  1  'x, y, z'
loop_
 _atom_site_type_symbol
 _atom_site_label
 _atom_site_symmetry_multiplicity
 _atom_site_fract_x
 _atom_site_fract_y
 _atom_site_fract_z
 _atom_site_occupancy
  V  V0  1  0.46702611  0.75000000  0.22921967  1
  Fe  Fe1  1  0.04689216  0.75000000  0.72592585  1
  Fe  Fe2  1  0.54701326  0.25000000  0.77422672  1
  Fe  Fe3  1  0.95612112  0.25000000  0.27283656  1
  P  P4  1  0.90241073  0.75000000  0.40697206  1
  P  P5  1  0.59911192  0.75000000  0.90422583  1
  P  P6  1  0.09800997  0.25000000  0.59437005  1
  P  P7  1  0.39901146  0.25000000  0.09473623  1
  O  O8  1  0.20800292  0.75000000  0.37991831  1
  O  O9  1  0.29103551  0.75000000  0.87780626  1
  O  O10  1  0.79008399  0.25000000  0.62142991  1
  O  O11  1  0.70723845  0.25000000  0.12205540  1
  O  O12  1  0.75178104  0.95424376  0.33316817  1
  O  O13  1  0.74744164  0.54572539  0.83110493  1
  O  O14  1  0.24666436  0.45436519  0.66755237  1
  O  O15  1  0.24962291  0.04571223  0.16708417  1
  O  O16  1  0.24666436  0.04563481  0.66755237  1
  O  O17  1  0.24962291  0.45428777  0.16708417  1
  O  O18  1  0.75178104  0.54575624  0.33316817  1
  O  O19  1  0.74744164  0.95427461  0.83110493  1
  O  O20  1  0.65441117  0.75000000  0.05401515  1
  O  O21  1  0.84290207  0.75000000  0.55691972  1
  O  O22  1  0.34650977  0.25000000  0.94350295  1
  O  O23  1  0.15319946  0.25000000  0.44402008  1
