# generated using pymatgen
data_Zr(MnAl)6
_symmetry_space_group_name_H-M   'P 1'
_cell_length_a   5.05260666
_cell_length_b   6.49629232
_cell_length_c   6.49629232
_cell_angle_alpha   97.74901933
_cell_angle_beta   112.88506520
_cell_angle_gamma   67.11493480
_symmetry_Int_Tables_number   1
_chemical_formula_structural   Zr(MnAl)6
_chemical_formula_sum   'Zr1 Mn6 Al6'
_cell_volume   180.94861235
_cell_formula_units_Z   1
loop_
 _symmetry_equiv_pos_site_id
 _symmetry_equiv_pos_as_xyz
  1  'x, y, z'
loop_
 _atom_site_type_symbol
 _atom_site_label
 _atom_site_symmetry_multiplicity
 _atom_site_fract_x
 _atom_site_fract_y
 _atom_site_fract_z
 _atom_site_occupancy
  Zr  Zr0  1  0.00000000  -0.00000000  0.00000000  1
  Mn  Mn1  1  0.50000000  -0.00000000  0.50000000  1
  Mn  Mn2  1  0.00000000  -0.00000000  0.50000000  1
  Mn  Mn3  1  0.50000000  0.50000000  0.00000000  1
  Mn  Mn4  1  0.00000000  0.50000000  0.00000000  1
  Mn  Mn5  1  0.50000000  0.75998537  0.75998537  1
  Mn  Mn6  1  0.50000000  0.24001463  0.24001463  1
  Al  Al7  1  0.65616651  0.34383349  0.65616651  1
  Al  Al8  1  0.34383349  0.65616651  0.34383349  1
  Al  Al9  1  0.00000000  0.33820533  0.33820533  1
  Al  Al10  1  -0.00000000  0.66179467  0.66179467  1
  Al  Al11  1  0.68825376  0.81174624  0.18825376  1
  Al  Al12  1  0.31174624  0.18825376  0.81174624  1
