# generated using pymatgen
data_Zn4FeCu10(SnSe4)5
_symmetry_space_group_name_H-M   'P 1'
_cell_length_a   5.74921334
_cell_length_b   16.36140736
_cell_length_c   10.77752776
_cell_angle_alpha   79.10776599
_cell_angle_beta   105.46931816
_cell_angle_gamma   90.00000000
_symmetry_Int_Tables_number   1
_chemical_formula_structural   Zn4FeCu10(SnSe4)5
_chemical_formula_sum   'Zn4 Fe1 Cu10 Sn5 Se20'
_cell_volume   958.10041160
_cell_formula_units_Z   1
loop_
 _symmetry_equiv_pos_site_id
 _symmetry_equiv_pos_as_xyz
  1  'x, y, z'
loop_
 _atom_site_type_symbol
 _atom_site_label
 _atom_site_symmetry_multiplicity
 _atom_site_fract_x
 _atom_site_fract_y
 _atom_site_fract_z
 _atom_site_occupancy
  Zn  Zn0  1  0.99978860  0.00004217  0.99993408  1
  Zn  Zn1  1  0.39960374  0.39993551  0.80006868  1
  Zn  Zn2  1  0.79953506  0.80006449  0.59993132  1
  Zn  Zn3  1  0.19985453  0.19995783  0.40006592  1
  Fe  Fe4  1  0.59942006  0.60000000  0.20000000  1
  Cu  Cu5  1  0.80030813  0.55002409  0.59995198  1
  Cu  Cu6  1  0.59964961  0.35001394  0.19988617  1
  Cu  Cu7  1  0.40000723  0.14998335  0.79997366  1
  Cu  Cu8  1  0.20005956  0.95003133  0.39998156  1
  Cu  Cu9  1  0.00014700  0.74991203  0.00011522  1
  Cu  Cu10  1  0.20003179  0.45008797  0.39988478  1
  Cu  Cu11  1  0.00007800  0.24996867  0.00001844  1
  Cu  Cu12  1  0.80003356  0.05001665  0.60002634  1
  Cu  Cu13  1  0.59976345  0.84998606  0.20011383  1
  Cu  Cu14  1  0.40035615  0.64997591  0.80004802  1
  Sn  Sn15  1  0.79988182  0.29998320  0.60007245  1
  Sn  Sn16  1  0.60071311  0.10000000  0.20000000  1
  Sn  Sn17  1  0.39980937  0.90001680  0.79992755  1
  Sn  Sn18  1  0.19974209  0.70000775  0.39997456  1
  Sn  Sn19  1  0.99976753  0.49999225  0.00002544  1
  Se  Se20  1  0.55351500  0.92898741  0.58847295  1
  Se  Se21  1  0.95381479  0.32903904  0.38822143  1
  Se  Se22  1  0.35999807  0.72622248  0.18816275  1
  Se  Se23  1  0.75361931  0.12890975  0.98834834  1
  Se  Se24  1  0.15472400  0.52896918  0.78763471  1
  Se  Se25  1  0.13882562  0.03244023  0.79588719  1
  Se  Se26  1  0.53833436  0.43260109  0.59584214  1
  Se  Se27  1  0.93758383  0.83287787  0.39611308  1
  Se  Se28  1  0.33823954  0.23259514  0.19583481  1
  Se  Se29  1  0.73462371  0.63209366  0.00058942  1
  Se  Se30  1  0.54293843  0.16755977  0.60411281  1
  Se  Se31  1  0.93403429  0.56790634  0.39941058  1
  Se  Se32  1  0.34240472  0.96740486  0.20416519  1
  Se  Se33  1  0.74147075  0.36712213  0.00388692  1
  Se  Se34  1  0.14249222  0.76739891  0.80415786  1
  Se  Se35  1  0.16504206  0.27101259  0.81152705  1
  Se  Se36  1  0.56708929  0.67103082  0.61236529  1
  Se  Se37  1  0.96527097  0.07109025  0.41165166  1
  Se  Se38  1  0.37183531  0.47377752  0.21183725  1
  Se  Se39  1  0.76559336  0.87096096  0.01177857  1
