# generated using pymatgen
data_YAgTe2
_symmetry_space_group_name_H-M   'P 1'
_cell_length_a   4.52641683
_cell_length_b   4.52661857
_cell_length_c   7.31460237
_cell_angle_alpha   90.00218000
_cell_angle_beta   90.00000001
_cell_angle_gamma   60.00147317
_symmetry_Int_Tables_number   1
_chemical_formula_structural   YAgTe2
_chemical_formula_sum   'Y1 Ag1 Te2'
_cell_volume   129.79448699
_cell_formula_units_Z   1
loop_
 _symmetry_equiv_pos_site_id
 _symmetry_equiv_pos_as_xyz
  1  'x, y, z'
loop_
 _atom_site_type_symbol
 _atom_site_label
 _atom_site_symmetry_multiplicity
 _atom_site_fract_x
 _atom_site_fract_y
 _atom_site_fract_z
 _atom_site_occupancy
  Y  Y0  1  0.00000583  -0.00001166  0.98621801  1
  Ag  Ag1  1  0.66667418  0.66665163  0.38194923  1
  Te  Te2  1  0.66668652  0.66662696  0.76459196  1
  Te  Te3  1  0.33333347  0.33333307  0.23224080  1
