# generated using pymatgen
data_Zr24P8H
_symmetry_space_group_name_H-M   'P 1'
_cell_length_a   5.39855907
_cell_length_b   10.86672465
_cell_length_c   10.86776879
_cell_angle_alpha   90.07323772
_cell_angle_beta   90.00000000
_cell_angle_gamma   90.00000000
_symmetry_Int_Tables_number   1
_chemical_formula_structural   Zr24P8H
_chemical_formula_sum   'Zr24 P8 H1'
_cell_volume   637.55338492
_cell_formula_units_Z   1
loop_
 _symmetry_equiv_pos_site_id
 _symmetry_equiv_pos_as_xyz
  1  'x, y, z'
loop_
 _atom_site_type_symbol
 _atom_site_label
 _atom_site_symmetry_multiplicity
 _atom_site_fract_x
 _atom_site_fract_y
 _atom_site_fract_z
 _atom_site_occupancy
  Zr  Zr0  1  0.78842115  0.85736108  0.16530910  1
  Zr  Zr1  1  0.78842115  0.64263892  0.33469090  1
  Zr  Zr2  1  0.28914804  0.66543988  0.14303698  1
  Zr  Zr3  1  0.28914804  0.83456012  0.35696302  1
  Zr  Zr4  1  0.21994054  0.14010462  0.83672606  1
  Zr  Zr5  1  0.21994054  0.35989538  0.66327394  1
  Zr  Zr6  1  0.71301775  0.33675985  0.86058617  1
  Zr  Zr7  1  0.71301775  0.16324015  0.63941383  1
  Zr  Zr8  1  0.97505540  0.22263131  0.11323488  1
  Zr  Zr9  1  0.97505540  0.27736869  0.38676512  1
  Zr  Zr10  1  0.47464291  0.61204074  0.77699170  1
  Zr  Zr11  1  0.47464291  0.88795926  0.72300830  1
  Zr  Zr12  1  0.03068757  0.77642645  0.88735380  1
  Zr  Zr13  1  0.03068757  0.72357355  0.61264620  1
  Zr  Zr14  1  0.52932527  0.38741312  0.22284863  1
  Zr  Zr15  1  0.52932527  0.11258688  0.27715137  1
  Zr  Zr16  1  0.26694420  0.96484554  0.07060930  1
  Zr  Zr17  1  0.26694420  0.53515446  0.42939070  1
  Zr  Zr18  1  0.76594048  0.57039513  0.03531241  1
  Zr  Zr19  1  0.76594048  0.92960487  0.46468759  1
  Zr  Zr20  1  0.73888833  0.03316003  0.93069331  1
  Zr  Zr21  1  0.73888833  0.46683997  0.56930669  1
  Zr  Zr22  1  0.23455358  0.43077185  0.96681248  1
  Zr  Zr23  1  0.23455358  0.06922815  0.53318752  1
  P  P24  1  0.46660443  0.20892952  0.04387247  1
  P  P25  1  0.46660443  0.29107048  0.45612753  1
  P  P26  1  0.96574678  0.54353169  0.79064164  1
  P  P27  1  0.96574678  0.95646831  0.70935836  1
  P  P28  1  0.53843388  0.79060971  0.95653546  1
  P  P29  1  0.53843388  0.70939029  0.54346454  1
  P  P30  1  0.03755406  0.45675157  0.20941818  1
  P  P31  1  0.03755406  0.04324843  0.29058182  1
  H  H32  1  0.96579130  0.25000000  0.75000000  1
