# generated using pymatgen
data_Rb2B10(H5N)5
_symmetry_space_group_name_H-M   'P 1'
_cell_length_a   9.09290958
_cell_length_b   14.44549500
_cell_length_c   14.44411962
_cell_angle_alpha   90.00000000
_cell_angle_beta   90.00000000
_cell_angle_gamma   90.00000000
_symmetry_Int_Tables_number   1
_chemical_formula_structural   Rb2B10(H5N)5
_chemical_formula_sum   'Rb8 B40 H100 N20'
_cell_volume   1897.25793197
_cell_formula_units_Z   4
loop_
 _symmetry_equiv_pos_site_id
 _symmetry_equiv_pos_as_xyz
  1  'x, y, z'
loop_
 _atom_site_type_symbol
 _atom_site_label
 _atom_site_symmetry_multiplicity
 _atom_site_fract_x
 _atom_site_fract_y
 _atom_site_fract_z
 _atom_site_occupancy
  Rb  Rb0  1  0.01339121  0.42939107  0.15814481  1
  Rb  Rb1  1  0.48660879  0.92939107  0.34185519  1
  Rb  Rb2  1  0.51339121  0.57060893  0.84185519  1
  Rb  Rb3  1  0.98660879  0.07060893  0.65814481  1
  Rb  Rb4  1  0.98660879  0.57060893  0.84185519  1
  Rb  Rb5  1  0.51339121  0.07060893  0.65814481  1
  Rb  Rb6  1  0.48660879  0.42939107  0.15814481  1
  Rb  Rb7  1  0.01339121  0.92939107  0.34185519  1
  B  B8  1  0.75000000  0.31531986  0.34001356  1
  B  B9  1  0.75000000  0.81531986  0.15998644  1
  B  B10  1  0.25000000  0.68468014  0.65998644  1
  B  B11  1  0.25000000  0.18468014  0.84001356  1
  B  B12  1  0.75000000  0.08785877  0.46100486  1
  B  B13  1  0.75000000  0.58785877  0.03899514  1
  B  B14  1  0.25000000  0.91214123  0.53899514  1
  B  B15  1  0.25000000  0.41214123  0.96100486  1
  B  B16  1  0.85068844  0.21819196  0.31990274  1
  B  B17  1  0.64931156  0.71819196  0.18009726  1
  B  B18  1  0.35068844  0.78180804  0.68009726  1
  B  B19  1  0.14931156  0.28180804  0.81990274  1
  B  B20  1  0.14931156  0.78180804  0.68009726  1
  B  B21  1  0.35068844  0.28180804  0.81990274  1
  B  B22  1  0.64931156  0.21819196  0.31990274  1
  B  B23  1  0.85068844  0.71819196  0.18009726  1
  B  B24  1  0.85078345  0.27781589  0.43189429  1
  B  B25  1  0.64921655  0.77781589  0.06810571  1
  B  B26  1  0.35078345  0.72218411  0.56810571  1
  B  B27  1  0.14921655  0.22218411  0.93189429  1
  B  B28  1  0.14921655  0.72218411  0.56810571  1
  B  B29  1  0.35078345  0.22218411  0.93189429  1
  B  B30  1  0.64921655  0.27781589  0.43189429  1
  B  B31  1  0.85078345  0.77781589  0.06810571  1
  B  B32  1  0.75000000  0.19761472  0.50408153  1
  B  B33  1  0.75000000  0.69761472  0.99591847  1
  B  B34  1  0.25000000  0.80238528  0.49591847  1
  B  B35  1  0.25000000  0.30238528  0.00408153  1
  B  B36  1  0.89224450  0.15557175  0.42502791  1
  B  B37  1  0.60775550  0.65557175  0.07497209  1
  B  B38  1  0.39224450  0.84442825  0.57497209  1
  B  B39  1  0.10775550  0.34442825  0.92502791  1
  B  B40  1  0.10775550  0.84442825  0.57497209  1
  B  B41  1  0.39224450  0.34442825  0.92502791  1
  B  B42  1  0.60775550  0.15557175  0.42502791  1
  B  B43  1  0.89224450  0.65557175  0.07497209  1
  B  B44  1  0.75000000  0.11359330  0.34603637  1
  B  B45  1  0.75000000  0.61359330  0.15396363  1
  B  B46  1  0.25000000  0.88640670  0.65396363  1
  B  B47  1  0.25000000  0.38640670  0.84603637  1
  H  H48  1  0.75000000  0.38855688  0.30070292  1
  H  H49  1  0.75000000  0.88855688  0.19929708  1
  H  H50  1  0.25000000  0.61144312  0.69929708  1
  H  H51  1  0.25000000  0.11144312  0.80070292  1
  H  H52  1  0.75000000  0.01417200  0.49945764  1
  H  H53  1  0.75000000  0.51417200  0.00054236  1
  H  H54  1  0.25000000  0.98582800  0.50054236  1
  H  H55  1  0.25000000  0.48582800  0.99945764  1
  H  H56  1  0.93889978  0.21635471  0.25752019  1
  H  H57  1  0.56110022  0.71635471  0.24247981  1
  H  H58  1  0.43889978  0.78364529  0.74247981  1
  H  H59  1  0.06110022  0.28364529  0.75752019  1
  H  H60  1  0.06110022  0.78364529  0.74247981  1
  H  H61  1  0.43889978  0.28364529  0.75752019  1
  H  H62  1  0.56110022  0.21635471  0.25752019  1
  H  H63  1  0.93889978  0.71635471  0.24247981  1
  H  H64  1  0.93960424  0.32850079  0.46770783  1
  H  H65  1  0.56039576  0.82850079  0.03229217  1
  H  H66  1  0.43960424  0.67149921  0.53229217  1
  H  H67  1  0.06039576  0.17149921  0.96770783  1
  H  H68  1  0.06039576  0.67149921  0.53229217  1
  H  H69  1  0.43960424  0.17149921  0.96770783  1
  H  H70  1  0.56039576  0.32850079  0.46770783  1
  H  H71  1  0.93960424  0.82850079  0.03229217  1
  H  H72  1  0.75000000  0.21065422  0.58655587  1
  H  H73  1  0.75000000  0.71065422  0.91344413  1
  H  H74  1  0.25000000  0.78934578  0.41344413  1
  H  H75  1  0.25000000  0.28934578  0.08655587  1
  H  H76  1  0.01701149  0.13055423  0.43830670  1
  H  H77  1  0.48298851  0.63055423  0.06169330  1
  H  H78  1  0.51701149  0.86944577  0.56169330  1
  H  H79  1  0.98298851  0.36944577  0.93830670  1
  H  H80  1  0.98298851  0.86944577  0.56169330  1
  H  H81  1  0.51701149  0.36944577  0.93830670  1
  H  H82  1  0.48298851  0.13055423  0.43830670  1
  H  H83  1  0.01701149  0.63055423  0.06169330  1
  H  H84  1  0.75000000  0.05159278  0.28984321  1
  H  H85  1  0.75000000  0.55159278  0.21015679  1
  H  H86  1  0.25000000  0.94840722  0.71015679  1
  H  H87  1  0.25000000  0.44840722  0.78984321  1
  H  H88  1  0.91262748  0.57696810  0.33814060  1
  H  H89  1  0.58737252  0.07696810  0.16185940  1
  H  H90  1  0.41262748  0.42303190  0.66185940  1
  H  H91  1  0.08737252  0.92303190  0.83814060  1
  H  H92  1  0.08737252  0.42303190  0.66185940  1
  H  H93  1  0.41262748  0.92303190  0.83814060  1
  H  H94  1  0.58737252  0.57696810  0.33814060  1
  H  H95  1  0.91262748  0.07696810  0.16185940  1
  H  H96  1  0.04735949  0.56438972  0.41186814  1
  H  H97  1  0.45264051  0.06438972  0.08813186  1
  H  H98  1  0.54735949  0.43561028  0.58813186  1
  H  H99  1  0.95264051  0.93561028  0.91186814  1
  H  H100  1  0.95264051  0.43561028  0.58813186  1
  H  H101  1  0.54735949  0.93561028  0.91186814  1
  H  H102  1  0.45264051  0.56438972  0.41186814  1
  H  H103  1  0.04735949  0.06438972  0.08813186  1
  H  H104  1  0.93842215  0.47642954  0.38865341  1
  H  H105  1  0.56157785  0.97642954  0.11134659  1
  H  H106  1  0.43842215  0.52357046  0.61134659  1
  H  H107  1  0.06157785  0.02357046  0.88865341  1
  H  H108  1  0.06157785  0.52357046  0.61134659  1
  H  H109  1  0.43842215  0.02357046  0.88865341  1
  H  H110  1  0.56157785  0.47642954  0.38865341  1
  H  H111  1  0.93842215  0.97642954  0.11134659  1
  H  H112  1  0.25000000  0.62806125  0.15697646  1
  H  H113  1  0.25000000  0.12806125  0.34302354  1
  H  H114  1  0.75000000  0.37193875  0.84302354  1
  H  H115  1  0.75000000  0.87193875  0.65697646  1
  H  H116  1  0.16057108  0.58740039  0.24765176  1
  H  H117  1  0.33942892  0.08740039  0.25234824  1
  H  H118  1  0.66057108  0.41259961  0.75234824  1
  H  H119  1  0.83942892  0.91259961  0.74765176  1
  H  H120  1  0.83942892  0.41259961  0.75234824  1
  H  H121  1  0.66057108  0.91259961  0.74765176  1
  H  H122  1  0.33942892  0.58740039  0.24765176  1
  H  H123  1  0.16057108  0.08740039  0.25234824  1
  H  H124  1  0.16009480  0.30876336  0.32969049  1
  H  H125  1  0.33990520  0.80876336  0.17030951  1
  H  H126  1  0.66009480  0.69123664  0.67030951  1
  H  H127  1  0.83990520  0.19123664  0.82969049  1
  H  H128  1  0.83990520  0.69123664  0.67030951  1
  H  H129  1  0.66009480  0.19123664  0.82969049  1
  H  H130  1  0.33990520  0.30876336  0.32969049  1
  H  H131  1  0.16009480  0.80876336  0.17030951  1
  H  H132  1  0.25000000  0.40493545  0.34963612  1
  H  H133  1  0.25000000  0.90493545  0.15036388  1
  H  H134  1  0.75000000  0.59506455  0.65036388  1
  H  H135  1  0.75000000  0.09506455  0.84963612  1
  H  H136  1  0.83952814  0.26585394  0.04107842  1
  H  H137  1  0.66047186  0.76585394  0.45892158  1
  H  H138  1  0.33952814  0.73414606  0.95892158  1
  H  H139  1  0.16047186  0.23414606  0.54107842  1
  H  H140  1  0.16047186  0.73414606  0.95892158  1
  H  H141  1  0.33952814  0.23414606  0.54107842  1
  H  H142  1  0.66047186  0.26585394  0.04107842  1
  H  H143  1  0.83952814  0.76585394  0.45892158  1
  H  H144  1  0.75000000  0.24400525  0.13771083  1
  H  H145  1  0.75000000  0.74400525  0.36228917  1
  H  H146  1  0.25000000  0.75599475  0.86228917  1
  H  H147  1  0.25000000  0.25599475  0.63771083  1
  N  N148  1  0.99189506  0.53168187  0.35972747  1
  N  N149  1  0.50810494  0.03168187  0.14027253  1
  N  N150  1  0.49189506  0.46831813  0.64027253  1
  N  N151  1  0.00810494  0.96831813  0.85972747  1
  N  N152  1  0.00810494  0.46831813  0.64027253  1
  N  N153  1  0.49189506  0.96831813  0.85972747  1
  N  N154  1  0.50810494  0.53168187  0.35972747  1
  N  N155  1  0.99189506  0.03168187  0.14027253  1
  N  N156  1  0.25000000  0.57685063  0.20574049  1
  N  N157  1  0.25000000  0.07685063  0.29425951  1
  N  N158  1  0.75000000  0.42314937  0.79425951  1
  N  N159  1  0.75000000  0.92314937  0.70574049  1
  N  N160  1  0.25000000  0.34651291  0.30974703  1
  N  N161  1  0.25000000  0.84651291  0.19025297  1
  N  N162  1  0.75000000  0.65348709  0.69025297  1
  N  N163  1  0.75000000  0.15348709  0.80974703  1
  N  N164  1  0.75000000  0.28479059  0.07974057  1
  N  N165  1  0.75000000  0.78479059  0.42025943  1
  N  N166  1  0.25000000  0.71520941  0.92025943  1
  N  N167  1  0.25000000  0.21520941  0.57974057  1
