# generated using pymatgen
data_Zr3AlCo8
_symmetry_space_group_name_H-M   'P 1'
_cell_length_a   4.85162131
_cell_length_b   4.85162131
_cell_length_c   8.41397878
_cell_angle_alpha   73.24335777
_cell_angle_beta   90.00000000
_cell_angle_gamma   119.99999995
_symmetry_Int_Tables_number   1
_chemical_formula_structural   Zr3AlCo8
_chemical_formula_sum   'Zr3 Al1 Co8'
_cell_volume   161.73301970
_cell_formula_units_Z   1
loop_
 _symmetry_equiv_pos_site_id
 _symmetry_equiv_pos_as_xyz
  1  'x, y, z'
loop_
 _atom_site_type_symbol
 _atom_site_label
 _atom_site_symmetry_multiplicity
 _atom_site_fract_x
 _atom_site_fract_y
 _atom_site_fract_z
 _atom_site_occupancy
  Zr  Zr0  1  0.37604881  0.75209763  0.87185356  1
  Zr  Zr1  1  0.99452056  0.98904111  0.01643833  1
  Zr  Zr2  1  0.50437212  0.00874423  0.48688365  1
  Al  Al3  1  0.87377587  0.74755175  0.37867238  1
  Co  Co4  1  0.43579312  0.37353172  0.19067516  1
  Co  Co5  1  0.93669943  0.37942206  0.68387851  1
  Co  Co6  1  0.43579312  0.87158623  0.19067516  1
  Co  Co7  1  0.93669943  0.87339887  0.68387851  1
  Co  Co8  1  0.18809036  0.37618072  0.43572893  1
  Co  Co9  1  0.68774596  0.37549191  0.93676213  1
  Co  Co10  1  0.93773860  0.37353172  0.19067516  1
  Co  Co11  1  0.44272263  0.37942206  0.68387851  1
