# generated using pymatgen
data_Te3Mo2Se
_symmetry_space_group_name_H-M   'P 1'
_cell_length_a   3.49950139
_cell_length_b   3.49951712
_cell_length_c   15.09505768
_cell_angle_alpha   90.00000000
_cell_angle_beta   90.00101397
_cell_angle_gamma   59.99985128
_symmetry_Int_Tables_number   1
_chemical_formula_structural   Te3Mo2Se
_chemical_formula_sum   'Te3 Mo2 Se1'
_cell_volume   160.09547245
_cell_formula_units_Z   1
loop_
 _symmetry_equiv_pos_site_id
 _symmetry_equiv_pos_as_xyz
  1  'x, y, z'
loop_
 _atom_site_type_symbol
 _atom_site_label
 _atom_site_symmetry_multiplicity
 _atom_site_fract_x
 _atom_site_fract_y
 _atom_site_fract_z
 _atom_site_occupancy
  Te  Te0  1  0.66667934  0.66666033  0.87274863  1
  Te  Te1  1  0.66663689  0.66668155  0.62977050  1
  Te  Te2  1  0.33335217  0.33332392  0.36606464  1
  Mo  Mo3  1  0.33332716  0.33333642  0.75116220  1
  Mo  Mo4  1  0.66667233  0.66666384  0.24331146  1
  Se  Se5  1  0.33333212  0.33333394  0.13694256  1
