# generated using pymatgen
data_V2CrTe4
_symmetry_space_group_name_H-M   'P 1'
_cell_length_a   4.02479412
_cell_length_b   7.02244397
_cell_length_c   7.25693088
_cell_angle_alpha   117.67332400
_cell_angle_beta   73.90046599
_cell_angle_gamma   90.00000000
_symmetry_Int_Tables_number   1
_chemical_formula_structural   V2CrTe4
_chemical_formula_sum   'V2 Cr1 Te4'
_cell_volume   172.51198807
_cell_formula_units_Z   1
loop_
 _symmetry_equiv_pos_site_id
 _symmetry_equiv_pos_as_xyz
  1  'x, y, z'
loop_
 _atom_site_type_symbol
 _atom_site_label
 _atom_site_symmetry_multiplicity
 _atom_site_fract_x
 _atom_site_fract_y
 _atom_site_fract_z
 _atom_site_occupancy
  V  V0  1  0.74181175  0.27710447  0.51637651  1
  V  V1  1  0.99744821  0.00093985  0.00510359  1
  Cr  Cr2  1  0.26047183  0.71968549  0.47905634  1
  Te  Te3  1  0.11910388  0.55077487  0.76179224  1
  Te  Te4  1  0.88296968  0.45080637  0.23406064  1
  Te  Te5  1  0.36693667  0.97136712  0.26612667  1
  Te  Te6  1  0.63125799  0.02932182  0.73748402  1
