# generated using pymatgen
data_Tl3(SO4)2
_symmetry_space_group_name_H-M   'P 1'
_cell_length_a   5.84667568
_cell_length_b   5.80177468
_cell_length_c   8.00525288
_cell_angle_alpha   88.96042315
_cell_angle_beta   111.41850451
_cell_angle_gamma   59.74365092
_symmetry_Int_Tables_number   1
_chemical_formula_structural   Tl3(SO4)2
_chemical_formula_sum   'Tl3 S2 O8'
_cell_volume   211.34568001
_cell_formula_units_Z   1
loop_
 _symmetry_equiv_pos_site_id
 _symmetry_equiv_pos_as_xyz
  1  'x, y, z'
loop_
 _atom_site_type_symbol
 _atom_site_label
 _atom_site_symmetry_multiplicity
 _atom_site_fract_x
 _atom_site_fract_y
 _atom_site_fract_z
 _atom_site_occupancy
  Tl  Tl0  1  0.99605061  1.00000000  0.00000000  1
  Tl  Tl1  1  0.58042968  0.20375842  0.38446111  1
  Tl  Tl2  1  0.39972699  0.79624158  0.61553889  1
  S  S3  1  0.20361932  0.39395061  0.81904006  1
  S  S4  1  0.77852987  0.60604939  0.18095994  1
  O  O5  1  0.44075645  0.27415491  0.75199487  1
  O  O6  1  0.01563561  0.27949383  0.74389104  1
  O  O7  1  0.01338314  0.70200936  0.74087097  1
  O  O8  1  0.55123840  0.72050617  0.25610896  1
  O  O9  1  0.96291650  0.72584509  0.24800513  1
  O  O10  1  0.97452153  0.29799064  0.25912903  1
  O  O11  1  0.33276247  0.32327528  0.02260832  1
  O  O12  1  0.63342943  0.67672472  0.97739168  1
