# generated using pymatgen
data_V(Cr7S10)2
_symmetry_space_group_name_H-M   'P 1'
_cell_length_a   3.46452259
_cell_length_b   27.05386495
_cell_length_c   6.55060104
_cell_angle_alpha   92.71114086
_cell_angle_beta   74.66612987
_cell_angle_gamma   90.00000012
_symmetry_Int_Tables_number   1
_chemical_formula_structural   V(Cr7S10)2
_chemical_formula_sum   'V1 Cr14 S20'
_cell_volume   591.40997044
_cell_formula_units_Z   1
loop_
 _symmetry_equiv_pos_site_id
 _symmetry_equiv_pos_as_xyz
  1  'x, y, z'
loop_
 _atom_site_type_symbol
 _atom_site_label
 _atom_site_symmetry_multiplicity
 _atom_site_fract_x
 _atom_site_fract_y
 _atom_site_fract_z
 _atom_site_occupancy
  V  V0  1  0.00000000  0.00000000  -0.00000000  1
  Cr  Cr1  1  0.40942967  0.14378741  0.18114065  1
  Cr  Cr2  1  0.60807867  0.34393525  0.78384267  1
  Cr  Cr3  1  0.80794532  0.54385997  0.38410936  1
  Cr  Cr4  1  0.00790050  0.74372404  0.98419900  1
  Cr  Cr5  1  0.20163996  0.94550107  0.59672009  1
  Cr  Cr6  1  0.79836004  0.05449893  0.40327991  1
  Cr  Cr7  1  0.99209950  0.25627596  0.01580100  1
  Cr  Cr8  1  0.19205468  0.45614003  0.61589064  1
  Cr  Cr9  1  0.39192133  0.65606475  0.21615733  1
  Cr  Cr10  1  0.59057033  0.85621259  0.81885935  1
  Cr  Cr11  1  0.20037320  0.19931088  0.59925360  1
  Cr  Cr12  1  0.40012231  0.40005939  0.19975537  1
  Cr  Cr13  1  0.59987769  0.59994061  0.80024463  1
  Cr  Cr14  1  0.79962680  0.80068912  0.40074640  1
  S  S15  1  0.96684184  0.08911486  0.06631632  1
  S  S16  1  0.16496614  0.28934941  0.67006771  1
  S  S17  1  0.36487949  0.48938377  0.27024101  1
  S  S18  1  0.56500550  0.68926025  0.86998901  1
  S  S19  1  0.76209059  0.89058125  0.47581883  1
  S  S20  1  0.23790941  0.10941875  0.52418117  1
  S  S21  1  0.43499450  0.31073975  0.13001099  1
  S  S22  1  0.63512051  0.51061623  0.72975899  1
  S  S23  1  0.83503386  0.71065059  0.32993229  1
  S  S24  1  0.03315816  0.91088514  0.93368368  1
  S  S25  1  0.56249255  0.19593767  0.87501490  1
  S  S26  1  0.76216632  0.39577202  0.47566737  1
  S  S27  1  0.96195569  0.59568774  0.07608862  1
  S  S28  1  0.16132112  0.79612470  0.67735775  1
  S  S29  1  0.36212125  0.99432174  0.27575750  1
  S  S30  1  0.63787875  0.00567826  0.72424250  1
  S  S31  1  0.83867888  0.20387530  0.32264225  1
  S  S32  1  0.03804431  0.40431226  0.92391138  1
  S  S33  1  0.23783368  0.60422798  0.52433263  1
  S  S34  1  0.43750745  0.80406233  0.12498510  1
