# generated using pymatgen
data_Ti4Co(PO4)6
_symmetry_space_group_name_H-M   'P 1'
_cell_length_a   8.64473352
_cell_length_b   8.64473352
_cell_length_c   8.58336858
_cell_angle_alpha   89.99999728
_cell_angle_beta   120.23677767
_cell_angle_gamma   60.00000123
_symmetry_Int_Tables_number   1
_chemical_formula_structural   Ti4Co(PO4)6
_chemical_formula_sum   'Ti4 Co1 P6 O24'
_cell_volume   451.94166591
_cell_formula_units_Z   1
loop_
 _symmetry_equiv_pos_site_id
 _symmetry_equiv_pos_as_xyz
  1  'x, y, z'
loop_
 _atom_site_type_symbol
 _atom_site_label
 _atom_site_symmetry_multiplicity
 _atom_site_fract_x
 _atom_site_fract_y
 _atom_site_fract_z
 _atom_site_occupancy
  Ti  Ti0  1  0.70776614  0.64611693  0.06164921  1
  Ti  Ti1  1  0.73243274  0.13378363  0.59864912  1
  Ti  Ti2  1  0.29223386  0.35388307  0.93835079  1
  Ti  Ti3  1  0.26756726  0.86621637  0.40135088  1
  Co  Co4  1  0.00000000  0.50000000  0.50000000  1
  P  P5  1  0.20803102  0.04579264  0.73965820  1
  P  P6  1  0.78545084  0.74617635  0.73965820  1
  P  P7  1  0.48583455  0.46837281  0.73965820  1
  P  P8  1  0.21454916  0.25382365  0.26034180  1
  P  P9  1  0.51416545  0.53162719  0.26034180  1
  P  P10  1  0.79196898  0.95420736  0.26034180  1
  O  O11  1  0.81853704  0.76131099  0.26847105  1
  O  O12  1  0.02978204  0.42015198  0.26847105  1
  O  O13  1  0.68862302  0.55006599  0.26847105  1
  O  O14  1  0.81166267  0.90921889  0.75027003  1
  O  O15  1  0.65948893  0.27911843  0.75027003  1
  O  O16  1  0.02938847  0.06139264  0.75027003  1
  O  O17  1  0.18146296  0.23868901  0.73152895  1
  O  O18  1  0.97021796  0.57984802  0.73152895  1
  O  O19  1  0.31137698  0.44993401  0.73152895  1
  O  O20  1  0.18833733  0.09078111  0.24972997  1
  O  O21  1  0.34051107  0.72088157  0.24972997  1
  O  O22  1  0.97061153  0.93860736  0.24972997  1
  O  O23  1  0.43265688  0.88327231  0.92464700  1
  O  O24  1  0.80791931  0.68407081  0.92464700  1
  O  O25  1  0.60871781  0.50800988  0.92464700  1
  O  O26  1  0.43286226  0.20070388  0.43548558  1
  O  O27  1  0.63618946  0.36643386  0.43548558  1
  O  O28  1  0.80191944  0.99737668  0.43548558  1
  O  O29  1  0.56734312  0.11672769  0.07535300  1
  O  O30  1  0.19208069  0.31592919  0.07535300  1
  O  O31  1  0.39128219  0.49199012  0.07535300  1
  O  O32  1  0.56713774  0.79929612  0.56451442  1
  O  O33  1  0.36381054  0.63356614  0.56451442  1
  O  O34  1  0.19808056  0.00262332  0.56451442  1
