# generated using pymatgen
data_TiBi8W(ClO8)2
_symmetry_space_group_name_H-M   'P 1'
_cell_length_a   5.50090820
_cell_length_b   14.92657144
_cell_length_c   5.63738561
_cell_angle_alpha   79.11506263
_cell_angle_beta   90.00000000
_cell_angle_gamma   79.38167992
_symmetry_Int_Tables_number   1
_chemical_formula_structural   TiBi8W(ClO8)2
_chemical_formula_sum   'Ti1 Bi8 W1 Cl2 O16'
_cell_volume   446.48198522
_cell_formula_units_Z   1
loop_
 _symmetry_equiv_pos_site_id
 _symmetry_equiv_pos_as_xyz
  1  'x, y, z'
loop_
 _atom_site_type_symbol
 _atom_site_label
 _atom_site_symmetry_multiplicity
 _atom_site_fract_x
 _atom_site_fract_y
 _atom_site_fract_z
 _atom_site_occupancy
  Ti  Ti0  1  1.00000000  0.00000000  0.99819503  1
  Bi  Bi1  1  0.67994209  0.64011581  0.67317565  1
  Bi  Bi2  1  0.17993464  0.64013073  0.17378550  1
  Bi  Bi3  1  0.82006536  0.35986927  0.81391623  1
  Bi  Bi4  1  0.32005791  0.35988419  0.31329146  1
  Bi  Bi5  1  0.08850540  0.82298919  0.66069051  1
  Bi  Bi6  1  0.59123314  0.81753372  0.14728620  1
  Bi  Bi7  1  0.40876686  0.18246628  0.96481992  1
  Bi  Bi8  1  0.91149460  0.17701081  0.48367970  1
  W  W9  1  0.50000000  0.00000000  0.47742861  1
  Cl  Cl10  1  0.75056866  0.49886268  0.23883845  1
  Cl  Cl11  1  0.24943134  0.50113732  0.73770113  1
  O  O12  1  0.39002092  0.71655859  0.87891545  1
  O  O13  1  0.88822970  0.71410885  0.37744616  1
  O  O14  1  0.11177030  0.28589115  0.09155501  1
  O  O15  1  0.60997908  0.28344141  0.59547404  1
  O  O16  1  0.60233855  0.28589115  0.09155501  1
  O  O17  1  0.10657951  0.28344141  0.59547404  1
  O  O18  1  0.89342049  0.71655859  0.87891545  1
  O  O19  1  0.39766145  0.71410885  0.37744616  1
  O  O20  1  0.56816890  0.86366220  0.50804952  1
  O  O21  1  0.06724689  0.86550622  0.00962401  1
  O  O22  1  0.93275311  0.13449378  0.87513023  1
  O  O23  1  0.43183110  0.13633780  0.37171173  1
  O  O24  1  0.74358684  1.00000000  0.20731827  1
  O  O25  1  0.24763765  1.00000000  0.69662913  1
  O  O26  1  0.75236235  1.00000000  0.69662913  1
  O  O27  1  0.25641316  1.00000000  0.20731827  1
