# generated using pymatgen
data_Tb2MnCrO6
_symmetry_space_group_name_H-M   'P 1'
_cell_length_a   5.38180989
_cell_length_b   5.75038428
_cell_length_c   7.50055574
_cell_angle_alpha   90.00000000
_cell_angle_beta   90.57482709
_cell_angle_gamma   90.00000000
_symmetry_Int_Tables_number   1
_chemical_formula_structural   Tb2MnCrO6
_chemical_formula_sum   'Tb4 Mn2 Cr2 O12'
_cell_volume   232.11157933
_cell_formula_units_Z   2
loop_
 _symmetry_equiv_pos_site_id
 _symmetry_equiv_pos_as_xyz
  1  'x, y, z'
loop_
 _atom_site_type_symbol
 _atom_site_label
 _atom_site_symmetry_multiplicity
 _atom_site_fract_x
 _atom_site_fract_y
 _atom_site_fract_z
 _atom_site_occupancy
  Tb  Tb0  1  0.51883763  0.57147250  0.24955006  1
  Tb  Tb1  1  0.98116237  0.07147250  0.25044994  1
  Tb  Tb2  1  0.48116237  0.42852750  0.75044994  1
  Tb  Tb3  1  0.01883763  0.92852750  0.74955006  1
  Mn  Mn4  1  -0.00000000  0.50000000  0.00000000  1
  Mn  Mn5  1  0.50000000  0.00000000  0.50000000  1
  Cr  Cr6  1  -0.00000000  0.50000000  0.50000000  1
  Cr  Cr7  1  0.50000000  0.00000000  0.00000000  1
  O  O8  1  0.80330836  0.81374222  0.05733620  1
  O  O9  1  0.69669164  0.31374222  0.44266380  1
  O  O10  1  0.18889875  0.19506179  0.55378836  1
  O  O11  1  0.31110125  0.69506179  0.94621164  1
  O  O12  1  0.19669164  0.18625778  0.94266380  1
  O  O13  1  0.30330836  0.68625778  0.55733620  1
  O  O14  1  0.81110125  0.80493821  0.44621164  1
  O  O15  1  0.68889875  0.30493821  0.05378836  1
  O  O16  1  0.38784489  0.96018456  0.25523717  1
  O  O17  1  0.11215511  0.46018456  0.24476283  1
  O  O18  1  0.61215511  0.03981544  0.74476283  1
  O  O19  1  0.88784489  0.53981544  0.75523717  1
