# generated using pymatgen
data_V2Bi4O11
_symmetry_space_group_name_H-M   'P 1'
_cell_length_a   5.81577881
_cell_length_b   8.08842228
_cell_length_c   17.04325421
_cell_angle_alpha   88.90911080
_cell_angle_beta   89.60703961
_cell_angle_gamma   109.51888643
_symmetry_Int_Tables_number   1
_chemical_formula_structural   V2Bi4O11
_chemical_formula_sum   'V6 Bi12 O33'
_cell_volume   755.43759153
_cell_formula_units_Z   3
loop_
 _symmetry_equiv_pos_site_id
 _symmetry_equiv_pos_as_xyz
  1  'x, y, z'
loop_
 _atom_site_type_symbol
 _atom_site_label
 _atom_site_symmetry_multiplicity
 _atom_site_fract_x
 _atom_site_fract_y
 _atom_site_fract_z
 _atom_site_occupancy
  V  V0  1  0.66775534  0.99817883  0.06447170  1
  V  V1  1  0.32910892  0.00004624  0.93301647  1
  V  V2  1  0.30823666  0.99231889  0.23425767  1
  V  V3  1  0.69890895  0.01486253  0.76354545  1
  V  V4  1  0.87705019  0.02564863  0.43121048  1
  V  V5  1  0.19700449  0.03083148  0.56408064  1
  Bi  Bi6  1  0.63918793  0.68643354  0.24697986  1
  Bi  Bi7  1  0.01914056  0.64660386  0.75618274  1
  Bi  Bi8  1  0.39607797  0.35255971  0.08827263  1
  Bi  Bi9  1  0.96016326  0.33102750  0.92455407  1
  Bi  Bi10  1  0.98079646  0.36173327  0.25253470  1
  Bi  Bi11  1  0.34971869  0.31969545  0.75537876  1
  Bi  Bi12  1  0.12172705  0.68347503  0.40899530  1
  Bi  Bi13  1  0.53544520  0.66306158  0.58797288  1
  Bi  Bi14  1  0.49162649  0.37599174  0.42368472  1
  Bi  Bi15  1  0.85356023  0.33791415  0.58871360  1
  Bi  Bi16  1  0.03288770  0.66506364  0.07981239  1
  Bi  Bi17  1  0.59828639  0.64709504  0.91677220  1
  O  O18  1  0.33915502  0.99143556  0.04439633  1
  O  O19  1  0.65712593  0.00715670  0.95240207  1
  O  O20  1  0.27988052  0.51844391  0.32999214  1
  O  O21  1  0.20964653  0.48502211  0.67184668  1
  O  O22  1  0.80064187  0.20914697  0.40960459  1
  O  O23  1  0.45477939  0.23355807  0.54923429  1
  O  O24  1  0.71617886  0.80065987  0.07085368  1
  O  O25  1  0.08505783  0.81029232  0.92395741  1
  O  O26  1  0.56605506  0.00027964  0.17411760  1
  O  O27  1  0.43872082  0.00731937  0.82182825  1
  O  O28  1  0.36436946  0.91692641  0.32323812  1
  O  O29  1  0.65162162  0.09077737  0.67339407  1
  O  O30  1  0.27513294  0.19821019  0.23747422  1
  O  O31  1  0.95433421  0.17716345  0.80059123  1
  O  O32  1  0.78418940  0.85160240  0.36951931  1
  O  O33  1  0.14058978  0.05499289  0.65935345  1
  O  O34  1  0.74701585  0.47866597  0.83739916  1
  O  O35  1  0.73378703  0.49400402  0.16541358  1
  O  O36  1  0.29804508  0.52830990  0.49329631  1
  O  O37  1  0.81796492  0.53793582  0.32452595  1
  O  O38  1  0.72639512  0.49365963  0.67137580  1
  O  O39  1  0.04346760  0.83442981  0.20066141  1
  O  O40  1  0.72439168  0.80541462  0.76350898  1
  O  O41  1  0.78634764  0.54890973  0.50503676  1
  O  O42  1  0.73025322  0.48173702  0.00174185  1
  O  O43  1  0.26603783  0.51532218  0.00042790  1
  O  O44  1  0.91915571  0.18453232  0.06978823  1
  O  O45  1  0.27421201  0.19531885  0.92552941  1
  O  O46  1  0.24171733  0.52156065  0.16361593  1
  O  O47  1  0.25807408  0.50825861  0.83663731  1
  O  O48  1  0.19248601  0.08822071  0.43616828  1
  O  O49  1  0.84731513  0.95908002  0.53428394  1
  O  O50  1  0.27817205  0.84711178  0.55534950  1
