# generated using pymatgen
data_U11Se20
_symmetry_space_group_name_H-M   'P 1'
_cell_length_a   6.69360412
_cell_length_b   10.72251518
_cell_length_c   10.72251518
_cell_angle_alpha   90.00000000
_cell_angle_beta   90.00000000
_cell_angle_gamma   90.00000000
_symmetry_Int_Tables_number   1
_chemical_formula_structural   U11Se20
_chemical_formula_sum   'U11 Se20'
_cell_volume   769.57927372
_cell_formula_units_Z   1
loop_
 _symmetry_equiv_pos_site_id
 _symmetry_equiv_pos_as_xyz
  1  'x, y, z'
loop_
 _atom_site_type_symbol
 _atom_site_label
 _atom_site_symmetry_multiplicity
 _atom_site_fract_x
 _atom_site_fract_y
 _atom_site_fract_z
 _atom_site_occupancy
  U  U0  1  0.25051455  0.89989147  0.08913187  1
  U  U1  1  0.75049650  0.59833994  0.09166139  1
  U  U2  1  0.75049650  0.90166006  0.40833861  1
  U  U3  1  0.25051455  0.60010853  0.41086813  1
  U  U4  1  0.75049650  0.09166139  0.90166006  1
  U  U5  1  0.25051455  0.41086813  0.89989147  1
  U  U6  1  0.25051455  0.08913187  0.60010853  1
  U  U7  1  0.75049650  0.40833861  0.59833994  1
  U  U8  1  0.63652427  0.75000000  0.75000000  1
  U  U9  1  0.86061559  0.25000000  0.25000000  1
  U  U10  1  0.36104277  0.25000000  0.25000000  1
  Se  Se11  1  0.38470660  0.83880005  0.54039824  1
  Se  Se12  1  0.87737605  0.66188514  0.54042636  1
  Se  Se13  1  0.87737605  0.83811486  0.95957364  1
  Se  Se14  1  0.38470660  0.66119995  0.95960176  1
  Se  Se15  1  0.87737605  0.54042636  0.83811486  1
  Se  Se16  1  0.38470660  0.95960176  0.83880005  1
  Se  Se17  1  0.38470660  0.54039824  0.66119995  1
  Se  Se18  1  0.87737605  0.95957364  0.66188514  1
  Se  Se19  1  0.61811635  0.16265464  0.45908617  1
  Se  Se20  1  0.11940956  0.33755268  0.45940253  1
  Se  Se21  1  0.11940956  0.16244732  0.04059747  1
  Se  Se22  1  0.61811635  0.33734536  0.04091383  1
  Se  Se23  1  0.11940956  0.45940253  0.16244732  1
  Se  Se24  1  0.61811635  0.04091383  0.16265464  1
  Se  Se25  1  0.61811635  0.45908617  0.33734536  1
  Se  Se26  1  0.11940956  0.04059747  0.33755268  1
  Se  Se27  1  0.50003873  0.75000000  0.25000000  1
  Se  Se28  1  0.00163074  0.75000000  0.25000000  1
  Se  Se29  1  0.00163074  0.25000000  0.75000000  1
  Se  Se30  1  0.50003873  0.25000000  0.75000000  1
