# generated using pymatgen
data_TbAlGa
_symmetry_space_group_name_H-M   'P 1'
_cell_length_a   3.63747393
_cell_length_b   4.44620122
_cell_length_c   4.44620543
_cell_angle_alpha   59.99619718
_cell_angle_beta   90.00000000
_cell_angle_gamma   90.00000000
_symmetry_Int_Tables_number   1
_chemical_formula_structural   TbAlGa
_chemical_formula_sum   'Tb1 Al1 Ga1'
_cell_volume   62.27195727
_cell_formula_units_Z   1
loop_
 _symmetry_equiv_pos_site_id
 _symmetry_equiv_pos_as_xyz
  1  'x, y, z'
loop_
 _atom_site_type_symbol
 _atom_site_label
 _atom_site_symmetry_multiplicity
 _atom_site_fract_x
 _atom_site_fract_y
 _atom_site_fract_z
 _atom_site_occupancy
  Tb  Tb0  1  0.00000000  -0.00000574  0.00001563  1
  Al  Al1  1  0.50000000  0.33330826  0.33337205  1
  Ga  Ga2  1  0.50000000  0.66659748  0.66671232  1
