# generated using pymatgen
data_SrLaMn2O5
_symmetry_space_group_name_H-M   'P 1'
_cell_length_a   5.53172485
_cell_length_b   5.66080092
_cell_length_c   16.38238186
_cell_angle_alpha   90.00000000
_cell_angle_beta   90.00000000
_cell_angle_gamma   90.00000000
_symmetry_Int_Tables_number   1
_chemical_formula_structural   SrLaMn2O5
_chemical_formula_sum   'Sr4 La4 Mn8 O20'
_cell_volume   512.99779285
_cell_formula_units_Z   4
loop_
 _symmetry_equiv_pos_site_id
 _symmetry_equiv_pos_as_xyz
  1  'x, y, z'
loop_
 _atom_site_type_symbol
 _atom_site_label
 _atom_site_symmetry_multiplicity
 _atom_site_fract_x
 _atom_site_fract_y
 _atom_site_fract_z
 _atom_site_occupancy
  Sr  Sr0  1  0.49791381  0.98871844  0.88698585  1
  Sr  Sr1  1  0.99791381  0.51128156  0.61301415  1
  Sr  Sr2  1  0.50208619  0.01128156  0.38698585  1
  Sr  Sr3  1  0.00208619  0.48871844  0.11301415  1
  La  La4  1  0.50588827  0.01988119  0.10798513  1
  La  La5  1  0.00588827  0.48011881  0.39201487  1
  La  La6  1  0.49411173  0.98011881  0.60798513  1
  La  La7  1  0.99411173  0.51988119  0.89201487  1
  Mn  Mn8  1  0.49988050  0.50100598  0.99970960  1
  Mn  Mn9  1  0.99988050  0.99899402  0.50029040  1
  Mn  Mn10  1  0.50011950  0.49899402  0.49970960  1
  Mn  Mn11  1  0.00011950  0.00100598  0.00029040  1
  Mn  Mn12  1  0.45631982  0.44361460  0.74988730  1
  Mn  Mn13  1  0.95631982  0.05638540  0.75011270  1
  Mn  Mn14  1  0.54368018  0.55638540  0.24988730  1
  Mn  Mn15  1  0.04368018  0.94361460  0.25011270  1
  O  O16  1  0.57300662  0.09002326  0.74164884  1
  O  O17  1  0.07300662  0.40997674  0.75835116  1
  O  O18  1  0.42699338  0.90997674  0.24164884  1
  O  O19  1  0.92699338  0.59002326  0.25835116  1
  O  O20  1  0.23997681  0.75021035  0.00767283  1
  O  O21  1  0.73997681  0.74978965  0.49232717  1
  O  O22  1  0.76002319  0.24978965  0.50767283  1
  O  O23  1  0.26002319  0.25021035  0.99232717  1
  O  O24  1  0.76407421  0.25353403  0.99165218  1
  O  O25  1  0.26407421  0.24646597  0.50834782  1
  O  O26  1  0.23592579  0.74646597  0.49165218  1
  O  O27  1  0.73592579  0.75353403  0.00834782  1
  O  O28  1  0.52043132  0.53119370  0.86861168  1
  O  O29  1  0.02043132  0.96880630  0.63138832  1
  O  O30  1  0.47956868  0.46880630  0.36861168  1
  O  O31  1  0.97956868  0.03119370  0.13138832  1
  O  O32  1  0.49758137  0.44232090  0.13221237  1
  O  O33  1  0.99758137  0.05767910  0.36778763  1
  O  O34  1  0.50241863  0.55767910  0.63221237  1
  O  O35  1  0.00241863  0.94232090  0.86778763  1
