# generated using pymatgen
data_GaSi6BiH54C18(NCl)4
_symmetry_space_group_name_H-M   'P 1'
_cell_length_a   9.79000731
_cell_length_b   10.19585753
_cell_length_c   12.79495387
_cell_angle_alpha   71.71785052
_cell_angle_beta   68.45683429
_cell_angle_gamma   87.49833292
_symmetry_Int_Tables_number   1
_chemical_formula_structural   GaSi6BiH54C18(NCl)4
_chemical_formula_sum   'Ga1 Si6 Bi1 H54 C18 N4 Cl4'
_cell_volume   1124.26957251
_cell_formula_units_Z   1
loop_
 _symmetry_equiv_pos_site_id
 _symmetry_equiv_pos_as_xyz
  1  'x, y, z'
loop_
 _atom_site_type_symbol
 _atom_site_label
 _atom_site_symmetry_multiplicity
 _atom_site_fract_x
 _atom_site_fract_y
 _atom_site_fract_z
 _atom_site_occupancy
  Ga  Ga0  1  0.99199336  0.68885917  0.21888371  1
  Si  Si1  1  0.55930989  0.22511510  0.87003743  1
  Si  Si2  1  0.35410357  0.55911692  0.81458698  1
  Si  Si3  1  0.65154174  0.61163004  0.85094474  1
  Si  Si4  1  0.54980911  0.08728204  0.27394491  1
  Si  Si5  1  0.27999140  0.28889939  0.46820029  1
  Si  Si6  1  0.11562557  0.07653166  0.40741790  1
  Bi  Bi7  1  0.37038980  0.35283048  0.12174512  1
  H  H8  1  0.39344350  0.03037364  0.04165572  1
  H  H9  1  0.44867934  0.99575475  0.90617876  1
  H  H10  1  0.30641010  0.10725020  0.93994662  1
  H  H11  1  0.83051656  0.22870781  0.83128097  1
  H  H12  1  0.75423648  0.06797075  0.84168764  1
  H  H13  1  0.73013333  0.10606365  0.97237381  1
  H  H14  1  0.48835372  0.32502884  0.69399265  1
  H  H15  1  0.63365336  0.21477402  0.66813986  1
  H  H16  1  0.67163496  0.38623396  0.66255181  1
  H  H17  1  0.25331334  0.31318879  0.86969108  1
  H  H18  1  0.13245675  0.43843172  0.83262554  1
  H  H19  1  0.14448622  0.39510924  0.97384557  1
  H  H20  1  0.48962967  0.71347096  0.60624896  1
  H  H21  1  0.31988262  0.63749699  0.62442447  1
  H  H22  1  0.47694741  0.53973405  0.60860567  1
  H  H23  1  0.27038594  0.71033578  0.94598836  1
  H  H24  1  0.14843415  0.70125264  0.87521570  1
  H  H25  1  0.31431460  0.80978641  0.79407948  1
  H  H26  1  0.84327591  0.44077247  0.84131675  1
  H  H27  1  0.92028361  0.61496712  0.77132878  1
  H  H28  1  0.84724671  0.53472962  0.69610771  1
  H  H29  1  0.65597678  0.78862648  0.66149279  1
  H  H30  1  0.75219169  0.84885570  0.73282936  1
  H  H31  1  0.55703104  0.84556161  0.78552982  1
  H  H32  1  0.54241038  0.67385927  0.03834999  1
  H  H33  1  0.73785504  0.69640848  0.97836999  1
  H  H34  1  0.65192364  0.52900844  0.05860676  1
  H  H35  1  0.42848274  0.86362338  0.29775114  1
  H  H36  1  0.62440913  0.86806761  0.23734548  1
  H  H37  1  0.52749408  0.95391982  0.14557889  1
  H  H38  1  0.70957079  0.25134598  0.07558093  1
  H  H39  1  0.81177080  0.13354855  0.14588172  1
  H  H40  1  0.74641360  0.27917969  0.19363303  1
  H  H41  1  0.58493750  0.11870446  0.44874027  1
  H  H42  1  0.65635703  0.96484162  0.41897302  1
  H  H43  1  0.46345974  0.96868889  0.49192325  1
  H  H44  1  0.55496377  0.34174699  0.36330604  1
  H  H45  1  0.47315701  0.44434937  0.45578327  1
  H  H46  1  0.45727989  0.48549617  0.31604483  1
  H  H47  1  0.16119422  0.10157671  0.66283769  1
  H  H48  1  0.26242517  0.23179844  0.67496891  1
  H  H49  1  0.35658767  0.10291873  0.61567081  1
  H  H50  1  0.09877562  0.45739472  0.41897056  1
  H  H51  1  0.16448767  0.48841041  0.52124794  1
  H  H52  1  0.02619343  0.35208119  0.57093054  1
  H  H53  1  0.07453463  0.18246480  0.21767286  1
  H  H54  1  0.99633403  0.00959056  0.29183254  1
  H  H55  1  0.18738233  0.03874417  0.20962343  1
  H  H56  1  0.24238233  0.85700072  0.44312200  1
  H  H57  1  0.04829941  0.82499441  0.50348366  1
  H  H58  1  0.13867150  0.88834012  0.57876673  1
  H  H59  1  0.94280353  0.12903804  0.58874300  1
  H  H60  1  0.85169296  0.05740536  0.51994875  1
  H  H61  1  0.91730786  0.23573021  0.45775106  1
  C  C62  1  0.41269157  0.07781545  0.94701911  1
  C  C63  1  0.73473027  0.15200920  0.88128029  1
  C  C64  1  0.59035410  0.29573339  0.70876848  1
  C  C65  1  0.20933450  0.41121405  0.87939894  1
  C  C66  1  0.41791948  0.61654296  0.64827258  1
  C  C67  1  0.26581830  0.70919951  0.86181723  1
  C  C68  1  0.83143495  0.54242223  0.78347180  1
  C  C69  1  0.65118757  0.78968154  0.74836502  1
  C  C70  1  0.64254925  0.62793746  0.99540988  1
  C  C71  1  0.52961089  0.92912990  0.23483543  1
  C  C72  1  0.71911076  0.19925668  0.16166568  1
  C  C73  1  0.56371495  0.03061879  0.42329143  1
  C  C74  1  0.45850064  0.39876035  0.39289449  1
  C  C75  1  0.26470740  0.16874286  0.61849298  1
  C  C76  1  0.12692066  0.40619500  0.49669650  1
  C  C77  1  0.09432751  0.07855273  0.26750702  1
  C  C78  1  0.13951620  0.89514680  0.49100012  1
  C  C79  1  0.94199302  0.13183629  0.50244205  1
  N  N80  1  0.50021698  0.35881088  0.93790609  1
  N  N81  1  0.49875215  0.50245167  0.87145288  1
  N  N82  1  0.39850920  0.19348859  0.27178023  1
  N  N83  1  0.26943184  0.19449746  0.37224027  1
  Cl  Cl84  1  0.84430276  0.69508913  0.39558200  1
  Cl  Cl85  1  0.95110836  0.85899781  0.08031184  1
  Cl  Cl86  1  0.95544947  0.48449306  0.20087060  1
  Cl  Cl87  1  0.22613649  0.70832987  0.19938496  1
