# generated using pymatgen
data_SrCaSi4
_symmetry_space_group_name_H-M   'P 1'
_cell_length_a   4.36804159
_cell_length_b   4.36804159
_cell_length_c   7.52218454
_cell_angle_alpha   73.12145094
_cell_angle_beta   73.12145094
_cell_angle_gamma   90.00000000
_symmetry_Int_Tables_number   1
_chemical_formula_structural   SrCaSi4
_chemical_formula_sum   'Sr1 Ca1 Si4'
_cell_volume   130.86476418
_cell_formula_units_Z   1
loop_
 _symmetry_equiv_pos_site_id
 _symmetry_equiv_pos_as_xyz
  1  'x, y, z'
loop_
 _atom_site_type_symbol
 _atom_site_label
 _atom_site_symmetry_multiplicity
 _atom_site_fract_x
 _atom_site_fract_y
 _atom_site_fract_z
 _atom_site_occupancy
  Sr  Sr0  1  0.00000000  0.00000000  0.00000000  1
  Ca  Ca1  1  0.75000000  0.25000000  0.50000000  1
  Si  Si2  1  0.33333597  0.83333597  0.33332807  1
  Si  Si3  1  0.41454419  0.41454419  0.17091161  1
  Si  Si4  1  0.16666403  0.66666403  0.66667193  1
  Si  Si5  1  0.58545581  0.58545581  0.82908839  1
