# generated using pymatgen
data_Tb2MgS4
_symmetry_space_group_name_H-M   'P 1'
_cell_length_a   3.80607642
_cell_length_b   6.54671908
_cell_length_c   12.91856512
_cell_angle_alpha   90.00000000
_cell_angle_beta   90.00000000
_cell_angle_gamma   73.10098641
_symmetry_Int_Tables_number   1
_chemical_formula_structural   Tb2MgS4
_chemical_formula_sum   'Tb4 Mg2 S8'
_cell_volume   307.99601171
_cell_formula_units_Z   2
loop_
 _symmetry_equiv_pos_site_id
 _symmetry_equiv_pos_as_xyz
  1  'x, y, z'
loop_
 _atom_site_type_symbol
 _atom_site_label
 _atom_site_symmetry_multiplicity
 _atom_site_fract_x
 _atom_site_fract_y
 _atom_site_fract_z
 _atom_site_occupancy
  Tb  Tb0  1  0.38154625  0.23690750  0.78372305  1
  Tb  Tb1  1  0.61845375  0.76309250  0.28372305  1
  Tb  Tb2  1  0.13750919  0.72498162  0.58223600  1
  Tb  Tb3  1  0.86249081  0.27501838  0.08223600  1
  Mg  Mg4  1  0.12590477  0.74819047  0.94608281  1
  Mg  Mg5  1  0.87409523  0.25180953  0.44608281  1
  S  S6  1  0.78980558  0.42038884  0.63476080  1
  S  S7  1  0.21019442  0.57961116  0.13476080  1
  S  S8  1  0.48935396  0.02129207  0.99690880  1
  S  S9  1  0.51064604  0.97870793  0.49690880  1
  S  S10  1  0.76183680  0.47632640  0.89527034  1
  S  S11  1  0.23816320  0.52367360  0.39527034  1
  S  S12  1  0.03715474  0.92569053  0.76901821  1
  S  S13  1  0.96284526  0.07430947  0.26901821  1
