# generated using pymatgen
data_Sr2La2Mg(RuO4)3
_symmetry_space_group_name_H-M   'P 1'
_cell_length_a   5.65412268
_cell_length_b   5.63960460
_cell_length_c   7.92038335
_cell_angle_alpha   90.14081163
_cell_angle_beta   89.97472514
_cell_angle_gamma   90.01527611
_symmetry_Int_Tables_number   1
_chemical_formula_structural   Sr2La2Mg(RuO4)3
_chemical_formula_sum   'Sr2 La2 Mg1 Ru3 O12'
_cell_volume   252.55659692
_cell_formula_units_Z   1
loop_
 _symmetry_equiv_pos_site_id
 _symmetry_equiv_pos_as_xyz
  1  'x, y, z'
loop_
 _atom_site_type_symbol
 _atom_site_label
 _atom_site_symmetry_multiplicity
 _atom_site_fract_x
 _atom_site_fract_y
 _atom_site_fract_z
 _atom_site_occupancy
  Sr  Sr0  1  0.49574628  0.52458136  0.24379910  1
  Sr  Sr1  1  0.99107447  0.97366908  0.75638796  1
  La  La2  1  0.01596915  0.03132019  0.24003914  1
  La  La3  1  0.51034013  0.47246123  0.75914539  1
  Mg  Mg4  1  0.00031386  0.50196255  0.99980395  1
  Ru  Ru5  1  0.50126307  0.99949350  0.50053393  1
  Ru  Ru6  1  0.00124815  0.49908359  0.49945735  1
  Ru  Ru7  1  0.49926842  0.99972843  0.99910286  1
  O  O8  1  0.93309144  0.48204997  0.25744617  1
  O  O9  1  0.58819603  0.99100218  0.24897821  1
  O  O10  1  0.08617614  0.51027905  0.74344456  1
  O  O11  1  0.42545479  0.01546057  0.75046374  1
  O  O12  1  0.71534781  0.72403112  0.95717989  1
  O  O13  1  0.76959984  0.23093533  0.54859129  1
  O  O14  1  0.27197312  0.26939948  0.45189582  1
  O  O15  1  0.22501772  0.78193827  0.04197433  1
  O  O16  1  0.27070590  0.26459737  0.04006729  1
  O  O17  1  0.21907345  0.78126153  0.45179021  1
  O  O18  1  0.71761564  0.71721873  0.54789344  1
  O  O19  1  0.76252459  0.22952647  0.96200537  1
