# generated using pymatgen
data_Sr6CaY2Ga3(Cu2O7)3
_symmetry_space_group_name_H-M   'P 1'
_cell_length_a   5.52140661
_cell_length_b   14.42393046
_cell_length_c   14.42393046
_cell_angle_alpha   111.82061564
_cell_angle_beta   78.96564972
_cell_angle_gamma   101.03435028
_symmetry_Int_Tables_number   1
_chemical_formula_structural   Sr6CaY2Ga3(Cu2O7)3
_chemical_formula_sum   'Sr12 Ca2 Y4 Ga6 Cu12 O42'
_cell_volume   1037.55255798
_cell_formula_units_Z   2
loop_
 _symmetry_equiv_pos_site_id
 _symmetry_equiv_pos_as_xyz
  1  'x, y, z'
loop_
 _atom_site_type_symbol
 _atom_site_label
 _atom_site_symmetry_multiplicity
 _atom_site_fract_x
 _atom_site_fract_y
 _atom_site_fract_z
 _atom_site_occupancy
  Sr  Sr0  1  0.83383936  0.51453614  0.81710546  1
  Sr  Sr1  1  0.83385633  0.18161970  0.48419095  1
  Sr  Sr2  1  0.83518822  0.84924280  0.14967333  1
  Sr  Sr3  1  0.16481178  0.14967333  0.84924280  1
  Sr  Sr4  1  0.16616064  0.81710546  0.51453614  1
  Sr  Sr5  1  0.16614367  0.48419095  0.18161970  1
  Sr  Sr6  1  0.63640868  0.31710546  0.01453614  1
  Sr  Sr7  1  0.63642757  0.98419095  0.68161970  1
  Sr  Sr8  1  0.63561875  0.64967333  0.34924280  1
  Sr  Sr9  1  0.36438125  0.34924280  0.64967333  1
  Sr  Sr10  1  0.36359132  0.01453614  0.31710546  1
  Sr  Sr11  1  0.36357243  0.68161970  0.98419095  1
  Ca  Ca12  1  0.00000000  0.00002008  0.00002008  1
  Ca  Ca13  1  0.50000000  0.50002008  0.50002008  1
  Y  Y14  1  -0.00000000  0.66496677  0.66496677  1
  Y  Y15  1  0.00000000  0.33504748  0.33504748  1
  Y  Y16  1  0.50000000  0.16496677  0.16496677  1
  Y  Y17  1  0.50000000  0.83504748  0.83504748  1
  Ga  Ga18  1  0.81819402  0.56872025  0.06872025  1
  Ga  Ga19  1  0.81844039  0.23545315  0.73545315  1
  Ga  Ga20  1  0.81802244  0.90187978  0.40187978  1
  Ga  Ga21  1  0.18155961  0.73545315  0.23545315  1
  Ga  Ga22  1  0.18197756  0.40187978  0.90187978  1
  Ga  Ga23  1  0.18180598  0.06872025  0.56872025  1
  Cu  Cu24  1  0.92644640  0.42621201  0.57393813  1
  Cu  Cu25  1  0.92642925  0.09229142  0.23994625  1
  Cu  Cu26  1  0.92647439  0.76017016  0.90782492  1
  Cu  Cu27  1  0.07357075  0.23994625  0.09229142  1
  Cu  Cu28  1  0.07352561  0.90782492  0.76017016  1
  Cu  Cu29  1  0.07355360  0.57393813  0.42621201  1
  Cu  Cu30  1  0.57417253  0.07393813  0.92621201  1
  Cu  Cu31  1  0.57408407  0.73994625  0.59229142  1
  Cu  Cu32  1  0.57412916  0.40782492  0.26017016  1
  Cu  Cu33  1  0.42591593  0.59229142  0.73994625  1
  Cu  Cu34  1  0.42587084  0.26017016  0.40782492  1
  Cu  Cu35  1  0.42582747  0.92621201  0.07393813  1
  O  O36  1  0.17676736  0.51831918  0.65208340  1
  O  O37  1  0.18519093  0.18493510  0.31504494  1
  O  O38  1  0.19002350  0.84789376  0.98168196  1
  O  O39  1  0.81480907  0.31504494  0.18493510  1
  O  O40  1  0.80997650  0.98168196  0.84789376  1
  O  O41  1  0.82323264  0.65208340  0.51831918  1
  O  O42  1  0.81053158  0.15208340  0.01831918  1
  O  O43  1  0.81530077  0.81504494  0.68493510  1
  O  O44  1  0.82381171  0.48168196  0.34789376  1
  O  O45  1  0.17618829  0.34789376  0.48168196  1
  O  O46  1  0.18946842  0.01831918  0.15208340  1
  O  O47  1  0.18469923  0.68493510  0.81504494  1
  O  O48  1  0.69379094  0.35207451  0.47779930  1
  O  O49  1  0.68190518  0.02196753  0.14759946  1
  O  O50  1  0.68948141  0.68866277  0.81107190  1
  O  O51  1  0.31809482  0.14759946  0.02196753  1
  O  O52  1  0.31051859  0.81107190  0.68866277  1
  O  O53  1  0.30620906  0.47779930  0.35207451  1
  O  O54  1  0.31189054  0.31107190  0.18866277  1
  O  O55  1  0.31951573  0.97779930  0.85207451  1
  O  O56  1  0.30753712  0.64759946  0.52196753  1
  O  O57  1  0.69246288  0.52196753  0.64759946  1
  O  O58  1  0.68810946  0.18866277  0.31107190  1
  O  O59  1  0.68048427  0.85207451  0.97779930  1
  O  O60  1  0.36780593  0.49606460  0.84828342  1
  O  O61  1  0.36783525  0.16257708  0.51477144  1
  O  O62  1  0.36825195  0.82915887  0.18167297  1
  O  O63  1  0.63174805  0.18167297  0.82915887  1
  O  O64  1  0.63219407  0.84828342  0.49606460  1
  O  O65  1  0.63216475  0.51477144  0.16257708  1
  O  O66  1  0.22002475  0.34828342  0.99606460  1
  O  O67  1  0.22002961  0.01477144  0.66257708  1
  O  O68  1  0.22076606  0.68167297  0.32915887  1
  O  O69  1  0.77923394  0.32915887  0.68167297  1
  O  O70  1  0.77997525  0.99606460  0.34828342  1
  O  O71  1  0.77997039  0.66257708  0.01477144  1
  O  O72  1  0.13363634  0.28407146  0.78407146  1
  O  O73  1  0.13279574  0.95086364  0.45086364  1
  O  O74  1  0.13284858  0.61756395  0.11756395  1
  O  O75  1  0.86720426  0.45086364  0.95086364  1
  O  O76  1  0.86715142  0.11756395  0.61756395  1
  O  O77  1  0.86636366  0.78407146  0.28407146  1
