# generated using pymatgen
data_Sr2PrCu3(PbO4)2
_symmetry_space_group_name_H-M   'P 1'
_cell_length_a   3.86580458
_cell_length_b   3.90250595
_cell_length_c   16.03698806
_cell_angle_alpha   91.01930927
_cell_angle_beta   89.44167977
_cell_angle_gamma   90.49068496
_symmetry_Int_Tables_number   1
_chemical_formula_structural   Sr2PrCu3(PbO4)2
_chemical_formula_sum   'Sr2 Pr1 Cu3 Pb2 O8'
_cell_volume   241.88093149
_cell_formula_units_Z   1
loop_
 _symmetry_equiv_pos_site_id
 _symmetry_equiv_pos_as_xyz
  1  'x, y, z'
loop_
 _atom_site_type_symbol
 _atom_site_label
 _atom_site_symmetry_multiplicity
 _atom_site_fract_x
 _atom_site_fract_y
 _atom_site_fract_z
 _atom_site_occupancy
  Sr  Sr0  1  -0.00212998  0.00783749  0.22406107  1
  Sr  Sr1  1  0.00212998  0.99216251  0.77593893  1
  Pr  Pr2  1  -0.00000000  -0.00000000  -0.00000000  1
  Cu  Cu3  1  0.49958533  0.50125376  0.11051908  1
  Cu  Cu4  1  0.50041467  0.49874624  0.88948092  1
  Cu  Cu5  1  -0.00000000  -0.00000000  0.50000000  1
  Pb  Pb6  1  0.49497727  0.49606630  0.38943661  1
  Pb  Pb7  1  0.50502273  0.50393370  0.61056339  1
  O  O8  1  0.00029699  0.50325191  0.09828782  1
  O  O9  1  0.50084450  0.00014174  0.09877856  1
  O  O10  1  0.99970301  0.49674809  0.90171218  1
  O  O11  1  0.49915550  0.99985826  0.90122144  1
  O  O12  1  0.49838643  0.51026801  0.25347583  1
  O  O13  1  0.50161357  0.48973199  0.74652417  1
  O  O14  1  0.97098078  0.09721801  0.38750693  1
  O  O15  1  0.02901922  0.90278199  0.61249307  1
