# generated using pymatgen
data_Sr7Mn7O20
_symmetry_space_group_name_H-M   'P 1'
_cell_length_a   3.88317118
_cell_length_b   8.68053867
_cell_length_c   12.44415283
_cell_angle_alpha   98.90562488
_cell_angle_beta   90.00000000
_cell_angle_gamma   90.00000000
_symmetry_Int_Tables_number   1
_chemical_formula_structural   Sr7Mn7O20
_chemical_formula_sum   'Sr7 Mn7 O20'
_cell_volume   414.41090166
_cell_formula_units_Z   1
loop_
 _symmetry_equiv_pos_site_id
 _symmetry_equiv_pos_as_xyz
  1  'x, y, z'
loop_
 _atom_site_type_symbol
 _atom_site_label
 _atom_site_symmetry_multiplicity
 _atom_site_fract_x
 _atom_site_fract_y
 _atom_site_fract_z
 _atom_site_occupancy
  Sr  Sr0  1  0.50000000  0.42525520  0.63820869  1
  Sr  Sr1  1  0.50000000  0.57474480  0.36179131  1
  Sr  Sr2  1  0.50000000  0.86006468  0.78290950  1
  Sr  Sr3  1  0.50000000  0.13993532  0.21709050  1
  Sr  Sr4  1  0.50000000  0.00000000  0.50000000  1
  Sr  Sr5  1  0.50000000  0.26565209  0.92334622  1
  Sr  Sr6  1  0.50000000  0.73434791  0.07665378  1
  Mn  Mn7  1  0.00000000  0.71417067  0.57069569  1
  Mn  Mn8  1  0.00000000  0.28582933  0.42930431  1
  Mn  Mn9  1  0.00000000  0.14311915  0.71466804  1
  Mn  Mn10  1  0.00000000  0.85688085  0.28533196  1
  Mn  Mn11  1  0.00000000  0.57348709  0.85241516  1
  Mn  Mn12  1  -0.00000000  0.42651291  0.14758484  1
  Mn  Mn13  1  0.00000000  0.00000000  -0.00000000  1
  O  O14  1  0.50000000  0.71428247  0.56950433  1
  O  O15  1  0.50000000  0.28571753  0.43049567  1
  O  O16  1  -0.00000000  0.93201174  0.63533405  1
  O  O17  1  -0.00000000  0.06798826  0.36466595  1
  O  O18  1  -0.00000000  0.04951703  0.85316737  1
  O  O19  1  0.00000000  0.95048297  0.14683263  1
  O  O20  1  0.00000000  0.35166634  0.80544689  1
  O  O21  1  -0.00000000  0.64833366  0.19455311  1
  O  O22  1  -0.00000000  0.64343619  0.71422316  1
  O  O23  1  -0.00000000  0.35656381  0.28577684  1
  O  O24  1  0.50000000  0.13922703  0.71775742  1
  O  O25  1  0.50000000  0.86077297  0.28224258  1
  O  O26  1  -0.00000000  0.22611966  0.58204192  1
  O  O27  1  -0.00000000  0.77388034  0.41795808  1
  O  O28  1  -0.00000000  0.77317270  0.94361889  1
  O  O29  1  -0.00000000  0.22682730  0.05638111  1
  O  O30  1  0.50000000  0.00000000  -0.00000000  1
  O  O31  1  0.50000000  0.56019229  0.87850541  1
  O  O32  1  0.50000000  0.43980771  0.12149459  1
  O  O33  1  -0.00000000  0.50000000  0.50000000  1
