# generated using pymatgen
data_Sr3Fe2TeO9
_symmetry_space_group_name_H-M   'P 1'
_cell_length_a   5.64676133
_cell_length_b   5.64676133
_cell_length_c   6.94105375
_cell_angle_alpha   90.00000000
_cell_angle_beta   90.00000000
_cell_angle_gamma   120.00000000
_symmetry_Int_Tables_number   1
_chemical_formula_structural   Sr3Fe2TeO9
_chemical_formula_sum   'Sr3 Fe2 Te1 O9'
_cell_volume   191.67033563
_cell_formula_units_Z   1
loop_
 _symmetry_equiv_pos_site_id
 _symmetry_equiv_pos_as_xyz
  1  'x, y, z'
loop_
 _atom_site_type_symbol
 _atom_site_label
 _atom_site_symmetry_multiplicity
 _atom_site_fract_x
 _atom_site_fract_y
 _atom_site_fract_z
 _atom_site_occupancy
  Sr  Sr0  1  0.33333300  0.66666700  0.65550558  1
  Sr  Sr1  1  0.00000000  -0.00000000  0.01116142  1
  Sr  Sr2  1  0.66666700  0.33333300  0.33333300  1
  Fe  Fe3  1  0.33333300  0.66666700  0.18157709  1
  Fe  Fe4  1  -0.00000000  0.00000000  0.48508991  1
  Te  Te5  1  0.66666700  0.33333300  0.83333300  1
  O  O6  1  0.66666700  0.83333300  0.33333300  1
  O  O7  1  0.34192154  0.17096127  0.67291828  1
  O  O8  1  0.99141146  0.49570573  0.99374872  1
  O  O9  1  0.82903873  0.65807846  0.67291828  1
  O  O10  1  0.50429427  0.00858854  0.99374872  1
  O  O11  1  0.16666700  0.33333300  0.33333300  1
  O  O12  1  0.82903873  0.17096127  0.67291828  1
  O  O13  1  0.50429427  0.49570573  0.99374872  1
  O  O14  1  0.16666700  0.83333300  0.33333300  1
