# generated using pymatgen
data_Sm2In3Cu
_symmetry_space_group_name_H-M   'P 1'
_cell_length_a   3.71301126
_cell_length_b   4.79159804
_cell_length_c   8.33785658
_cell_angle_alpha   89.97721893
_cell_angle_beta   90.00000000
_cell_angle_gamma   90.00000000
_symmetry_Int_Tables_number   1
_chemical_formula_structural   Sm2In3Cu
_chemical_formula_sum   'Sm2 In3 Cu1'
_cell_volume   148.34094143
_cell_formula_units_Z   1
loop_
 _symmetry_equiv_pos_site_id
 _symmetry_equiv_pos_as_xyz
  1  'x, y, z'
loop_
 _atom_site_type_symbol
 _atom_site_label
 _atom_site_symmetry_multiplicity
 _atom_site_fract_x
 _atom_site_fract_y
 _atom_site_fract_z
 _atom_site_occupancy
  Sm  Sm0  1  -0.00000000  0.99996161  0.00782156  1
  Sm  Sm1  1  -0.00000000  0.49994049  0.49611633  1
  In  In2  1  0.50000000  0.49986229  0.83730034  1
  In  In3  1  0.50000000  0.50009778  0.18273231  1
  In  In4  1  0.50000000  0.99994937  0.64667884  1
  Cu  Cu5  1  0.50000000  0.99998847  0.32935062  1
