# generated using pymatgen
data_Sr4CaHoCu6(PbO4)4
_symmetry_space_group_name_H-M   'P 1'
_cell_length_a   5.42261703
_cell_length_b   5.44628739
_cell_length_c   15.92428467
_cell_angle_alpha   90.14308802
_cell_angle_beta   90.57703912
_cell_angle_gamma   89.87724969
_symmetry_Int_Tables_number   1
_chemical_formula_structural   Sr4CaHoCu6(PbO4)4
_chemical_formula_sum   'Sr4 Ca1 Ho1 Cu6 Pb4 O16'
_cell_volume   470.26760982
_cell_formula_units_Z   1
loop_
 _symmetry_equiv_pos_site_id
 _symmetry_equiv_pos_as_xyz
  1  'x, y, z'
loop_
 _atom_site_type_symbol
 _atom_site_label
 _atom_site_symmetry_multiplicity
 _atom_site_fract_x
 _atom_site_fract_y
 _atom_site_fract_z
 _atom_site_occupancy
  Sr  Sr0  1  0.99765718  0.99861011  0.78143754  1
  Sr  Sr1  1  0.00234282  0.00138989  0.21856246  1
  Sr  Sr2  1  0.49817850  0.50034798  0.78001456  1
  Sr  Sr3  1  0.50182150  0.49965202  0.21998544  1
  Ca  Ca4  1  0.00000000  0.00000000  0.00000000  1
  Ho  Ho5  1  0.50000000  0.50000000  0.00000000  1
  Cu  Cu6  1  0.49979017  0.00015119  0.89468265  1
  Cu  Cu7  1  0.50020983  0.99984881  0.10531735  1
  Cu  Cu8  1  0.50000000  0.50000000  0.50000000  1
  Cu  Cu9  1  0.99972039  0.49983352  0.89458900  1
  Cu  Cu10  1  0.00027961  0.50016648  0.10541100  1
  Cu  Cu11  1  0.00000000  0.00000000  0.50000000  1
  Pb  Pb12  1  0.00412082  0.50363257  0.61119907  1
  Pb  Pb13  1  0.99587918  0.49636743  0.38880093  1
  Pb  Pb14  1  0.50266259  0.99038542  0.61119520  1
  Pb  Pb15  1  0.49733741  0.00961458  0.38880480  1
  O  O16  1  0.49732605  0.00479122  0.74791729  1
  O  O17  1  0.50267395  0.99520878  0.25208271  1
  O  O18  1  0.74425329  0.74423570  0.90521486  1
  O  O19  1  0.25574671  0.25576430  0.09478514  1
  O  O20  1  0.99690096  0.49488214  0.74801700  1
  O  O21  1  0.00309904  0.50511786  0.25198300  1
  O  O22  1  0.25556226  0.74463435  0.90491487  1
  O  O23  1  0.74443774  0.25536565  0.09508513  1
  O  O24  1  0.25544188  0.25540718  0.90558618  1
  O  O25  1  0.74455812  0.74459282  0.09441382  1
  O  O26  1  0.45085956  0.55282412  0.61421191  1
  O  O27  1  0.54914044  0.44717588  0.38578809  1
  O  O28  1  0.74442030  0.25577353  0.90544349  1
  O  O29  1  0.25557970  0.74422647  0.09455651  1
  O  O30  1  0.94278424  0.93339603  0.61306583  1
  O  O31  1  0.05721576  0.06660397  0.38693417  1
