# generated using pymatgen
data_CoB10(H13O4)2
_symmetry_space_group_name_H-M   'P 1'
_cell_length_a   6.67552678
_cell_length_b   7.30745387
_cell_length_c   18.51473132
_cell_angle_alpha   80.53052788
_cell_angle_beta   79.61415749
_cell_angle_gamma   62.82166998
_symmetry_Int_Tables_number   1
_chemical_formula_structural   CoB10(H13O4)2
_chemical_formula_sum   'Co2 B20 H52 O16'
_cell_volume   786.79267676
_cell_formula_units_Z   2
loop_
 _symmetry_equiv_pos_site_id
 _symmetry_equiv_pos_as_xyz
  1  'x, y, z'
loop_
 _atom_site_type_symbol
 _atom_site_label
 _atom_site_symmetry_multiplicity
 _atom_site_fract_x
 _atom_site_fract_y
 _atom_site_fract_z
 _atom_site_occupancy
  Co  Co0  1  -0.00000000  -0.00000000  0.50000000  1
  Co  Co1  1  0.50000000  0.50000000  -0.00000000  1
  B  B2  1  0.31277290  0.37997045  0.65465751  1
  B  B3  1  0.34740086  0.12002955  0.84534249  1
  B  B4  1  0.68722710  0.62002955  0.34534249  1
  B  B5  1  0.65259914  0.87997045  0.15465751  1
  B  B6  1  0.10411086  0.37102107  0.72127442  1
  B  B7  1  0.19640636  0.12897893  0.77872558  1
  B  B8  1  0.89588914  0.62897893  0.27872558  1
  B  B9  1  0.80359364  0.87102107  0.22127442  1
  B  B10  1  0.30362449  0.46797541  0.73548271  1
  B  B11  1  0.50708261  0.03202459  0.76451729  1
  B  B12  1  0.69637551  0.53202459  0.26451729  1
  B  B13  1  0.49291739  0.96797541  0.23548271  1
  B  B14  1  0.54134921  0.23417382  0.70133726  1
  B  B15  1  0.47686029  0.26582618  0.79866274  1
  B  B16  1  0.45865079  0.76582618  0.29866274  1
  B  B17  1  0.52313971  0.73417382  0.20133726  1
  B  B18  1  0.16740194  0.36170459  0.81266075  1
  B  B19  1  0.34176727  0.13829541  0.68733925  1
  B  B20  1  0.83259806  0.63829541  0.18733925  1
  B  B21  1  0.65823273  0.86170459  0.31266075  1
  H  H22  1  0.34271284  0.28037319  0.94384227  1
  H  H23  1  0.56692829  0.21962681  0.55615773  1
  H  H24  1  0.65728716  0.71962681  0.05615773  1
  H  H25  1  0.43307171  0.78037319  0.44384227  1
  H  H26  1  0.25915442  0.25670601  0.02903536  1
  H  H27  1  0.54489579  0.24329399  0.47096464  1
  H  H28  1  0.74084558  0.74329399  0.97096464  1
  H  H29  1  0.45510421  0.75670601  0.52903536  1
  H  H30  1  0.12562305  0.19572837  0.58403219  1
  H  H31  1  0.90538361  0.30427163  0.91596781  1
  H  H32  1  0.87437695  0.80427163  0.41596781  1
  H  H33  1  0.09461639  0.69572837  0.08403219  1
  H  H34  1  0.89398044  0.36565210  0.55707807  1
  H  H35  1  0.81671062  0.13434790  0.94292193  1
  H  H36  1  0.10601956  0.63434790  0.44292193  1
  H  H37  1  0.18328938  0.86565210  0.05707807  1
  H  H38  1  0.06599877  0.72287183  0.62784870  1
  H  H39  1  0.41671930  0.77712817  0.87215130  1
  H  H40  1  0.93400123  0.27712817  0.37215130  1
  H  H41  1  0.58328070  0.22287183  0.12784870  1
  H  H42  1  0.86460730  0.94029374  0.64654685  1
  H  H43  1  0.45144789  0.55970626  0.85345315  1
  H  H44  1  0.13539270  0.05970626  0.35345315  1
  H  H45  1  0.54855211  0.44029374  0.14654685  1
  H  H46  1  0.03263686  0.80146055  0.91052846  1
  H  H47  1  0.74462588  0.69853945  0.58947154  1
  H  H48  1  0.96736314  0.19853945  0.08947154  1
  H  H49  1  0.25537412  0.30146055  0.41052846  1
  H  H50  1  0.81842210  0.91907505  0.86756511  1
  H  H51  1  0.60506226  0.58092495  0.63243489  1
  H  H52  1  0.18157790  0.08092495  0.13243489  1
  H  H53  1  0.39493774  0.41907505  0.36756511  1
  H  H54  1  0.30204569  0.46311740  0.59279850  1
  H  H55  1  0.35796159  0.03688260  0.90720150  1
  H  H56  1  0.69795431  0.53688260  0.40720150  1
  H  H57  1  0.64203841  0.96311740  0.09279850  1
  H  H58  1  0.90927374  0.45838534  0.71011526  1
  H  H59  1  0.07777435  0.04161466  0.78988474  1
  H  H60  1  0.09072626  0.54161466  0.28988474  1
  H  H61  1  0.92222565  0.95838534  0.21011526  1
  H  H62  1  0.28462560  0.63969516  0.73600524  1
  H  H63  1  0.66032600  0.86030484  0.76399476  1
  H  H64  1  0.71537440  0.36030484  0.26399476  1
  H  H65  1  0.33967400  0.13969516  0.23600524  1
  H  H66  1  0.73026904  0.20272424  0.67298717  1
  H  H67  1  0.60598045  0.29727576  0.82701283  1
  H  H68  1  0.26973096  0.79727576  0.32701283  1
  H  H69  1  0.39401955  0.70272424  0.17298717  1
  H  H70  1  0.02320103  0.47973769  0.85420145  1
  H  H71  1  0.35714017  0.02026231  0.64579855  1
  H  H72  1  0.97679897  0.52026231  0.14579855  1
  H  H73  1  0.64285983  0.97973769  0.35420145  1
  O  O74  1  0.33003951  0.33076163  0.99122426  1
  O  O75  1  0.65202540  0.16923837  0.50877574  1
  O  O76  1  0.66996049  0.66923837  0.00877574  1
  O  O77  1  0.34797460  0.83076163  0.49122426  1
  O  O78  1  0.02645524  0.23294550  0.54544265  1
  O  O79  1  0.80484340  0.26705450  0.95455735  1
  O  O80  1  0.97354476  0.76705450  0.45455735  1
  O  O81  1  0.19515660  0.73294550  0.04544265  1
  O  O82  1  0.94302707  0.84789717  0.60693090  1
  O  O83  1  0.39785514  0.65210283  0.89306910  1
  O  O84  1  0.05697293  0.15210283  0.39306910  1
  O  O85  1  0.60214486  0.34789717  0.10693090  1
  O  O86  1  0.86689893  0.88520831  0.91688812  1
  O  O87  1  0.66899535  0.61479169  0.58311188  1
  O  O88  1  0.13310107  0.11479169  0.08311188  1
  O  O89  1  0.33100465  0.38520831  0.41688812  1
