# generated using pymatgen
data_Sr8CaY3Cu12(PbO4)8
_symmetry_space_group_name_H-M   'P 1'
_cell_length_a   7.68256347
_cell_length_b   7.67715625
_cell_length_c   16.87517680
_cell_angle_alpha   76.49355607
_cell_angle_beta   76.79438046
_cell_angle_gamma   90.52874726
_symmetry_Int_Tables_number   1
_chemical_formula_structural   Sr8CaY3Cu12(PbO4)8
_chemical_formula_sum   'Sr8 Ca1 Y3 Cu12 Pb8 O32'
_cell_volume   940.12294366
_cell_formula_units_Z   1
loop_
 _symmetry_equiv_pos_site_id
 _symmetry_equiv_pos_as_xyz
  1  'x, y, z'
loop_
 _atom_site_type_symbol
 _atom_site_label
 _atom_site_symmetry_multiplicity
 _atom_site_fract_x
 _atom_site_fract_y
 _atom_site_fract_z
 _atom_site_occupancy
  Sr  Sr0  1  0.10924901  0.11167897  0.78106790  1
  Sr  Sr1  1  0.61026518  0.61297374  0.77863630  1
  Sr  Sr2  1  0.38973482  0.38702626  0.22136370  1
  Sr  Sr3  1  0.89075099  0.88832103  0.21893210  1
  Sr  Sr4  1  0.11166699  0.61098831  0.77916537  1
  Sr  Sr5  1  0.61171007  0.11091718  0.77916462  1
  Sr  Sr6  1  0.38828993  0.88908282  0.22083538  1
  Sr  Sr7  1  0.88833301  0.38901169  0.22083463  1
  Ca  Ca8  1  -0.00000000  0.00000000  -0.00000000  1
  Y  Y9  1  -0.00000000  0.50000000  -0.00000000  1
  Y  Y10  1  0.50000000  0.00000000  -0.00000000  1
  Y  Y11  1  0.50000000  0.50000000  -0.00000000  1
  Cu  Cu12  1  0.80360665  0.80336874  0.89471195  1
  Cu  Cu13  1  0.30202431  0.30179795  0.89473636  1
  Cu  Cu14  1  0.19639335  0.19663126  0.10528805  1
  Cu  Cu15  1  0.69797569  0.69820205  0.10526364  1
  Cu  Cu16  1  0.24997799  0.75000884  0.50000148  1
  Cu  Cu17  1  0.75002201  0.24999116  0.49999852  1
  Cu  Cu18  1  0.30210838  0.80392552  0.89424737  1
  Cu  Cu19  1  0.80338788  0.30262227  0.89430377  1
  Cu  Cu20  1  0.69789162  0.19607448  0.10575263  1
  Cu  Cu21  1  0.19661212  0.69737773  0.10569623  1
  Cu  Cu22  1  0.24997415  0.25003298  0.50002162  1
  Cu  Cu23  1  0.75002585  0.74996702  0.49997838  1
  Pb  Pb24  1  0.44121690  0.94246686  0.61159677  1
  Pb  Pb25  1  0.94154428  0.44241563  0.61155651  1
  Pb  Pb26  1  0.55878310  0.05753314  0.38840323  1
  Pb  Pb27  1  0.05845572  0.55758437  0.38844349  1
  Pb  Pb28  1  0.93748934  0.94709781  0.61136718  1
  Pb  Pb29  1  0.43716079  0.44665447  0.61134635  1
  Pb  Pb30  1  0.06251066  0.05290219  0.38863282  1
  Pb  Pb31  1  0.56283921  0.55334553  0.38865365  1
  O  O32  1  0.29787153  0.54560511  0.90783879  1
  O  O33  1  0.79076408  0.04752662  0.90446577  1
  O  O34  1  0.20923592  0.95247338  0.09553423  1
  O  O35  1  0.70212847  0.45439489  0.09216121  1
  O  O36  1  0.87886083  0.87313477  0.74827706  1
  O  O37  1  0.38029542  0.37459395  0.74820578  1
  O  O38  1  0.12113917  0.12686523  0.25172294  1
  O  O39  1  0.61970458  0.62540605  0.25179422  1
  O  O40  1  0.79409428  0.54587694  0.90857128  1
  O  O41  1  0.30445326  0.04753661  0.90526845  1
  O  O42  1  0.69554674  0.95246339  0.09473155  1
  O  O43  1  0.20590572  0.45412306  0.09142872  1
  O  O44  1  0.04780816  0.30497029  0.90458417  1
  O  O45  1  0.54633911  0.79469410  0.90780928  1
  O  O46  1  0.45366089  0.20530590  0.09219072  1
  O  O47  1  0.95219184  0.69502971  0.09541583  1
  O  O48  1  0.37443890  0.87983715  0.74861032  1
  O  O49  1  0.87295084  0.38134376  0.74856553  1
  O  O50  1  0.62556110  0.12016285  0.25138968  1
  O  O51  1  0.12704916  0.61865624  0.25143447  1
  O  O52  1  0.17744864  0.25254583  0.61313265  1
  O  O53  1  0.67749908  0.75267103  0.61300374  1
  O  O54  1  0.32250092  0.24732897  0.38699626  1
  O  O55  1  0.82255136  0.74745417  0.38686735  1
  O  O56  1  0.04719897  0.79071624  0.90503241  1
  O  O57  1  0.54540694  0.29780636  0.90848170  1
  O  O58  1  0.45459306  0.70219364  0.09151830  1
  O  O59  1  0.95280103  0.20928376  0.09496759  1
  O  O60  1  0.74601573  0.18679373  0.61392995  1
  O  O61  1  0.24606321  0.68680284  0.61393232  1
  O  O62  1  0.75393679  0.31319716  0.38606768  1
  O  O63  1  0.25398427  0.81320627  0.38607005  1
