# generated using pymatgen
data_Sr4CaYCu6(PbO4)4
_symmetry_space_group_name_H-M   'P 1'
_cell_length_a   5.40918236
_cell_length_b   5.43484800
_cell_length_c   15.91871111
_cell_angle_alpha   90.16169417
_cell_angle_beta   90.12197866
_cell_angle_gamma   89.17890813
_symmetry_Int_Tables_number   1
_chemical_formula_structural   Sr4CaYCu6(PbO4)4
_chemical_formula_sum   'Sr4 Ca1 Y1 Cu6 Pb4 O16'
_cell_volume   467.92866756
_cell_formula_units_Z   1
loop_
 _symmetry_equiv_pos_site_id
 _symmetry_equiv_pos_as_xyz
  1  'x, y, z'
loop_
 _atom_site_type_symbol
 _atom_site_label
 _atom_site_symmetry_multiplicity
 _atom_site_fract_x
 _atom_site_fract_y
 _atom_site_fract_z
 _atom_site_occupancy
  Sr  Sr0  1  0.49871824  0.49852917  0.78024551  1
  Sr  Sr1  1  0.50128176  0.50147083  0.21975449  1
  Sr  Sr2  1  0.99922684  0.99866176  0.78258308  1
  Sr  Sr3  1  0.00077316  0.00133824  0.21741692  1
  Ca  Ca4  1  0.00000000  -0.00000000  0.00000000  1
  Y  Y5  1  0.50000000  0.50000000  0.00000000  1
  Cu  Cu6  1  0.50000000  0.50000000  0.50000000  1
  Cu  Cu7  1  0.49984132  0.00030530  0.89462251  1
  Cu  Cu8  1  0.50015868  0.99969470  0.10537749  1
  Cu  Cu9  1  0.00000000  -0.00000000  0.50000000  1
  Cu  Cu10  1  0.00011228  0.49939921  0.89483701  1
  Cu  Cu11  1  0.99988772  0.50060079  0.10516299  1
  Pb  Pb12  1  0.50656436  0.98716653  0.61209093  1
  Pb  Pb13  1  0.49343564  0.01283347  0.38790907  1
  Pb  Pb14  1  0.98842006  0.50311225  0.61216585  1
  Pb  Pb15  1  0.01157994  0.49688775  0.38783415  1
  O  O16  1  0.25421539  0.74572330  0.90368245  1
  O  O17  1  0.74578461  0.25427670  0.09631755  1
  O  O18  1  0.25512633  0.25488431  0.90701328  1
  O  O19  1  0.74487367  0.74511569  0.09298672  1
  O  O20  1  0.49460071  0.00673984  0.74881114  1
  O  O21  1  0.50539929  0.99326016  0.25118886  1
  O  O22  1  0.00375900  0.49089773  0.74870000  1
  O  O23  1  0.99624100  0.50910227  0.25130000  1
  O  O24  1  0.74435530  0.74445728  0.90521137  1
  O  O25  1  0.25564470  0.25554272  0.09478863  1
  O  O26  1  0.95396971  0.94071791  0.61399241  1
  O  O27  1  0.04603029  0.05928209  0.38600759  1
  O  O28  1  0.74573204  0.25410569  0.90411347  1
  O  O29  1  0.25426796  0.74589431  0.09588653  1
  O  O30  1  0.53205576  0.54872031  0.61497095  1
  O  O31  1  0.46794424  0.45127969  0.38502905  1
