# generated using pymatgen
data_Rb12Sn2Sb6O
_symmetry_space_group_name_H-M   'P 1'
_cell_length_a   6.34861940
_cell_length_b   12.56896102
_cell_length_c   12.56896102
_cell_angle_alpha   120.01358854
_cell_angle_beta   89.99901886
_cell_angle_gamma   90.00098114
_symmetry_Int_Tables_number   1
_chemical_formula_structural   Rb12Sn2Sb6O
_chemical_formula_sum   'Rb12 Sn2 Sb6 O1'
_cell_volume   868.45875755
_cell_formula_units_Z   1
loop_
 _symmetry_equiv_pos_site_id
 _symmetry_equiv_pos_as_xyz
  1  'x, y, z'
loop_
 _atom_site_type_symbol
 _atom_site_label
 _atom_site_symmetry_multiplicity
 _atom_site_fract_x
 _atom_site_fract_y
 _atom_site_fract_z
 _atom_site_occupancy
  Rb  Rb0  1  0.75064129  0.54583174  0.09164641  1
  Rb  Rb1  1  0.75063558  0.54582052  0.45417948  1
  Rb  Rb2  1  0.75064129  0.90835359  0.45416826  1
  Rb  Rb3  1  0.24935871  0.45416826  0.90835359  1
  Rb  Rb4  1  0.24936442  0.45417948  0.54582052  1
  Rb  Rb5  1  0.24935871  0.09164641  0.54583174  1
  Rb  Rb6  1  0.72567507  0.88852014  0.77704134  1
  Rb  Rb7  1  0.72568050  0.88851979  0.11148021  1
  Rb  Rb8  1  0.72567507  0.22295866  0.11147986  1
  Rb  Rb9  1  0.27432493  0.11147986  0.22295866  1
  Rb  Rb10  1  0.27431950  0.11148021  0.88851979  1
  Rb  Rb11  1  0.27432493  0.77704134  0.88852014  1
  Sn  Sn12  1  0.24972387  0.66665797  0.33334203  1
  Sn  Sn13  1  0.75027613  0.33334203  0.66665797  1
  Sb  Sb14  1  0.75359941  0.20710930  0.41418928  1
  Sb  Sb15  1  0.75360076  0.20710304  0.79289696  1
  Sb  Sb16  1  0.75359941  0.58581072  0.79289070  1
  Sb  Sb17  1  0.24640059  0.79289070  0.58581072  1
  Sb  Sb18  1  0.24639924  0.79289696  0.20710304  1
  Sb  Sb19  1  0.24640059  0.41418928  0.20710930  1
  O  O20  1  0.50000000  -0.00000000  -0.00000000  1
