# generated using pymatgen
data_Pr2(MoO4)3
_symmetry_space_group_name_H-M   'P 1'
_cell_length_a   7.06754931
_cell_length_b   7.06754931
_cell_length_c   12.07932938
_cell_angle_alpha   80.16719611
_cell_angle_beta   99.83280389
_cell_angle_gamma   65.32758860
_symmetry_Int_Tables_number   1
_chemical_formula_structural   Pr2(MoO4)3
_chemical_formula_sum   'Pr4 Mo6 O24'
_cell_volume   520.11292395
_cell_formula_units_Z   2
loop_
 _symmetry_equiv_pos_site_id
 _symmetry_equiv_pos_as_xyz
  1  'x, y, z'
loop_
 _atom_site_type_symbol
 _atom_site_label
 _atom_site_symmetry_multiplicity
 _atom_site_fract_x
 _atom_site_fract_y
 _atom_site_fract_z
 _atom_site_occupancy
  Pr  Pr0  1  0.79689155  0.45561544  0.58865515  1
  Pr  Pr1  1  0.45561544  0.79689155  0.91134485  1
  Pr  Pr2  1  0.54438456  0.20310845  0.08865515  1
  Pr  Pr3  1  0.20310845  0.54438456  0.41134485  1
  Mo  Mo4  1  0.28742978  0.96141502  0.57652217  1
  Mo  Mo5  1  0.96141502  0.28742978  0.92347783  1
  Mo  Mo6  1  0.62498575  0.62498575  0.25000000  1
  Mo  Mo7  1  0.71257022  0.03858498  0.42347783  1
  Mo  Mo8  1  0.37501425  0.37501425  0.75000000  1
  Mo  Mo9  1  0.03858498  0.71257022  0.07652217  1
  O  O10  1  0.85878642  0.24662287  0.78840639  1
  O  O11  1  0.53720118  0.55395654  0.11794010  1
  O  O12  1  0.18155433  0.87297871  0.46238766  1
  O  O13  1  0.24662287  0.85878642  0.71159361  1
  O  O14  1  0.87297871  0.18155433  0.03761234  1
  O  O15  1  0.55395654  0.53720118  0.38205990  1
  O  O16  1  0.48515868  0.08952187  0.78354879  1
  O  O17  1  0.17308330  0.42459005  0.10232692  1
  O  O18  1  0.84647539  0.73858202  0.45669296  1
  O  O19  1  0.08952187  0.48515868  0.71645121  1
  O  O20  1  0.73858202  0.84647539  0.04330704  1
  O  O21  1  0.42459005  0.17308330  0.39767308  1
  O  O22  1  0.46279882  0.44604346  0.88205990  1
  O  O23  1  0.14121358  0.75337713  0.21159361  1
  O  O24  1  0.81844567  0.12702129  0.53761234  1
  O  O25  1  0.12702129  0.81844567  0.96238766  1
  O  O26  1  0.75337713  0.14121358  0.28840639  1
  O  O27  1  0.44604346  0.46279882  0.61794010  1
  O  O28  1  0.82691670  0.57540995  0.89767308  1
  O  O29  1  0.51484132  0.91047813  0.21645121  1
  O  O30  1  0.15352461  0.26141798  0.54330704  1
  O  O31  1  0.26141798  0.15352461  0.95669296  1
  O  O32  1  0.91047813  0.51484132  0.28354879  1
  O  O33  1  0.57540995  0.82691670  0.60232692  1
