# generated using pymatgen
data_PrMg3Ni8
_symmetry_space_group_name_H-M   'P 1'
_cell_length_a   4.92232732
_cell_length_b   4.92232733
_cell_length_c   8.51882749
_cell_angle_alpha   73.20736117
_cell_angle_beta   90.00000000
_cell_angle_gamma   119.99999995
_symmetry_Int_Tables_number   1
_chemical_formula_structural   PrMg3Ni8
_chemical_formula_sum   'Pr1 Mg3 Ni8'
_cell_volume   168.51214642
_cell_formula_units_Z   1
loop_
 _symmetry_equiv_pos_site_id
 _symmetry_equiv_pos_as_xyz
  1  'x, y, z'
loop_
 _atom_site_type_symbol
 _atom_site_label
 _atom_site_symmetry_multiplicity
 _atom_site_fract_x
 _atom_site_fract_y
 _atom_site_fract_z
 _atom_site_occupancy
  Pr  Pr0  1  0.99954776  0.99909552  0.00135672  1
  Mg  Mg1  1  0.50060352  0.00120703  0.49818945  1
  Mg  Mg2  1  0.87084222  0.74168444  0.38747333  1
  Mg  Mg3  1  0.38053674  0.76107349  0.85838977  1
  Ni  Ni4  1  0.43561172  0.36797398  0.19641430  1
  Ni  Ni5  1  0.93779146  0.38187318  0.68033537  1
  Ni  Ni6  1  0.43561172  0.87122343  0.19641430  1
  Ni  Ni7  1  0.93779146  0.87558291  0.68033537  1
  Ni  Ni8  1  0.18712676  0.37425352  0.43861972  1
  Ni  Ni9  1  0.68809267  0.37618535  0.93572198  1
  Ni  Ni10  1  0.93236226  0.36797398  0.19641430  1
  Ni  Ni11  1  0.44408172  0.38187318  0.68033537  1
