# generated using pymatgen
data_Ni15Mo17P12
_symmetry_space_group_name_H-M   'P 1'
_cell_length_a   7.03780220
_cell_length_b   7.05802051
_cell_length_c   13.33494661
_cell_angle_alpha   98.52020639
_cell_angle_beta   87.04638769
_cell_angle_gamma   60.29541775
_symmetry_Int_Tables_number   1
_chemical_formula_structural   Ni15Mo17P12
_chemical_formula_sum   'Ni15 Mo17 P12'
_cell_volume   562.94251773
_cell_formula_units_Z   1
loop_
 _symmetry_equiv_pos_site_id
 _symmetry_equiv_pos_as_xyz
  1  'x, y, z'
loop_
 _atom_site_type_symbol
 _atom_site_label
 _atom_site_symmetry_multiplicity
 _atom_site_fract_x
 _atom_site_fract_y
 _atom_site_fract_z
 _atom_site_occupancy
  Ni  Ni0  1  0.78119787  0.83135322  0.25116033  1
  Ni  Ni1  1  0.77992377  0.33318347  0.75068999  1
  Ni  Ni2  1  0.22007623  0.66681653  0.24931001  1
  Ni  Ni3  1  0.21880213  0.16864678  0.74883967  1
  Ni  Ni4  1  0.36497765  0.96605205  0.25051842  1
  Ni  Ni5  1  0.36451663  0.46685160  0.75108400  1
  Ni  Ni6  1  0.63548337  0.53314840  0.24891600  1
  Ni  Ni7  1  0.63502235  0.03394795  0.74948158  1
  Ni  Ni8  1  0.50053921  0.25144205  0.25099452  1
  Ni  Ni9  1  0.49946079  0.74855795  0.74900548  1
  Ni  Ni10  1  0.64430051  0.70375927  0.08438112  1
  Ni  Ni11  1  0.64374951  0.20449867  0.58465769  1
  Ni  Ni12  1  0.35625049  0.79550133  0.41534231  1
  Ni  Ni13  1  0.35569949  0.29624073  0.91561888  1
  Ni  Ni14  1  0.00000000  0.50000000  0.50000000  1
  Mo  Mo15  1  0.94162450  0.08496685  0.22220689  1
  Mo  Mo16  1  0.94174224  0.58687649  0.71432523  1
  Mo  Mo17  1  0.05825776  0.41312351  0.28567477  1
  Mo  Mo18  1  0.05837550  0.91503315  0.77779311  1
  Mo  Mo19  1  0.70328600  0.36865686  0.42106169  1
  Mo  Mo20  1  0.69862838  0.86641958  0.91850522  1
  Mo  Mo21  1  0.30137162  0.13358042  0.08149478  1
  Mo  Mo22  1  0.29671400  0.63134314  0.57893831  1
  Mo  Mo23  1  0.43154053  0.14845182  0.42944741  1
  Mo  Mo24  1  0.44110015  0.64215707  0.92782121  1
  Mo  Mo25  1  0.55889985  0.35784293  0.07217879  1
  Mo  Mo26  1  0.56845947  0.85154818  0.57055259  1
  Mo  Mo27  1  0.07569006  0.60871942  0.07608430  1
  Mo  Mo28  1  0.07521121  0.11594095  0.57524909  1
  Mo  Mo29  1  0.92478879  0.88405905  0.42475091  1
  Mo  Mo30  1  0.92430994  0.39128058  0.92391570  1
  Mo  Mo31  1  0.00000000  0.00000000  -0.00000000  1
  P  P32  1  0.70193583  0.98467284  0.11125530  1
  P  P33  1  0.70819405  0.48266283  0.60709355  1
  P  P34  1  0.29180595  0.51733717  0.39290645  1
  P  P35  1  0.29806417  0.01532716  0.88874470  1
  P  P36  1  0.29868561  0.78446090  0.11644299  1
  P  P37  1  0.29896976  0.28355182  0.61386411  1
  P  P38  1  0.70103024  0.71644818  0.38613589  1
  P  P39  1  0.70131439  0.21553910  0.88355701  1
  P  P40  1  0.09696349  0.11866852  0.38492706  1
  P  P41  1  0.09715374  0.61769011  0.88164238  1
  P  P42  1  0.90284626  0.38230989  0.11835762  1
  P  P43  1  0.90303651  0.88133148  0.61507294  1
