# generated using pymatgen
data_PtSeS
_symmetry_space_group_name_H-M   'P 1'
_cell_length_a   3.68251775
_cell_length_b   3.68244898
_cell_length_c   5.42637962
_cell_angle_alpha   89.99998012
_cell_angle_beta   89.99955704
_cell_angle_gamma   119.99929906
_symmetry_Int_Tables_number   1
_chemical_formula_structural   PtSeS
_chemical_formula_sum   'Pt1 Se1 S1'
_cell_volume   63.72729130
_cell_formula_units_Z   1
loop_
 _symmetry_equiv_pos_site_id
 _symmetry_equiv_pos_as_xyz
  1  'x, y, z'
loop_
 _atom_site_type_symbol
 _atom_site_label
 _atom_site_symmetry_multiplicity
 _atom_site_fract_x
 _atom_site_fract_y
 _atom_site_fract_z
 _atom_site_occupancy
  Pt  Pt0  1  -0.00000239  -0.00000118  0.00806858  1
  Se  Se1  1  0.66666173  0.33333056  0.76167034  1
  S  S2  1  0.33334066  0.66667062  0.23026109  1
