# generated using pymatgen
data_Sr2YCu2BiPbO8
_symmetry_space_group_name_H-M   'P 1'
_cell_length_a   5.40566488
_cell_length_b   5.44881089
_cell_length_c   31.79461643
_cell_angle_alpha   90.00000000
_cell_angle_beta   90.00000000
_cell_angle_gamma   90.07490534
_symmetry_Int_Tables_number   1
_chemical_formula_structural   Sr2YCu2BiPbO8
_chemical_formula_sum   'Sr8 Y4 Cu8 Bi4 Pb4 O32'
_cell_volume   936.49200163
_cell_formula_units_Z   4
loop_
 _symmetry_equiv_pos_site_id
 _symmetry_equiv_pos_as_xyz
  1  'x, y, z'
loop_
 _atom_site_type_symbol
 _atom_site_label
 _atom_site_symmetry_multiplicity
 _atom_site_fract_x
 _atom_site_fract_y
 _atom_site_fract_z
 _atom_site_occupancy
  Sr  Sr0  1  0.46760569  0.75432548  0.36125642  1
  Sr  Sr1  1  0.03130365  0.75464215  0.63849349  1
  Sr  Sr2  1  0.46869635  0.74535785  0.13849349  1
  Sr  Sr3  1  0.03239431  0.74567452  0.86125642  1
  Sr  Sr4  1  0.53239431  0.24567452  0.63874358  1
  Sr  Sr5  1  0.96869635  0.24535785  0.36150651  1
  Sr  Sr6  1  0.53130365  0.25464215  0.86150651  1
  Sr  Sr7  1  0.96760569  0.25432548  0.13874358  1
  Y  Y8  1  0.47808874  0.74919821  0.24995503  1
  Y  Y9  1  0.02191126  0.75080179  0.74995503  1
  Y  Y10  1  0.52191126  0.25080179  0.75004497  1
  Y  Y11  1  0.97808874  0.24919821  0.25004497  1
  Cu  Cu12  1  0.97366613  0.74854242  0.30110486  1
  Cu  Cu13  1  0.52656405  0.75090835  0.69639873  1
  Cu  Cu14  1  0.97343595  0.74909165  0.19639873  1
  Cu  Cu15  1  0.52633387  0.75145758  0.80110486  1
  Cu  Cu16  1  0.02633387  0.25145758  0.69889514  1
  Cu  Cu17  1  0.47343595  0.24909165  0.30360127  1
  Cu  Cu18  1  0.02656405  0.25090835  0.80360127  1
  Cu  Cu19  1  0.47366613  0.24854242  0.19889514  1
  Bi  Bi20  1  0.05835218  0.28005952  0.55483669  1
  Bi  Bi21  1  0.44164782  0.21994048  0.05483669  1
  Bi  Bi22  1  0.94164782  0.71994048  0.44516331  1
  Bi  Bi23  1  0.55835218  0.78005952  0.94516331  1
  Pb  Pb24  1  0.45031300  0.26630461  0.44566010  1
  Pb  Pb25  1  0.04968700  0.23369539  0.94566010  1
  Pb  Pb26  1  0.54968700  0.73369539  0.55433990  1
  Pb  Pb27  1  0.95031300  0.76630461  0.05433990  1
  O  O28  1  0.24163856  0.52020961  0.29565717  1
  O  O29  1  0.25434603  0.51960925  0.70400620  1
  O  O30  1  0.24565397  0.98039075  0.20400620  1
  O  O31  1  0.25836144  0.97979039  0.79565717  1
  O  O32  1  0.75836144  0.47979039  0.70434283  1
  O  O33  1  0.74565397  0.48039075  0.29599380  1
  O  O34  1  0.75434603  0.01960925  0.79599380  1
  O  O35  1  0.74163856  0.02020961  0.20434283  1
  O  O36  1  0.70437495  0.97584310  0.29752637  1
  O  O37  1  0.79901870  0.98244429  0.70289927  1
  O  O38  1  0.70098130  0.51755571  0.20289927  1
  O  O39  1  0.79562505  0.52415690  0.79752637  1
  O  O40  1  0.29562505  0.02415690  0.70247363  1
  O  O41  1  0.20098130  0.01755571  0.29710073  1
  O  O42  1  0.29901870  0.48244429  0.79710073  1
  O  O43  1  0.20437495  0.47584310  0.20247363  1
  O  O44  1  0.98860986  0.77013050  0.37942516  1
  O  O45  1  0.52408315  0.76217446  0.62375017  1
  O  O46  1  0.97591685  0.73782554  0.12375017  1
  O  O47  1  0.51139014  0.72986950  0.87942516  1
  O  O48  1  0.01139014  0.22986950  0.62057484  1
  O  O49  1  0.47591685  0.23782554  0.37624983  1
  O  O50  1  0.02408315  0.26217446  0.87624983  1
  O  O51  1  0.48860986  0.27013050  0.12057484  1
  O  O52  1  0.55070443  0.67949456  0.43848032  1
  O  O53  1  0.98181900  0.66177247  0.56000949  1
  O  O54  1  0.51818100  0.83822753  0.06000949  1
  O  O55  1  0.94929557  0.82050544  0.93848032  1
  O  O56  1  0.44929557  0.32050544  0.56151968  1
  O  O57  1  0.01818100  0.33822753  0.43999051  1
  O  O58  1  0.48181900  0.16177247  0.93999051  1
  O  O59  1  0.05070443  0.17949456  0.06151968  1
