# generated using pymatgen
data_Sc3(Ga4Fe5)4
_symmetry_space_group_name_H-M   'P 1'
_cell_length_a   5.01348624
_cell_length_b   6.50179840
_cell_length_c   18.24321809
_cell_angle_alpha   93.86234291
_cell_angle_beta   82.10218055
_cell_angle_gamma   112.67764799
_symmetry_Int_Tables_number   1
_chemical_formula_structural   Sc3(Ga4Fe5)4
_chemical_formula_sum   'Sc3 Ga16 Fe20'
_cell_volume   543.42179502
_cell_formula_units_Z   1
loop_
 _symmetry_equiv_pos_site_id
 _symmetry_equiv_pos_as_xyz
  1  'x, y, z'
loop_
 _atom_site_type_symbol
 _atom_site_label
 _atom_site_symmetry_multiplicity
 _atom_site_fract_x
 _atom_site_fract_y
 _atom_site_fract_z
 _atom_site_occupancy
  Sc  Sc0  1  0.00105185  0.99787003  0.99576632  1
  Sc  Sc1  1  0.33434389  0.00517345  0.33648467  1
  Sc  Sc2  1  0.66925961  0.00403715  0.66551894  1
  Ga  Ga3  1  0.56003651  0.33983845  0.21976644  1
  Ga  Ga4  1  0.89042445  0.33621765  0.55536875  1
  Ga  Ga5  1  0.22379511  0.33566688  0.88807565  1
  Ga  Ga6  1  0.77297540  0.66012149  0.11417170  1
  Ga  Ga7  1  0.10264728  0.65369689  0.44840233  1
  Ga  Ga8  1  0.43627345  0.65417582  0.78162793  1
  Ga  Ga9  1  0.10586343  0.31955520  0.10782933  1
  Ga  Ga10  1  0.43923298  0.32592869  0.44746272  1
  Ga  Ga11  1  0.77129443  0.32305976  0.78046989  1
  Ga  Ga12  1  0.22501211  0.67751802  0.22749479  1
  Ga  Ga13  1  0.54937759  0.65793909  0.55918390  1
  Ga  Ga14  1  0.88253654  0.65597809  0.89090400  1
  Ga  Ga15  1  0.38393758  0.82594346  0.05806730  1
  Ga  Ga16  1  0.71499446  0.82275238  0.39276446  1
  Ga  Ga17  1  0.04910962  0.82342024  0.72520101  1
  Ga  Ga18  1  0.95010389  0.17500823  0.27480045  1
  Fe  Fe19  1  0.16666480  0.99887661  0.16671928  1
  Fe  Fe20  1  0.49585062  0.99326108  0.50224377  1
  Fe  Fe21  1  0.83063073  0.99234685  0.83457425  1
  Fe  Fe22  1  0.66549352  0.99887661  0.16671928  1
  Fe  Fe23  1  0.99516668  0.99326108  0.50224377  1
  Fe  Fe24  1  0.32714087  0.99234685  0.83457425  1
  Fe  Fe25  1  0.99699200  0.49735288  0.00120655  1
  Fe  Fe26  1  0.33276996  0.49689833  0.33483108  1
  Fe  Fe27  1  0.66390447  0.49402005  0.66931105  1
  Fe  Fe28  1  0.49915433  0.49735288  0.00120655  1
  Fe  Fe29  1  0.82929629  0.49689833  0.33483108  1
  Fe  Fe30  1  0.16080552  0.49402005  0.66931105  1
  Fe  Fe31  1  0.31925261  0.22909061  0.59058440  1
  Fe  Fe32  1  0.65211121  0.22701385  0.92279243  1
  Fe  Fe33  1  0.75057941  0.75362936  0.25247053  1
  Fe  Fe34  1  0.08866623  0.76445465  0.58712118  1
  Fe  Fe35  1  0.42236029  0.76479416  0.92007458  1
  Fe  Fe36  1  0.58146903  0.24260025  0.07966120  1
  Fe  Fe37  1  0.91281672  0.24038922  0.41475678  1
  Fe  Fe38  1  0.24660450  0.23861534  0.74540634  1
