# generated using pymatgen
data_Sb2C3OF18
_symmetry_space_group_name_H-M   'P 1'
_cell_length_a   8.90741650
_cell_length_b   10.66983833
_cell_length_c   10.39520187
_cell_angle_alpha   83.76511680
_cell_angle_beta   68.48555275
_cell_angle_gamma   63.58581225
_symmetry_Int_Tables_number   1
_chemical_formula_structural   Sb2C3OF18
_chemical_formula_sum   'Sb4 C6 O2 F36'
_cell_volume   821.40947099
_cell_formula_units_Z   2
loop_
 _symmetry_equiv_pos_site_id
 _symmetry_equiv_pos_as_xyz
  1  'x, y, z'
loop_
 _atom_site_type_symbol
 _atom_site_label
 _atom_site_symmetry_multiplicity
 _atom_site_fract_x
 _atom_site_fract_y
 _atom_site_fract_z
 _atom_site_occupancy
  Sb  Sb0  1  0.37356327  0.80852518  0.08127283  1
  Sb  Sb1  1  0.62643673  0.19147482  0.91872717  1
  Sb  Sb2  1  0.98151506  0.67451659  0.18292118  1
  Sb  Sb3  1  0.01848494  0.32548341  0.81707882  1
  C  C4  1  0.41546056  0.81424330  0.59101872  1
  C  C5  1  0.58453944  0.18575670  0.40898128  1
  C  C6  1  0.27982504  0.76915325  0.70188066  1
  C  C7  1  0.72017496  0.23084675  0.29811934  1
  C  C8  1  0.04993753  0.70201555  0.51978759  1
  C  C9  1  0.95006247  0.29798445  0.48021241  1
  O  O10  1  0.29866944  0.65179416  0.71833077  1
  O  O11  1  0.70133056  0.34820584  0.28166923  1
  F  F12  1  0.23115575  0.95376295  0.99522821  1
  F  F13  1  0.76884425  0.04623705  0.00477179  1
  F  F14  1  0.45774324  0.65733486  0.18973034  1
  F  F15  1  0.54225676  0.34266514  0.81026966  1
  F  F16  1  0.40950742  0.67909685  0.94859045  1
  F  F17  1  0.59049258  0.32090315  0.05140955  1
  F  F18  1  0.27348326  0.93336307  0.23866843  1
  F  F19  1  0.72651674  0.06663693  0.76133157  1
  F  F20  1  0.59058571  0.82417486  0.99338642  1
  F  F21  1  0.40941429  0.17582514  0.00661358  1
  F  F22  1  0.11052785  0.78320407  0.18550194  1
  F  F23  1  0.88947215  0.21679593  0.81449806  1
  F  F24  1  0.77395213  0.83924413  0.26603478  1
  F  F25  1  0.22604787  0.16075587  0.73396522  1
  F  F26  1  0.84675131  0.57158889  0.25341412  1
  F  F27  1  0.15324869  0.42841111  0.74658588  1
  F  F28  1  0.96048316  0.68190108  0.44422860  1
  F  F29  1  0.03951684  0.31809892  0.55577140  1
  F  F30  1  0.00939347  0.68042047  0.99570429  1
  F  F31  1  0.99060653  0.31957953  0.00429571  1
  F  F32  1  0.18807170  0.51469309  0.18554197  1
  F  F33  1  0.81192830  0.48530691  0.81445803  1
  F  F34  1  0.52080167  0.71330030  0.48712751  1
  F  F35  1  0.47919833  0.28669970  0.51287249  1
  F  F36  1  0.52086594  0.83054668  0.64855106  1
  F  F37  1  0.47913406  0.16945332  0.35144894  1
  F  F38  1  0.33157381  0.93610012  0.53841410  1
  F  F39  1  0.66842619  0.06389988  0.46158590  1
  F  F40  1  0.13436344  0.88283762  0.77884753  1
  F  F41  1  0.86563656  0.11716238  0.22115247  1
  F  F42  1  0.95456359  0.70526834  0.65303123  1
  F  F43  1  0.04543641  0.29473166  0.34696877  1
  F  F44  1  0.21324310  0.59597224  0.48460635  1
  F  F45  1  0.78675690  0.40402776  0.51539365  1
  F  F46  1  0.05926229  0.82362196  0.48856729  1
  F  F47  1  0.94073771  0.17637804  0.51143271  1
