# generated using pymatgen
data_Sc(VSi)5
_symmetry_space_group_name_H-M   'P 1'
_cell_length_a   4.92969633
_cell_length_b   7.62015405
_cell_length_c   9.27359675
_cell_angle_alpha   65.80671069
_cell_angle_beta   74.58597893
_cell_angle_gamma   90.00000000
_symmetry_Int_Tables_number   1
_chemical_formula_structural   Sc(VSi)5
_chemical_formula_sum   'Sc2 V10 Si10'
_cell_volume   303.97653942
_cell_formula_units_Z   2
loop_
 _symmetry_equiv_pos_site_id
 _symmetry_equiv_pos_as_xyz
  1  'x, y, z'
loop_
 _atom_site_type_symbol
 _atom_site_label
 _atom_site_symmetry_multiplicity
 _atom_site_fract_x
 _atom_site_fract_y
 _atom_site_fract_z
 _atom_site_occupancy
  Sc  Sc0  1  0.35757222  0.74405919  0.28485556  1
  Sc  Sc1  1  0.64242778  0.25594081  0.71514444  1
  V  V2  1  0.94045015  0.68904332  0.62250936  1
  V  V3  1  0.56295952  0.31095668  0.37749064  1
  V  V4  1  0.05954985  0.31095668  0.37749064  1
  V  V5  1  0.43704048  0.68904332  0.62250936  1
  V  V6  1  0.06334605  0.31921276  0.87330789  1
  V  V7  1  0.93665395  0.68078724  0.12669211  1
  V  V8  1  0.43541406  0.18974304  0.12917188  1
  V  V9  1  0.56458594  0.81025696  0.87082812  1
  V  V10  1  0.14230852  0.02469410  0.71538296  1
  V  V11  1  0.85769148  0.97530590  0.28461704  1
  Si  Si12  1  0.21203057  0.41213367  0.57593885  1
  Si  Si13  1  0.78796943  0.58786633  0.42406115  1
  Si  Si14  1  0.28441520  0.99250356  0.43116959  1
  Si  Si15  1  0.71558480  0.00749644  0.56883041  1
  Si  Si16  1  0.24669895  0.00000000  -0.00000000  1
  Si  Si17  1  0.75330105  0.00000000  -0.00000000  1
  Si  Si18  1  0.43682075  0.51998569  0.12635850  1
  Si  Si19  1  0.56317925  0.48001431  0.87364150  1
  Si  Si20  1  0.06418157  0.65360527  0.87163685  1
  Si  Si21  1  0.93581843  0.34639473  0.12836315  1
