# generated using pymatgen
data_Nb6InSe8
_symmetry_space_group_name_H-M   'P 1'
_cell_length_a   3.50116159
_cell_length_b   10.19820377
_cell_length_c   10.20399005
_cell_angle_alpha   59.99846544
_cell_angle_beta   90.00000000
_cell_angle_gamma   90.00000000
_symmetry_Int_Tables_number   1
_chemical_formula_structural   Nb6InSe8
_chemical_formula_sum   'Nb6 In1 Se8'
_cell_volume   315.52209950
_cell_formula_units_Z   1
loop_
 _symmetry_equiv_pos_site_id
 _symmetry_equiv_pos_as_xyz
  1  'x, y, z'
loop_
 _atom_site_type_symbol
 _atom_site_label
 _atom_site_symmetry_multiplicity
 _atom_site_fract_x
 _atom_site_fract_y
 _atom_site_fract_z
 _atom_site_occupancy
  Nb  Nb0  1  0.75000000  0.61951191  0.89344845  1
  Nb  Nb1  1  0.75000000  0.48699580  0.61956242  1
  Nb  Nb2  1  0.75000000  0.89350513  0.48702887  1
  Nb  Nb3  1  0.25000000  0.38196285  0.10657972  1
  Nb  Nb4  1  0.25000000  0.51147601  0.38190685  1
  Nb  Nb5  1  0.25000000  0.10653768  0.51148173  1
  In  In6  1  0.75000000  0.00000065  -0.00001653  1
  Se  Se7  1  0.75000000  0.33332855  0.33333561  1
  Se  Se8  1  0.25000000  0.66666854  0.66666403  1
  Se  Se9  1  0.75000000  0.94043716  0.71865766  1
  Se  Se10  1  0.75000000  0.34099662  0.94036767  1
  Se  Se11  1  0.75000000  0.71865937  0.34095850  1
  Se  Se12  1  0.25000000  0.05995931  0.27933286  1
  Se  Se13  1  0.25000000  0.66064987  0.06000163  1
  Se  Se14  1  0.25000000  0.27931054  0.66069052  1
