# generated using pymatgen
data_NaLa6Ga3S14
_symmetry_space_group_name_H-M   'P 1'
_cell_length_a   6.15078328
_cell_length_b   10.24060941
_cell_length_c   10.24034090
_cell_angle_alpha   119.99813937
_cell_angle_beta   90.00126776
_cell_angle_gamma   90.00038822
_symmetry_Int_Tables_number   1
_chemical_formula_structural   NaLa6Ga3S14
_chemical_formula_sum   'Na1 La6 Ga3 S14'
_cell_volume   558.61091225
_cell_formula_units_Z   1
loop_
 _symmetry_equiv_pos_site_id
 _symmetry_equiv_pos_as_xyz
  1  'x, y, z'
loop_
 _atom_site_type_symbol
 _atom_site_label
 _atom_site_symmetry_multiplicity
 _atom_site_fract_x
 _atom_site_fract_y
 _atom_site_fract_z
 _atom_site_occupancy
  Na  Na0  1  0.26162097  0.99999876  0.00000014  1
  La  La1  1  0.50121852  0.23447331  0.37616059  1
  La  La2  1  0.50121637  0.62389022  0.85839685  1
  La  La3  1  0.50117186  0.14169876  0.76551834  1
  La  La4  1  0.99188997  0.76649655  0.62618385  1
  La  La5  1  0.99188628  0.37381338  0.14031061  1
  La  La6  1  0.99191764  0.85967809  0.23350270  1
  Ga  Ga7  1  0.41712667  0.66666031  0.33332917  1
  Ga  Ga8  1  0.91439545  0.33332204  0.66665766  1
  Ga  Ga9  1  0.76670869  0.99999744  0.99999179  1
  S  S10  1  0.26723534  0.58080187  0.09847086  1
  S  S11  1  0.26724102  0.90151305  0.48232303  1
  S  S12  1  0.26721640  0.51768111  0.41919402  1
  S  S13  1  0.76321657  0.42059929  0.90152856  1
  S  S14  1  0.76321128  0.09846049  0.51906794  1
  S  S15  1  0.76321505  0.48094221  0.57941051  1
  S  S16  1  0.55186258  0.90844088  0.14314405  1
  S  S17  1  0.55185601  0.85685540  0.76528970  1
  S  S18  1  0.55185872  0.23470402  0.09155117  1
  S  S19  1  0.00446531  0.09091233  0.84847802  1
  S  S20  1  0.00445115  0.15149217  0.24241985  1
  S  S21  1  0.00445828  0.75756893  0.90906701  1
  S  S22  1  0.28193233  0.33333959  0.66667172  1
  S  S23  1  0.78502755  0.66665979  0.33333187  1
