# generated using pymatgen
data_NaScTiO4
_symmetry_space_group_name_H-M   'P 1'
_cell_length_a   3.06786820
_cell_length_b   9.42018052
_cell_length_c   11.02675203
_cell_angle_alpha   90.00000000
_cell_angle_beta   90.00000000
_cell_angle_gamma   90.00000000
_symmetry_Int_Tables_number   1
_chemical_formula_structural   NaScTiO4
_chemical_formula_sum   'Na4 Sc4 Ti4 O16'
_cell_volume   318.67172506
_cell_formula_units_Z   4
loop_
 _symmetry_equiv_pos_site_id
 _symmetry_equiv_pos_as_xyz
  1  'x, y, z'
loop_
 _atom_site_type_symbol
 _atom_site_label
 _atom_site_symmetry_multiplicity
 _atom_site_fract_x
 _atom_site_fract_y
 _atom_site_fract_z
 _atom_site_occupancy
  Na  Na0  1  0.75000000  0.25500118  0.85007691  1
  Na  Na1  1  0.75000000  0.75500118  0.64992309  1
  Na  Na2  1  0.25000000  0.74268288  0.15205050  1
  Na  Na3  1  0.25000000  0.24268288  0.34794950  1
  Sc  Sc4  1  0.75000000  0.42793491  0.61009196  1
  Sc  Sc5  1  0.75000000  0.92793491  0.88990804  1
  Sc  Sc6  1  0.75000000  0.42120603  0.10622344  1
  Sc  Sc7  1  0.75000000  0.92120603  0.39377656  1
  Ti  Ti8  1  0.25000000  0.56241827  0.38817525  1
  Ti  Ti9  1  0.25000000  0.06241827  0.11182475  1
  Ti  Ti10  1  0.25000000  0.58033246  0.89562970  1
  Ti  Ti11  1  0.25000000  0.08033246  0.60437030  1
  O  O12  1  0.75000000  0.19730878  0.14829189  1
  O  O13  1  0.75000000  0.69730878  0.35170811  1
  O  O14  1  0.25000000  0.78358445  0.84552874  1
  O  O15  1  0.25000000  0.28358445  0.65447126  1
  O  O16  1  0.75000000  0.12175153  0.48873311  1
  O  O17  1  0.75000000  0.62175153  0.01126689  1
  O  O18  1  0.25000000  0.89538688  0.52381740  1
  O  O19  1  0.25000000  0.39538688  0.97618260  1
  O  O20  1  0.75000000  0.42714303  0.41942825  1
  O  O21  1  0.75000000  0.92714303  0.08057175  1
  O  O22  1  0.25000000  0.57488988  0.56346209  1
  O  O23  1  0.25000000  0.07488988  0.93653791  1
  O  O24  1  0.75000000  0.02650207  0.71175604  1
  O  O25  1  0.75000000  0.52650207  0.78824396  1
  O  O26  1  0.25000000  0.98385764  0.27784513  1
  O  O27  1  0.25000000  0.48385764  0.22215487  1
