# generated using pymatgen
data_NbVCo6
_symmetry_space_group_name_H-M   'P 1'
_cell_length_a   5.10593732
_cell_length_b   5.10593732
_cell_length_c   12.68149733
_cell_angle_alpha   101.61383561
_cell_angle_beta   101.61383561
_cell_angle_gamma   60.00000642
_symmetry_Int_Tables_number   1
_chemical_formula_structural   NbVCo6
_chemical_formula_sum   'Nb3 V3 Co18'
_cell_volume   278.47698004
_cell_formula_units_Z   3
loop_
 _symmetry_equiv_pos_site_id
 _symmetry_equiv_pos_as_xyz
  1  'x, y, z'
loop_
 _atom_site_type_symbol
 _atom_site_label
 _atom_site_symmetry_multiplicity
 _atom_site_fract_x
 _atom_site_fract_y
 _atom_site_fract_z
 _atom_site_occupancy
  Nb  Nb0  1  0.39053670  0.39053670  0.17161010  1
  Nb  Nb1  1  0.89150652  0.89150652  0.67451955  1
  Nb  Nb2  1  0.10850628  0.10850628  0.32551884  1
  V  V3  1  0.60836849  0.60836849  0.82510547  1
  V  V4  1  0.00010355  0.00010355  0.00031065  1
  V  V5  1  0.50034142  0.50034142  0.50102426  1
  Co  Co6  1  0.09966995  0.61919444  0.33805882  1
  Co  Co7  1  0.59944954  0.11900732  0.83746417  1
  Co  Co8  1  0.61919444  0.61919444  0.33805882  1
  Co  Co9  1  0.11900732  0.11900732  0.83746417  1
  Co  Co10  1  0.61919444  0.09966995  0.33805882  1
  Co  Co11  1  0.11900732  0.59944954  0.83746417  1
  Co  Co12  1  0.40117958  0.87980237  0.16078433  1
  Co  Co13  1  0.89805211  0.38445642  0.66696495  1
  Co  Co14  1  0.87980237  0.87980237  0.16078433  1
  Co  Co15  1  0.38445642  0.38445642  0.66696495  1
  Co  Co16  1  0.87980237  0.40117958  0.16078433  1
  Co  Co17  1  0.38445642  0.89805211  0.66696495  1
  Co  Co18  1  0.00181055  0.00181055  0.50184570  1
  Co  Co19  1  0.50128603  0.50128603  0.99551907  1
  Co  Co20  1  0.50128603  0.99294701  0.99551907  1
  Co  Co21  1  0.00181055  0.49822459  0.50184570  1
  Co  Co22  1  0.99294701  0.50128603  0.99551907  1
  Co  Co23  1  0.49822459  0.00181055  0.50184570  1
