# generated using pymatgen
data_Nd2MnCrO6
_symmetry_space_group_name_H-M   'P 1'
_cell_length_a   5.53672253
_cell_length_b   5.77534244
_cell_length_c   7.64615104
_cell_angle_alpha   90.00000000
_cell_angle_beta   90.41901645
_cell_angle_gamma   90.00000000
_symmetry_Int_Tables_number   1
_chemical_formula_structural   Nd2MnCrO6
_chemical_formula_sum   'Nd4 Mn2 Cr2 O12'
_cell_volume   244.49037031
_cell_formula_units_Z   2
loop_
 _symmetry_equiv_pos_site_id
 _symmetry_equiv_pos_as_xyz
  1  'x, y, z'
loop_
 _atom_site_type_symbol
 _atom_site_label
 _atom_site_symmetry_multiplicity
 _atom_site_fract_x
 _atom_site_fract_y
 _atom_site_fract_z
 _atom_site_occupancy
  Nd  Nd0  1  0.51442628  0.56062098  0.24976431  1
  Nd  Nd1  1  0.98557372  0.06062098  0.25023569  1
  Nd  Nd2  1  0.48557372  0.43937902  0.75023569  1
  Nd  Nd3  1  0.01442628  0.93937902  0.74976431  1
  Mn  Mn4  1  -0.00000000  0.50000000  -0.00000000  1
  Mn  Mn5  1  0.50000000  0.00000000  0.50000000  1
  Cr  Cr6  1  -0.00000000  0.50000000  0.50000000  1
  Cr  Cr7  1  0.50000000  0.00000000  -0.00000000  1
  O  O8  1  0.79228063  0.80502511  0.04989402  1
  O  O9  1  0.70771937  0.30502511  0.45010598  1
  O  O10  1  0.19892374  0.20487387  0.54699665  1
  O  O11  1  0.30107626  0.70487387  0.95300335  1
  O  O12  1  0.20771937  0.19497489  0.95010598  1
  O  O13  1  0.29228063  0.69497489  0.54989402  1
  O  O14  1  0.80107626  0.79512613  0.45300335  1
  O  O15  1  0.69892374  0.29512613  0.04699665  1
  O  O16  1  0.40602741  0.97208198  0.25600681  1
  O  O17  1  0.09397259  0.47208198  0.24399319  1
  O  O18  1  0.59397259  0.02791802  0.74399319  1
  O  O19  1  0.90602741  0.52791802  0.75600681  1
