# generated using pymatgen
data_Nd2In3Cu
_symmetry_space_group_name_H-M   'P 1'
_cell_length_a   3.81601736
_cell_length_b   4.82727143
_cell_length_c   8.39617950
_cell_angle_alpha   90.02604385
_cell_angle_beta   90.00000000
_cell_angle_gamma   90.00000000
_symmetry_Int_Tables_number   1
_chemical_formula_structural   Nd2In3Cu
_chemical_formula_sum   'Nd2 In3 Cu1'
_cell_volume   154.66559992
_cell_formula_units_Z   1
loop_
 _symmetry_equiv_pos_site_id
 _symmetry_equiv_pos_as_xyz
  1  'x, y, z'
loop_
 _atom_site_type_symbol
 _atom_site_label
 _atom_site_symmetry_multiplicity
 _atom_site_fract_x
 _atom_site_fract_y
 _atom_site_fract_z
 _atom_site_occupancy
  Nd  Nd0  1  -0.00000000  0.00002804  0.00785671  1
  Nd  Nd1  1  -0.00000000  0.49995886  0.49683123  1
  In  In2  1  0.50000000  0.49995637  0.83735227  1
  In  In3  1  0.50000000  0.49984681  0.18186450  1
  In  In4  1  0.50000000  0.99996417  0.64726913  1
  Cu  Cu5  1  0.50000000  0.00004574  0.32882616  1
