# generated using pymatgen
data_Nb2GaNi3
_symmetry_space_group_name_H-M   'P 1'
_cell_length_a   4.92164258
_cell_length_b   4.92164258
_cell_length_c   7.77771255
_cell_angle_alpha   90.00000000
_cell_angle_beta   90.00000000
_cell_angle_gamma   120.00106794
_symmetry_Int_Tables_number   1
_chemical_formula_structural   Nb2GaNi3
_chemical_formula_sum   'Nb4 Ga2 Ni6'
_cell_volume   163.15409910
_cell_formula_units_Z   2
loop_
 _symmetry_equiv_pos_site_id
 _symmetry_equiv_pos_as_xyz
  1  'x, y, z'
loop_
 _atom_site_type_symbol
 _atom_site_label
 _atom_site_symmetry_multiplicity
 _atom_site_fract_x
 _atom_site_fract_y
 _atom_site_fract_z
 _atom_site_occupancy
  Nb  Nb0  1  0.66667162  0.33332838  0.55966641  1
  Nb  Nb1  1  0.33332838  0.66667162  0.44033359  1
  Nb  Nb2  1  0.33332838  0.66667162  0.05966641  1
  Nb  Nb3  1  0.66667162  0.33332838  0.94033359  1
  Ga  Ga4  1  -0.00000000  0.00000000  0.50000000  1
  Ga  Ga5  1  0.00000000  -0.00000000  -0.00000000  1
  Ni  Ni6  1  0.17190476  0.34383141  0.75000000  1
  Ni  Ni7  1  0.17178721  0.82821279  0.75000000  1
  Ni  Ni8  1  0.65616859  0.82809524  0.75000000  1
  Ni  Ni9  1  0.82809524  0.65616859  0.25000000  1
  Ni  Ni10  1  0.82821279  0.17178721  0.25000000  1
  Ni  Ni11  1  0.34383141  0.17190476  0.25000000  1
