# generated using pymatgen
data_Nb12InSn3
_symmetry_space_group_name_H-M   'P 1'
_cell_length_a   5.32621318
_cell_length_b   5.36289357
_cell_length_c   10.60827196
_cell_angle_alpha   90.00000000
_cell_angle_beta   90.00000000
_cell_angle_gamma   90.00000000
_symmetry_Int_Tables_number   1
_chemical_formula_structural   Nb12InSn3
_chemical_formula_sum   'Nb12 In1 Sn3'
_cell_volume   303.01377236
_cell_formula_units_Z   1
loop_
 _symmetry_equiv_pos_site_id
 _symmetry_equiv_pos_as_xyz
  1  'x, y, z'
loop_
 _atom_site_type_symbol
 _atom_site_label
 _atom_site_symmetry_multiplicity
 _atom_site_fract_x
 _atom_site_fract_y
 _atom_site_fract_z
 _atom_site_occupancy
  Nb  Nb0  1  -0.00000000  0.50000000  0.37825377  1
  Nb  Nb1  1  -0.00000000  0.50000000  0.87935492  1
  Nb  Nb2  1  0.50000000  0.24383494  0.99891751  1
  Nb  Nb3  1  0.50000000  0.24383494  0.50108249  1
  Nb  Nb4  1  0.75217047  0.00000000  0.25000000  1
  Nb  Nb5  1  0.74812989  -0.00000000  0.75000000  1
  Nb  Nb6  1  0.00000000  0.50000000  0.12174623  1
  Nb  Nb7  1  -0.00000000  0.50000000  0.62064508  1
  Nb  Nb8  1  0.50000000  0.75616506  0.99891751  1
  Nb  Nb9  1  0.50000000  0.75616506  0.50108249  1
  Nb  Nb10  1  0.24782953  -0.00000000  0.25000000  1
  Nb  Nb11  1  0.25187011  -0.00000000  0.75000000  1
  In  In12  1  0.50000000  0.50000000  0.25000000  1
  Sn  Sn13  1  0.50000000  0.50000000  0.75000000  1
  Sn  Sn14  1  -0.00000000  -0.00000000  0.99984598  1
  Sn  Sn15  1  0.00000000  0.00000000  0.50015402  1
