# generated using pymatgen
data_NaCa3MgFe(Si2O7)2
_symmetry_space_group_name_H-M   'P 1'
_cell_length_a   5.08440167
_cell_length_b   7.93436627
_cell_length_c   7.88849878
_cell_angle_alpha   90.43969750
_cell_angle_beta   90.70467164
_cell_angle_gamma   89.23033333
_symmetry_Int_Tables_number   1
_chemical_formula_structural   NaCa3MgFe(Si2O7)2
_chemical_formula_sum   'Na1 Ca3 Mg1 Fe1 Si4 O14'
_cell_volume   318.17216251
_cell_formula_units_Z   1
loop_
 _symmetry_equiv_pos_site_id
 _symmetry_equiv_pos_as_xyz
  1  'x, y, z'
loop_
 _atom_site_type_symbol
 _atom_site_label
 _atom_site_symmetry_multiplicity
 _atom_site_fract_x
 _atom_site_fract_y
 _atom_site_fract_z
 _atom_site_occupancy
  Na  Na0  1  0.50335070  0.33339919  0.17737519  1
  Ca  Ca1  1  0.49613989  0.18024554  0.65062964  1
  Ca  Ca2  1  0.51302334  0.65262935  0.83463007  1
  Ca  Ca3  1  0.49131490  0.83194008  0.33648761  1
  Mg  Mg4  1  -0.00003121  0.50015326  0.49946931  1
  Fe  Fe5  1  0.00367633  0.00071722  0.99889086  1
  Si  Si6  1  0.93981285  0.13416362  0.36615944  1
  Si  Si7  1  0.06283572  0.36366807  0.85506767  1
  Si  Si8  1  0.93541163  0.85503446  0.64307712  1
  Si  Si9  1  0.06045851  0.64582201  0.13751212  1
  O  O10  1  0.25721343  0.12201494  0.37425307  1
  O  O11  1  0.74729771  0.36563661  0.83725186  1
  O  O12  1  0.25176045  0.85089617  0.65034928  1
  O  O13  1  0.74543316  0.66659337  0.12975704  1
  O  O14  1  0.79480909  0.30830669  0.42387705  1
  O  O15  1  0.19797099  0.17932902  0.90614215  1
  O  O16  1  0.78207732  0.68277784  0.58982760  1
  O  O17  1  0.21983776  0.81691306  0.07198046  1
  O  O18  1  0.19814758  0.60446178  0.31982197  1
  O  O19  1  0.78772567  0.91880973  0.81986424  1
  O  O20  1  0.22460768  0.42134032  0.68670412  1
  O  O21  1  0.80134389  0.07359653  0.18484899  1
  O  O22  1  0.17516264  0.49749975  0.00393277  1
  O  O23  1  0.81061998  0.99405139  0.50209035  1
