# generated using pymatgen
data_Na3Ti8O16
_symmetry_space_group_name_H-M   'P 1'
_cell_length_a   2.97775873
_cell_length_b   9.29227777
_cell_length_c   10.80274947
_cell_angle_alpha   90.10669493
_cell_angle_beta   90.00000000
_cell_angle_gamma   90.00000000
_symmetry_Int_Tables_number   1
_chemical_formula_structural   Na3Ti8O16
_chemical_formula_sum   'Na3 Ti8 O16'
_cell_volume   298.91330161
_cell_formula_units_Z   1
loop_
 _symmetry_equiv_pos_site_id
 _symmetry_equiv_pos_as_xyz
  1  'x, y, z'
loop_
 _atom_site_type_symbol
 _atom_site_label
 _atom_site_symmetry_multiplicity
 _atom_site_fract_x
 _atom_site_fract_y
 _atom_site_fract_z
 _atom_site_occupancy
  Na  Na0  1  0.25000000  0.24269779  0.34641689  1
  Na  Na1  1  0.75000000  0.25745604  0.84692263  1
  Na  Na2  1  0.75000000  0.75723470  0.65317420  1
  Ti  Ti3  1  0.25000000  0.56649754  0.38440541  1
  Ti  Ti4  1  0.25000000  0.05710636  0.11142915  1
  Ti  Ti5  1  0.75000000  0.43791242  0.61015589  1
  Ti  Ti6  1  0.75000000  0.93533426  0.89159196  1
  Ti  Ti7  1  0.25000000  0.58386674  0.90221665  1
  Ti  Ti8  1  0.25000000  0.08083002  0.60241408  1
  Ti  Ti9  1  0.75000000  0.41833951  0.10422096  1
  Ti  Ti10  1  0.75000000  0.91516849  0.39308640  1
  O  O11  1  0.25000000  0.79257201  0.84979387  1
  O  O12  1  0.25000000  0.29237078  0.64826883  1
  O  O13  1  0.75000000  0.20684220  0.14729764  1
  O  O14  1  0.75000000  0.70672833  0.36026843  1
  O  O15  1  0.25000000  0.88792469  0.52035844  1
  O  O16  1  0.25000000  0.38628389  0.98047772  1
  O  O17  1  0.75000000  0.11320523  0.48036295  1
  O  O18  1  0.75000000  0.61158822  0.01370499  1
  O  O19  1  0.25000000  0.57815680  0.57036785  1
  O  O20  1  0.25000000  0.07896031  0.92752275  1
  O  O21  1  0.75000000  0.42263981  0.42857597  1
  O  O22  1  0.75000000  0.92566307  0.07026713  1
  O  O23  1  0.25000000  0.98338508  0.28409006  1
  O  O24  1  0.25000000  0.47340724  0.21909146  1
  O  O25  1  0.75000000  0.02250844  0.71740258  1
  O  O26  1  0.75000000  0.52207002  0.78239510  1
