# generated using pymatgen
data_Mn12Pt4N
_symmetry_space_group_name_H-M   'P 1'
_cell_length_a   4.19785022
_cell_length_b   5.26374097
_cell_length_c   9.30672494
_cell_angle_alpha   90.01162474
_cell_angle_beta   89.84000435
_cell_angle_gamma   89.98422969
_symmetry_Int_Tables_number   1
_chemical_formula_structural   Mn12Pt4N
_chemical_formula_sum   'Mn12 Pt4 N1'
_cell_volume   205.64426760
_cell_formula_units_Z   1
loop_
 _symmetry_equiv_pos_site_id
 _symmetry_equiv_pos_as_xyz
  1  'x, y, z'
loop_
 _atom_site_type_symbol
 _atom_site_label
 _atom_site_symmetry_multiplicity
 _atom_site_fract_x
 _atom_site_fract_y
 _atom_site_fract_z
 _atom_site_occupancy
  Mn  Mn0  1  0.76469120  0.00003815  0.17057123  1
  Mn  Mn1  1  0.75248893  0.50056923  0.64539351  1
  Mn  Mn2  1  0.75206802  0.72722602  0.42757896  1
  Mn  Mn3  1  0.75972769  0.25777821  0.91396686  1
  Mn  Mn4  1  0.75211906  0.27223466  0.42692752  1
  Mn  Mn5  1  0.76020730  0.74197633  0.91378107  1
  Mn  Mn6  1  0.24751107  0.49943077  0.35460649  1
  Mn  Mn7  1  0.23530880  -0.00003815  0.82942877  1
  Mn  Mn8  1  0.24027231  0.74222179  0.08603314  1
  Mn  Mn9  1  0.24793198  0.27277398  0.57242104  1
  Mn  Mn10  1  0.23979270  0.25802367  0.08621893  1
  Mn  Mn11  1  0.24788094  0.72776534  0.57307248  1
  Pt  Pt12  1  0.74624049  0.49998451  0.17743750  1
  Pt  Pt13  1  0.74761026  0.00005340  0.65845612  1
  Pt  Pt14  1  0.25238974  -0.00005340  0.34154388  1
  Pt  Pt15  1  0.25375951  0.50001549  0.82256250  1
  N  N16  1  0.50000000  0.00000000  0.00000000  1
