# generated using pymatgen
data_Mn5Cu3(Te2O5)8
_symmetry_space_group_name_H-M   'P 1'
_cell_length_a   8.90551049
_cell_length_b   8.90551049
_cell_length_c   12.96278570
_cell_angle_alpha   90.00000000
_cell_angle_beta   90.00000000
_cell_angle_gamma   89.16285585
_symmetry_Int_Tables_number   1
_chemical_formula_structural   Mn5Cu3(Te2O5)8
_chemical_formula_sum   'Mn5 Cu3 Te16 O40'
_cell_volume   1027.94439435
_cell_formula_units_Z   1
loop_
 _symmetry_equiv_pos_site_id
 _symmetry_equiv_pos_as_xyz
  1  'x, y, z'
loop_
 _atom_site_type_symbol
 _atom_site_label
 _atom_site_symmetry_multiplicity
 _atom_site_fract_x
 _atom_site_fract_y
 _atom_site_fract_z
 _atom_site_occupancy
  Mn  Mn0  1  0.25000000  0.25000000  0.50071186  1
  Mn  Mn1  1  0.75000000  0.75000000  0.50060994  1
  Mn  Mn2  1  0.75000000  0.75000000  0.99939006  1
  Mn  Mn3  1  0.25000000  0.25000000  0.99928814  1
  Mn  Mn4  1  0.25000000  0.25000000  0.25000000  1
  Cu  Cu5  1  0.75000000  0.75000000  0.25000000  1
  Cu  Cu6  1  0.75000000  0.75000000  0.75000000  1
  Cu  Cu7  1  0.25000000  0.25000000  0.75000000  1
  Te  Te8  1  0.56761037  0.03683129  0.11719170  1
  Te  Te9  1  0.43425893  0.53739436  0.11634708  1
  Te  Te10  1  0.06574107  0.96260564  0.11634708  1
  Te  Te11  1  0.93238963  0.46316871  0.11719170  1
  Te  Te12  1  0.53654681  0.06800387  0.61779814  1
  Te  Te13  1  0.46447540  0.56829090  0.61802337  1
  Te  Te14  1  0.03552460  0.93170910  0.61802337  1
  Te  Te15  1  0.96345319  0.43199613  0.61779814  1
  Te  Te16  1  0.43199613  0.96345319  0.88220186  1
  Te  Te17  1  0.56829090  0.46447540  0.88197663  1
  Te  Te18  1  0.93170910  0.03552460  0.88197663  1
  Te  Te19  1  0.06800387  0.53654681  0.88220186  1
  Te  Te20  1  0.46316871  0.93238963  0.38280830  1
  Te  Te21  1  0.53739436  0.43425893  0.38365292  1
  Te  Te22  1  0.96260564  0.06574107  0.38365292  1
  Te  Te23  1  0.03683129  0.56761037  0.38280830  1
  O  O24  1  0.37652937  0.02141955  0.04836612  1
  O  O25  1  0.62516667  0.52238029  0.04710310  1
  O  O26  1  0.87483333  0.97761971  0.04710310  1
  O  O27  1  0.12347063  0.47858045  0.04836612  1
  O  O28  1  0.52042711  0.87752299  0.54784506  1
  O  O29  1  0.48203204  0.37739051  0.54924067  1
  O  O30  1  0.01796796  0.12260949  0.54924067  1
  O  O31  1  0.97957289  0.62247701  0.54784506  1
  O  O32  1  0.62247701  0.97957289  0.95215494  1
  O  O33  1  0.37739051  0.48203204  0.95075933  1
  O  O34  1  0.12260949  0.01796796  0.95075933  1
  O  O35  1  0.87752299  0.52042711  0.95215494  1
  O  O36  1  0.47858045  0.12347063  0.45163388  1
  O  O37  1  0.52238029  0.62516667  0.45289690  1
  O  O38  1  0.97761971  0.87483333  0.45289690  1
  O  O39  1  0.02141955  0.37652937  0.45163388  1
  O  O40  1  0.10478400  0.17079476  0.13250374  1
  O  O41  1  0.88785977  0.67237417  0.13836241  1
  O  O42  1  0.61214023  0.82762583  0.13836241  1
  O  O43  1  0.39521600  0.32920524  0.13250374  1
  O  O44  1  0.67315520  0.61265431  0.63810958  1
  O  O45  1  0.32724948  0.11331166  0.63783008  1
  O  O46  1  0.17275052  0.38668834  0.63783008  1
  O  O47  1  0.82684480  0.88734569  0.63810958  1
  O  O48  1  0.88734569  0.82684480  0.86189042  1
  O  O49  1  0.11331166  0.32724948  0.86216992  1
  O  O50  1  0.38668834  0.17275052  0.86216992  1
  O  O51  1  0.61265431  0.67315520  0.86189042  1
  O  O52  1  0.32920524  0.39521600  0.36749626  1
  O  O53  1  0.67237417  0.88785977  0.36163759  1
  O  O54  1  0.82762583  0.61214023  0.36163759  1
  O  O55  1  0.17079476  0.10478400  0.36749626  1
  O  O56  1  0.54850228  0.54850228  0.25000000  1
  O  O57  1  0.44666466  0.05333534  0.25000000  1
  O  O58  1  0.05333534  0.44666466  0.25000000  1
  O  O59  1  0.95149772  0.95149772  0.25000000  1
  O  O60  1  0.04816009  0.04816009  0.75000000  1
  O  O61  1  0.95109197  0.54890803  0.75000000  1
  O  O62  1  0.54890803  0.95109197  0.75000000  1
  O  O63  1  0.45183991  0.45183991  0.75000000  1
