# generated using pymatgen
data_Ba5(Si2O7)2
_symmetry_space_group_name_H-M   'P 1'
_cell_length_a   7.84976702
_cell_length_b   7.84976702
_cell_length_c   11.82197784
_cell_angle_alpha   90.00000000
_cell_angle_beta   90.00000000
_cell_angle_gamma   90.00000000
_symmetry_Int_Tables_number   1
_chemical_formula_structural   Ba5(Si2O7)2
_chemical_formula_sum   'Ba10 Si8 O28'
_cell_volume   728.45658782
_cell_formula_units_Z   2
loop_
 _symmetry_equiv_pos_site_id
 _symmetry_equiv_pos_as_xyz
  1  'x, y, z'
loop_
 _atom_site_type_symbol
 _atom_site_label
 _atom_site_symmetry_multiplicity
 _atom_site_fract_x
 _atom_site_fract_y
 _atom_site_fract_z
 _atom_site_occupancy
  Ba  Ba0  1  0.83968115  0.33968115  0.25000000  1
  Ba  Ba1  1  0.16031885  0.66031885  0.25000000  1
  Ba  Ba2  1  0.66031885  0.83968115  0.75000000  1
  Ba  Ba3  1  0.33968115  0.16031885  0.75000000  1
  Ba  Ba4  1  0.33968115  0.16031885  0.25000000  1
  Ba  Ba5  1  0.66031885  0.83968115  0.25000000  1
  Ba  Ba6  1  0.83968115  0.33968115  0.75000000  1
  Ba  Ba7  1  0.16031885  0.66031885  0.75000000  1
  Ba  Ba8  1  0.50000000  0.50000000  0.50000000  1
  Ba  Ba9  1  -0.00000000  0.00000000  0.00000000  1
  Si  Si10  1  0.77294921  0.61427174  0.00000000  1
  Si  Si11  1  0.22705079  0.38572826  -0.00000000  1
  Si  Si12  1  0.72705079  0.11427174  0.50000000  1
  Si  Si13  1  0.27294921  0.88572826  0.50000000  1
  Si  Si14  1  0.61427174  0.22705079  0.00000000  1
  Si  Si15  1  0.38572826  0.77294921  0.00000000  1
  Si  Si16  1  0.11427174  0.27294921  0.50000000  1
  Si  Si17  1  0.88572826  0.72705079  0.50000000  1
  O  O18  1  0.83311620  0.62668232  0.38525723  1
  O  O19  1  0.16688380  0.37331768  0.38525723  1
  O  O20  1  0.66688380  0.12668232  0.88525723  1
  O  O21  1  0.33311620  0.87331768  0.88525723  1
  O  O22  1  0.62668232  0.16688380  0.38525723  1
  O  O23  1  0.37331768  0.83311620  0.38525723  1
  O  O24  1  0.12668232  0.33311620  0.88525723  1
  O  O25  1  0.87331768  0.66688380  0.88525723  1
  O  O26  1  0.16688380  0.37331768  0.61474277  1
  O  O27  1  0.83311620  0.62668232  0.61474277  1
  O  O28  1  0.33311620  0.87331768  0.11474277  1
  O  O29  1  0.66688380  0.12668232  0.11474277  1
  O  O30  1  0.37331768  0.83311620  0.61474277  1
  O  O31  1  0.62668232  0.16688380  0.61474277  1
  O  O32  1  0.87331768  0.66688380  0.11474277  1
  O  O33  1  0.12668232  0.33311620  0.11474277  1
  O  O34  1  0.77448176  0.90926503  0.50000000  1
  O  O35  1  0.22551824  0.09073497  0.50000000  1
  O  O36  1  0.72551824  0.40926503  -0.00000000  1
  O  O37  1  0.27448176  0.59073497  0.00000000  1
  O  O38  1  0.90926503  0.22551824  0.50000000  1
  O  O39  1  0.09073497  0.77448176  0.50000000  1
  O  O40  1  0.40926503  0.27448176  0.00000000  1
  O  O41  1  0.59073497  0.72551824  -0.00000000  1
  O  O42  1  0.50000000  0.50000000  0.26992147  1
  O  O43  1  -0.00000000  0.00000000  0.76992147  1
  O  O44  1  0.50000000  0.50000000  0.73007853  1
  O  O45  1  -0.00000000  0.00000000  0.23007853  1
