# generated using pymatgen
data_MnCrP2
_symmetry_space_group_name_H-M   'P 1'
_cell_length_a   3.01054055
_cell_length_b   5.31038541
_cell_length_c   5.95299430
_cell_angle_alpha   90.00000000
_cell_angle_beta   90.00000000
_cell_angle_gamma   90.00000000
_symmetry_Int_Tables_number   1
_chemical_formula_structural   MnCrP2
_chemical_formula_sum   'Mn2 Cr2 P4'
_cell_volume   95.17129741
_cell_formula_units_Z   2
loop_
 _symmetry_equiv_pos_site_id
 _symmetry_equiv_pos_as_xyz
  1  'x, y, z'
loop_
 _atom_site_type_symbol
 _atom_site_label
 _atom_site_symmetry_multiplicity
 _atom_site_fract_x
 _atom_site_fract_y
 _atom_site_fract_z
 _atom_site_occupancy
  Mn  Mn0  1  0.25000000  0.50652412  0.30827571  1
  Mn  Mn1  1  0.25000000  0.00652412  0.19172429  1
  Cr  Cr2  1  0.75000000  0.49571886  0.69914825  1
  Cr  Cr3  1  0.75000000  0.99571886  0.80085175  1
  P  P4  1  0.75000000  0.31288192  0.06801705  1
  P  P5  1  0.75000000  0.81288192  0.43198295  1
  P  P6  1  0.25000000  0.68487510  0.94316940  1
  P  P7  1  0.25000000  0.18487510  0.55683060  1
