# generated using pymatgen
data_Na2La2PtO6
_symmetry_space_group_name_H-M   'P 1'
_cell_length_a   6.72190735
_cell_length_b   6.75362325
_cell_length_c   6.72190735
_cell_angle_alpha   90.93070344
_cell_angle_beta   89.52186059
_cell_angle_gamma   90.93070344
_symmetry_Int_Tables_number   1
_chemical_formula_structural   Na2La2PtO6
_chemical_formula_sum   'Na4 La4 Pt2 O12'
_cell_volume   305.06549312
_cell_formula_units_Z   2
loop_
 _symmetry_equiv_pos_site_id
 _symmetry_equiv_pos_as_xyz
  1  'x, y, z'
loop_
 _atom_site_type_symbol
 _atom_site_label
 _atom_site_symmetry_multiplicity
 _atom_site_fract_x
 _atom_site_fract_y
 _atom_site_fract_z
 _atom_site_occupancy
  Na  Na0  1  0.25302480  0.25000000  0.24697520  1
  Na  Na1  1  0.74261030  0.75000000  0.75738970  1
  Na  Na2  1  0.74751108  0.38858876  0.10692448  1
  Na  Na3  1  0.39307552  0.11141124  0.75248892  1
  La  La4  1  0.25900511  0.59880140  0.88904348  1
  La  La5  1  0.61095652  0.90119860  0.24099489  1
  La  La6  1  0.87706445  0.25000000  0.62293555  1
  La  La7  1  0.10780362  0.75000000  0.39219638  1
  Pt  Pt8  1  0.49971347  0.49616437  0.49419747  1
  Pt  Pt9  1  0.00580253  0.00383563  0.00028653  1
  O  O10  1  0.19959502  0.43306446  0.55089906  1
  O  O11  1  0.41439546  0.56293819  0.20669457  1
  O  O12  1  0.56026131  0.20186248  0.42395791  1
  O  O13  1  0.93217500  0.71617022  0.06161049  1
  O  O14  1  0.71777595  0.05636774  0.92456061  1
  O  O15  1  0.05196934  0.92173346  0.70781683  1
  O  O16  1  0.79218317  0.57826654  0.44803066  1
  O  O17  1  0.57543939  0.44363226  0.78222405  1
  O  O18  1  0.43838951  0.78382978  0.56782500  1
  O  O19  1  0.07604209  0.29813752  0.93973869  1
  O  O20  1  0.29330543  0.93706181  0.08560454  1
  O  O21  1  0.94910094  0.06693554  0.30040498  1
