# generated using pymatgen
data_LaTiNbO6
_symmetry_space_group_name_H-M   'P 1'
_cell_length_a   5.32185497
_cell_length_b   7.19785120
_cell_length_c   7.19785120
_cell_angle_alpha   76.85381757
_cell_angle_beta   70.53815492
_cell_angle_gamma   70.53815492
_symmetry_Int_Tables_number   1
_chemical_formula_structural   LaTiNbO6
_chemical_formula_sum   'La2 Ti2 Nb2 O12'
_cell_volume   243.00187084
_cell_formula_units_Z   2
loop_
 _symmetry_equiv_pos_site_id
 _symmetry_equiv_pos_as_xyz
  1  'x, y, z'
loop_
 _atom_site_type_symbol
 _atom_site_label
 _atom_site_symmetry_multiplicity
 _atom_site_fract_x
 _atom_site_fract_y
 _atom_site_fract_z
 _atom_site_occupancy
  La  La0  1  0.75000000  0.81087088  0.18912912  1
  La  La1  1  0.25000000  0.18842642  0.81157358  1
  Ti  Ti2  1  0.04987241  0.81654177  0.65113787  1
  Ti  Ti3  1  0.45012759  0.34886213  0.18345823  1
  Nb  Nb4  1  0.94575435  0.18857975  0.35049204  1
  Nb  Nb5  1  0.55424565  0.64950796  0.81142025  1
  O  O6  1  0.15096329  0.82144740  0.89855976  1
  O  O7  1  0.34903671  0.10144024  0.17855260  1
  O  O8  1  0.84551241  0.17990343  0.09993006  1
  O  O9  1  0.65448759  0.90006994  0.82009657  1
  O  O10  1  0.45965370  0.72221832  0.55608600  1
  O  O11  1  0.04034630  0.44391400  0.27778168  1
  O  O12  1  0.53251000  0.28003175  0.44077400  1
  O  O13  1  0.96749000  0.55922600  0.71996825  1
  O  O14  1  0.52839607  0.59670538  0.11509618  1
  O  O15  1  0.97160393  0.88490382  0.40329462  1
  O  O16  1  0.47216550  0.39529614  0.88794532  1
  O  O17  1  0.02783450  0.11205468  0.60470386  1
