# generated using pymatgen
data_La4Ga3FeO12
_symmetry_space_group_name_H-M   'P 1'
_cell_length_a   5.56939342
_cell_length_b   5.57228495
_cell_length_c   7.87943311
_cell_angle_alpha   90.00031739
_cell_angle_beta   89.98868157
_cell_angle_gamma   90.10461212
_symmetry_Int_Tables_number   1
_chemical_formula_structural   La4Ga3FeO12
_chemical_formula_sum   'La4 Ga3 Fe1 O12'
_cell_volume   244.53186205
_cell_formula_units_Z   1
loop_
 _symmetry_equiv_pos_site_id
 _symmetry_equiv_pos_as_xyz
  1  'x, y, z'
loop_
 _atom_site_type_symbol
 _atom_site_label
 _atom_site_symmetry_multiplicity
 _atom_site_fract_x
 _atom_site_fract_y
 _atom_site_fract_z
 _atom_site_occupancy
  La  La0  1  0.52208466  0.99314060  0.25160435  1
  La  La1  1  0.02347490  0.50616358  0.25113682  1
  La  La2  1  0.47791534  0.00685940  0.74839565  1
  La  La3  1  0.97652510  0.49383642  0.74886318  1
  Ga  Ga4  1  0.50000000  0.50000000  0.00000000  1
  Ga  Ga5  1  -0.00000000  0.00000000  0.50000000  1
  Ga  Ga6  1  0.50000000  0.50000000  0.50000000  1
  Fe  Fe7  1  -0.00000000  0.00000000  0.00000000  1
  O  O8  1  0.51232673  0.57725289  0.74885402  1
  O  O9  1  0.01191263  0.92384237  0.74709034  1
  O  O10  1  0.48767327  0.42274711  0.25114598  1
  O  O11  1  0.98808737  0.07615763  0.25290966  1
  O  O12  1  0.22371135  0.27884249  0.95905968  1
  O  O13  1  0.72230975  0.22332291  0.54143910  1
  O  O14  1  0.77702056  0.72342007  0.45862564  1
  O  O15  1  0.28027766  0.77420534  0.04131876  1
  O  O16  1  0.77628865  0.72115751  0.04094032  1
  O  O17  1  0.27769025  0.77667709  0.45856090  1
  O  O18  1  0.22297944  0.27657993  0.54137436  1
  O  O19  1  0.71972234  0.22579466  0.95868124  1
