# generated using pymatgen
data_Li4AlNi3O8
_symmetry_space_group_name_H-M   'P 1'
_cell_length_a   2.87954596
_cell_length_b   2.87954618
_cell_length_c   19.28430012
_cell_angle_alpha   94.28170658
_cell_angle_beta   90.00000099
_cell_angle_gamma   119.99998760
_symmetry_Int_Tables_number   1
_chemical_formula_structural   Li4AlNi3O8
_chemical_formula_sum   'Li4 Al1 Ni3 O8'
_cell_volume   137.96302733
_cell_formula_units_Z   1
loop_
 _symmetry_equiv_pos_site_id
 _symmetry_equiv_pos_as_xyz
  1  'x, y, z'
loop_
 _atom_site_type_symbol
 _atom_site_label
 _atom_site_symmetry_multiplicity
 _atom_site_fract_x
 _atom_site_fract_y
 _atom_site_fract_z
 _atom_site_occupancy
  Li  Li0  1  0.62528451  0.25056902  0.87585353  1
  Li  Li1  1  0.87504792  0.75009583  0.62514375  1
  Li  Li2  1  0.37471549  0.74943098  0.12414647  1
  Li  Li3  1  0.12495208  0.24990417  0.37485625  1
  Al  Al4  1  0.00000000  0.00000000  0.00000000  1
  Ni  Ni5  1  0.74992168  0.49984337  0.24976505  1
  Ni  Ni6  1  0.50000000  0.00000000  0.50000000  1
  Ni  Ni7  1  0.25007832  0.50015663  0.75023495  1
  O  O8  1  0.93553313  0.87106725  0.80660038  1
  O  O9  1  0.18559394  0.37118689  0.55677983  1
  O  O10  1  0.68416769  0.36833639  0.05250408  1
  O  O11  1  0.43567155  0.87134411  0.30701566  1
  O  O12  1  0.31583231  0.63166361  0.94749492  1
  O  O13  1  0.56432845  0.12865589  0.69298334  1
  O  O14  1  0.06446687  0.12893275  0.19339962  1
  O  O15  1  0.81440606  0.62881311  0.44321917  1
