# generated using pymatgen
data_LiW3O9F
_symmetry_space_group_name_H-M   'P 1'
_cell_length_a   7.49045031
_cell_length_b   7.49193917
_cell_length_c   8.55512698
_cell_angle_alpha   102.72103255
_cell_angle_beta   63.86446289
_cell_angle_gamma   119.99343035
_symmetry_Int_Tables_number   1
_chemical_formula_structural   LiW3O9F
_chemical_formula_sum   'Li2 W6 O18 F2'
_cell_volume   373.28936381
_cell_formula_units_Z   2
loop_
 _symmetry_equiv_pos_site_id
 _symmetry_equiv_pos_as_xyz
  1  'x, y, z'
loop_
 _atom_site_type_symbol
 _atom_site_label
 _atom_site_symmetry_multiplicity
 _atom_site_fract_x
 _atom_site_fract_y
 _atom_site_fract_z
 _atom_site_occupancy
  Li  Li0  1  0.44517183  0.49919735  0.50008996  1
  Li  Li1  1  0.19597448  0.00080265  0.00008996  1
  W  W2  1  0.02933003  0.49934289  0.48730249  1
  W  W3  1  0.77998714  0.00065711  0.98730249  1
  W  W4  1  0.28752777  0.49958949  0.97245846  1
  W  W5  1  0.77769069  0.50111381  0.99526216  1
  W  W6  1  0.03793828  0.00041051  0.47245846  1
  W  W7  1  0.52657688  0.99888619  0.49526216  1
  O  O8  1  0.06846874  0.20803775  0.00200781  1
  O  O9  1  0.85659855  0.79169194  0.00949077  1
  O  O10  1  0.11043099  0.29196225  0.50200781  1
  O  O11  1  0.31490661  0.70830806  0.50949077  1
  O  O12  1  0.73553656  0.92768473  0.51050205  1
  O  O13  1  0.31276980  0.07158423  0.50160678  1
  O  O14  1  0.05785183  0.57231527  0.01050205  1
  O  O15  1  0.49118557  0.42841577  0.00160678  1
  O  O16  1  0.15287976  0.49792829  0.25188511  1
  O  O17  1  0.90288067  0.50106761  0.75645878  1
  O  O18  1  0.90495147  0.00207171  0.75188511  1
  O  O19  1  0.65181307  0.99893239  0.25645878  1
  O  O20  1  0.73534275  0.28619338  0.51110771  1
  O  O21  1  0.95510521  0.71346200  0.50071170  1
  O  O22  1  0.69914937  0.21380662  0.01110771  1
  O  O23  1  0.49164321  0.78653800  0.00071170  1
  O  O24  1  0.39919312  0.50112308  0.74270563  1
  O  O25  1  0.14807004  0.99887692  0.24270563  1
  F  F26  1  0.64042736  0.49782911  0.25841061  1
  F  F27  1  0.39259825  0.00217089  0.75841061  1
