# generated using pymatgen
data_CsU2(PO4)4
_symmetry_space_group_name_H-M   'P 1'
_cell_length_a   6.62823240
_cell_length_b   6.97158829
_cell_length_c   15.28861036
_cell_angle_alpha   98.42245460
_cell_angle_beta   102.51940592
_cell_angle_gamma   90.00000000
_symmetry_Int_Tables_number   1
_chemical_formula_structural   CsU2(PO4)4
_chemical_formula_sum   'Cs2 U4 P8 O32'
_cell_volume   681.87094201
_cell_formula_units_Z   2
loop_
 _symmetry_equiv_pos_site_id
 _symmetry_equiv_pos_as_xyz
  1  'x, y, z'
loop_
 _atom_site_type_symbol
 _atom_site_label
 _atom_site_symmetry_multiplicity
 _atom_site_fract_x
 _atom_site_fract_y
 _atom_site_fract_z
 _atom_site_occupancy
  Cs  Cs0  1  0.28929416  0.75000000  -0.00000000  1
  Cs  Cs1  1  0.71070584  0.25000000  -0.00000000  1
  U  U2  1  0.01280189  0.21330432  0.33987767  1
  U  U3  1  0.67292422  0.28669568  0.66012233  1
  U  U4  1  0.98719811  0.78669568  0.66012233  1
  U  U5  1  0.32707578  0.71330432  0.33987767  1
  P  P6  1  0.51511009  0.23635720  0.40969995  1
  P  P7  1  0.10541014  0.26364280  0.59030005  1
  P  P8  1  0.48488991  0.76364280  0.59030005  1
  P  P9  1  0.89458986  0.73635720  0.40969995  1
  P  P10  1  0.88965747  0.83313607  0.16610800  1
  P  P11  1  0.72354947  0.66686393  0.83389200  1
  P  P12  1  0.11034253  0.16686393  0.83389200  1
  P  P13  1  0.27645053  0.33313607  0.16610800  1
  O  O14  1  0.08540283  0.28401755  0.48930742  1
  O  O15  1  0.59609541  0.21598245  0.51069258  1
  O  O16  1  0.91459717  0.71598245  0.51069258  1
  O  O17  1  0.40390459  0.78401755  0.48930742  1
  O  O18  1  0.84241488  0.01872860  0.23835980  1
  O  O19  1  0.60405508  0.48127140  0.76164020  1
  O  O20  1  0.15758512  0.98127140  0.76164020  1
  O  O21  1  0.39594492  0.51872860  0.23835980  1
  O  O22  1  0.99593867  0.56055971  0.36129882  1
  O  O23  1  0.63463985  0.93944029  0.63870118  1
  O  O24  1  0.00406133  0.43944029  0.63870118  1
  O  O25  1  0.36536015  0.06055971  0.36129882  1
  O  O26  1  0.02286541  0.91207574  0.39804297  1
  O  O27  1  0.62482244  0.58792426  0.60195703  1
  O  O28  1  0.97713459  0.08792426  0.60195703  1
  O  O29  1  0.37517756  0.41207574  0.39804297  1
  O  O30  1  0.70401342  0.25275917  0.36782709  1
  O  O31  1  0.33618633  0.24724083  0.63217291  1
  O  O32  1  0.29598658  0.74724083  0.63217291  1
  O  O33  1  0.66381367  0.75275917  0.36782709  1
  O  O34  1  0.11792346  0.27867038  0.22975148  1
  O  O35  1  0.88817197  0.22132962  0.77024852  1
  O  O36  1  0.88207654  0.72132962  0.77024852  1
  O  O37  1  0.11182803  0.77867038  0.22975148  1
  O  O38  1  0.06840920  0.08920415  0.91423344  1
  O  O39  1  0.15417575  0.41079585  0.08576656  1
  O  O40  1  0.93159080  0.91079585  0.08576656  1
  O  O41  1  0.84582425  0.58920415  0.91423344  1
  O  O42  1  0.73324231  0.67595648  0.15993205  1
  O  O43  1  0.57331025  0.82404352  0.84006795  1
  O  O44  1  0.26675769  0.32404352  0.84006795  1
  O  O45  1  0.42668975  0.17595648  0.15993205  1
