# generated using pymatgen
data_LaY3Ti4O14
_symmetry_space_group_name_H-M   'P 1'
_cell_length_a   7.26659176
_cell_length_b   7.25780439
_cell_length_c   7.26659176
_cell_angle_alpha   90.00000000
_cell_angle_beta   60.00000000
_cell_angle_gamma   120.04005923
_symmetry_Int_Tables_number   1
_chemical_formula_structural   LaY3Ti4O14
_chemical_formula_sum   'La1 Y3 Ti4 O14'
_cell_volume   270.82487837
_cell_formula_units_Z   1
loop_
 _symmetry_equiv_pos_site_id
 _symmetry_equiv_pos_as_xyz
  1  'x, y, z'
loop_
 _atom_site_type_symbol
 _atom_site_label
 _atom_site_symmetry_multiplicity
 _atom_site_fract_x
 _atom_site_fract_y
 _atom_site_fract_z
 _atom_site_occupancy
  La  La0  1  0.50000000  0.00000000  0.50000000  1
  Y  Y1  1  0.50000000  0.50000000  0.50000000  1
  Y  Y2  1  0.00000000  0.50000000  -0.00000000  1
  Y  Y3  1  0.00000000  0.50000000  0.50000000  1
  Ti  Ti4  1  0.50000000  0.50000000  -0.00000000  1
  Ti  Ti5  1  0.50000000  0.00000000  -0.00000000  1
  Ti  Ti6  1  0.00000000  0.00000000  0.50000000  1
  Ti  Ti7  1  0.00000000  0.00000000  -0.00000000  1
  O  O8  1  0.84506047  0.91876160  0.32746977  1
  O  O9  1  0.65656337  0.32858523  0.92171832  1
  O  O10  1  0.24623137  0.91876160  0.92629886  1
  O  O11  1  0.25030355  0.32858523  0.32797813  1
  O  O12  1  0.25030355  0.32858523  0.92171832  1
  O  O13  1  0.24623137  0.91876160  0.32746977  1
  O  O14  1  0.15493953  0.08123840  0.67253023  1
  O  O15  1  0.34343663  0.67141477  0.07828168  1
  O  O16  1  0.75376863  0.08123840  0.07370114  1
  O  O17  1  0.74969645  0.67141477  0.67202187  1
  O  O18  1  0.74969645  0.67141477  0.07828168  1
  O  O19  1  0.75376863  0.08123840  0.67253023  1
  O  O20  1  0.76067797  0.39101695  0.36966102  1
  O  O21  1  0.23932203  0.60898305  0.63033898  1
