# generated using pymatgen
data_Mg2TePb4WO12
_symmetry_space_group_name_H-M   'P 1'
_cell_length_a   5.73200698
_cell_length_b   8.08072124
_cell_length_c   11.47951053
_cell_angle_alpha   90.00000000
_cell_angle_beta   90.00000000
_cell_angle_gamma   90.00000000
_symmetry_Int_Tables_number   1
_chemical_formula_structural   Mg2TePb4WO12
_chemical_formula_sum   'Mg4 Te2 Pb8 W2 O24'
_cell_volume   531.71658469
_cell_formula_units_Z   2
loop_
 _symmetry_equiv_pos_site_id
 _symmetry_equiv_pos_as_xyz
  1  'x, y, z'
loop_
 _atom_site_type_symbol
 _atom_site_label
 _atom_site_symmetry_multiplicity
 _atom_site_fract_x
 _atom_site_fract_y
 _atom_site_fract_z
 _atom_site_occupancy
  Mg  Mg0  1  0.25507571  0.75000000  0.12378693  1
  Mg  Mg1  1  0.24492429  0.75000000  0.62378693  1
  Mg  Mg2  1  0.74234415  0.25000000  0.87723170  1
  Mg  Mg3  1  0.75765585  0.25000000  0.37723170  1
  Te  Te4  1  0.24683558  0.25000000  0.62264060  1
  Te  Te5  1  0.25316442  0.25000000  0.12264060  1
  Pb  Pb6  1  0.27633769  0.99779516  0.36743206  1
  Pb  Pb7  1  0.22366231  0.50220484  0.86743206  1
  Pb  Pb8  1  0.72819158  0.49743493  0.63218984  1
  Pb  Pb9  1  0.77180842  0.00256507  0.13218984  1
  Pb  Pb10  1  0.72819158  0.00256507  0.63218984  1
  Pb  Pb11  1  0.77180842  0.49743493  0.13218984  1
  Pb  Pb12  1  0.27633769  0.50220484  0.36743206  1
  Pb  Pb13  1  0.22366231  0.99779516  0.86743206  1
  W  W14  1  0.75630084  0.75000000  0.37817523  1
  W  W15  1  0.74369916  0.75000000  0.87817523  1
  O  O16  1  0.74198042  0.50776416  0.37088818  1
  O  O17  1  0.75801958  0.99223584  0.87088818  1
  O  O18  1  0.25789919  0.00969919  0.62883759  1
  O  O19  1  0.24210081  0.49030081  0.12883759  1
  O  O20  1  0.25789919  0.49030081  0.62883759  1
  O  O21  1  0.24210081  0.00969919  0.12883759  1
  O  O22  1  0.74198042  0.99223584  0.37088818  1
  O  O23  1  0.75801958  0.50776416  0.87088818  1
  O  O24  1  -0.00229416  0.75000000  0.49200296  1
  O  O25  1  0.50229416  0.75000000  0.99200296  1
  O  O26  1  0.00041516  0.25000000  0.50915925  1
  O  O27  1  0.49958484  0.25000000  0.00915925  1
  O  O28  1  0.97876801  0.75000000  0.24960239  1
  O  O29  1  0.52123199  0.75000000  0.74960239  1
  O  O30  1  0.02246006  0.25000000  0.75033337  1
  O  O31  1  0.47753994  0.25000000  0.25033337  1
  O  O32  1  0.49262721  0.75000000  0.26157581  1
  O  O33  1  0.00737279  0.75000000  0.76157581  1
  O  O34  1  0.50516989  0.25000000  0.73687062  1
  O  O35  1  0.99483011  0.25000000  0.23687062  1
  O  O36  1  0.51593580  0.75000000  0.49924634  1
  O  O37  1  0.98406420  0.75000000  -0.00075366  1
  O  O38  1  0.48238996  0.25000000  0.50067946  1
  O  O39  1  0.01761004  0.25000000  0.00067946  1
