# generated using pymatgen
data_LaU2O6
_symmetry_space_group_name_H-M   'P 1'
_cell_length_a   3.88563811
_cell_length_b   5.53011503
_cell_length_c   6.67963553
_cell_angle_alpha   65.54658343
_cell_angle_beta   73.09072069
_cell_angle_gamma   90.00000000
_symmetry_Int_Tables_number   1
_chemical_formula_structural   LaU2O6
_chemical_formula_sum   'La1 U2 O6'
_cell_volume   123.80803329
_cell_formula_units_Z   1
loop_
 _symmetry_equiv_pos_site_id
 _symmetry_equiv_pos_as_xyz
  1  'x, y, z'
loop_
 _atom_site_type_symbol
 _atom_site_label
 _atom_site_symmetry_multiplicity
 _atom_site_fract_x
 _atom_site_fract_y
 _atom_site_fract_z
 _atom_site_occupancy
  La  La0  1  0.00000000  -0.00000000  -0.00000000  1
  U  U1  1  0.33341501  0.33341501  0.33316897  1
  U  U2  1  0.66658499  0.66658499  0.66683103  1
  O  O3  1  0.50000000  0.27147005  0.00000000  1
  O  O4  1  0.82530961  0.56485745  0.34937977  1
  O  O5  1  0.17469039  0.91423822  0.65062023  1
  O  O6  1  0.50000000  0.72852995  1.00000000  1
  O  O7  1  0.82530961  0.08576178  0.34937977  1
  O  O8  1  0.17469039  0.43514255  0.65062023  1
