# generated using pymatgen
data_K3Rb3Zn4Sn3Se13
_symmetry_space_group_name_H-M   'P 1'
_cell_length_a   10.01467440
_cell_length_b   10.01467427
_cell_length_c   10.01466830
_cell_angle_alpha   95.39385182
_cell_angle_beta   95.39385321
_cell_angle_gamma   95.39661902
_symmetry_Int_Tables_number   1
_chemical_formula_structural   K3Rb3Zn4Sn3Se13
_chemical_formula_sum   'K3 Rb3 Zn4 Sn3 Se13'
_cell_volume   990.15492606
_cell_formula_units_Z   1
loop_
 _symmetry_equiv_pos_site_id
 _symmetry_equiv_pos_as_xyz
  1  'x, y, z'
loop_
 _atom_site_type_symbol
 _atom_site_label
 _atom_site_symmetry_multiplicity
 _atom_site_fract_x
 _atom_site_fract_y
 _atom_site_fract_z
 _atom_site_occupancy
  K  K0  1  0.92178852  0.48365179  0.48364365  1
  K  K1  1  0.48366184  0.48366184  0.92179987  1
  K  K2  1  0.48365179  0.92178852  0.48364365  1
  Rb  Rb3  1  0.69575846  0.14827595  0.14827886  1
  Rb  Rb4  1  0.14827984  0.14827984  0.69576263  1
  Rb  Rb5  1  0.14827595  0.69575846  0.14827886  1
  Zn  Zn6  1  0.66233951  0.66233951  0.66234555  1
  Zn  Zn7  1  0.76860811  0.05622407  0.76861944  1
  Zn  Zn8  1  0.05622407  0.76860811  0.76861944  1
  Zn  Zn9  1  0.76860402  0.76860402  0.05624750  1
  Sn  Sn10  1  0.87805829  0.42641167  0.87806980  1
  Sn  Sn11  1  0.42641167  0.87805829  0.87806980  1
  Sn  Sn12  1  0.87806617  0.87806617  0.42642928  1
  Se  Se13  1  0.68677995  0.41811761  0.68679622  1
  Se  Se14  1  0.41811761  0.68677995  0.68679622  1
  Se  Se15  1  0.68678481  0.68678481  0.41809889  1
  Se  Se16  1  0.81925422  0.81925422  0.81926660  1
  Se  Se17  1  0.80465551  0.53042311  0.10189046  1
  Se  Se18  1  0.53044013  0.10186970  0.80466412  1
  Se  Se19  1  0.10188055  0.80467497  0.53045518  1
  Se  Se20  1  0.53042311  0.80465551  0.10189046  1
  Se  Se21  1  0.80467497  0.10188055  0.53045518  1
  Se  Se22  1  0.10186970  0.53044013  0.80466412  1
  Se  Se23  1  0.93557725  0.19443567  0.93558398  1
  Se  Se24  1  0.19443567  0.93557725  0.93558398  1
  Se  Se25  1  0.93557827  0.93557827  0.19444625  1
