# generated using pymatgen
data_KBa2V2ClO7
_symmetry_space_group_name_H-M   'P 1'
_cell_length_a   5.89375100
_cell_length_b   5.89375100
_cell_length_c   15.27365717
_cell_angle_alpha   90.00000000
_cell_angle_beta   90.00000000
_cell_angle_gamma   120.00023415
_symmetry_Int_Tables_number   1
_chemical_formula_structural   KBa2V2ClO7
_chemical_formula_sum   'K2 Ba4 V4 Cl2 O14'
_cell_volume   459.46899728
_cell_formula_units_Z   2
loop_
 _symmetry_equiv_pos_site_id
 _symmetry_equiv_pos_as_xyz
  1  'x, y, z'
loop_
 _atom_site_type_symbol
 _atom_site_label
 _atom_site_symmetry_multiplicity
 _atom_site_fract_x
 _atom_site_fract_y
 _atom_site_fract_z
 _atom_site_occupancy
  K  K0  1  0.33330595  0.66669405  0.95156742  1
  K  K1  1  0.66669405  0.33330595  0.45156742  1
  Ba  Ba2  1  0.33331407  0.66668593  0.25169825  1
  Ba  Ba3  1  0.66668593  0.33331407  0.75169825  1
  Ba  Ba4  1  0.66668130  0.33331870  0.04326498  1
  Ba  Ba5  1  0.33331870  0.66668130  0.54326498  1
  V  V6  1  0.99999369  0.00000631  0.63197241  1
  V  V7  1  0.00000236  -0.00000236  0.36987272  1
  V  V8  1  0.00000631  0.99999369  0.13197241  1
  V  V9  1  -0.00000236  0.00000236  0.86987272  1
  Cl  Cl10  1  0.33331062  0.66668938  0.74893435  1
  Cl  Cl11  1  0.66668938  0.33331062  0.24893435  1
  O  O12  1  0.99999246  0.00000754  0.75089074  1
  O  O13  1  0.00000754  0.99999246  0.25089074  1
  O  O14  1  0.83994157  0.67987887  0.59650300  1
  O  O15  1  0.83993721  0.16006279  0.59650338  1
  O  O16  1  0.32012113  0.16005843  0.59650300  1
  O  O17  1  0.16055944  0.32112438  0.40409707  1
  O  O18  1  0.16056292  0.83943708  0.40409563  1
  O  O19  1  0.67887562  0.83944056  0.40409707  1
  O  O20  1  0.16005843  0.32012113  0.09650300  1
  O  O21  1  0.16006279  0.83993721  0.09650338  1
  O  O22  1  0.67987887  0.83994157  0.09650300  1
  O  O23  1  0.83944056  0.67887562  0.90409707  1
  O  O24  1  0.83943708  0.16056292  0.90409563  1
  O  O25  1  0.32112438  0.16055944  0.90409707  1
