# generated using pymatgen
data_Li2CaV12O32
_symmetry_space_group_name_H-M   'P 1'
_cell_length_a   7.27521186
_cell_length_b   8.00659608
_cell_length_c   12.26454088
_cell_angle_alpha   105.27666539
_cell_angle_beta   90.00000000
_cell_angle_gamma   62.97841221
_symmetry_Int_Tables_number   1
_chemical_formula_structural   Li2CaV12O32
_chemical_formula_sum   'Li2 Ca1 V12 O32'
_cell_volume   607.94444918
_cell_formula_units_Z   1
loop_
 _symmetry_equiv_pos_site_id
 _symmetry_equiv_pos_as_xyz
  1  'x, y, z'
loop_
 _atom_site_type_symbol
 _atom_site_label
 _atom_site_symmetry_multiplicity
 _atom_site_fract_x
 _atom_site_fract_y
 _atom_site_fract_z
 _atom_site_occupancy
  Li  Li0  1  0.36265779  0.52902324  0.69844544  1
  Li  Li1  1  0.85831897  0.52902324  0.69844544  1
  Ca  Ca2  1  0.12895002  0.49209997  0.32021941  1
  V  V3  1  0.30318858  0.14362283  0.46336015  1
  V  V4  1  0.79877204  0.15245593  0.46318643  1
  V  V5  1  0.19611750  0.85421533  0.54213520  1
  V  V6  1  0.69966717  0.85421533  0.54213520  1
  V  V7  1  0.97284809  0.80430381  0.92033551  1
  V  V8  1  0.47213068  0.80573864  0.92048220  1
  V  V9  1  0.52817578  0.19206477  0.07569712  1
  V  V10  1  0.02975945  0.19206477  0.07569712  1
  V  V11  1  0.41602341  0.91795318  0.18976032  1
  V  V12  1  0.90766519  0.93466961  0.19312429  1
  V  V13  1  0.08644257  0.07698283  0.80704939  1
  V  V14  1  0.58657460  0.07698283  0.80704939  1
  O  O15  1  0.51096619  0.72806762  0.04588433  1
  O  O16  1  0.00753029  0.73493943  0.04691941  1
  O  O17  1  0.99080993  0.26682286  0.94924763  1
  O  O18  1  0.49236720  0.26682286  0.94924763  1
  O  O19  1  0.36975448  0.01049104  0.82434637  1
  O  O20  1  0.86967718  0.01064564  0.82460774  1
  O  O21  1  0.13005578  0.99120832  0.17312749  1
  O  O22  1  0.62873590  0.99120832  0.17312749  1
  O  O23  1  0.81728706  0.11542587  0.07110178  1
  O  O24  1  0.32116726  0.10766548  0.06426625  1
  O  O25  1  0.68224910  0.88533085  0.92890131  1
  O  O26  1  0.18242005  0.88533085  0.92890131  1
  O  O27  1  0.28916704  0.17166592  0.32462394  1
  O  O28  1  0.78801679  0.17396642  0.32464217  1
  O  O29  1  0.21536422  0.81772023  0.67740977  1
  O  O30  1  0.71691555  0.81772023  0.67740977  1
  O  O31  1  0.40970698  0.93058603  0.53931293  1
  O  O32  1  0.90285935  0.94428129  0.54505277  1
  O  O33  1  0.09285325  0.06445177  0.46294145  1
  O  O34  1  0.59269498  0.06445177  0.46294145  1
  O  O35  1  0.19102060  0.36795880  0.55211485  1
  O  O36  1  0.68856034  0.37287931  0.55600106  1
  O  O37  1  0.29152643  0.63371782  0.44984614  1
  O  O38  1  0.82475576  0.63371782  0.44984614  1
  O  O39  1  0.07363731  0.60272537  0.81016544  1
  O  O40  1  0.57230406  0.60539189  0.80935095  1
  O  O41  1  0.41159115  0.39773519  0.18028659  1
  O  O42  1  0.94067366  0.39773519  0.18028659  1
  O  O43  1  0.48492651  0.78014698  0.27330578  1
  O  O44  1  0.98230320  0.78539360  0.27300430  1
  O  O45  1  0.01544075  0.22068946  0.72482830  1
  O  O46  1  0.51386979  0.22068946  0.72482830  1
