# generated using pymatgen
data_K4NaCl5
_symmetry_space_group_name_H-M   'P 1'
_cell_length_a   4.44423846
_cell_length_b   15.87831484
_cell_length_c   4.44423846
_cell_angle_alpha   81.95523264
_cell_angle_beta   90.00000000
_cell_angle_gamma   81.95523264
_symmetry_Int_Tables_number   1
_chemical_formula_structural   K4NaCl5
_chemical_formula_sum   'K4 Na1 Cl5'
_cell_volume   307.41308219
_cell_formula_units_Z   1
loop_
 _symmetry_equiv_pos_site_id
 _symmetry_equiv_pos_as_xyz
  1  'x, y, z'
loop_
 _atom_site_type_symbol
 _atom_site_label
 _atom_site_symmetry_multiplicity
 _atom_site_fract_x
 _atom_site_fract_y
 _atom_site_fract_z
 _atom_site_occupancy
  K  K0  1  0.40273826  0.19452348  0.40273826  1
  K  K1  1  0.80181131  0.39637738  0.80181131  1
  K  K2  1  0.19818869  0.60362262  0.19818869  1
  K  K3  1  0.59726174  0.80547652  0.59726174  1
  Na  Na4  1  0.00000000  -0.00000000  -0.00000000  1
  Cl  Cl5  1  0.09370066  0.81259867  0.09370066  1
  Cl  Cl6  1  0.50000000  0.00000000  0.50000000  1
  Cl  Cl7  1  0.90629934  0.18740133  0.90629934  1
  Cl  Cl8  1  0.30034579  0.39930841  0.30034579  1
  Cl  Cl9  1  0.69965421  0.60069159  0.69965421  1
