# generated using pymatgen
data_La2VCo16
_symmetry_space_group_name_H-M   'P 1'
_cell_length_a   6.33584831
_cell_length_b   6.33584831
_cell_length_c   6.33584794
_cell_angle_alpha   83.02749166
_cell_angle_beta   83.02749166
_cell_angle_gamma   83.02748874
_symmetry_Int_Tables_number   1
_chemical_formula_structural   La2VCo16
_chemical_formula_sum   'La2 V1 Co16'
_cell_volume   249.11914714
_cell_formula_units_Z   1
loop_
 _symmetry_equiv_pos_site_id
 _symmetry_equiv_pos_as_xyz
  1  'x, y, z'
loop_
 _atom_site_type_symbol
 _atom_site_label
 _atom_site_symmetry_multiplicity
 _atom_site_fract_x
 _atom_site_fract_y
 _atom_site_fract_z
 _atom_site_occupancy
  La  La0  1  0.65552143  0.65552143  0.65552143  1
  La  La1  1  0.34956950  0.34956950  0.34956950  1
  V  V2  1  0.09256331  0.09256331  0.09256331  1
  Co  Co3  1  0.34137985  0.34137985  0.85388891  1
  Co  Co4  1  0.34137985  0.85388891  0.34137985  1
  Co  Co5  1  0.85388891  0.34137985  0.34137985  1
  Co  Co6  1  0.65915412  0.65915412  0.14578644  1
  Co  Co7  1  0.65915412  0.14578644  0.65915412  1
  Co  Co8  1  0.14578644  0.65915412  0.65915412  1
  Co  Co9  1  0.28607619  0.71262327  0.99856549  1
  Co  Co10  1  0.71262327  0.99856549  0.28607619  1
  Co  Co11  1  0.99856549  0.28607619  0.71262327  1
  Co  Co12  1  0.28607619  0.99856549  0.71262327  1
  Co  Co13  1  0.99856549  0.71262327  0.28607619  1
  Co  Co14  1  0.71262327  0.28607619  0.99856549  1
  Co  Co15  1  0.00040325  0.00040325  0.50060543  1
  Co  Co16  1  0.00040325  0.50060543  0.00040325  1
  Co  Co17  1  0.50060543  0.00040325  0.00040325  1
  Co  Co18  1  0.90566064  0.90566064  0.90566064  1
