# generated using pymatgen
data_Na2CaNb4Bi2O15
_symmetry_space_group_name_H-M   'P 1'
_cell_length_a   5.60282017
_cell_length_b   5.58093236
_cell_length_c   20.93035864
_cell_angle_alpha   82.33843019
_cell_angle_beta   90.00000000
_cell_angle_gamma   90.00000000
_symmetry_Int_Tables_number   1
_chemical_formula_structural   Na2CaNb4Bi2O15
_chemical_formula_sum   'Na4 Ca2 Nb8 Bi4 O30'
_cell_volume   648.62799575
_cell_formula_units_Z   2
loop_
 _symmetry_equiv_pos_site_id
 _symmetry_equiv_pos_as_xyz
  1  'x, y, z'
loop_
 _atom_site_type_symbol
 _atom_site_label
 _atom_site_symmetry_multiplicity
 _atom_site_fract_x
 _atom_site_fract_y
 _atom_site_fract_z
 _atom_site_occupancy
  Na  Na0  1  0.52371507  0.67311940  0.20839082  1
  Na  Na1  1  0.52371507  0.88151022  0.79160918  1
  Na  Na2  1  0.02371507  0.32688060  0.79160918  1
  Na  Na3  1  0.02371507  0.11848978  0.20839082  1
  Ca  Ca4  1  0.02170968  0.24734020  0.00000000  1
  Ca  Ca5  1  0.52170968  0.75265980  -0.00000000  1
  Nb  Nb6  1  0.54757362  0.19351494  0.10051688  1
  Nb  Nb7  1  0.54757362  0.29403181  0.89948312  1
  Nb  Nb8  1  0.04757362  0.80648506  0.89948312  1
  Nb  Nb9  1  0.04757362  0.70596819  0.10051688  1
  Nb  Nb10  1  0.53584406  0.10938432  0.30030908  1
  Nb  Nb11  1  0.53584406  0.40969340  0.69969092  1
  Nb  Nb12  1  0.03584406  0.89061568  0.69969092  1
  Nb  Nb13  1  0.03584406  0.59030660  0.30030908  1
  Bi  Bi14  1  0.47173810  0.50565269  0.43929094  1
  Bi  Bi15  1  0.47173810  0.94494363  0.56070906  1
  Bi  Bi16  1  0.97173810  0.49434731  0.56070906  1
  Bi  Bi17  1  0.97173810  0.05505637  0.43929094  1
  O  O18  1  0.78135109  0.49980518  0.08238174  1
  O  O19  1  0.78135109  0.58218692  0.91761826  1
  O  O20  1  0.28135109  0.50019482  0.91761826  1
  O  O21  1  0.28135109  0.41781308  0.08238174  1
  O  O22  1  0.56125898  0.16492501  0.19142091  1
  O  O23  1  0.56125898  0.35634592  0.80857909  1
  O  O24  1  0.06125898  0.83507499  0.80857909  1
  O  O25  1  0.06125898  0.64365408  0.19142091  1
  O  O26  1  0.75740860  0.76155982  0.49800311  1
  O  O27  1  0.75740860  0.25956293  0.50199689  1
  O  O28  1  0.25740860  0.23844018  0.50199689  1
  O  O29  1  0.25740860  0.74043707  0.49800311  1
  O  O30  1  0.08612239  0.80840705  0.00000000  1
  O  O31  1  0.58612239  0.19159295  -0.00000000  1
  O  O32  1  0.78436747  0.82708663  0.29164441  1
  O  O33  1  0.78436747  0.11873104  0.70835559  1
  O  O34  1  0.28436747  0.17291337  0.70835559  1
  O  O35  1  0.28436747  0.88126896  0.29164441  1
  O  O36  1  0.57118853  0.09488847  0.39089404  1
  O  O37  1  0.57118853  0.48578251  0.60910596  1
  O  O38  1  0.07118853  0.90511153  0.60910596  1
  O  O39  1  0.07118853  0.51421749  0.39089404  1
  O  O40  1  0.84648456  0.31816114  0.28713712  1
  O  O41  1  0.84648456  0.60529826  0.71286288  1
  O  O42  1  0.34648456  0.68183886  0.71286288  1
  O  O43  1  0.34648456  0.39470174  0.28713712  1
  O  O44  1  0.87755387  0.00957446  0.09935838  1
  O  O45  1  0.87755387  0.10893284  0.90064162  1
  O  O46  1  0.37755387  0.99042554  0.90064162  1
  O  O47  1  0.37755387  0.89106716  0.09935838  1
