# generated using pymatgen
data_La2CO5
_symmetry_space_group_name_H-M   'P 1'
_cell_length_a   4.09956665
_cell_length_b   4.09958252
_cell_length_c   15.98046016
_cell_angle_alpha   90.00000000
_cell_angle_beta   90.00000000
_cell_angle_gamma   60.75592296
_symmetry_Int_Tables_number   1
_chemical_formula_structural   La2CO5
_chemical_formula_sum   'La4 C2 O10'
_cell_volume   234.34487078
_cell_formula_units_Z   2
loop_
 _symmetry_equiv_pos_site_id
 _symmetry_equiv_pos_as_xyz
  1  'x, y, z'
loop_
 _atom_site_type_symbol
 _atom_site_label
 _atom_site_symmetry_multiplicity
 _atom_site_fract_x
 _atom_site_fract_y
 _atom_site_fract_z
 _atom_site_occupancy
  La  La0  1  0.33242092  0.33468404  0.59472356  1
  La  La1  1  0.66533160  0.66757097  0.40527780  1
  La  La2  1  0.66533160  0.66757097  0.09472220  1
  La  La3  1  0.33242092  0.33468404  0.90527644  1
  C  C4  1  0.06751964  0.86493465  0.75000000  1
  C  C5  1  0.13503521  0.93249438  0.25000000  1
  O  O6  1  0.98113660  0.03625852  0.67822404  1
  O  O7  1  0.96374112  0.01886527  0.32177438  1
  O  O8  1  0.96374112  0.01886527  0.17822562  1
  O  O9  1  0.98113660  0.03625852  0.82177596  1
  O  O10  1  0.33074841  0.33453745  0.05686732  1
  O  O11  1  0.66545877  0.66925377  0.94313084  1
  O  O12  1  0.66545877  0.66925377  0.55686916  1
  O  O13  1  0.33074841  0.33453745  0.44313268  1
  O  O14  1  0.24943418  0.50467441  0.75000000  1
  O  O15  1  0.49533613  0.75055653  0.25000000  1
