# generated using pymatgen
data_KFe4(SiO4)3
_symmetry_space_group_name_H-M   'P 1'
_cell_length_a   5.39851695
_cell_length_b   5.39722796
_cell_length_c   10.55571497
_cell_angle_alpha   95.77785576
_cell_angle_beta   94.80900273
_cell_angle_gamma   119.84867314
_symmetry_Int_Tables_number   1
_chemical_formula_structural   KFe4(SiO4)3
_chemical_formula_sum   'K1 Fe4 Si3 O12'
_cell_volume   262.19013195
_cell_formula_units_Z   1
loop_
 _symmetry_equiv_pos_site_id
 _symmetry_equiv_pos_as_xyz
  1  'x, y, z'
loop_
 _atom_site_type_symbol
 _atom_site_label
 _atom_site_symmetry_multiplicity
 _atom_site_fract_x
 _atom_site_fract_y
 _atom_site_fract_z
 _atom_site_occupancy
  K  K0  1  0.50896698  0.50676273  0.02227712  1
  Fe  Fe1  1  0.00409241  0.00459923  0.49850563  1
  Fe  Fe2  1  0.65208578  0.34364360  0.50116352  1
  Fe  Fe3  1  0.34382520  0.65087588  0.49570699  1
  Fe  Fe4  1  0.24083480  0.90654958  0.22423611  1
  Si  Si5  1  0.90194827  0.24364104  0.21911839  1
  Si  Si6  1  0.75607401  0.09288541  0.77195229  1
  Si  Si7  1  0.09189748  0.75234718  0.77137658  1
  O  O8  1  0.94967127  0.97804784  0.16921215  1
  O  O9  1  0.94438088  0.94403805  0.82180375  1
  O  O10  1  0.57325671  0.15100403  0.15987307  1
  O  O11  1  0.12157561  0.52450310  0.15834425  1
  O  O12  1  0.44340071  0.94161078  0.82878177  1
  O  O13  1  0.94110016  0.44508873  0.83155310  1
  O  O14  1  0.63991444  0.63384676  0.40989860  1
  O  O15  1  0.36601605  0.37438556  0.59672656  1
  O  O16  1  0.32611928  0.95944008  0.40731454  1
  O  O17  1  0.95822142  0.31694737  0.38251688  1
  O  O18  1  0.69488531  0.04877495  0.61524555  1
  O  O19  1  0.04173323  0.68100810  0.61439315  1
