# generated using pymatgen
data_KNaNb2O6
_symmetry_space_group_name_H-M   'P 1'
_cell_length_a   4.07941846
_cell_length_b   5.72081353
_cell_length_c   5.72081353
_cell_angle_alpha   88.79989867
_cell_angle_beta   90.15002931
_cell_angle_gamma   90.15002931
_symmetry_Int_Tables_number   1
_chemical_formula_structural   KNaNb2O6
_chemical_formula_sum   'K1 Na1 Nb2 O6'
_cell_volume   133.47983166
_cell_formula_units_Z   1
loop_
 _symmetry_equiv_pos_site_id
 _symmetry_equiv_pos_as_xyz
  1  'x, y, z'
loop_
 _atom_site_type_symbol
 _atom_site_label
 _atom_site_symmetry_multiplicity
 _atom_site_fract_x
 _atom_site_fract_y
 _atom_site_fract_z
 _atom_site_occupancy
  K  K0  1  0.49833870  0.00052345  0.50052345  1
  Na  Na1  1  0.50266846  0.49894055  0.99894055  1
  Nb  Nb2  1  0.98557869  0.00761693  0.00800959  1
  Nb  Nb3  1  0.98557869  0.50800959  0.50761693  1
  O  O4  1  0.02345148  0.23937127  0.73937127  1
  O  O5  1  0.02452032  0.73650231  0.23650231  1
  O  O6  1  0.01376518  0.24321310  0.23700809  1
  O  O7  1  0.01376518  0.73700809  0.74321310  1
  O  O8  1  0.51925664  0.99306969  0.99265502  1
  O  O9  1  0.51925664  0.49265502  0.49306969  1
