# generated using pymatgen
data_AgH36S8N11O18
_symmetry_space_group_name_H-M   'P 1'
_cell_length_a   12.60962703
_cell_length_b   12.60962703
_cell_length_c   12.60962703
_cell_angle_alpha   98.62898809
_cell_angle_beta   115.14953758
_cell_angle_gamma   115.14953758
_symmetry_Int_Tables_number   1
_chemical_formula_structural   AgH36S8N11O18
_chemical_formula_sum   'Ag2 H72 S16 N22 O36'
_cell_volume   1503.15364804
_cell_formula_units_Z   2
loop_
 _symmetry_equiv_pos_site_id
 _symmetry_equiv_pos_as_xyz
  1  'x, y, z'
loop_
 _atom_site_type_symbol
 _atom_site_label
 _atom_site_symmetry_multiplicity
 _atom_site_fract_x
 _atom_site_fract_y
 _atom_site_fract_z
 _atom_site_occupancy
  Ag  Ag0  1  0.50000000  0.75000000  0.25000000  1
  Ag  Ag1  1  0.00000000  0.00000000  -0.00000000  1
  H  H2  1  0.56274697  0.21340829  0.77746104  1
  H  H3  1  0.06405275  0.53659171  0.59933868  1
  H  H4  1  0.43725303  0.21471407  0.65066132  1
  H  H5  1  0.93594725  0.53528593  0.47253896  1
  H  H6  1  0.43594725  0.22253896  0.78528593  1
  H  H7  1  0.06274697  0.52746104  0.46340829  1
  H  H8  1  0.56405275  0.34933868  0.78659171  1
  H  H9  1  0.93725303  0.40066132  0.46471407  1
  H  H10  1  0.43949899  0.45566677  0.02016605  1
  H  H11  1  0.06449928  0.29433323  0.23383222  1
  H  H12  1  0.56050101  0.58066706  0.01616778  1
  H  H13  1  0.93550072  0.16933294  0.22983395  1
  H  H14  1  0.43550072  0.97983395  0.41933294  1
  H  H15  1  0.93949899  0.77016605  0.70566677  1
  H  H16  1  0.56449928  0.98383222  0.54433323  1
  H  H17  1  0.06050101  0.76616778  0.83066706  1
  H  H18  1  0.56263337  0.44587432  0.01063008  1
  H  H19  1  0.06475576  0.30412568  0.36675905  1
  H  H20  1  0.43736663  0.44799671  0.88324095  1
  H  H21  1  0.93524424  0.30200329  0.23936992  1
  H  H22  1  0.43524424  0.98936992  0.55200329  1
  H  H23  1  0.06263337  0.76063008  0.69587432  1
  H  H24  1  0.56475576  0.11675905  0.55412568  1
  H  H25  1  0.93736663  0.63324095  0.69799671  1
  H  H26  1  0.24583879  0.42294204  0.17844819  1
  H  H27  1  0.25550615  0.32705796  0.07289675  1
  H  H28  1  0.75416121  0.93260940  0.17710325  1
  H  H29  1  0.74449385  0.81739060  0.07155181  1
  H  H30  1  0.24449385  0.82155181  0.06739060  1
  H  H31  1  0.74583879  0.92844819  0.67294204  1
  H  H32  1  0.75550615  0.82289675  0.57705796  1
  H  H33  1  0.25416121  0.92710325  0.18260940  1
  H  H34  1  0.22437948  0.43990350  0.04061824  1
  H  H35  1  0.10071474  0.31009650  0.03447597  1
  H  H36  1  0.77562052  0.81623877  0.21552403  1
  H  H37  1  0.89928526  0.93376123  0.20938176  1
  H  H38  1  0.39928526  0.95938176  0.18376123  1
  H  H39  1  0.72437948  0.79061824  0.68990350  1
  H  H40  1  0.60071474  0.78447597  0.56009650  1
  H  H41  1  0.27562052  0.96552403  0.06623877  1
  H  H42  1  0.51479799  0.95298858  0.00359078  1
  H  H43  1  0.55060220  0.79701142  0.81180941  1
  H  H44  1  0.48520201  0.48879279  0.43819059  1
  H  H45  1  0.44939780  0.26120721  0.24640922  1
  H  H46  1  0.94939780  0.99640922  0.51120721  1
  H  H47  1  0.01479799  0.75359078  0.20298858  1
  H  H48  1  0.05060220  0.56180941  0.04701142  1
  H  H49  1  0.98520201  0.18819059  0.73879279  1
  H  H50  1  0.61608337  0.11431547  0.07771453  1
  H  H51  1  0.46339906  0.63568453  0.75176789  1
  H  H52  1  0.38391663  0.46163116  0.49823211  1
  H  H53  1  0.53660094  0.28836884  0.17228547  1
  H  H54  1  0.03660094  0.92228547  0.53836884  1
  H  H55  1  0.11608337  0.82771453  0.36431547  1
  H  H56  1  0.96339906  0.50176789  0.88568453  1
  H  H57  1  0.88391663  0.24823211  0.71163116  1
  H  H58  1  0.55632138  0.04509433  0.92345722  1
  H  H59  1  0.37836289  0.70490567  0.76122705  1
  H  H60  1  0.44367862  0.36713584  0.48877295  1
  H  H61  1  0.62163711  0.38286416  0.32654278  1
  H  H62  1  0.12163711  0.07654278  0.63286416  1
  H  H63  1  0.05632138  0.67345722  0.29509433  1
  H  H64  1  0.87836289  0.51122705  0.95490567  1
  H  H65  1  0.94367862  0.23877295  0.61713584  1
  H  H66  1  0.44316344  0.04018356  0.96601502  1
  H  H67  1  0.42583146  0.70981644  0.65297988  1
  H  H68  1  0.55683656  0.52285158  0.59702012  1
  H  H69  1  0.57416854  0.22714842  0.28398498  1
  H  H70  1  0.07416854  0.03398498  0.47714842  1
  H  H71  1  0.94316344  0.71601502  0.29018356  1
  H  H72  1  0.92583146  0.40297988  0.95981644  1
  H  H73  1  0.05683656  0.34702012  0.77285158  1
  S  S74  1  0.45348162  0.75145894  0.02987708  1
  S  S75  1  0.77841814  0.99854106  0.95202268  1
  S  S76  1  0.54651838  0.57639547  0.29797732  1
  S  S77  1  0.22158186  0.17360453  0.22012292  1
  S  S78  1  0.72158186  0.97012292  0.42360453  1
  S  S79  1  0.95348162  0.77987708  0.00145894  1
  S  S80  1  0.27841814  0.70202268  0.24854106  1
  S  S81  1  0.04651838  0.04797732  0.82639547  1
  S  S82  1  0.24354623  0.62663823  0.90162366  1
  S  S83  1  0.77498543  0.12336177  0.86690800  1
  S  S84  1  0.75645377  0.65807743  0.38309200  1
  S  S85  1  0.22501457  0.09192257  0.34837634  1
  S  S86  1  0.72501457  0.09837634  0.34192257  1
  S  S87  1  0.74354623  0.65162366  0.87663823  1
  S  S88  1  0.27498543  0.61690800  0.37336177  1
  S  S89  1  0.25645377  0.13309200  0.90807743  1
  N  N90  1  0.50000000  0.25000000  0.75000000  1
  N  N91  1  0.00000000  0.50000000  0.50000000  1
  N  N92  1  0.50000000  0.48281060  0.98281060  1
  N  N93  1  0.00000000  0.26718940  0.26718940  1
  N  N94  1  0.50000000  0.01718940  0.51718940  1
  N  N95  1  -0.00000000  0.73281060  0.73281060  1
  N  N96  1  0.20814773  0.37500000  0.08314773  1
  N  N97  1  0.79185227  0.87500000  0.16685227  1
  N  N98  1  0.29185227  0.91685227  0.12500000  1
  N  N99  1  0.70814773  0.83314773  0.62500000  1
  N  N100  1  0.53192293  0.03746170  0.99199354  1
  N  N101  1  0.45453184  0.71253830  0.74446123  1
  N  N102  1  0.46807707  0.46007061  0.50553877  1
  N  N103  1  0.54546816  0.28992939  0.25800646  1
  N  N104  1  0.04546816  0.00800646  0.53992939  1
  N  N105  1  0.03192293  0.74199354  0.28746170  1
  N  N106  1  0.95453184  0.49446123  0.96253830  1
  N  N107  1  0.96807707  0.25553877  0.71007061  1
  N  N108  1  0.24676468  0.87500000  0.62176468  1
  N  N109  1  0.75323532  0.37500000  0.62823532  1
  N  N110  1  0.25323532  0.37823532  0.62500000  1
  N  N111  1  0.74676468  0.37176468  0.12500000  1
  O  O112  1  0.11901317  0.81277827  0.58888369  1
  O  O113  1  0.27610542  0.93722173  0.55623490  1
  O  O114  1  0.88098683  0.46987052  0.69376510  1
  O  O115  1  0.72389458  0.28012948  0.66111631  1
  O  O116  1  0.22389458  0.41111631  0.53012948  1
  O  O117  1  0.61901317  0.33888369  0.06277827  1
  O  O118  1  0.77610542  0.30623490  0.18722173  1
  O  O119  1  0.38098683  0.44376510  0.71987052  1
  O  O120  1  0.33880915  0.87500000  0.71380915  1
  O  O121  1  0.66119085  0.37500000  0.53619085  1
  O  O122  1  0.16119085  0.28619085  0.62500000  1
  O  O123  1  0.83880915  0.46380915  0.12500000  1
  O  O124  1  0.20070064  0.50037170  0.91190476  1
  O  O125  1  0.91153306  0.24962830  0.95032893  1
  O  O126  1  0.79929936  0.71120413  0.29967107  1
  O  O127  1  0.08846694  0.03879587  0.33809524  1
  O  O128  1  0.58846694  0.08809524  0.28879587  1
  O  O129  1  0.70070064  0.66190476  0.75037170  1
  O  O130  1  0.41153306  0.70032893  0.49962830  1
  O  O131  1  0.29929936  0.04967107  0.96120413  1
  O  O132  1  0.21550154  0.61319934  0.77172105  1
  O  O133  1  0.65852171  0.13680066  0.85230220  1
  O  O134  1  0.78449846  0.55621952  0.39769780  1
  O  O135  1  0.34147829  0.19378048  0.47827895  1
  O  O136  1  0.84147829  0.22827895  0.44378048  1
  O  O137  1  0.71550154  0.52172105  0.86319934  1
  O  O138  1  0.15852171  0.60230220  0.38680066  1
  O  O139  1  0.28449846  0.14769780  0.80621952  1
  O  O140  1  0.16992330  0.67962721  0.93206010  1
  O  O141  1  0.75243289  0.07037279  0.74029609  1
  O  O142  1  0.83007670  0.76213680  0.50970391  1
  O  O143  1  0.24756711  0.98786320  0.31793990  1
  O  O144  1  0.74756711  0.06793990  0.23786320  1
  O  O145  1  0.66992330  0.68206010  0.92962721  1
  O  O146  1  0.25243289  0.49029609  0.32037279  1
  O  O147  1  0.33007670  0.25970391  0.01213680  1
