# generated using pymatgen
data_Dy4CoB13
_symmetry_space_group_name_H-M   'P 1'
_cell_length_a   7.30732605
_cell_length_b   7.30732605
_cell_length_c   6.89485197
_cell_angle_alpha   90.00000000
_cell_angle_beta   90.00000000
_cell_angle_gamma   90.00000000
_symmetry_Int_Tables_number   1
_chemical_formula_structural   Dy4CoB13
_chemical_formula_sum   'Dy8 Co2 B26'
_cell_volume   368.16450718
_cell_formula_units_Z   2
loop_
 _symmetry_equiv_pos_site_id
 _symmetry_equiv_pos_as_xyz
  1  'x, y, z'
loop_
 _atom_site_type_symbol
 _atom_site_label
 _atom_site_symmetry_multiplicity
 _atom_site_fract_x
 _atom_site_fract_y
 _atom_site_fract_z
 _atom_site_occupancy
  Dy  Dy0  1  0.18156677  0.68534432  0.50000000  1
  Dy  Dy1  1  0.81843323  0.31465568  0.50000000  1
  Dy  Dy2  1  0.31843323  0.18534432  -0.00000000  1
  Dy  Dy3  1  0.68156677  0.81465568  -0.00000000  1
  Dy  Dy4  1  0.68534432  0.81843323  0.50000000  1
  Dy  Dy5  1  0.31465568  0.18156677  0.50000000  1
  Dy  Dy6  1  0.18534432  0.68156677  -0.00000000  1
  Dy  Dy7  1  0.81465568  0.31843323  -0.00000000  1
  Co  Co8  1  0.50000000  0.50000000  0.50000000  1
  Co  Co9  1  -0.00000000  0.00000000  -0.00000000  1
  B  B10  1  0.50000000  0.50000000  -0.00000000  1
  B  B11  1  -0.00000000  0.00000000  0.50000000  1
  B  B12  1  0.40865342  0.90865342  0.25000000  1
  B  B13  1  0.59134658  0.09134658  0.25000000  1
  B  B14  1  0.09134658  0.40865342  0.75000000  1
  B  B15  1  0.90865342  0.59134658  0.75000000  1
  B  B16  1  0.90865342  0.59134658  0.25000000  1
  B  B17  1  0.09134658  0.40865342  0.25000000  1
  B  B18  1  0.40865342  0.90865342  0.75000000  1
  B  B19  1  0.59134658  0.09134658  0.75000000  1
  B  B20  1  0.67017716  0.53919612  0.24688388  1
  B  B21  1  0.32982284  0.46080388  0.24688388  1
  B  B22  1  0.82982284  0.03919612  0.74688388  1
  B  B23  1  0.17017716  0.96080388  0.74688388  1
  B  B24  1  0.53919612  0.32982284  0.24688388  1
  B  B25  1  0.46080388  0.67017716  0.24688388  1
  B  B26  1  0.03919612  0.17017716  0.74688388  1
  B  B27  1  0.96080388  0.82982284  0.74688388  1
  B  B28  1  0.32982284  0.46080388  0.75311612  1
  B  B29  1  0.67017716  0.53919612  0.75311612  1
  B  B30  1  0.17017716  0.96080388  0.25311612  1
  B  B31  1  0.82982284  0.03919612  0.25311612  1
  B  B32  1  0.46080388  0.67017716  0.75311612  1
  B  B33  1  0.53919612  0.32982284  0.75311612  1
  B  B34  1  0.96080388  0.82982284  0.25311612  1
  B  B35  1  0.03919612  0.17017716  0.25311612  1
