# generated using pymatgen
data_Hf3Ti2(PbO3)5
_symmetry_space_group_name_H-M   'P 1'
_cell_length_a   5.79633238
_cell_length_b   9.19198499
_cell_length_c   7.10533414
_cell_angle_alpha   103.90728509
_cell_angle_beta   90.00000003
_cell_angle_gamma   108.37849094
_symmetry_Int_Tables_number   1
_chemical_formula_structural   Hf3Ti2(PbO3)5
_chemical_formula_sum   'Hf3 Ti2 Pb5 O15'
_cell_volume   347.54810744
_cell_formula_units_Z   1
loop_
 _symmetry_equiv_pos_site_id
 _symmetry_equiv_pos_as_xyz
  1  'x, y, z'
loop_
 _atom_site_type_symbol
 _atom_site_label
 _atom_site_symmetry_multiplicity
 _atom_site_fract_x
 _atom_site_fract_y
 _atom_site_fract_z
 _atom_site_occupancy
  Hf  Hf0  1  0.00047843  0.00095686  0.00357457  1
  Hf  Hf1  1  0.60229920  0.20459840  0.40062754  1
  Hf  Hf2  1  0.20406022  0.40812044  0.80493734  1
  Ti  Ti3  1  0.80601089  0.61202179  0.21258325  1
  Ti  Ti4  1  0.40537860  0.81075720  0.61563490  1
  Pb  Pb5  1  0.81481249  0.62962497  0.72392645  1
  Pb  Pb6  1  0.01735198  0.03470395  0.52808533  1
  Pb  Pb7  1  0.62490622  0.24981243  0.93201213  1
  Pb  Pb8  1  0.22416901  0.44833802  0.32373926  1
  Pb  Pb9  1  0.41230064  0.82460127  0.13920561  1
  O  O10  1  0.69645546  0.39291091  0.28333101  1
  O  O11  1  0.29629293  0.59258586  0.67284178  1
  O  O12  1  0.88906229  0.77812459  0.07968836  1
  O  O13  1  0.48740689  0.97481377  0.48345161  1
  O  O14  1  0.09299138  0.18598276  0.88150670  1
  O  O15  1  0.50585112  0.48851710  0.99616411  1
  O  O16  1  0.09321235  0.68387852  0.38234194  1
  O  O17  1  0.69144938  0.87806985  0.77977500  1
  O  O18  1  0.29734266  0.07730024  0.19260833  1
  O  O19  1  0.89865995  0.28305768  0.59513770  1
  O  O20  1  0.98266598  0.48851710  0.99616411  1
  O  O21  1  0.59066617  0.68387852  0.38234194  1
  O  O22  1  0.18662047  0.87806985  0.77977500  1
  O  O23  1  0.77995757  0.07730024  0.19260833  1
  O  O24  1  0.38439773  0.28305768  0.59513770  1
