# generated using pymatgen
data_GaAgGeS4
_symmetry_space_group_name_H-M   'P 1'
_cell_length_a   6.96897746
_cell_length_b   7.05535357
_cell_length_c   12.30288401
_cell_angle_alpha   98.90651806
_cell_angle_beta   72.47443430
_cell_angle_gamma   120.54740767
_symmetry_Int_Tables_number   1
_chemical_formula_structural   GaAgGeS4
_chemical_formula_sum   'Ga3 Ag3 Ge3 S12'
_cell_volume   496.77603056
_cell_formula_units_Z   3
loop_
 _symmetry_equiv_pos_site_id
 _symmetry_equiv_pos_as_xyz
  1  'x, y, z'
loop_
 _atom_site_type_symbol
 _atom_site_label
 _atom_site_symmetry_multiplicity
 _atom_site_fract_x
 _atom_site_fract_y
 _atom_site_fract_z
 _atom_site_occupancy
  Ga  Ga0  1  0.25302377  0.50302916  0.50210834  1
  Ga  Ga1  1  0.00672524  0.00889061  0.99926346  1
  Ga  Ga2  1  0.96911018  0.24357046  0.76836027  1
  Ag  Ag3  1  0.64196606  0.33383780  0.08198991  1
  Ag  Ag4  1  0.39360351  0.66382713  0.91284294  1
  Ag  Ag5  1  0.56016314  0.17202082  0.58307223  1
  Ge  Ge6  1  0.97647966  0.25819157  0.27447954  1
  Ge  Ge7  1  0.98254199  0.73945658  0.72699553  1
  Ge  Ge8  1  0.48657449  0.75150911  0.23168401  1
  S  S9  1  0.60824343  0.11756044  0.26078154  1
  S  S10  1  0.74335899  0.87228476  0.74200426  1
  S  S11  1  0.73352969  0.38065737  0.76238175  1
  S  S12  1  0.11257331  0.61529261  0.24044497  1
  S  S13  1  0.16616538  0.09681953  0.15152648  1
  S  S14  1  0.21387788  0.89725076  0.84852742  1
  S  S15  1  0.32477558  0.39988953  0.64456542  1
  S  S16  1  0.56725540  0.60521126  0.34526092  1
  S  S17  1  0.93943584  0.19286751  0.45303275  1
  S  S18  1  0.20602170  0.81060305  0.54839059  1
  S  S19  1  0.99873397  0.31014887  0.95506680  1
  S  S20  1  0.64368078  0.69326105  0.04872087  1
