# generated using pymatgen
data_KNb5Pb2O15
_symmetry_space_group_name_H-M   'P 1'
_cell_length_a   3.98247035
_cell_length_b   12.93892557
_cell_length_c   12.88888808
_cell_angle_alpha   90.00000000
_cell_angle_beta   90.00000000
_cell_angle_gamma   90.00000000
_symmetry_Int_Tables_number   1
_chemical_formula_structural   KNb5Pb2O15
_chemical_formula_sum   'K2 Nb10 Pb4 O30'
_cell_volume   664.15006314
_cell_formula_units_Z   2
loop_
 _symmetry_equiv_pos_site_id
 _symmetry_equiv_pos_as_xyz
  1  'x, y, z'
loop_
 _atom_site_type_symbol
 _atom_site_label
 _atom_site_symmetry_multiplicity
 _atom_site_fract_x
 _atom_site_fract_y
 _atom_site_fract_z
 _atom_site_occupancy
  K  K0  1  0.50000000  0.17364168  0.67399790  1
  K  K1  1  0.50000000  0.32635832  0.17399790  1
  Nb  Nb2  1  -0.00000000  0.71491506  0.56850332  1
  Nb  Nb3  1  0.00000000  0.28941708  0.41496463  1
  Nb  Nb4  1  -0.00000000  0.78508494  0.06850332  1
  Nb  Nb5  1  -0.00000000  0.21058292  0.91496463  1
  Nb  Nb6  1  0.00000000  0.58534567  0.28283962  1
  Nb  Nb7  1  -0.00000000  0.42503505  0.70225445  1
  Nb  Nb8  1  -0.00000000  0.07496495  0.20225445  1
  Nb  Nb9  1  0.00000000  0.91465433  0.78283962  1
  Nb  Nb10  1  0.00000000  0.00886112  0.50238954  1
  Nb  Nb11  1  0.00000000  0.49113888  0.00238954  1
  Pb  Pb12  1  0.50000000  0.50365092  0.49019793  1
  Pb  Pb13  1  0.50000000  0.99634908  0.99019793  1
  Pb  Pb14  1  0.50000000  0.61929716  0.82078976  1
  Pb  Pb15  1  0.50000000  0.88070284  0.32078976  1
  O  O16  1  0.50000000  0.69944133  0.58241283  1
  O  O17  1  0.50000000  0.29593469  0.42972442  1
  O  O18  1  0.50000000  0.80055867  0.08241283  1
  O  O19  1  0.50000000  0.20406531  0.92972442  1
  O  O20  1  0.50000000  0.57419856  0.30242999  1
  O  O21  1  0.50000000  0.43174406  0.71695257  1
  O  O22  1  0.50000000  0.06825594  0.21695257  1
  O  O23  1  0.50000000  0.92580144  0.80242999  1
  O  O24  1  0.00000000  0.78357092  0.71822762  1
  O  O25  1  0.00000000  0.21272754  0.28852373  1
  O  O26  1  0.00000000  0.71642908  0.21822762  1
  O  O27  1  0.00000000  0.28727246  0.78852373  1
  O  O28  1  -0.00000000  0.84057308  0.49787754  1
  O  O29  1  0.00000000  0.15357572  0.50463460  1
  O  O30  1  0.00000000  0.65942692  0.99787754  1
  O  O31  1  0.00000000  0.34642428  0.00463460  1
  O  O32  1  0.00000000  0.50340751  0.15611775  1
  O  O33  1  0.00000000  0.51396395  0.84563893  1
  O  O34  1  0.00000000  0.98603605  0.34563893  1
  O  O35  1  0.00000000  0.99659249  0.65611775  1
  O  O36  1  0.00000000  0.56416407  0.64314350  1
  O  O37  1  -0.00000000  0.42999959  0.36283916  1
  O  O38  1  0.00000000  0.93583593  0.14314350  1
  O  O39  1  0.00000000  0.07000041  0.86283916  1
  O  O40  1  -0.00000000  0.63142037  0.43831881  1
  O  O41  1  -0.00000000  0.35767681  0.57254276  1
  O  O42  1  -0.00000000  0.14232319  0.07254276  1
  O  O43  1  0.00000000  0.86857963  0.93831881  1
  O  O44  1  0.50000000  0.99160850  0.48917864  1
  O  O45  1  0.50000000  0.50839150  0.98917864  1
