# generated using pymatgen
data_K2V3P4O17
_symmetry_space_group_name_H-M   'P 1'
_cell_length_a   5.09897333
_cell_length_b   9.38315881
_cell_length_c   17.14585798
_cell_angle_alpha   95.28413666
_cell_angle_beta   90.00000000
_cell_angle_gamma   90.00000000
_symmetry_Int_Tables_number   1
_chemical_formula_structural   K2V3P4O17
_chemical_formula_sum   'K4 V6 P8 O34'
_cell_volume   816.84836981
_cell_formula_units_Z   2
loop_
 _symmetry_equiv_pos_site_id
 _symmetry_equiv_pos_as_xyz
  1  'x, y, z'
loop_
 _atom_site_type_symbol
 _atom_site_label
 _atom_site_symmetry_multiplicity
 _atom_site_fract_x
 _atom_site_fract_y
 _atom_site_fract_z
 _atom_site_occupancy
  K  K0  1  0.49787498  0.99340377  0.67089185  1
  K  K1  1  0.01859880  0.50666316  0.82959446  1
  K  K2  1  0.48140120  0.00666316  0.32959446  1
  K  K3  1  0.00212502  0.49340377  0.17089185  1
  V  V4  1  0.52933181  0.48486728  0.34636839  1
  V  V5  1  0.02752103  0.01438879  0.15285090  1
  V  V6  1  0.47247897  0.51438879  0.65285090  1
  V  V7  1  0.97066819  0.98486728  0.84636839  1
  V  V8  1  0.90052977  0.00143807  0.49938689  1
  V  V9  1  0.59947023  0.50143807  0.99938689  1
  P  P10  1  0.02322312  0.69803638  0.39619430  1
  P  P11  1  0.52167381  0.80198502  0.10301969  1
  P  P12  1  0.97832619  0.30198502  0.60301969  1
  P  P13  1  0.47677688  0.19803638  0.89619430  1
  P  P14  1  0.03023651  0.30455669  0.42964015  1
  P  P15  1  0.52750266  0.19494805  0.06992723  1
  P  P16  1  0.97249734  0.69494805  0.56992723  1
  P  P17  1  0.46976349  0.80455669  0.92964015  1
  O  O18  1  0.49833944  0.43365711  0.25318946  1
  O  O19  1  0.99848188  0.06579795  0.24602063  1
  O  O20  1  0.50151812  0.56579795  0.74602063  1
  O  O21  1  0.00166056  0.93365711  0.75318946  1
  O  O22  1  0.54439028  0.13563444  0.97827828  1
  O  O23  1  0.04360897  0.36528180  0.52108288  1
  O  O24  1  0.45639103  0.86528180  0.02108288  1
  O  O25  1  0.95560972  0.63563444  0.47827828  1
  O  O26  1  0.51182282  0.35873501  0.07323375  1
  O  O27  1  0.02538868  0.14056472  0.42682936  1
  O  O28  1  0.47461132  0.64056472  0.92682936  1
  O  O29  1  0.98817718  0.85873501  0.57323375  1
  O  O30  1  0.82449028  0.62932529  0.33752791  1
  O  O31  1  0.32141766  0.86889090  0.16157854  1
  O  O32  1  0.17858234  0.36889090  0.66157854  1
  O  O33  1  0.67550972  0.12932529  0.83752791  1
  O  O34  1  0.30590412  0.65694026  0.37326291  1
  O  O35  1  0.80399696  0.84327671  0.12629243  1
  O  O36  1  0.69600304  0.34327671  0.62629243  1
  O  O37  1  0.19409588  0.15694026  0.87326291  1
  O  O38  1  0.28090056  0.13601247  0.10391717  1
  O  O39  1  0.78173308  0.36276368  0.39603383  1
  O  O40  1  0.71826692  0.86276368  0.89603383  1
  O  O41  1  0.21909944  0.63601247  0.60391717  1
  O  O42  1  0.50067643  0.36165205  0.90806615  1
  O  O43  1  0.00462044  0.13853787  0.59071319  1
  O  O44  1  0.49537956  0.63853787  0.09071319  1
  O  O45  1  0.99932357  0.86165205  0.40806615  1
  O  O46  1  0.27977265  0.35523375  0.39361818  1
  O  O47  1  0.77886319  0.14535365  0.10561606  1
  O  O48  1  0.72113681  0.64535365  0.60561606  1
  O  O49  1  0.22022735  0.85523375  0.89361818  1
  O  O50  1  0.92142748  0.50685513  0.00066540  1
  O  O51  1  0.57857252  0.00685513  0.50066540  1
