# generated using pymatgen
data_HfAlFe
_symmetry_space_group_name_H-M   'P 1'
_cell_length_a   5.10896789
_cell_length_b   5.10879813
_cell_length_c   8.27893406
_cell_angle_alpha   90.00000000
_cell_angle_beta   90.00000000
_cell_angle_gamma   59.71099567
_symmetry_Int_Tables_number   1
_chemical_formula_structural   HfAlFe
_chemical_formula_sum   'Hf4 Al4 Fe4'
_cell_volume   186.58848496
_cell_formula_units_Z   4
loop_
 _symmetry_equiv_pos_site_id
 _symmetry_equiv_pos_as_xyz
  1  'x, y, z'
loop_
 _atom_site_type_symbol
 _atom_site_label
 _atom_site_symmetry_multiplicity
 _atom_site_fract_x
 _atom_site_fract_y
 _atom_site_fract_z
 _atom_site_occupancy
  Hf  Hf0  1  0.33277025  0.33275306  0.56831954  1
  Hf  Hf1  1  0.66308096  0.66303860  0.45507206  1
  Hf  Hf2  1  0.66308096  0.66303860  0.04492794  1
  Hf  Hf3  1  0.33277025  0.33275306  0.93168046  1
  Al  Al4  1  0.83305486  0.83302768  0.75000000  1
  Al  Al5  1  0.16551967  0.66863618  0.25000000  1
  Al  Al6  1  0.66862432  0.16553360  0.25000000  1
  Al  Al7  1  0.16617060  0.16618326  0.25000000  1
  Fe  Fe8  1  0.00296740  0.00299861  0.50465661  1
  Fe  Fe9  1  0.00296740  0.00299861  0.99534339  1
  Fe  Fe10  1  0.83516264  0.33384724  0.75000000  1
  Fe  Fe11  1  0.33383068  0.83519150  0.75000000  1
