# generated using pymatgen
data_Ho2Fe17C
_symmetry_space_group_name_H-M   'P 1'
_cell_length_a   6.44943411
_cell_length_b   6.44943411
_cell_length_c   6.40582484
_cell_angle_alpha   83.18539396
_cell_angle_beta   83.18539396
_cell_angle_gamma   83.67791922
_symmetry_Int_Tables_number   1
_chemical_formula_structural   Ho2Fe17C
_chemical_formula_sum   'Ho2 Fe17 C1'
_cell_volume   261.45076565
_cell_formula_units_Z   1
loop_
 _symmetry_equiv_pos_site_id
 _symmetry_equiv_pos_as_xyz
  1  'x, y, z'
loop_
 _atom_site_type_symbol
 _atom_site_label
 _atom_site_symmetry_multiplicity
 _atom_site_fract_x
 _atom_site_fract_y
 _atom_site_fract_z
 _atom_site_occupancy
  Ho  Ho0  1  0.66057871  0.66057871  0.65281408  1
  Ho  Ho1  1  0.33942129  0.33942129  0.34718592  1
  Fe  Fe2  1  0.28542482  0.71457518  -0.00000000  1
  Fe  Fe3  1  0.70892172  0.00007771  0.29173155  1
  Fe  Fe4  1  0.99992229  0.29107828  0.70826845  1
  Fe  Fe5  1  0.29107828  0.99992229  0.70826845  1
  Fe  Fe6  1  0.00007771  0.70892172  0.29173155  1
  Fe  Fe7  1  0.71457518  0.28542482  0.00000000  1
  Fe  Fe8  1  0.90308468  0.90308468  0.90310625  1
  Fe  Fe9  1  0.09691532  0.09691532  0.09689375  1
  Fe  Fe10  1  0.00000000  -0.00000000  0.50000000  1
  Fe  Fe11  1  0.00000000  0.50000000  0.00000000  1
  Fe  Fe12  1  0.50000000  -0.00000000  0.00000000  1
  Fe  Fe13  1  0.84922785  0.34183346  0.34324575  1
  Fe  Fe14  1  0.34256520  0.34256520  0.84875345  1
  Fe  Fe15  1  0.34183346  0.84922785  0.34324575  1
  Fe  Fe16  1  0.15077215  0.65816654  0.65675425  1
  Fe  Fe17  1  0.65743480  0.65743480  0.15124655  1
  Fe  Fe18  1  0.65816654  0.15077215  0.65675425  1
  C  C19  1  0.50000000  0.50000000  0.00000000  1
