# generated using pymatgen
data_Ho4CoSn8
_symmetry_space_group_name_H-M   'P 1'
_cell_length_a   4.38318501
_cell_length_b   4.43398946
_cell_length_c   16.70875338
_cell_angle_alpha   90.00000000
_cell_angle_beta   90.00000000
_cell_angle_gamma   90.00000000
_symmetry_Int_Tables_number   1
_chemical_formula_structural   Ho4CoSn8
_chemical_formula_sum   'Ho4 Co1 Sn8'
_cell_volume   324.73455737
_cell_formula_units_Z   1
loop_
 _symmetry_equiv_pos_site_id
 _symmetry_equiv_pos_as_xyz
  1  'x, y, z'
loop_
 _atom_site_type_symbol
 _atom_site_label
 _atom_site_symmetry_multiplicity
 _atom_site_fract_x
 _atom_site_fract_y
 _atom_site_fract_z
 _atom_site_occupancy
  Ho  Ho0  1  0.25000000  -0.00000000  0.09806748  1
  Ho  Ho1  1  0.25000000  0.50000000  0.60110660  1
  Ho  Ho2  1  0.75000000  0.50000000  0.39647344  1
  Ho  Ho3  1  0.75000000  -0.00000000  0.89991325  1
  Co  Co4  1  0.25000000  -0.00000000  0.30662642  1
  Sn  Sn5  1  0.25000000  0.00000000  0.45285685  1
  Sn  Sn6  1  0.25000000  0.50000000  0.93750685  1
  Sn  Sn7  1  0.75000000  0.50000000  0.06266571  1
  Sn  Sn8  1  0.75000000  -0.00000000  0.57106968  1
  Sn  Sn9  1  0.25000000  0.50000000  0.23587204  1
  Sn  Sn10  1  0.25000000  -0.00000000  0.74526964  1
  Sn  Sn11  1  0.75000000  -0.00000000  0.23808660  1
  Sn  Sn12  1  0.75000000  0.50000000  0.75448544  1
