# generated using pymatgen
data_HfTaFe4
_symmetry_space_group_name_H-M   'P 1'
_cell_length_a   4.86531194
_cell_length_b   4.86576935
_cell_length_c   7.94601809
_cell_angle_alpha   90.00000000
_cell_angle_beta   90.00169533
_cell_angle_gamma   59.99688352
_symmetry_Int_Tables_number   1
_chemical_formula_structural   HfTaFe4
_chemical_formula_sum   'Hf2 Ta2 Fe8'
_cell_volume   162.90287563
_cell_formula_units_Z   2
loop_
 _symmetry_equiv_pos_site_id
 _symmetry_equiv_pos_as_xyz
  1  'x, y, z'
loop_
 _atom_site_type_symbol
 _atom_site_label
 _atom_site_symmetry_multiplicity
 _atom_site_fract_x
 _atom_site_fract_y
 _atom_site_fract_z
 _atom_site_occupancy
  Hf  Hf0  1  0.33340231  0.33329884  0.56542484  1
  Hf  Hf1  1  0.66659769  0.66670116  0.43457516  1
  Ta  Ta2  1  0.66667852  0.66666074  0.05888705  1
  Ta  Ta3  1  0.33332148  0.33333926  0.94111295  1
  Fe  Fe4  1  0.00000000  -0.00000000  0.50000000  1
  Fe  Fe5  1  0.00000000  -0.00000000  0.00000000  1
  Fe  Fe6  1  0.83180332  0.33650469  0.75469051  1
  Fe  Fe7  1  0.33656098  0.83171951  0.75454674  1
  Fe  Fe8  1  0.83180332  0.83169199  0.75469051  1
  Fe  Fe9  1  0.16819668  0.66349531  0.24530949  1
  Fe  Fe10  1  0.66343902  0.16828049  0.24545326  1
  Fe  Fe11  1  0.16819668  0.16830801  0.24530949  1
