# generated using pymatgen
data_DyAlSi
_symmetry_space_group_name_H-M   'P 1'
_cell_length_a   4.09506658
_cell_length_b   4.09506658
_cell_length_c   7.80492332
_cell_angle_alpha   74.79112342
_cell_angle_beta   74.79112342
_cell_angle_gamma   90.00000000
_symmetry_Int_Tables_number   1
_chemical_formula_structural   DyAlSi
_chemical_formula_sum   'Dy2 Al2 Si2'
_cell_volume   121.54415512
_cell_formula_units_Z   2
loop_
 _symmetry_equiv_pos_site_id
 _symmetry_equiv_pos_as_xyz
  1  'x, y, z'
loop_
 _atom_site_type_symbol
 _atom_site_label
 _atom_site_symmetry_multiplicity
 _atom_site_fract_x
 _atom_site_fract_y
 _atom_site_fract_z
 _atom_site_occupancy
  Dy  Dy0  1  0.87595717  0.62595717  0.24808566  1
  Dy  Dy1  1  0.12595717  0.37595717  0.74808566  1
  Al  Al2  1  0.54222448  0.79222448  0.91555104  1
  Al  Al3  1  0.29222448  0.04222448  0.41555104  1
  Si  Si4  1  0.45681835  0.20681835  0.08636330  1
  Si  Si5  1  0.70681835  0.95681835  0.58636330  1
