# generated using pymatgen
data_SnH6Cl2O11
_symmetry_space_group_name_H-M   'P 1'
_cell_length_a   7.26594494
_cell_length_b   7.26606489
_cell_length_c   9.98416772
_cell_angle_alpha   90.00000000
_cell_angle_beta   90.00000000
_cell_angle_gamma   120.00019466
_symmetry_Int_Tables_number   1
_chemical_formula_structural   SnH6Cl2O11
_chemical_formula_sum   'Sn2 H12 Cl4 O22'
_cell_volume   456.49184422
_cell_formula_units_Z   2
loop_
 _symmetry_equiv_pos_site_id
 _symmetry_equiv_pos_as_xyz
  1  'x, y, z'
loop_
 _atom_site_type_symbol
 _atom_site_label
 _atom_site_symmetry_multiplicity
 _atom_site_fract_x
 _atom_site_fract_y
 _atom_site_fract_z
 _atom_site_occupancy
  Sn  Sn0  1  0.99999678  0.99999916  0.52385146  1
  Sn  Sn1  1  0.00000322  0.00000084  0.02385146  1
  H  H2  1  0.81905662  0.21688281  0.66181244  1
  H  H3  1  0.78310209  0.60214945  0.66180506  1
  H  H4  1  0.39783660  0.18094801  0.66180495  1
  H  H5  1  0.18094338  0.78311719  0.16181244  1
  H  H6  1  0.21689791  0.39785055  0.16180506  1
  H  H7  1  0.60216340  0.81905199  0.16180495  1
  H  H8  1  0.04808773  0.29665317  0.72459783  1
  H  H9  1  0.70337059  0.75143583  0.72459438  1
  H  H10  1  0.24856317  0.95192759  0.72459558  1
  H  H11  1  0.95191227  0.70334683  0.22459783  1
  H  H12  1  0.29662941  0.24856417  0.22459438  1
  H  H13  1  0.75143683  0.04807241  0.22459558  1
  Cl  Cl14  1  0.66664416  0.33332729  0.40715810  1
  Cl  Cl15  1  0.33335584  0.66667271  0.90715810  1
  Cl  Cl16  1  0.33335782  0.66667938  0.47945568  1
  Cl  Cl17  1  0.66664218  0.33332062  0.97945568  1
  O  O18  1  0.92226730  0.17226378  0.68576234  1
  O  O19  1  0.82773364  0.75002452  0.68577350  1
  O  O20  1  0.24997659  0.07771118  0.68576935  1
  O  O21  1  0.07773270  0.82773622  0.18576234  1
  O  O22  1  0.17226636  0.24997548  0.18577350  1
  O  O23  1  0.75002341  0.92228882  0.18576935  1
  O  O24  1  0.15977597  0.69539209  0.52937257  1
  O  O25  1  0.30463258  0.46438379  0.52938017  1
  O  O26  1  0.53564715  0.84025257  0.52938853  1
  O  O27  1  0.84022403  0.30460791  0.02937257  1
  O  O28  1  0.69536742  0.53561621  0.02938017  1
  O  O29  1  0.46435285  0.15974743  0.02938853  1
  O  O30  1  0.33337301  0.66668479  0.33350268  1
  O  O31  1  0.66662699  0.33331521  0.83350268  1
  O  O32  1  0.74305771  0.54978402  0.36025597  1
  O  O33  1  0.45018963  0.19326761  0.36025020  1
  O  O34  1  0.80671245  0.25692183  0.36025785  1
  O  O35  1  0.25694229  0.45021598  0.86025597  1
  O  O36  1  0.54981037  0.80673239  0.86025020  1
  O  O37  1  0.19328755  0.74307817  0.86025785  1
  O  O38  1  0.66664101  0.33332064  0.55591137  1
  O  O39  1  0.33335899  0.66667936  0.05591137  1
