# generated using pymatgen
data_LaPbNO5
_symmetry_space_group_name_H-M   'P 1'
_cell_length_a   4.70213751
_cell_length_b   3.88306602
_cell_length_c   7.95058531
_cell_angle_alpha   71.22681854
_cell_angle_beta   72.79987425
_cell_angle_gamma   90.00000000
_symmetry_Int_Tables_number   1
_chemical_formula_structural   LaPbNO5
_chemical_formula_sum   'La1 Pb1 N1 O5'
_cell_volume   130.56886756
_cell_formula_units_Z   1
loop_
 _symmetry_equiv_pos_site_id
 _symmetry_equiv_pos_as_xyz
  1  'x, y, z'
loop_
 _atom_site_type_symbol
 _atom_site_label
 _atom_site_symmetry_multiplicity
 _atom_site_fract_x
 _atom_site_fract_y
 _atom_site_fract_z
 _atom_site_occupancy
  La  La0  1  0.83014935  0.83562658  0.33970130  1
  Pb  Pb1  1  0.17768588  0.14789278  0.64462823  1
  N  N2  1  0.48355141  0.43277958  0.03289719  1
  O  O3  1  0.27310872  0.76815255  0.45378257  1
  O  O4  1  0.74555963  0.22621122  0.50888075  1
  O  O5  1  0.55349199  0.33196287  0.89301602  1
  O  O6  1  0.21359504  0.48268721  0.10554698  1
  O  O7  1  0.68085799  0.48268721  0.10554698  1
