# generated using pymatgen
data_In10(Sn2S7)3
_symmetry_space_group_name_H-M   'P 1'
_cell_length_a   3.90900195
_cell_length_b   15.75168608
_cell_length_c   27.95671035
_cell_angle_alpha   95.42559931
_cell_angle_beta   90.46999443
_cell_angle_gamma   89.50844300
_symmetry_Int_Tables_number   1
_chemical_formula_structural   In10(Sn2S7)3
_chemical_formula_sum   'In20 Sn12 S42'
_cell_volume   1713.56647475
_cell_formula_units_Z   2
loop_
 _symmetry_equiv_pos_site_id
 _symmetry_equiv_pos_as_xyz
  1  'x, y, z'
loop_
 _atom_site_type_symbol
 _atom_site_label
 _atom_site_symmetry_multiplicity
 _atom_site_fract_x
 _atom_site_fract_y
 _atom_site_fract_z
 _atom_site_occupancy
  In  In0  1  0.50088156  0.08851162  0.95325251  1
  In  In1  1  0.49929096  0.91152261  0.04638713  1
  In  In2  1  0.99865422  0.47300128  0.24935430  1
  In  In3  1  0.00128486  0.52598274  0.75025171  1
  In  In4  1  0.00092105  0.08623852  0.45095799  1
  In  In5  1  0.99936833  0.90977501  0.54911121  1
  In  In6  1  0.50041841  0.29296778  0.48228732  1
  In  In7  1  0.49978227  0.71013386  0.51663466  1
  In  In8  1  0.99984995  0.50020307  0.50026677  1
  In  In9  1  0.00255862  0.30102248  0.96789728  1
  In  In10  1  0.99756057  0.69965634  0.03182491  1
  In  In11  1  0.50049143  0.37832229  0.83236330  1
  In  In12  1  0.49971463  0.62173501  0.16683727  1
  In  In13  1  0.99834595  0.26030152  0.72276318  1
  In  In14  1  0.00142003  0.73657400  0.27560231  1
  In  In15  1  0.49925458  0.41313031  0.64034729  1
  In  In16  1  0.50046081  0.58307839  0.36041398  1
  In  In17  1  0.49995388  0.49988950  0.99991266  1
  In  In18  1  0.99911008  0.12478718  0.07697583  1
  In  In19  1  0.00109058  0.87452591  0.92256637  1
  Sn  Sn20  1  0.49836753  0.09614717  0.80412773  1
  Sn  Sn21  1  0.50136694  0.90712087  0.19381436  1
  Sn  Sn22  1  0.50269554  0.30600252  0.34491729  1
  Sn  Sn23  1  0.49770661  0.69287917  0.65549927  1
  Sn  Sn24  1  0.50545374  0.35782211  0.13558441  1
  Sn  Sn25  1  0.49479153  0.64146033  0.86362737  1
  Sn  Sn26  1  0.50703361  0.13471750  0.58535039  1
  Sn  Sn27  1  0.62644825  0.17376909  0.21919006  1
  Sn  Sn28  1  0.37311771  0.82627541  0.78032407  1
  Sn  Sn29  1  0.41997065  0.04478545  0.31861497  1
  Sn  Sn30  1  0.57874599  0.95863193  0.68215282  1
  Sn  Sn31  1  0.49380805  0.84600798  0.39429727  1
  S  S32  1  0.50139004  0.39876550  0.73801758  1
  S  S33  1  0.49913703  0.60234042  0.26295682  1
  S  S34  1  0.99502892  0.01056965  0.22985242  1
  S  S35  1  0.00493320  0.98881450  0.76940964  1
  S  S36  1  0.00380074  0.26874594  0.81521655  1
  S  S37  1  0.99642195  0.73172540  0.18461043  1
  S  S38  1  0.99482203  0.20272619  0.52147832  1
  S  S39  1  0.00240422  0.79990775  0.47660153  1
  S  S40  1  0.00328657  0.20340473  0.30171823  1
  S  S41  1  0.99702345  0.79639390  0.69827391  1
  S  S42  1  0.99644190  0.16444506  0.91528766  1
  S  S43  1  0.00351926  0.83601542  0.08521407  1
  S  S44  1  0.99743734  0.36334177  0.43843356  1
  S  S45  1  0.00252838  0.63666970  0.56012035  1
  S  S46  1  0.00616160  0.02797691  0.61943387  1
  S  S47  1  0.99453374  0.96999512  0.37879836  1
  S  S48  1  0.00581925  0.23822749  0.15061925  1
  S  S49  1  0.99403898  0.76177223  0.84948172  1
  S  S50  1  0.50687105  0.36369784  0.23496471  1
  S  S51  1  0.49307852  0.63627098  0.76532166  1
  S  S52  1  0.50215441  0.03855276  0.11264539  1
  S  S53  1  0.49747886  0.96056942  0.88840618  1
  S  S54  1  0.00265749  0.47334885  0.34053648  1
  S  S55  1  0.99764664  0.52705364  0.65915210  1
  S  S56  1  0.49734248  0.37529103  0.92781987  1
  S  S57  1  0.50260402  0.62486516  0.07252057  1
  S  S58  1  0.50404431  0.15157702  0.71495549  1
  S  S59  1  0.49599635  0.84577063  0.28796207  1
  S  S60  1  0.99892989  0.29845287  0.63630513  1
  S  S61  1  0.00326999  0.70297408  0.36335911  1
  S  S62  1  0.49546410  0.16442828  0.40874172  1
  S  S63  1  0.50431155  0.83344890  0.59069307  1
  S  S64  1  0.50107123  0.42477872  0.54614256  1
  S  S65  1  0.49888513  0.57538677  0.45292708  1
  S  S66  1  0.00329310  0.49687955  0.84027702  1
  S  S67  1  0.99696164  0.50359871  0.16027730  1
  S  S68  1  0.00001589  0.41100729  0.03842257  1
  S  S69  1  -0.00022445  0.58845442  0.96207670  1
  S  S70  1  0.49747683  0.19942391  0.02899649  1
  S  S71  1  0.50230035  0.79965434  0.97190350  1
  S  S72  1  0.99984198  0.00015986  0.00044424  1
  S  S73  1  0.49988112  0.00773832  0.50361676  1
