# generated using pymatgen
data_Er2Fe17C
_symmetry_space_group_name_H-M   'P 1'
_cell_length_a   6.43668752
_cell_length_b   6.43668752
_cell_length_c   6.39556164
_cell_angle_alpha   83.16880330
_cell_angle_beta   83.16880330
_cell_angle_gamma   83.52546150
_symmetry_Int_Tables_number   1
_chemical_formula_structural   Er2Fe17C
_chemical_formula_sum   'Er2 Fe17 C1'
_cell_volume   259.91519270
_cell_formula_units_Z   1
loop_
 _symmetry_equiv_pos_site_id
 _symmetry_equiv_pos_as_xyz
  1  'x, y, z'
loop_
 _atom_site_type_symbol
 _atom_site_label
 _atom_site_symmetry_multiplicity
 _atom_site_fract_x
 _atom_site_fract_y
 _atom_site_fract_z
 _atom_site_occupancy
  Er  Er0  1  0.66015418  0.66015418  0.65080723  1
  Er  Er1  1  0.33984582  0.33984582  0.34919277  1
  Fe  Fe2  1  0.90338989  0.90338989  0.90328695  1
  Fe  Fe3  1  0.09661011  0.09661011  0.09671305  1
  Fe  Fe4  1  0.34342666  0.34342666  0.84769276  1
  Fe  Fe5  1  0.34291248  0.84990713  0.34451457  1
  Fe  Fe6  1  0.84990713  0.34291248  0.34451457  1
  Fe  Fe7  1  0.65657334  0.65657334  0.15230724  1
  Fe  Fe8  1  0.65708752  0.15009287  0.65548543  1
  Fe  Fe9  1  0.15009287  0.65708752  0.65548543  1
  Fe  Fe10  1  0.28538327  0.71461673  0.00000000  1
  Fe  Fe11  1  0.70861951  0.00046784  0.29210590  1
  Fe  Fe12  1  0.99953216  0.29138049  0.70789410  1
  Fe  Fe13  1  0.29138049  0.99953216  0.70789410  1
  Fe  Fe14  1  0.00046784  0.70861951  0.29210590  1
  Fe  Fe15  1  0.71461673  0.28538327  0.00000000  1
  Fe  Fe16  1  0.00000000  0.00000000  0.50000000  1
  Fe  Fe17  1  0.00000000  0.50000000  0.00000000  1
  Fe  Fe18  1  0.50000000  0.00000000  0.00000000  1
  C  C19  1  0.50000000  0.50000000  0.00000000  1
