# generated using pymatgen
data_FeCoSi2
_symmetry_space_group_name_H-M   'P 1'
_cell_length_a   4.45181230
_cell_length_b   4.44443192
_cell_length_c   4.43821310
_cell_angle_alpha   90.00000000
_cell_angle_beta   90.00000000
_cell_angle_gamma   90.14057243
_symmetry_Int_Tables_number   1
_chemical_formula_structural   FeCoSi2
_chemical_formula_sum   'Fe2 Co2 Si4'
_cell_volume   87.81322887
_cell_formula_units_Z   2
loop_
 _symmetry_equiv_pos_site_id
 _symmetry_equiv_pos_as_xyz
  1  'x, y, z'
loop_
 _atom_site_type_symbol
 _atom_site_label
 _atom_site_symmetry_multiplicity
 _atom_site_fract_x
 _atom_site_fract_y
 _atom_site_fract_z
 _atom_site_occupancy
  Fe  Fe0  1  0.36368153  0.85829563  0.64091408  1
  Fe  Fe1  1  0.13631847  0.14170437  0.14091408  1
  Co  Co2  1  0.85614289  0.63728659  0.36140074  1
  Co  Co3  1  0.64385711  0.36271341  0.86140074  1
  Si  Si4  1  0.16206415  0.34159233  0.65660450  1
  Si  Si5  1  0.33793585  0.65840767  0.15660450  1
  Si  Si6  1  0.65525600  0.15629704  0.34108068  1
  Si  Si7  1  0.84474400  0.84370296  0.84108068  1
