# generated using pymatgen
data_ErB4(IrRh)2
_symmetry_space_group_name_H-M   'P 1'
_cell_length_a   5.37367355
_cell_length_b   5.37367355
_cell_length_c   7.45069331
_cell_angle_alpha   90.00000000
_cell_angle_beta   90.00000000
_cell_angle_gamma   90.00000000
_symmetry_Int_Tables_number   1
_chemical_formula_structural   ErB4(IrRh)2
_chemical_formula_sum   'Er2 B8 Ir4 Rh4'
_cell_volume   215.14895757
_cell_formula_units_Z   2
loop_
 _symmetry_equiv_pos_site_id
 _symmetry_equiv_pos_as_xyz
  1  'x, y, z'
loop_
 _atom_site_type_symbol
 _atom_site_label
 _atom_site_symmetry_multiplicity
 _atom_site_fract_x
 _atom_site_fract_y
 _atom_site_fract_z
 _atom_site_occupancy
  Er  Er0  1  0.75000000  0.25000000  0.24804899  1
  Er  Er1  1  0.25000000  0.75000000  0.74804899  1
  B  B2  1  0.57857784  0.75000000  0.40358683  1
  B  B3  1  0.92142216  0.75000000  0.40358683  1
  B  B4  1  0.75000000  0.57857784  0.90358683  1
  B  B5  1  0.75000000  0.92142216  0.90358683  1
  B  B6  1  0.42008535  0.25000000  0.59836088  1
  B  B7  1  0.07991465  0.25000000  0.59836088  1
  B  B8  1  0.25000000  0.42008535  0.09836088  1
  B  B9  1  0.25000000  0.07991465  0.09836088  1
  Ir  Ir10  1  0.00161697  0.75000000  0.10512229  1
  Ir  Ir11  1  0.49838303  0.75000000  0.10512229  1
  Ir  Ir12  1  0.75000000  0.00161697  0.60512229  1
  Ir  Ir13  1  0.75000000  0.49838303  0.60512229  1
  Rh  Rh14  1  0.99940772  0.25000000  0.89390550  1
  Rh  Rh15  1  0.50059228  0.25000000  0.89390550  1
  Rh  Rh16  1  0.25000000  0.99940772  0.39390550  1
  Rh  Rh17  1  0.25000000  0.50059228  0.39390550  1
