# generated using pymatgen
data_Cu6Te2Mo2H2Cl4O15
_symmetry_space_group_name_H-M   'P 1'
_cell_length_a   6.24900722
_cell_length_b   6.43558129
_cell_length_c   12.16798928
_cell_angle_alpha   81.39394517
_cell_angle_beta   85.44596127
_cell_angle_gamma   86.08947298
_symmetry_Int_Tables_number   1
_chemical_formula_structural   Cu6Te2Mo2H2Cl4O15
_chemical_formula_sum   'Cu6 Te2 Mo2 H2 Cl4 O15'
_cell_volume   481.52249513
_cell_formula_units_Z   1
loop_
 _symmetry_equiv_pos_site_id
 _symmetry_equiv_pos_as_xyz
  1  'x, y, z'
loop_
 _atom_site_type_symbol
 _atom_site_label
 _atom_site_symmetry_multiplicity
 _atom_site_fract_x
 _atom_site_fract_y
 _atom_site_fract_z
 _atom_site_occupancy
  Cu  Cu0  1  0.34367744  0.46729354  0.10256957  1
  Cu  Cu1  1  0.65542654  0.53096372  0.89614607  1
  Cu  Cu2  1  0.01151342  0.10291756  0.10711087  1
  Cu  Cu3  1  0.98935019  0.89421060  0.89294903  1
  Cu  Cu4  1  0.32925878  0.97285848  0.30603787  1
  Cu  Cu5  1  0.66711522  0.04163943  0.69399152  1
  Te  Te6  1  0.16272800  0.38436773  0.83985134  1
  Te  Te7  1  0.83567349  0.61272372  0.15871932  1
  Mo  Mo8  1  0.14993160  0.95158664  0.60789506  1
  Mo  Mo9  1  0.85174415  0.04191196  0.39250946  1
  H  H10  1  0.89641747  0.54479083  0.41254981  1
  H  H11  1  0.99602542  0.61201886  0.51588458  1
  Cl  Cl12  1  0.34231972  0.52873542  0.27835956  1
  Cl  Cl13  1  0.66234793  0.46546388  0.72082583  1
  Cl  Cl14  1  0.47833707  0.03922472  0.13250179  1
  Cl  Cl15  1  0.51741825  0.95792617  0.86640069  1
  O  O16  1  0.63871759  0.54425397  0.06003845  1
  O  O17  1  0.35995346  0.45454559  0.93808250  1
  O  O18  1  0.18983890  0.67960072  0.63664250  1
  O  O19  1  0.82042979  0.31419718  0.35451094  1
  O  O20  1  0.02167646  0.16661898  0.94228139  1
  O  O21  1  0.97795752  0.83144973  0.05736632  1
  O  O22  1  0.16989816  0.00624140  0.44709388  1
  O  O23  1  0.83880243  0.02914062  0.55467887  1
  O  O24  1  0.03169885  0.97690763  0.26235656  1
  O  O25  1  0.97047900  0.01777068  0.73795649  1
  O  O26  1  0.59876196  0.95207154  0.36791081  1
  O  O27  1  0.39036851  0.06750780  0.63214378  1
  O  O28  1  0.04532260  0.39309189  0.12291108  1
  O  O29  1  0.95391107  0.60491057  0.87559846  1
  O  O30  1  0.90269902  0.66155846  0.45542561  1
