# generated using pymatgen
data_CrFe4
_symmetry_space_group_name_H-M   'P 1'
_cell_length_a   2.45364148
_cell_length_b   2.45364148
_cell_length_c   10.15616113
_cell_angle_alpha   85.32315348
_cell_angle_beta   85.32315348
_cell_angle_gamma   108.96625247
_symmetry_Int_Tables_number   1
_chemical_formula_structural   CrFe4
_chemical_formula_sum   'Cr1 Fe4'
_cell_volume   57.25187595
_cell_formula_units_Z   1
loop_
 _symmetry_equiv_pos_site_id
 _symmetry_equiv_pos_as_xyz
  1  'x, y, z'
loop_
 _atom_site_type_symbol
 _atom_site_label
 _atom_site_symmetry_multiplicity
 _atom_site_fract_x
 _atom_site_fract_y
 _atom_site_fract_z
 _atom_site_occupancy
  Cr  Cr0  1  0.00000000  -0.00000000  -0.00000000  1
  Fe  Fe1  1  0.40036397  0.40036397  0.19927206  1
  Fe  Fe2  1  0.80023638  0.80023638  0.39952724  1
  Fe  Fe3  1  0.19976362  0.19976362  0.60047276  1
  Fe  Fe4  1  0.59963603  0.59963603  0.80072794  1
