# generated using pymatgen
data_H19C6N3ClO2
_symmetry_space_group_name_H-M   'P 1'
_cell_length_a   8.26278331
_cell_length_b   9.02820312
_cell_length_c   8.98812971
_cell_angle_alpha   70.15015380
_cell_angle_beta   80.40275231
_cell_angle_gamma   81.28004110
_symmetry_Int_Tables_number   1
_chemical_formula_structural   H19C6N3ClO2
_chemical_formula_sum   'H38 C12 N6 Cl2 O4'
_cell_volume   618.56289172
_cell_formula_units_Z   2
loop_
 _symmetry_equiv_pos_site_id
 _symmetry_equiv_pos_as_xyz
  1  'x, y, z'
loop_
 _atom_site_type_symbol
 _atom_site_label
 _atom_site_symmetry_multiplicity
 _atom_site_fract_x
 _atom_site_fract_y
 _atom_site_fract_z
 _atom_site_occupancy
  H  H0  1  0.58495539  0.34853404  0.62276181  1
  H  H1  1  0.41504461  0.65146596  0.37723819  1
  H  H2  1  0.48107594  0.69159109  0.98585821  1
  H  H3  1  0.51892406  0.30840891  0.01414179  1
  H  H4  1  0.41229808  0.64457228  0.85965150  1
  H  H5  1  0.58770192  0.35542772  0.14034850  1
  H  H6  1  0.65872029  0.39218269  0.44242347  1
  H  H7  1  0.34127971  0.60781731  0.55757653  1
  H  H8  1  0.80723053  0.59574653  0.87596049  1
  H  H9  1  0.19276947  0.40425347  0.12403951  1
  H  H10  1  0.79309633  0.49944416  0.73646806  1
  H  H11  1  0.20690367  0.50055584  0.26353194  1
  H  H12  1  0.99203646  0.53262266  0.76682837  1
  H  H13  1  0.00796354  0.46737734  0.23317163  1
  H  H14  1  0.88944993  0.84908129  0.38856748  1
  H  H15  1  0.11055007  0.15091871  0.61143252  1
  H  H16  1  0.01117036  0.66554327  0.46212673  1
  H  H17  1  0.98882964  0.33445673  0.53787327  1
  H  H18  1  0.79793859  0.66842853  0.44091710  1
  H  H19  1  0.20206141  0.33157147  0.55908290  1
  H  H20  1  0.61266795  0.02537063  0.83667383  1
  H  H21  1  0.38733205  0.97462937  0.16332617  1
  H  H22  1  0.72569066  0.93742769  0.00363971  1
  H  H23  1  0.27430934  0.06257231  0.99636029  1
  H  H24  1  0.79105004  0.10933470  0.84632878  1
  H  H25  1  0.20894996  0.89066530  0.15367122  1
  H  H26  1  0.07183927  0.76645544  0.77758803  1
  H  H27  1  0.92816073  0.23354456  0.22241197  1
  H  H28  1  0.05602549  0.91232569  0.87273184  1
  H  H29  1  0.94397451  0.08767431  0.12726816  1
  H  H30  1  0.97032732  0.72968381  0.97658301  1
  H  H31  1  0.02967268  0.27031619  0.02341699  1
  H  H32  1  0.70014836  0.10303586  0.56743249  1
  H  H33  1  0.29985164  0.89696414  0.43256751  1
  H  H34  1  0.57573358  0.83028655  0.51889794  1
  H  H35  1  0.42426642  0.16971345  0.48110206  1
  H  H36  1  0.62017965  0.00072664  0.35076491  1
  H  H37  1  0.37982035  0.99927336  0.64923509  1
  C  C38  1  0.58436634  0.95811788  0.48059553  1
  C  C39  1  0.41563366  0.04188212  0.51940447  1
  C  C40  1  0.86189938  0.58188397  0.76131648  1
  C  C41  1  0.13810062  0.41811603  0.23868352  1
  C  C42  1  0.88716640  0.72851104  0.47237035  1
  C  C43  1  0.11283360  0.27148896  0.52762965  1
  C  C44  1  0.73596808  0.99798754  0.87423312  1
  C  C45  1  0.26403192  0.00201246  0.12576688  1
  C  C46  1  0.99185252  0.82029151  0.85907025  1
  C  C47  1  0.00814748  0.17970849  0.14092975  1
  C  C48  1  0.79487250  0.87109522  0.66586789  1
  C  C49  1  0.20512750  0.12890478  0.33413211  1
  N  N50  1  0.70412293  0.98753714  0.56685932  1
  N  N51  1  0.29587707  0.01246286  0.43314068  1
  N  N52  1  0.84620162  0.73400666  0.63480901  1
  N  N53  1  0.15379838  0.26599334  0.36519099  1
  N  N54  1  0.83703611  0.89255493  0.79567158  1
  N  N55  1  0.16296389  0.10744507  0.20432842  1
  Cl  Cl56  1  0.61950801  0.57164136  0.21472701  1
  Cl  Cl57  1  0.38049199  0.42835864  0.78527299  1
  O  O58  1  0.67298481  0.31341582  0.54900408  1
  O  O59  1  0.32701519  0.68658418  0.45099592  1
  O  O60  1  0.42719950  0.73744123  0.88841267  1
  O  O61  1  0.57280050  0.26255877  0.11158733  1
