# generated using pymatgen
data_Cu3P(SeS)2
_symmetry_space_group_name_H-M   'P 1'
_cell_length_a   6.28604430
_cell_length_b   6.55691235
_cell_length_c   7.41774405
_cell_angle_alpha   90.00000000
_cell_angle_beta   90.00000000
_cell_angle_gamma   90.00000000
_symmetry_Int_Tables_number   1
_chemical_formula_structural   Cu3P(SeS)2
_chemical_formula_sum   'Cu6 P2 Se4 S4'
_cell_volume   305.73746437
_cell_formula_units_Z   2
loop_
 _symmetry_equiv_pos_site_id
 _symmetry_equiv_pos_as_xyz
  1  'x, y, z'
loop_
 _atom_site_type_symbol
 _atom_site_label
 _atom_site_symmetry_multiplicity
 _atom_site_fract_x
 _atom_site_fract_y
 _atom_site_fract_z
 _atom_site_occupancy
  Cu  Cu0  1  0.52735191  0.83320994  0.50000000  1
  Cu  Cu1  1  0.02735191  0.16679006  -0.00000000  1
  Cu  Cu2  1  0.48732873  0.34061018  0.24566630  1
  Cu  Cu3  1  0.48732873  0.34061018  0.75433370  1
  Cu  Cu4  1  0.98732873  0.65938982  0.25433370  1
  Cu  Cu5  1  0.98732873  0.65938982  0.74566630  1
  P  P6  1  0.01996041  0.18344509  0.50000000  1
  P  P7  1  0.51996041  0.81655491  -0.00000000  1
  Se  Se8  1  0.65833806  0.18019646  0.50000000  1
  Se  Se9  1  0.15833806  0.81980354  -0.00000000  1
  Se  Se10  1  0.13988692  0.85779773  0.50000000  1
  Se  Se11  1  0.63988692  0.14220227  -0.00000000  1
  S  S12  1  0.12790263  0.33836245  0.26434805  1
  S  S13  1  0.12790263  0.33836245  0.73565195  1
  S  S14  1  0.62790263  0.66163755  0.23565195  1
  S  S15  1  0.62790263  0.66163755  0.76434805  1
