# generated using pymatgen
data_Cu2NiTeO6
_symmetry_space_group_name_H-M   'P 1'
_cell_length_a   8.36916543
_cell_length_b   8.36916543
_cell_length_c   8.36916543
_cell_angle_alpha   70.76385846
_cell_angle_beta   70.46253764
_cell_angle_gamma   109.64032987
_symmetry_Int_Tables_number   1
_chemical_formula_structural   Cu2NiTeO6
_chemical_formula_sum   'Cu8 Ni4 Te4 O24'
_cell_volume   451.25157940
_cell_formula_units_Z   4
loop_
 _symmetry_equiv_pos_site_id
 _symmetry_equiv_pos_as_xyz
  1  'x, y, z'
loop_
 _atom_site_type_symbol
 _atom_site_label
 _atom_site_symmetry_multiplicity
 _atom_site_fract_x
 _atom_site_fract_y
 _atom_site_fract_z
 _atom_site_occupancy
  Cu  Cu0  1  0.75000000  0.52705556  0.22294444  1
  Cu  Cu1  1  0.25000000  0.97294444  0.27705556  1
  Cu  Cu2  1  0.22162720  0.75000000  0.02837280  1
  Cu  Cu3  1  0.27837280  0.25000000  0.47162720  1
  Cu  Cu4  1  0.52917740  0.77917740  0.25000000  1
  Cu  Cu5  1  0.97082260  0.72082260  0.75000000  1
  Cu  Cu6  1  0.25000000  0.46971720  0.78028280  1
  Cu  Cu7  1  0.75000000  0.03028280  0.71971720  1
  Ni  Ni8  1  0.79042275  0.25000000  0.95957725  1
  Ni  Ni9  1  0.70957725  0.75000000  0.54042275  1
  Ni  Ni10  1  0.46125387  0.21125387  0.75000000  1
  Ni  Ni11  1  0.03874613  0.28874613  0.25000000  1
  Te  Te12  1  0.50362785  0.50364769  0.99748306  1
  Te  Te13  1  0.49886925  0.99635231  0.50001983  1
  Te  Te14  1  0.00113075  0.50111091  0.50251694  1
  Te  Te15  1  0.99637215  0.99888909  0.99998017  1
  O  O16  1  0.95816871  0.51538560  0.27541998  1
  O  O17  1  0.20919441  0.98461440  0.05721689  1
  O  O18  1  0.29080559  0.23358869  0.22458002  1
  O  O19  1  0.54183129  0.26641131  0.44278311  1
  O  O20  1  0.56909801  0.04096487  0.23599233  1
  O  O21  1  0.77695720  0.80509034  0.26400767  1
  O  O22  1  0.93090199  0.69490966  0.52813314  1
  O  O23  1  0.72304280  0.45903513  0.97186686  1
  O  O24  1  0.48164516  0.44322683  0.79190192  1
  O  O25  1  0.01835484  0.22645292  0.03841833  1
  O  O26  1  0.76487125  0.05677317  0.46158167  1
  O  O27  1  0.73512875  0.27354708  0.70809808  1
  O  O28  1  0.04744370  0.47782482  0.72043067  1
  O  O29  1  0.80174451  0.02217518  0.93038112  1
  O  O30  1  0.69825549  0.76787438  0.77956933  1
  O  O31  1  0.45255630  0.73212562  0.56961888  1
  O  O32  1  0.42922146  0.95439978  0.76517172  1
  O  O33  1  0.21957150  0.19439318  0.73482828  1
  O  O34  1  0.07077854  0.30560682  0.47482168  1
  O  O35  1  0.28042850  0.54560022  0.02517832  1
  O  O36  1  0.52844130  0.56581621  0.20107609  1
  O  O37  1  0.97155870  0.77048260  0.96262509  1
  O  O38  1  0.23310769  0.93418379  0.53737491  1
  O  O39  1  0.26689231  0.72951740  0.29892391  1
