# generated using pymatgen
data_Dy2Ga3(Fe7C)2
_symmetry_space_group_name_H-M   'P 1'
_cell_length_a   6.47357225
_cell_length_b   6.49180661
_cell_length_c   6.47357225
_cell_angle_alpha   83.55365795
_cell_angle_beta   82.72637906
_cell_angle_gamma   83.55365795
_symmetry_Int_Tables_number   1
_chemical_formula_structural   Dy2Ga3(Fe7C)2
_chemical_formula_sum   'Dy2 Ga3 Fe14 C2'
_cell_volume   266.82730082
_cell_formula_units_Z   1
loop_
 _symmetry_equiv_pos_site_id
 _symmetry_equiv_pos_as_xyz
  1  'x, y, z'
loop_
 _atom_site_type_symbol
 _atom_site_label
 _atom_site_symmetry_multiplicity
 _atom_site_fract_x
 _atom_site_fract_y
 _atom_site_fract_z
 _atom_site_occupancy
  Dy  Dy0  1  0.65209566  0.66170517  0.65209566  1
  Dy  Dy1  1  0.34790434  0.33829483  0.34790434  1
  Ga  Ga2  1  0.00000000  0.50000000  0.00000000  1
  Ga  Ga3  1  0.50000000  -0.00000000  0.00000000  1
  Ga  Ga4  1  0.00000000  -0.00000000  0.50000000  1
  Fe  Fe5  1  0.90742874  0.90424001  0.90742874  1
  Fe  Fe6  1  0.09257126  0.09575999  0.09257126  1
  Fe  Fe7  1  0.34655379  0.84839797  0.34655379  1
  Fe  Fe8  1  0.84902777  0.34418958  0.34695306  1
  Fe  Fe9  1  0.34695306  0.34418958  0.84902777  1
  Fe  Fe10  1  0.65344621  0.15160203  0.65344621  1
  Fe  Fe11  1  0.15097223  0.65581042  0.65304694  1
  Fe  Fe12  1  0.65304694  0.65581042  0.15097223  1
  Fe  Fe13  1  0.70780466  -0.00000000  0.29219534  1
  Fe  Fe14  1  0.00045724  0.28629002  0.71322686  1
  Fe  Fe15  1  0.28677314  0.71370998  -0.00045724  1
  Fe  Fe16  1  -0.00045724  0.71370998  0.28677314  1
  Fe  Fe17  1  0.71322686  0.28629002  0.00045724  1
  Fe  Fe18  1  0.29219534  -0.00000000  0.70780466  1
  C  C19  1  0.00000000  0.50000000  0.50000000  1
  C  C20  1  0.50000000  0.50000000  0.00000000  1
