# generated using pymatgen
data_CdCu2GeSe4
_symmetry_space_group_name_H-M   'P 1'
_cell_length_a   6.66699151
_cell_length_b   7.04544466
_cell_length_c   8.09123336
_cell_angle_alpha   90.00000000
_cell_angle_beta   90.38348905
_cell_angle_gamma   90.00000000
_symmetry_Int_Tables_number   1
_chemical_formula_structural   CdCu2GeSe4
_chemical_formula_sum   'Cd2 Cu4 Ge2 Se8'
_cell_volume   380.05225123
_cell_formula_units_Z   2
loop_
 _symmetry_equiv_pos_site_id
 _symmetry_equiv_pos_as_xyz
  1  'x, y, z'
loop_
 _atom_site_type_symbol
 _atom_site_label
 _atom_site_symmetry_multiplicity
 _atom_site_fract_x
 _atom_site_fract_y
 _atom_site_fract_z
 _atom_site_occupancy
  Cd  Cd0  1  0.98128636  0.16917111  0.75365492  1
  Cd  Cd1  1  0.48128636  0.83082889  0.25365492  1
  Cu  Cu2  1  0.98359025  0.16617202  0.24748680  1
  Cu  Cu3  1  0.48359025  0.83382798  0.74748680  1
  Cu  Cu4  1  0.97584522  0.65386440  0.50055785  1
  Cu  Cu5  1  0.47584522  0.34613560  0.00055785  1
  Ge  Ge6  1  0.47928690  0.33406622  0.50016128  1
  Ge  Ge7  1  0.97928690  0.66593378  0.00016128  1
  Se  Se8  1  0.34510718  0.18821413  0.24776056  1
  Se  Se9  1  0.38524868  0.16190972  0.75094877  1
  Se  Se10  1  0.88524868  0.83809028  0.25094877  1
  Se  Se11  1  0.84510718  0.81178587  0.74776056  1
  Se  Se12  1  0.84394385  0.33512573  0.48011413  1
  Se  Se13  1  0.34394385  0.66487427  0.98011413  1
  Se  Se14  1  0.34159155  0.65165678  0.51931570  1
  Se  Se15  1  0.84159155  0.34834322  0.01931570  1
