# generated using pymatgen
data_CaHF
_symmetry_space_group_name_H-M   'P 1'
_cell_length_a   3.87511337
_cell_length_b   3.87511337
_cell_length_c   6.71176335
_cell_angle_alpha   73.22101080
_cell_angle_beta   90.00000000
_cell_angle_gamma   120.00000000
_symmetry_Int_Tables_number   1
_chemical_formula_structural   CaHF
_chemical_formula_sum   'Ca2 H2 F2'
_cell_volume   82.29222029
_cell_formula_units_Z   2
loop_
 _symmetry_equiv_pos_site_id
 _symmetry_equiv_pos_as_xyz
  1  'x, y, z'
loop_
 _atom_site_type_symbol
 _atom_site_label
 _atom_site_symmetry_multiplicity
 _atom_site_fract_x
 _atom_site_fract_y
 _atom_site_fract_z
 _atom_site_occupancy
  Ca  Ca0  1  -0.00000190  -0.00000380  0.00000570  1
  Ca  Ca1  1  0.49999810  -0.00000380  0.50000570  1
  H  H2  1  0.87499797  0.74999593  0.37500610  1
  H  H3  1  0.37499797  0.74999593  0.87500610  1
  F  F4  1  0.62500393  0.25000787  0.12498820  1
  F  F5  1  0.12500393  0.25000787  0.62498820  1
