# generated using pymatgen
data_CdIn2SeS3
_symmetry_space_group_name_H-M   'P 1'
_cell_length_a   7.90651560
_cell_length_b   7.93533661
_cell_length_c   7.87847739
_cell_angle_alpha   90.00000000
_cell_angle_beta   60.11723868
_cell_angle_gamma   120.12065646
_symmetry_Int_Tables_number   1
_chemical_formula_structural   CdIn2SeS3
_chemical_formula_sum   'Cd2 In4 Se2 S6'
_cell_volume   349.50506384
_cell_formula_units_Z   2
loop_
 _symmetry_equiv_pos_site_id
 _symmetry_equiv_pos_as_xyz
  1  'x, y, z'
loop_
 _atom_site_type_symbol
 _atom_site_label
 _atom_site_symmetry_multiplicity
 _atom_site_fract_x
 _atom_site_fract_y
 _atom_site_fract_z
 _atom_site_occupancy
  Cd  Cd0  1  0.73285881  0.36642940  0.38357060  1
  Cd  Cd1  1  0.25309612  0.62654806  0.62345194  1
  In  In2  1  0.50703438  0.50377494  0.99648281  1
  In  In3  1  0.50703438  0.00325944  0.99648281  1
  In  In4  1  0.00025009  0.00012504  0.50597712  1
  In  In5  1  0.00025009  0.00012504  0.99377279  1
  Se  Se6  1  0.01730914  0.77509473  0.24134543  1
  Se  Se7  1  0.01730914  0.24221441  0.24134543  1
  S  S8  1  0.47962484  0.23981242  0.78155330  1
  S  S9  1  0.47962484  0.23981242  0.23882186  1
  S  S10  1  0.98145627  0.22175114  0.75927187  1
  S  S11  1  0.98145627  0.75970513  0.75927187  1
  S  S12  1  0.52134782  0.76067391  0.21841785  1
  S  S13  1  0.52134782  0.76067391  0.76023432  1
