# generated using pymatgen
data_Cd5Bi6(Cl3O2)4
_symmetry_space_group_name_H-M   'P 1'
_cell_length_a   5.55596823
_cell_length_b   12.42387078
_cell_length_c   11.11404462
_cell_angle_alpha   63.43031326
_cell_angle_beta   90.00000000
_cell_angle_gamma   102.92059804
_symmetry_Int_Tables_number   1
_chemical_formula_structural   Cd5Bi6(Cl3O2)4
_chemical_formula_sum   'Cd5 Bi6 Cl12 O8'
_cell_volume   664.35700254
_cell_formula_units_Z   1
loop_
 _symmetry_equiv_pos_site_id
 _symmetry_equiv_pos_as_xyz
  1  'x, y, z'
loop_
 _atom_site_type_symbol
 _atom_site_label
 _atom_site_symmetry_multiplicity
 _atom_site_fract_x
 _atom_site_fract_y
 _atom_site_fract_z
 _atom_site_occupancy
  Cd  Cd0  1  0.30475940  0.60951880  0.94524060  1
  Cd  Cd1  1  0.69524060  0.39048120  0.55475940  1
  Cd  Cd2  1  0.50000000  1.00000000  0.48096291  1
  Cd  Cd3  1  -0.00000000  -0.00000000  0.75000000  1
  Cd  Cd4  1  0.50000000  0.00000000  0.01903709  1
  Bi  Bi5  1  0.80682973  0.61365947  0.19736869  1
  Bi  Bi6  1  0.30530563  0.61061125  0.44469437  1
  Bi  Bi7  1  0.80682973  0.61365947  0.68897184  1
  Bi  Bi8  1  0.19317027  0.38634053  0.81102816  1
  Bi  Bi9  1  0.69469437  0.38938875  0.05530563  1
  Bi  Bi10  1  0.19317027  0.38634053  0.30263131  1
  Cl  Cl11  1  0.12744645  0.25489291  0.12255355  1
  Cl  Cl12  1  0.61891519  0.23783037  0.39446672  1
  Cl  Cl13  1  0.12401133  0.24802266  0.62598867  1
  Cl  Cl14  1  0.61891519  0.23783037  0.86770291  1
  Cl  Cl15  1  0.38108481  0.76216963  0.63229709  1
  Cl  Cl16  1  0.87598867  0.75197734  0.87401133  1
  Cl  Cl17  1  0.38108481  0.76216963  0.10553328  1
  Cl  Cl18  1  0.87255355  0.74510709  0.37744645  1
  Cl  Cl19  1  1.00000000  1.00000000  0.98358545  1
  Cl  Cl20  1  0.50000000  -0.00000000  0.25000000  1
  Cl  Cl21  1  0.00000000  0.00000000  0.51641455  1
  Cl  Cl22  1  0.50000000  -0.00000000  0.75000000  1
  O  O23  1  0.50618598  0.50005434  0.87184375  1
  O  O24  1  0.99386836  0.50005434  0.12810191  1
  O  O25  1  0.49381402  0.49994566  0.37189809  1
  O  O26  1  0.00613164  0.49994566  0.62815625  1
  O  O27  1  0.99386836  0.50005434  0.87184375  1
  O  O28  1  0.50618598  0.50005434  0.12810191  1
  O  O29  1  0.00613164  0.49994566  0.37189809  1
  O  O30  1  0.49381402  0.49994566  0.62815625  1
