# generated using pymatgen
data_Cr46(BC3)3
_symmetry_space_group_name_H-M   'P 1'
_cell_length_a   7.50259699
_cell_length_b   7.48411595
_cell_length_c   12.95033518
_cell_angle_alpha   73.40631227
_cell_angle_beta   90.07853054
_cell_angle_gamma   120.03104800
_symmetry_Int_Tables_number   1
_chemical_formula_structural   Cr46(BC3)3
_chemical_formula_sum   'Cr46 B3 C9'
_cell_volume   594.48283210
_cell_formula_units_Z   1
loop_
 _symmetry_equiv_pos_site_id
 _symmetry_equiv_pos_as_xyz
  1  'x, y, z'
loop_
 _atom_site_type_symbol
 _atom_site_label
 _atom_site_symmetry_multiplicity
 _atom_site_fract_x
 _atom_site_fract_y
 _atom_site_fract_z
 _atom_site_occupancy
  Cr  Cr0  1  0.65996300  0.00060756  0.00009788  1
  Cr  Cr1  1  0.15326141  0.99653946  0.50244470  1
  Cr  Cr2  1  0.82338403  0.99599680  0.17180976  1
  Cr  Cr3  1  0.32286131  0.99512423  0.67279578  1
  Cr  Cr4  1  0.99768396  0.34461928  0.99750879  1
  Cr  Cr5  1  0.49918705  0.34951632  0.50026538  1
  Cr  Cr6  1  0.83053476  0.66065833  0.17022922  1
  Cr  Cr7  1  0.33105960  0.66188059  0.66975471  1
  Cr  Cr8  1  0.66277336  0.66331430  0.99937382  1
  Cr  Cr9  1  0.16152386  0.66211939  0.50005537  1
  Cr  Cr10  1  0.50023857  0.66472878  0.50009389  1
  Cr  Cr11  1  0.00008129  0.66288367  0.99989019  1
  Cr  Cr12  1  0.67684095  0.34559402  0.32774469  1
  Cr  Cr13  1  0.17028181  0.34082475  0.82985875  1
  Cr  Cr14  1  0.66863845  0.00059293  0.33057365  1
  Cr  Cr15  1  0.16846597  -0.00000786  0.83130136  1
  Cr  Cr16  1  0.32889086  0.99533036  0.32874564  1
  Cr  Cr17  1  0.83157002  0.00021202  0.83130019  1
  Cr  Cr18  1  0.34046569  0.00039352  0.00029295  1
  Cr  Cr19  1  0.83914842  0.00038156  0.50042911  1
  Cr  Cr20  1  0.84720684  0.34540632  0.49810703  1
  Cr  Cr21  1  0.34684040  0.34472379  0.99731894  1
  Cr  Cr22  1  0.17178605  0.99494317  0.17228333  1
  Cr  Cr23  1  0.67101407  0.99491645  0.67157869  1
  Cr  Cr24  1  0.43306468  0.38133355  0.18832868  1
  Cr  Cr25  1  0.93133923  0.38031082  0.69084985  1
  Cr  Cr26  1  0.42740035  0.85339335  0.19031448  1
  Cr  Cr27  1  0.92622014  0.85340256  0.69151754  1
  Cr  Cr28  1  0.18934073  0.38103804  0.42914598  1
  Cr  Cr29  1  0.69062751  0.38165759  0.92706721  1
  Cr  Cr30  1  0.95077218  0.38080602  0.19000969  1
  Cr  Cr31  1  0.44970050  0.38088377  0.69118407  1
  Cr  Cr32  1  0.07354384  0.61714596  0.30896310  1
  Cr  Cr33  1  0.57215734  0.61860325  0.80924428  1
  Cr  Cr34  1  0.06703147  0.13751347  0.31053633  1
  Cr  Cr35  1  0.57005018  0.14008963  0.81132065  1
  Cr  Cr36  1  0.31117805  0.62187600  0.06985817  1
  Cr  Cr37  1  0.81036722  0.62089040  0.57135179  1
  Cr  Cr38  1  0.54909057  0.62144741  0.30880042  1
  Cr  Cr39  1  0.04562743  0.61792868  0.80960880  1
  Cr  Cr40  1  0.00542514  0.01084817  0.00469242  1
  Cr  Cr41  1  0.50129188  0.01971350  0.50003104  1
  Cr  Cr42  1  0.62500106  0.24840137  0.12434948  1
  Cr  Cr43  1  0.12400076  0.24745082  0.62578026  1
  Cr  Cr44  1  0.87499094  0.74778290  0.37460825  1
  Cr  Cr45  1  0.37442336  0.74922276  0.87425048  1
  B  B46  1  0.13640992  0.27180100  0.13550854  1
  B  B47  1  0.63634245  0.27132574  0.63726427  1
  B  B48  1  0.36286760  0.27203034  0.36259875  1
  C  C49  1  0.86057361  0.27615478  0.86047656  1
  C  C50  1  0.58378609  0.72084505  0.13773015  1
  C  C51  1  0.08213925  0.71905646  0.63937343  1
  C  C52  1  0.36155704  0.72068365  0.36177676  1
  C  C53  1  0.86151570  0.72282322  0.86159051  1
  C  C54  1  0.13806352  0.72052906  0.13810065  1
  C  C55  1  0.63803358  0.72027202  0.63848033  1
  C  C56  1  0.91701750  0.27548087  0.36084611  1
  C  C57  1  0.41534745  0.27595806  0.86058717  1
