# generated using pymatgen
data_CdCu2Sn3S8
_symmetry_space_group_name_H-M   'P 1'
_cell_length_a   7.51034092
_cell_length_b   7.50053656
_cell_length_c   7.50561909
_cell_angle_alpha   60.14661746
_cell_angle_beta   60.01852498
_cell_angle_gamma   90.17307844
_symmetry_Int_Tables_number   1
_chemical_formula_structural   CdCu2Sn3S8
_chemical_formula_sum   'Cd1 Cu2 Sn3 S8'
_cell_volume   299.26026154
_cell_formula_units_Z   1
loop_
 _symmetry_equiv_pos_site_id
 _symmetry_equiv_pos_as_xyz
  1  'x, y, z'
loop_
 _atom_site_type_symbol
 _atom_site_label
 _atom_site_symmetry_multiplicity
 _atom_site_fract_x
 _atom_site_fract_y
 _atom_site_fract_z
 _atom_site_occupancy
  Cd  Cd0  1  0.50000000  0.50000000  0.50000000  1
  Cu  Cu1  1  0.11606509  0.88238317  0.73559856  1
  Cu  Cu2  1  0.88393491  0.11761683  0.26440144  1
  Sn  Sn3  1  0.50000000  -0.00000000  0.00000000  1
  Sn  Sn4  1  0.00000000  0.50000000  0.50000000  1
  Sn  Sn5  1  0.50000000  0.50000000  0.00000000  1
  S  S6  1  0.26097239  0.24865427  0.00176946  1
  S  S7  1  0.75058599  0.24932299  0.51124770  1
  S  S8  1  0.24923191  0.26058954  0.48790283  1
  S  S9  1  0.24856571  0.75006479  0.99986791  1
  S  S10  1  0.73902761  0.75134573  0.99823054  1
  S  S11  1  0.24941401  0.75067701  0.48875230  1
  S  S12  1  0.75076809  0.73941046  0.51209717  1
  S  S13  1  0.75143429  0.24993521  0.00013209  1
