# generated using pymatgen
data_CeCoSi2Rh
_symmetry_space_group_name_H-M   'P 1'
_cell_length_a   4.01512429
_cell_length_b   4.01512429
_cell_length_c   5.75115628
_cell_angle_alpha   69.56948810
_cell_angle_beta   69.56948810
_cell_angle_gamma   90.00000000
_symmetry_Int_Tables_number   1
_chemical_formula_structural   CeCoSi2Rh
_chemical_formula_sum   'Ce1 Co1 Si2 Rh1'
_cell_volume   80.63058863
_cell_formula_units_Z   1
loop_
 _symmetry_equiv_pos_site_id
 _symmetry_equiv_pos_as_xyz
  1  'x, y, z'
loop_
 _atom_site_type_symbol
 _atom_site_label
 _atom_site_symmetry_multiplicity
 _atom_site_fract_x
 _atom_site_fract_y
 _atom_site_fract_z
 _atom_site_occupancy
  Ce  Ce0  1  0.00000000  0.00000000  -0.00000000  1
  Co  Co1  1  0.75000000  0.25000000  0.50000000  1
  Si  Si2  1  0.37529332  0.37529332  0.24941337  1
  Si  Si3  1  0.62470668  0.62470668  0.75058663  1
  Rh  Rh4  1  0.25000000  0.75000000  0.50000000  1
