# generated using pymatgen
data_CdIn4As4S
_symmetry_space_group_name_H-M   'P 1'
_cell_length_a   4.35606914
_cell_length_b   4.35606914
_cell_length_c   17.89518515
_cell_angle_alpha   83.00916080
_cell_angle_beta   90.00000000
_cell_angle_gamma   120.00000000
_symmetry_Int_Tables_number   1
_chemical_formula_structural   CdIn4As4S
_chemical_formula_sum   'Cd1 In4 As4 S1'
_cell_volume   291.15516071
_cell_formula_units_Z   1
loop_
 _symmetry_equiv_pos_site_id
 _symmetry_equiv_pos_as_xyz
  1  'x, y, z'
loop_
 _atom_site_type_symbol
 _atom_site_label
 _atom_site_symmetry_multiplicity
 _atom_site_fract_x
 _atom_site_fract_y
 _atom_site_fract_z
 _atom_site_occupancy
  Cd  Cd0  1  0.00022599  0.00045197  0.99932204  1
  In  In1  1  0.60032497  0.20064994  0.19902509  1
  In  In2  1  0.20007506  0.40015011  0.39977483  1
  In  In3  1  0.79992211  0.59984422  0.60023367  1
  In  In4  1  0.39908906  0.79817813  0.80273281  1
  As  As5  1  0.95039363  0.90078726  0.14881911  1
  As  As6  1  0.54990911  0.09981823  0.35027266  1
  As  As7  1  0.14980806  0.29961613  0.55057581  1
  As  As8  1  0.74924494  0.49848988  0.75226519  1
  S  S9  1  0.35100707  0.70201413  0.94697880  1
