# generated using pymatgen
data_Na5Sc(C2O7)2
_symmetry_space_group_name_H-M   'P 1'
_cell_length_a   7.46416088
_cell_length_b   7.46416088
_cell_length_c   11.55878082
_cell_angle_alpha   90.00000000
_cell_angle_beta   90.00000000
_cell_angle_gamma   90.00000000
_symmetry_Int_Tables_number   1
_chemical_formula_structural   Na5Sc(C2O7)2
_chemical_formula_sum   'Na10 Sc2 C8 O28'
_cell_volume   643.98241972
_cell_formula_units_Z   2
loop_
 _symmetry_equiv_pos_site_id
 _symmetry_equiv_pos_as_xyz
  1  'x, y, z'
loop_
 _atom_site_type_symbol
 _atom_site_label
 _atom_site_symmetry_multiplicity
 _atom_site_fract_x
 _atom_site_fract_y
 _atom_site_fract_z
 _atom_site_occupancy
  Na  Na0  1  0.00000000  -0.00000000  0.50000000  1
  Na  Na1  1  0.50000000  0.50000000  -0.00000000  1
  Na  Na2  1  0.69255162  0.80378455  0.70791946  1
  Na  Na3  1  0.19255162  0.69621545  0.79208054  1
  Na  Na4  1  0.30744838  0.19621545  0.70791946  1
  Na  Na5  1  0.80744838  0.30378455  0.79208054  1
  Na  Na6  1  0.80378455  0.30744838  0.29208054  1
  Na  Na7  1  0.69621545  0.80744838  0.20791946  1
  Na  Na8  1  0.19621545  0.69255162  0.29208054  1
  Na  Na9  1  0.30378455  0.19255162  0.20791946  1
  Sc  Sc10  1  0.50000000  0.50000000  0.50000000  1
  Sc  Sc11  1  0.00000000  0.00000000  -0.00000000  1
  C  C12  1  0.78678102  0.67276297  0.42137897  1
  C  C13  1  0.28678102  0.82723703  0.07862103  1
  C  C14  1  0.21321898  0.32723703  0.42137897  1
  C  C15  1  0.71321898  0.17276297  0.07862103  1
  C  C16  1  0.67276297  0.21321898  0.57862103  1
  C  C17  1  0.82723703  0.71321898  0.92137897  1
  C  C18  1  0.32723703  0.78678102  0.57862103  1
  C  C19  1  0.17276297  0.28678102  0.92137897  1
  O  O20  1  0.67191154  0.58734816  0.35463393  1
  O  O21  1  0.17191154  0.91265184  0.14536607  1
  O  O22  1  0.32808846  0.41265184  0.35463393  1
  O  O23  1  0.82808846  0.08734816  0.14536607  1
  O  O24  1  0.58734816  0.32808846  0.64536607  1
  O  O25  1  0.91265184  0.82808846  0.85463393  1
  O  O26  1  0.41265184  0.67191154  0.64536607  1
  O  O27  1  0.08734816  0.17191154  0.85463393  1
  O  O28  1  0.75391842  0.65807960  0.53241888  1
  O  O29  1  0.25391842  0.84192040  0.96758112  1
  O  O30  1  0.24608158  0.34192040  0.53241888  1
  O  O31  1  0.74608158  0.15807960  0.96758112  1
  O  O32  1  0.65807960  0.24608158  0.46758112  1
  O  O33  1  0.84192040  0.74608158  0.03241888  1
  O  O34  1  0.34192040  0.75391842  0.46758112  1
  O  O35  1  0.15807960  0.25391842  0.03241888  1
  O  O36  1  0.91465493  0.76383635  0.37898722  1
  O  O37  1  0.41465493  0.73616365  0.12101278  1
  O  O38  1  0.08534507  0.23616365  0.37898722  1
  O  O39  1  0.58534507  0.26383635  0.12101278  1
  O  O40  1  0.76383635  0.08534507  0.62101278  1
  O  O41  1  0.73616365  0.58534507  0.87898722  1
  O  O42  1  0.23616365  0.91465493  0.62101278  1
  O  O43  1  0.26383635  0.41465493  0.87898722  1
  O  O44  1  0.00000000  0.50000000  0.66024152  1
  O  O45  1  0.50000000  -0.00000000  0.83975848  1
  O  O46  1  0.50000000  -0.00000000  0.33975848  1
  O  O47  1  0.00000000  0.50000000  0.16024152  1
