# generated using pymatgen
data_Ca4Tl2CO9
_symmetry_space_group_name_H-M   'P 1'
_cell_length_a   4.90723230
_cell_length_b   4.83080019
_cell_length_c   9.86968426
_cell_angle_alpha   75.83416527
_cell_angle_beta   75.60523843
_cell_angle_gamma   90.00000000
_symmetry_Int_Tables_number   1
_chemical_formula_structural   Ca4Tl2CO9
_chemical_formula_sum   'Ca4 Tl2 C1 O9'
_cell_volume   219.27121360
_cell_formula_units_Z   1
loop_
 _symmetry_equiv_pos_site_id
 _symmetry_equiv_pos_as_xyz
  1  'x, y, z'
loop_
 _atom_site_type_symbol
 _atom_site_label
 _atom_site_symmetry_multiplicity
 _atom_site_fract_x
 _atom_site_fract_y
 _atom_site_fract_z
 _atom_site_occupancy
  Ca  Ca0  1  0.60797417  0.11438064  0.78405166  1
  Ca  Ca1  1  0.11104660  0.63444531  0.77790681  1
  Ca  Ca2  1  0.39202583  0.89843230  0.21594834  1
  Ca  Ca3  1  0.88895340  0.41235212  0.22209319  1
  Tl  Tl4  1  0.25371482  0.26200560  0.49257036  1
  Tl  Tl5  1  0.74628518  0.75457596  0.50742964  1
  C  C6  1  0.00000000  0.02563556  1.00000000  1
  O  O7  1  0.62901221  0.63657235  0.74197558  1
  O  O8  1  0.37098779  0.37854793  0.25802442  1
  O  O9  1  0.13807267  0.15216518  0.72385466  1
  O  O10  1  0.86192733  0.87601983  0.27614534  1
  O  O11  1  0.74994612  0.25885059  0.50010775  1
  O  O12  1  0.25005388  0.75895834  0.49989225  1
  O  O13  1  0.22789392  0.89078482  0.00000000  1
  O  O14  1  0.77210608  0.89078482  0.00000000  1
  O  O15  1  0.00000000  0.29548866  1.00000000  1
