# generated using pymatgen
data_Ca10Si3S3(O12F)2
_symmetry_space_group_name_H-M   'P 1'
_cell_length_a   6.98827184
_cell_length_b   9.54860798
_cell_length_c   9.54861499
_cell_angle_alpha   59.99988672
_cell_angle_beta   90.00000000
_cell_angle_gamma   90.00000000
_symmetry_Int_Tables_number   1
_chemical_formula_structural   Ca10Si3S3(O12F)2
_chemical_formula_sum   'Ca10 Si3 S3 O24 F2'
_cell_volume   551.79831811
_cell_formula_units_Z   1
loop_
 _symmetry_equiv_pos_site_id
 _symmetry_equiv_pos_as_xyz
  1  'x, y, z'
loop_
 _atom_site_type_symbol
 _atom_site_label
 _atom_site_symmetry_multiplicity
 _atom_site_fract_x
 _atom_site_fract_y
 _atom_site_fract_z
 _atom_site_occupancy
  Ca  Ca0  1  0.75000000  0.24151241  0.75024339  1
  Ca  Ca1  1  0.75000000  0.00824478  0.24152079  1
  Ca  Ca2  1  0.75000000  0.75024508  0.00824127  1
  Ca  Ca3  1  0.25000000  0.75090849  0.23665859  1
  Ca  Ca4  1  0.25000000  0.01243214  0.75090666  1
  Ca  Ca5  1  0.25000000  0.23665709  0.01243384  1
  Ca  Ca6  1  0.52665587  0.66666458  0.66666623  1
  Ca  Ca7  1  0.97594683  0.33333993  0.33332840  1
  Ca  Ca8  1  0.52405317  0.33333993  0.33332840  1
  Ca  Ca9  1  0.97334413  0.66666458  0.66666623  1
  Si  Si10  1  0.75000000  0.02615501  0.60952220  1
  Si  Si11  1  0.75000000  0.36432452  0.02615407  1
  Si  Si12  1  0.75000000  0.60952084  0.36432299  1
  S  S13  1  0.25000000  0.96772636  0.40570927  1
  S  S14  1  0.25000000  0.62656575  0.96772472  1
  S  S15  1  0.25000000  0.40570835  0.62656428  1
  O  O16  1  0.55810406  0.08802002  0.66457136  1
  O  O17  1  0.55810248  0.24741162  0.08802642  1
  O  O18  1  0.55810231  0.66456190  0.24741032  1
  O  O19  1  0.07939436  0.91804575  0.34825359  1
  O  O20  1  0.07939390  0.73370092  0.91804192  1
  O  O21  1  0.07939382  0.34825464  0.73370153  1
  O  O22  1  0.42060564  0.91804575  0.34825359  1
  O  O23  1  0.42060610  0.73370092  0.91804192  1
  O  O24  1  0.42060618  0.34825464  0.73370153  1
  O  O25  1  0.94189594  0.08802002  0.66457136  1
  O  O26  1  0.94189752  0.24741162  0.08802642  1
  O  O27  1  0.94189769  0.66456190  0.24741032  1
  O  O28  1  0.75000000  0.12086964  0.40995628  1
  O  O29  1  0.75000000  0.46918456  0.12085905  1
  O  O30  1  0.75000000  0.40995496  0.46918111  1
  O  O31  1  0.25000000  0.87631699  0.58707162  1
  O  O32  1  0.25000000  0.53660713  0.87631995  1
  O  O33  1  0.25000000  0.58707099  0.53660851  1
  O  O34  1  0.75000000  0.82796231  0.69517443  1
  O  O35  1  0.75000000  0.47685480  0.82796072  1
  O  O36  1  0.75000000  0.69518109  0.47685541  1
  O  O37  1  0.25000000  0.14494959  0.34492486  1
  O  O38  1  0.25000000  0.51012988  0.14494891  1
  O  O39  1  0.25000000  0.34492074  0.51013029  1
  F  F40  1  0.75000000  0.99999861  0.00000940  1
  F  F41  1  0.25000000  0.99999917  0.99999785  1
