# generated using pymatgen
data_Ca8Al3(FeO4)5
_symmetry_space_group_name_H-M   'P 1'
_cell_length_a   5.49865147
_cell_length_b   10.71762075
_cell_length_c   8.41133447
_cell_angle_alpha   108.56508520
_cell_angle_beta   71.02313517
_cell_angle_gamma   89.98980230
_symmetry_Int_Tables_number   1
_chemical_formula_structural   Ca8Al3(FeO4)5
_chemical_formula_sum   'Ca8 Al3 Fe5 O20'
_cell_volume   441.38239736
_cell_formula_units_Z   1
loop_
 _symmetry_equiv_pos_site_id
 _symmetry_equiv_pos_as_xyz
  1  'x, y, z'
loop_
 _atom_site_type_symbol
 _atom_site_label
 _atom_site_symmetry_multiplicity
 _atom_site_fract_x
 _atom_site_fract_y
 _atom_site_fract_z
 _atom_site_occupancy
  Ca  Ca0  1  0.62745164  0.44480360  0.78861905  1
  Ca  Ca1  1  0.62594571  0.94356321  0.78882888  1
  Ca  Ca2  1  0.37258755  0.54961891  0.21094649  1
  Ca  Ca3  1  0.37401754  0.05015688  0.21166704  1
  Ca  Ca4  1  0.91662650  0.30125804  0.21197892  1
  Ca  Ca5  1  0.91619564  0.79734822  0.21116250  1
  Ca  Ca6  1  0.08457045  0.69123244  0.78810379  1
  Ca  Ca7  1  0.08263057  0.19583605  0.78869782  1
  Al  Al8  1  0.49997636  0.74838557  0.00010124  1
  Al  Al9  1  0.50001186  0.25508670  0.99987980  1
  Al  Al10  1  0.99997784  0.50119587  0.99997554  1
  Fe  Fe11  1  0.99996734  0.00200140  0.00007266  1
  Fe  Fe12  1  0.68441478  0.10338986  0.50444319  1
  Fe  Fe13  1  0.68734635  0.60171503  0.49971749  1
  Fe  Fe14  1  0.31497973  0.85063663  0.49652934  1
  Fe  Fe15  1  0.31335602  0.35243698  0.49939547  1
  O  O16  1  0.69660887  0.69131000  0.72865592  1
  O  O17  1  0.69189431  0.19791525  0.73246678  1
  O  O18  1  0.30471696  0.33312528  0.27180713  1
  O  O19  1  0.30680127  0.82541193  0.26709283  1
  O  O20  1  0.92226310  0.57958588  0.27029267  1
  O  O21  1  0.92904869  0.08662757  0.28238542  1
  O  O22  1  0.07793615  0.44376478  0.72953341  1
  O  O23  1  0.07071979  0.94603509  0.71775824  1
  O  O24  1  0.74232786  0.38316728  0.02311023  1
  O  O25  1  0.73327237  0.87805905  0.02559518  1
  O  O26  1  0.26740228  0.86485516  0.97302612  1
  O  O27  1  0.25697305  0.37191348  0.97809657  1
  O  O28  1  0.26419493  0.61903550  0.97684936  1
  O  O29  1  0.27399318  0.12386403  0.97376751  1
  O  O30  1  0.72510458  0.13730061  0.02747265  1
  O  O31  1  0.73657390  0.63035474  0.02197126  1
  O  O32  1  0.63972087  0.42094490  0.49975488  1
  O  O33  1  0.63916498  0.92080453  0.49962371  1
  O  O34  1  0.36047127  0.67052656  0.50047151  1
  O  O35  1  0.36075570  0.17153302  0.50014940  1
