# generated using pymatgen
data_Ca4Al5CrSi6(HO13)2
_symmetry_space_group_name_H-M   'P 1'
_cell_length_a   5.68171713
_cell_length_b   8.94777501
_cell_length_c   10.25893185
_cell_angle_alpha   115.24299586
_cell_angle_beta   90.00714353
_cell_angle_gamma   90.07515070
_symmetry_Int_Tables_number   1
_chemical_formula_structural   Ca4Al5CrSi6(HO13)2
_chemical_formula_sum   'Ca4 Al5 Cr1 Si6 H2 O26'
_cell_volume   471.74616585
_cell_formula_units_Z   1
loop_
 _symmetry_equiv_pos_site_id
 _symmetry_equiv_pos_as_xyz
  1  'x, y, z'
loop_
 _atom_site_type_symbol
 _atom_site_label
 _atom_site_symmetry_multiplicity
 _atom_site_fract_x
 _atom_site_fract_y
 _atom_site_fract_z
 _atom_site_occupancy
  Ca  Ca0  1  0.24952060  0.24034470  0.84548010  1
  Ca  Ca1  1  0.75047940  0.75965530  0.15451990  1
  Ca  Ca2  1  0.24976490  0.39111828  0.57733431  1
  Ca  Ca3  1  0.75023510  0.60888172  0.42266569  1
  Al  Al4  1  0.50000000  0.00000000  0.50000000  1
  Al  Al5  1  -0.00000000  0.00000000  0.50000000  1
  Al  Al6  1  -0.00000000  0.00000000  -0.00000000  1
  Al  Al7  1  0.75123488  0.70885693  0.77406247  1
  Al  Al8  1  0.24876512  0.29114307  0.22593753  1
  Cr  Cr9  1  0.50000000  0.00000000  -0.00000000  1
  Si  Si10  1  0.75028979  0.32010148  0.72572301  1
  Si  Si11  1  0.24971021  0.67989852  0.27427699  1
  Si  Si12  1  0.24914771  0.65890464  0.95055330  1
  Si  Si13  1  0.75085229  0.34109536  0.04944670  1
  Si  Si14  1  0.24877278  0.81534945  0.68306123  1
  Si  Si15  1  0.75122722  0.18465055  0.31693877  1
  H  H16  1  0.75105035  0.94156384  0.67501280  1
  H  H17  1  0.24894965  0.05843616  0.32498720  1
  O  O18  1  0.75001451  0.91900794  0.57208827  1
  O  O19  1  0.24998549  0.08099206  0.42791173  1
  O  O20  1  0.24779572  0.48079119  0.81960052  1
  O  O21  1  0.75220428  0.51920881  0.18039948  1
  O  O22  1  0.51398365  0.20882694  0.65714325  1
  O  O23  1  0.01409709  0.79123991  0.34306082  1
  O  O24  1  0.48601635  0.79117306  0.34285675  1
  O  O25  1  0.98590291  0.20876009  0.65693918  1
  O  O26  1  0.24215190  0.96120140  0.85435495  1
  O  O27  1  0.75784810  0.03879860  0.14564505  1
  O  O28  1  0.48657249  0.69981081  0.65077168  1
  O  O29  1  0.98633738  0.30345979  0.35197140  1
  O  O30  1  0.51342751  0.30018919  0.34922832  1
  O  O31  1  0.01366262  0.69654021  0.64802860  1
  O  O32  1  0.50096755  0.75629029  0.95158329  1
  O  O33  1  0.99473521  0.23565045  0.04457717  1
  O  O34  1  0.49903245  0.24370971  0.04841671  1
  O  O35  1  0.00526479  0.76434955  0.95542283  1
  O  O36  1  0.25013895  0.93463610  0.59530729  1
  O  O37  1  0.74986105  0.06536390  0.40469271  1
  O  O38  1  0.75032336  0.36547463  0.89902597  1
  O  O39  1  0.24967664  0.63452537  0.10097403  1
  O  O40  1  0.75002453  0.48702265  0.70184517  1
  O  O41  1  0.24997547  0.51297735  0.29815483  1
  O  O42  1  0.76226767  0.93852761  0.86158660  1
  O  O43  1  0.23773233  0.06147239  0.13841340  1
