# generated using pymatgen
data_CaVSi4(H2O5)3
_symmetry_space_group_name_H-M   'P 1'
_cell_length_a   8.84761084
_cell_length_b   8.84761084
_cell_length_c   9.00369449
_cell_angle_alpha   90.00000000
_cell_angle_beta   90.00000000
_cell_angle_gamma   107.79001777
_symmetry_Int_Tables_number   1
_chemical_formula_structural   CaVSi4(H2O5)3
_chemical_formula_sum   'Ca2 V2 Si8 H12 O30'
_cell_volume   671.10895301
_cell_formula_units_Z   2
loop_
 _symmetry_equiv_pos_site_id
 _symmetry_equiv_pos_as_xyz
  1  'x, y, z'
loop_
 _atom_site_type_symbol
 _atom_site_label
 _atom_site_symmetry_multiplicity
 _atom_site_fract_x
 _atom_site_fract_y
 _atom_site_fract_z
 _atom_site_occupancy
  Ca  Ca0  1  0.24680710  0.24680710  0.74046659  1
  Ca  Ca1  1  0.75319290  0.75319290  0.24046659  1
  V  V2  1  0.95366659  0.95366659  0.57275185  1
  V  V3  1  0.04633341  0.04633341  0.07275185  1
  Si  Si4  1  0.89589435  0.30542778  0.60901970  1
  Si  Si5  1  0.30542778  0.89589435  0.60901970  1
  Si  Si6  1  0.10410565  0.69457222  0.10901970  1
  Si  Si7  1  0.69457222  0.10410565  0.10901970  1
  Si  Si8  1  0.94737886  0.35735065  0.95257729  1
  Si  Si9  1  0.35735065  0.94737886  0.95257729  1
  Si  Si10  1  0.05262114  0.64264935  0.45257729  1
  Si  Si11  1  0.64264935  0.05262114  0.45257729  1
  H  H12  1  0.41493264  0.56218242  0.75892649  1
  H  H13  1  0.56218242  0.41493264  0.75892649  1
  H  H14  1  0.58506736  0.43781758  0.25892649  1
  H  H15  1  0.43781758  0.58506736  0.25892649  1
  H  H16  1  0.25035654  0.57807622  0.70307967  1
  H  H17  1  0.57807622  0.25035654  0.70307967  1
  H  H18  1  0.74964346  0.42192378  0.20307967  1
  H  H19  1  0.42192378  0.74964346  0.20307967  1
  H  H20  1  0.64433312  0.64433312  0.88269256  1
  H  H21  1  0.35566688  0.35566688  0.38269256  1
  H  H22  1  0.65793257  0.65793257  0.67370592  1
  H  H23  1  0.34206743  0.34206743  0.17370592  1
  O  O24  1  0.99634011  0.17815228  0.59637484  1
  O  O25  1  0.17815228  0.99634011  0.59637484  1
  O  O26  1  0.00365989  0.82184772  0.09637484  1
  O  O27  1  0.82184772  0.00365989  0.09637484  1
  O  O28  1  0.05535105  0.23593072  0.96309949  1
  O  O29  1  0.23593072  0.05535105  0.96309949  1
  O  O30  1  0.94464895  0.76406928  0.46309949  1
  O  O31  1  0.76406928  0.94464895  0.46309949  1
  O  O32  1  0.96775650  0.46197792  0.50721063  1
  O  O33  1  0.46197792  0.96775650  0.50721063  1
  O  O34  1  0.03224350  0.53802208  0.00721063  1
  O  O35  1  0.53802208  0.03224350  0.00721063  1
  O  O36  1  0.71316811  0.21124736  0.55778906  1
  O  O37  1  0.21124736  0.71316811  0.55778906  1
  O  O38  1  0.28683189  0.78875264  0.05778906  1
  O  O39  1  0.78875264  0.28683189  0.05778906  1
  O  O40  1  0.89511522  0.36459217  0.77993980  1
  O  O41  1  0.36459217  0.89511522  0.77993980  1
  O  O42  1  0.10488478  0.63540783  0.27993980  1
  O  O43  1  0.63540783  0.10488478  0.27993980  1
  O  O44  1  0.89078324  0.89078324  0.73592876  1
  O  O45  1  0.10921676  0.10921676  0.23592876  1
  O  O46  1  0.29317697  0.51625427  0.77244314  1
  O  O47  1  0.51625427  0.29317697  0.77244314  1
  O  O48  1  0.70682303  0.48374573  0.27244314  1
  O  O49  1  0.48374573  0.70682303  0.27244314  1
  O  O50  1  0.59516130  0.59516130  0.75334476  1
  O  O51  1  0.40483870  0.40483870  0.25334476  1
  O  O52  1  0.32981128  0.32981128  0.50620937  1
  O  O53  1  0.67018872  0.67018872  0.00620937  1
