# generated using pymatgen
data_Ca3Ti4PbO12
_symmetry_space_group_name_H-M   'P 1'
_cell_length_a   5.47798226
_cell_length_b   5.52976773
_cell_length_c   7.78879124
_cell_angle_alpha   90.00000000
_cell_angle_beta   90.00000000
_cell_angle_gamma   90.21296412
_symmetry_Int_Tables_number   1
_chemical_formula_structural   Ca3Ti4PbO12
_chemical_formula_sum   'Ca3 Ti4 Pb1 O12'
_cell_volume   235.93619707
_cell_formula_units_Z   1
loop_
 _symmetry_equiv_pos_site_id
 _symmetry_equiv_pos_as_xyz
  1  'x, y, z'
loop_
 _atom_site_type_symbol
 _atom_site_label
 _atom_site_symmetry_multiplicity
 _atom_site_fract_x
 _atom_site_fract_y
 _atom_site_fract_z
 _atom_site_occupancy
  Ca  Ca0  1  0.00345151  0.53409736  0.25000000  1
  Ca  Ca1  1  0.50415217  0.95597561  0.75000000  1
  Ca  Ca2  1  0.99847425  0.46644732  0.75000000  1
  Ti  Ti3  1  0.49870876  0.49149493  0.99692797  1
  Ti  Ti4  1  0.00054208  0.99700108  0.50454067  1
  Ti  Ti5  1  0.49870876  0.49149493  0.50307203  1
  Ti  Ti6  1  0.00054208  0.99700108  0.99545933  1
  Pb  Pb7  1  0.49577017  0.01340744  0.25000000  1
  O  O8  1  0.56804175  0.50179804  0.25000000  1
  O  O9  1  0.95352958  0.97753671  0.25000000  1
  O  O10  1  0.43314390  0.51134587  0.75000000  1
  O  O11  1  0.07158051  0.02851862  0.75000000  1
  O  O12  1  0.28400270  0.78738152  0.01861930  1
  O  O13  1  0.20371372  0.29968964  0.46721048  1
  O  O14  1  0.71039855  0.21426575  0.53974385  1
  O  O15  1  0.78856228  0.71560360  0.96023757  1
  O  O16  1  0.71039855  0.21426575  0.96025615  1
  O  O17  1  0.78856228  0.71560360  0.53976243  1
  O  O18  1  0.28400270  0.78738152  0.48138070  1
  O  O19  1  0.20371372  0.29968964  0.03278952  1
