# generated using pymatgen
data_Cd5Ge(PO6)2
_symmetry_space_group_name_H-M   'P 1'
_cell_length_a   6.88569585
_cell_length_b   10.40004931
_cell_length_c   15.31513441
_cell_angle_alpha   90.00000000
_cell_angle_beta   90.00000000
_cell_angle_gamma   90.00000000
_symmetry_Int_Tables_number   1
_chemical_formula_structural   Cd5Ge(PO6)2
_chemical_formula_sum   'Cd20 Ge4 P8 O48'
_cell_volume   1096.74091747
_cell_formula_units_Z   4
loop_
 _symmetry_equiv_pos_site_id
 _symmetry_equiv_pos_as_xyz
  1  'x, y, z'
loop_
 _atom_site_type_symbol
 _atom_site_label
 _atom_site_symmetry_multiplicity
 _atom_site_fract_x
 _atom_site_fract_y
 _atom_site_fract_z
 _atom_site_occupancy
  Cd  Cd0  1  0.33778973  0.66293794  0.10957541  1
  Cd  Cd1  1  0.83778973  0.83706206  0.39042459  1
  Cd  Cd2  1  0.66221027  0.33706206  0.60957541  1
  Cd  Cd3  1  0.16221027  0.16293794  0.89042459  1
  Cd  Cd4  1  0.65564488  0.33560040  0.88919888  1
  Cd  Cd5  1  0.15564488  0.16439960  0.61080112  1
  Cd  Cd6  1  0.34435512  0.66439960  0.38919888  1
  Cd  Cd7  1  0.84435512  0.83560040  0.11080112  1
  Cd  Cd8  1  0.44589619  0.72038286  0.74859612  1
  Cd  Cd9  1  0.94589619  0.77961714  0.75140388  1
  Cd  Cd10  1  0.55410381  0.27961714  0.24859612  1
  Cd  Cd11  1  0.05410381  0.22038286  0.25140388  1
  Cd  Cd12  1  0.14341507  0.55529307  0.90994420  1
  Cd  Cd13  1  0.64341507  0.94470693  0.59005580  1
  Cd  Cd14  1  0.85658493  0.44470693  0.40994420  1
  Cd  Cd15  1  0.35658493  0.05529307  0.09005580  1
  Cd  Cd16  1  0.85572235  0.44915030  0.09087033  1
  Cd  Cd17  1  0.35572235  0.05084970  0.40912967  1
  Cd  Cd18  1  0.14427765  0.55084970  0.59087033  1
  Cd  Cd19  1  0.64427765  0.94915030  0.90912967  1
  Ge  Ge20  1  0.14457164  0.86720601  0.93019552  1
  Ge  Ge21  1  0.64457164  0.63279399  0.56980448  1
  Ge  Ge22  1  0.85542836  0.13279399  0.43019552  1
  Ge  Ge23  1  0.35542836  0.36720601  0.06980448  1
  P  P24  1  0.49046899  0.08780281  0.74921964  1
  P  P25  1  0.99046899  0.41219719  0.75078036  1
  P  P26  1  0.50953101  0.91219719  0.24921964  1
  P  P27  1  0.00953101  0.58780281  0.25078036  1
  P  P28  1  0.85583164  0.13234340  0.07173587  1
  P  P29  1  0.35583164  0.36765660  0.42826413  1
  P  P30  1  0.14416836  0.86765660  0.57173587  1
  P  P31  1  0.64416836  0.63234340  0.92826413  1
  O  O32  1  0.33316290  0.98113883  0.95053557  1
  O  O33  1  0.83316290  0.51886117  0.54946443  1
  O  O34  1  0.66683710  0.01886117  0.45053557  1
  O  O35  1  0.16683710  0.48113883  0.04946443  1
  O  O36  1  0.68704268  0.03393577  0.05342008  1
  O  O37  1  0.18704268  0.46606423  0.44657992  1
  O  O38  1  0.31295732  0.96606423  0.55342008  1
  O  O39  1  0.81295732  0.53393577  0.94657992  1
  O  O40  1  0.20274844  0.75379842  0.84530792  1
  O  O41  1  0.70274844  0.74620158  0.65469208  1
  O  O42  1  0.79725156  0.24620158  0.34530792  1
  O  O43  1  0.29725156  0.25379842  0.15469208  1
  O  O44  1  0.79805773  0.23164064  0.14503106  1
  O  O45  1  0.29805773  0.26835936  0.35496894  1
  O  O46  1  0.20194227  0.76835936  0.64503106  1
  O  O47  1  0.70194227  0.73164064  0.85496894  1
  O  O48  1  0.95947379  0.96331679  0.88280000  1
  O  O49  1  0.45947379  0.53668321  0.61720000  1
  O  O50  1  0.04052621  0.03668321  0.38280000  1
  O  O51  1  0.54052621  0.46331679  0.11720000  1
  O  O52  1  0.02415170  0.04762685  0.10860030  1
  O  O53  1  0.52415170  0.45237315  0.39139970  1
  O  O54  1  0.97584830  0.95237315  0.60860030  1
  O  O55  1  0.47584830  0.54762685  0.89139970  1
  O  O56  1  0.26718402  0.11386792  0.74879325  1
  O  O57  1  0.76718402  0.38613208  0.75120675  1
  O  O58  1  0.73281598  0.88613208  0.24879325  1
  O  O59  1  0.23281598  0.61386792  0.25120675  1
  O  O60  1  0.58191005  0.14370414  0.83356843  1
  O  O61  1  0.08191005  0.35629586  0.66643157  1
  O  O62  1  0.41808995  0.85629586  0.33356843  1
  O  O63  1  0.91808995  0.64370414  0.16643157  1
  O  O64  1  0.42023582  0.85772267  0.16310845  1
  O  O65  1  0.92023582  0.64227733  0.33689155  1
  O  O66  1  0.57976418  0.14227733  0.66310845  1
  O  O67  1  0.07976418  0.35772267  0.83689155  1
  O  O68  1  0.53800928  0.94103644  0.75043326  1
  O  O69  1  0.03800928  0.55896356  0.74956674  1
  O  O70  1  0.46199072  0.05896356  0.25043326  1
  O  O71  1  0.96199072  0.44103644  0.24956674  1
  O  O72  1  0.08901525  0.77184022  0.02188230  1
  O  O73  1  0.58901525  0.72815978  0.47811770  1
  O  O74  1  0.91098475  0.22815978  0.52188230  1
  O  O75  1  0.41098475  0.27184022  0.97811770  1
  O  O76  1  0.90785574  0.21393158  0.98993944  1
  O  O77  1  0.40785574  0.28606842  0.51006056  1
  O  O78  1  0.09214426  0.78606842  0.48993944  1
  O  O79  1  0.59214426  0.71393158  0.01006056  1
