# generated using pymatgen
data_Be3Bi(RhO2)9
_symmetry_space_group_name_H-M   'P 1'
_cell_length_a   9.36877276
_cell_length_b   9.62713861
_cell_length_c   9.62718638
_cell_angle_alpha   69.99150036
_cell_angle_beta   71.07194505
_cell_angle_gamma   108.92874923
_symmetry_Int_Tables_number   1
_chemical_formula_structural   Be3Bi(RhO2)9
_chemical_formula_sum   'Be6 Bi2 Rh18 O36'
_cell_volume   672.85777136
_cell_formula_units_Z   2
loop_
 _symmetry_equiv_pos_site_id
 _symmetry_equiv_pos_as_xyz
  1  'x, y, z'
loop_
 _atom_site_type_symbol
 _atom_site_label
 _atom_site_symmetry_multiplicity
 _atom_site_fract_x
 _atom_site_fract_y
 _atom_site_fract_z
 _atom_site_occupancy
  Be  Be0  1  0.41738127  0.33366849  0.33150324  1
  Be  Be1  1  0.08374436  0.33482057  0.33367010  1
  Be  Be2  1  0.74888430  0.33148454  0.33484170  1
  Be  Be3  1  0.25111570  0.66851546  0.66515830  1
  Be  Be4  1  0.91625564  0.66517943  0.66632990  1
  Be  Be5  1  0.58261873  0.66633151  0.66849676  1
  Bi  Bi6  1  0.74999872  0.00000257  -0.00000024  1
  Bi  Bi7  1  0.25000128  -0.00000257  0.00000024  1
  Rh  Rh8  1  0.51588178  0.66315096  0.36526143  1
  Rh  Rh9  1  0.85053969  0.66892306  0.36138406  1
  Rh  Rh10  1  0.18723613  0.66800817  0.36247465  1
  Rh  Rh11  1  0.21191982  0.36138983  0.96970088  1
  Rh  Rh12  1  0.54971334  0.36246936  0.96950966  1
  Rh  Rh13  1  0.88114396  0.36525585  0.97158349  1
  Rh  Rh14  1  0.51922153  0.96951961  0.66802386  1
  Rh  Rh15  1  0.85273011  0.97158083  0.66315903  1
  Rh  Rh16  1  0.18162139  0.96969604  0.66891478  1
  Rh  Rh17  1  0.81276387  0.33199183  0.63752535  1
  Rh  Rh18  1  0.14946031  0.33107694  0.63861594  1
  Rh  Rh19  1  0.48411822  0.33684904  0.63473857  1
  Rh  Rh20  1  0.11885604  0.63474415  0.02841651  1
  Rh  Rh21  1  0.45028666  0.63753064  0.03049034  1
  Rh  Rh22  1  0.78808018  0.63861017  0.03029912  1
  Rh  Rh23  1  0.81837861  0.03030396  0.33108522  1
  Rh  Rh24  1  0.14726989  0.02841917  0.33684097  1
  Rh  Rh25  1  0.48077847  0.03048039  0.33197614  1
  O  O26  1  0.39796266  0.40188774  0.45666471  1
  O  O27  1  0.06606172  0.40346110  0.45843308  1
  O  O28  1  0.73164171  0.40335440  0.45680994  1
  O  O29  1  0.52449543  0.45843374  0.13810327  1
  O  O30  1  0.18844819  0.45680370  0.13984005  1
  O  O31  1  0.85462358  0.45666736  0.14144180  1
  O  O32  1  0.32829540  0.13982998  0.40336000  1
  O  O33  1  0.99606418  0.14144731  0.40188830  1
  O  O34  1  0.66258916  0.13810566  0.40346378  1
  O  O35  1  0.26835829  0.59664560  0.54319006  1
  O  O36  1  0.93393828  0.59653890  0.54156692  1
  O  O37  1  0.60203734  0.59811226  0.54333529  1
  O  O38  1  0.14537642  0.54333264  0.85855820  1
  O  O39  1  0.81155181  0.54319630  0.86015995  1
  O  O40  1  0.47550457  0.54156626  0.86189673  1
  O  O41  1  0.33741084  0.86189434  0.59653622  1
  O  O42  1  0.00393582  0.85855269  0.59811170  1
  O  O43  1  0.67170460  0.86017002  0.59664000  1
  O  O44  1  0.04738300  0.80446456  0.92313988  1
  O  O45  1  0.70970656  0.79542230  0.91591774  1
  O  O46  1  0.37359037  0.80404787  0.92298121  1
  O  O47  1  0.29657599  0.92298132  0.27296774  1
  O  O48  1  0.97052338  0.92314502  0.27238986  1
  O  O49  1  0.62562915  0.91591594  0.28865861  1
  O  O50  1  0.91427494  0.28866619  0.79541519  1
  O  O51  1  0.56954955  0.27297865  0.80404990  1
  O  O52  1  0.24291636  0.27239513  0.80447087  1
  O  O53  1  0.62640963  0.19595213  0.07701879  1
  O  O54  1  0.29029344  0.20457770  0.08408226  1
  O  O55  1  0.95261700  0.19553544  0.07686012  1
  O  O56  1  0.37437085  0.08408406  0.71134139  1
  O  O57  1  0.02947662  0.07685498  0.72761014  1
  O  O58  1  0.70342401  0.07701868  0.72703226  1
  O  O59  1  0.75708364  0.72760487  0.19552913  1
  O  O60  1  0.43045045  0.72702135  0.19595010  1
  O  O61  1  0.08572506  0.71133381  0.20458481  1
