# generated using pymatgen
data_BaV2(AsO5)2
_symmetry_space_group_name_H-M   'P 1'
_cell_length_a   4.74047285
_cell_length_b   13.41195233
_cell_length_c   13.44362649
_cell_angle_alpha   91.51026927
_cell_angle_beta   100.15485865
_cell_angle_gamma   79.82090403
_symmetry_Int_Tables_number   1
_chemical_formula_structural   BaV2(AsO5)2
_chemical_formula_sum   'Ba4 V8 As8 O40'
_cell_volume   828.08995866
_cell_formula_units_Z   4
loop_
 _symmetry_equiv_pos_site_id
 _symmetry_equiv_pos_as_xyz
  1  'x, y, z'
loop_
 _atom_site_type_symbol
 _atom_site_label
 _atom_site_symmetry_multiplicity
 _atom_site_fract_x
 _atom_site_fract_y
 _atom_site_fract_z
 _atom_site_occupancy
  Ba  Ba0  1  0.87451367  0.25034443  0.74927967  1
  Ba  Ba1  1  0.12442157  0.75034443  0.24927967  1
  Ba  Ba2  1  0.63276863  0.75915497  0.74979802  1
  Ba  Ba3  1  0.85787442  0.25915497  0.24979802  1
  V  V4  1  0.42476017  0.12556817  0.52388440  1
  V  V5  1  0.52486954  0.37357267  0.97498136  1
  V  V6  1  0.89920939  0.52582249  0.37436756  1
  V  V7  1  0.54983508  0.97743250  0.12666227  1
  V  V8  1  0.57653916  0.87357267  0.47498136  1
  V  V9  1  0.47355605  0.62556817  0.02388440  1
  V  V10  1  0.09939469  0.47743250  0.62666227  1
  V  V11  1  0.44933569  0.02582249  0.87436756  1
  As  As12  1  0.90035311  0.51984720  0.86472265  1
  As  As13  1  0.05257191  0.97711431  0.63648849  1
  As  As14  1  0.03853532  0.86400958  0.97985797  1
  As  As15  1  0.41567911  0.63492207  0.51993207  1
  As  As16  1  0.10680227  0.47711431  0.13648849  1
  As  As17  1  0.94452234  0.01984720  0.36472265  1
  As  As18  1  0.96933088  0.13492207  0.01993207  1
  As  As19  1  0.57731307  0.36400958  0.47985797  1
  O  O20  1  0.91031352  0.55270896  0.74232836  1
  O  O21  1  0.23234065  0.94566351  0.75806822  1
  O  O22  1  0.16765902  0.74195545  0.94579153  1
  O  O23  1  0.46098685  0.75808508  0.54791723  1
  O  O24  1  0.08006405  0.44566351  0.25806822  1
  O  O25  1  0.77930588  0.05270896  0.24232836  1
  O  O26  1  0.82884531  0.25808508  0.04791723  1
  O  O27  1  0.53617707  0.24195545  0.44579153  1
  O  O28  1  0.67788648  0.01097868  0.43698154  1
  O  O29  1  0.75754091  0.48709355  0.06378089  1
  O  O30  1  0.23983169  0.43717441  0.48918603  1
  O  O31  1  0.68788775  0.06482600  0.01155102  1
  O  O32  1  0.31914644  0.98709355  0.56378089  1
  O  O33  1  0.24811638  0.51097868  0.93698154  1
  O  O34  1  0.75883727  0.56482600  0.51155102  1
  O  O35  1  0.31217993  0.93717441  0.98918603  1
  O  O36  1  0.66958765  0.62415137  0.90110286  1
  O  O37  1  0.88590721  0.87319565  0.60235000  1
  O  O38  1  0.76866233  0.90383384  0.87711168  1
  O  O39  1  0.29522148  0.60102731  0.62613972  1
  O  O40  1  0.34324713  0.37319565  0.10235000  1
  O  O41  1  0.10736384  0.12415137  0.40110286  1
  O  O42  1  0.22989093  0.10102731  0.12613972  1
  O  O43  1  0.70461551  0.40383384  0.37711168  1
  O  O44  1  0.78237799  0.40837513  0.87494270  1
  O  O45  1  0.81663937  0.09001939  0.62571753  1
  O  O46  1  0.90804080  0.87502347  0.09087520  1
  O  O47  1  0.19041995  0.62487006  0.40787850  1
  O  O48  1  0.21905877  0.59001939  0.12571753  1
  O  O49  1  0.18418959  0.90837513  0.37494270  1
  O  O50  1  0.09258849  0.12487006  0.90787850  1
  O  O51  1  0.80781093  0.37502347  0.59087520  1
  O  O52  1  0.33023685  0.39144353  0.69831786  1
  O  O53  1  0.52493411  0.11001693  0.80117638  1
  O  O54  1  0.63215251  0.69837837  0.10786136  1
  O  O55  1  0.72572434  0.80199093  0.39054693  1
  O  O56  1  0.66622534  0.61001693  0.30117638  1
  O  O57  1  0.47663748  0.89144353  0.19831786  1
  O  O58  1  0.36283167  0.30199093  0.89054693  1
  O  O59  1  0.27733048  0.19837837  0.60786136  1
