# generated using pymatgen
data_Cu4Si4Pb4C4ClO28
_symmetry_space_group_name_H-M   'P 1'
_cell_length_a   6.17253098
_cell_length_b   10.46286356
_cell_length_c   10.46286356
_cell_angle_alpha   85.00842523
_cell_angle_beta   72.84406310
_cell_angle_gamma   72.84406310
_symmetry_Int_Tables_number   1
_chemical_formula_structural   Cu4Si4Pb4C4ClO28
_chemical_formula_sum   'Cu4 Si4 Pb4 C4 Cl1 O28'
_cell_volume   616.92273875
_cell_formula_units_Z   1
loop_
 _symmetry_equiv_pos_site_id
 _symmetry_equiv_pos_as_xyz
  1  'x, y, z'
loop_
 _atom_site_type_symbol
 _atom_site_label
 _atom_site_symmetry_multiplicity
 _atom_site_fract_x
 _atom_site_fract_y
 _atom_site_fract_z
 _atom_site_occupancy
  Cu  Cu0  1  0.50000000  0.50000000  0.00000000  1
  Cu  Cu1  1  0.00000000  0.50000000  0.00000000  1
  Cu  Cu2  1  0.00000000  -0.00000000  0.50000000  1
  Cu  Cu3  1  0.50000000  0.00000000  0.50000000  1
  Si  Si4  1  0.38880830  0.22772979  0.99465361  1
  Si  Si5  1  0.61119170  0.77227021  0.00534639  1
  Si  Si6  1  0.61653809  0.99465361  0.77227021  1
  Si  Si7  1  0.38346191  0.00534639  0.22772979  1
  Pb  Pb8  1  0.96772881  0.26465066  0.79989172  1
  Pb  Pb9  1  0.03227119  0.73534934  0.20010828  1
  Pb  Pb10  1  0.23237947  0.79989172  0.73534934  1
  Pb  Pb11  1  0.76762053  0.20010828  0.26465066  1
  C  C12  1  0.14464374  0.29154535  0.41916716  1
  C  C13  1  0.85535626  0.70845465  0.58083284  1
  C  C14  1  0.43618910  0.41916716  0.70845465  1
  C  C15  1  0.56381090  0.58083284  0.29154535  1
  Cl  Cl16  1  0.00000000  0.00000000  -0.00000000  1
  O  O17  1  0.12304844  0.31389903  0.98684029  1
  O  O18  1  0.42378777  0.68610097  0.01315971  1
  O  O19  1  0.43694748  0.98684029  0.68610097  1
  O  O20  1  0.10988873  0.01315971  0.31389903  1
  O  O21  1  0.87695156  0.68610097  0.01315971  1
  O  O22  1  0.57621223  0.31389903  0.98684029  1
  O  O23  1  0.56305252  0.01315971  0.31389903  1
  O  O24  1  0.89011127  0.98684029  0.68610097  1
  O  O25  1  0.80476147  0.48977506  0.90070200  1
  O  O26  1  0.19523853  0.51022494  0.09929800  1
  O  O27  1  0.29453653  0.90070200  0.51022494  1
  O  O28  1  0.70546347  0.09929800  0.48977506  1
  O  O29  1  0.36580311  0.13761989  0.13077389  1
  O  O30  1  0.63419689  0.86238011  0.86922611  1
  O  O31  1  0.50342300  0.13077389  0.86238011  1
  O  O32  1  0.49657700  0.86922611  0.13761989  1
  O  O33  1  0.13782030  0.20711034  0.51724905  1
  O  O34  1  0.86217970  0.79288966  0.48275095  1
  O  O35  1  0.34493064  0.51724905  0.79288966  1
  O  O36  1  0.65506936  0.48275095  0.20711034  1
  O  O37  1  0.96887519  0.33246485  0.37054246  1
  O  O38  1  0.67188250  0.66753515  0.62945754  1
  O  O39  1  0.30134004  0.37054246  0.66753515  1
  O  O40  1  0.33941765  0.62945754  0.33246485  1
  O  O41  1  0.03112481  0.66753515  0.62945754  1
  O  O42  1  0.32811750  0.33246485  0.37054246  1
  O  O43  1  0.69865996  0.62945754  0.33246485  1
  O  O44  1  0.66058235  0.37054246  0.66753515  1
