# generated using pymatgen
data_BaIn8Ni2O15
_symmetry_space_group_name_H-M   'P 1'
_cell_length_a   8.38498667
_cell_length_b   8.38498667
_cell_length_c   10.07107987
_cell_angle_alpha   90.00000000
_cell_angle_beta   90.00000000
_cell_angle_gamma   95.85701618
_symmetry_Int_Tables_number   1
_chemical_formula_structural   BaIn8Ni2O15
_chemical_formula_sum   'Ba2 In16 Ni4 O30'
_cell_volume   704.38108829
_cell_formula_units_Z   2
loop_
 _symmetry_equiv_pos_site_id
 _symmetry_equiv_pos_as_xyz
  1  'x, y, z'
loop_
 _atom_site_type_symbol
 _atom_site_label
 _atom_site_symmetry_multiplicity
 _atom_site_fract_x
 _atom_site_fract_y
 _atom_site_fract_z
 _atom_site_occupancy
  Ba  Ba0  1  0.52647963  0.52647963  0.51936159  1
  Ba  Ba1  1  0.97352037  0.97352037  0.01936159  1
  In  In2  1  0.04562838  0.78304875  0.64870823  1
  In  In3  1  0.21191110  0.95002953  0.35175866  1
  In  In4  1  0.71695125  0.45437162  0.14870823  1
  In  In5  1  0.54997047  0.28808890  0.85175866  1
  In  In6  1  0.95002953  0.21191110  0.35175866  1
  In  In7  1  0.78304875  0.04562838  0.64870823  1
  In  In8  1  0.28808890  0.54997047  0.85175866  1
  In  In9  1  0.45437162  0.71695125  0.14870823  1
  In  In10  1  0.18964123  0.18964123  0.63895865  1
  In  In11  1  0.81378192  0.81378192  0.36343610  1
  In  In12  1  0.31035877  0.31035877  0.13895865  1
  In  In13  1  0.68621808  0.68621808  0.86343610  1
  In  In14  1  0.40023688  0.92516152  0.88757076  1
  In  In15  1  0.57483848  0.09976312  0.38757076  1
  In  In16  1  0.92516152  0.40023688  0.88757076  1
  In  In17  1  0.09976312  0.57483848  0.38757076  1
  Ni  Ni18  1  0.08305247  0.59381770  0.11295604  1
  Ni  Ni19  1  0.90618230  0.41694753  0.61295604  1
  Ni  Ni20  1  0.59381770  0.08305247  0.11295604  1
  Ni  Ni21  1  0.41694753  0.90618230  0.61295604  1
  O  O22  1  0.50656198  0.50656198  0.99626972  1
  O  O23  1  0.99343802  0.99343802  0.49626972  1
  O  O24  1  0.60819632  0.86618792  0.00740660  1
  O  O25  1  0.14461488  0.40262040  0.99636214  1
  O  O26  1  0.63381208  0.89180368  0.50740660  1
  O  O27  1  0.09737960  0.35538512  0.49636214  1
  O  O28  1  0.40262040  0.14461488  0.99636214  1
  O  O29  1  0.86618792  0.60819632  0.00740660  1
  O  O30  1  0.35538512  0.09737960  0.49636214  1
  O  O31  1  0.89180368  0.63381208  0.50740660  1
  O  O32  1  0.85903191  0.85903191  0.77388936  1
  O  O33  1  0.13847361  0.13847361  0.22719939  1
  O  O34  1  0.64096809  0.64096809  0.27388936  1
  O  O35  1  0.36152639  0.36152639  0.72719939  1
  O  O36  1  0.25148760  0.74571013  0.00054397  1
  O  O37  1  0.75428987  0.24851240  0.50054397  1
  O  O38  1  0.74571013  0.25148760  0.00054397  1
  O  O39  1  0.24851240  0.75428987  0.50054397  1
  O  O40  1  0.06658420  0.55914577  0.74476437  1
  O  O41  1  0.43341580  0.94085423  0.24476437  1
  O  O42  1  0.94085423  0.43341580  0.24476437  1
  O  O43  1  0.55914577  0.06658420  0.74476437  1
  O  O44  1  0.72182864  0.46353579  0.75288656  1
  O  O45  1  0.53891886  0.28035361  0.23748527  1
  O  O46  1  0.03646421  0.77817136  0.25288656  1
  O  O47  1  0.21964639  0.96108114  0.73748527  1
  O  O48  1  0.28035361  0.53891886  0.23748527  1
  O  O49  1  0.46353579  0.72182864  0.75288656  1
  O  O50  1  0.96108114  0.21964639  0.73748527  1
  O  O51  1  0.77817136  0.03646421  0.25288656  1
