# generated using pymatgen
data_Ba2Li3La3(MoO4)8
_symmetry_space_group_name_H-M   'P 1'
_cell_length_a   5.41076839
_cell_length_b   7.12630685
_cell_length_c   19.50864186
_cell_angle_alpha   90.71747405
_cell_angle_beta   89.65150218
_cell_angle_gamma   111.88625546
_symmetry_Int_Tables_number   1
_chemical_formula_structural   Ba2Li3La3(MoO4)8
_chemical_formula_sum   'Ba2 Li3 La3 Mo8 O32'
_cell_volume   697.95777101
_cell_formula_units_Z   1
loop_
 _symmetry_equiv_pos_site_id
 _symmetry_equiv_pos_as_xyz
  1  'x, y, z'
loop_
 _atom_site_type_symbol
 _atom_site_label
 _atom_site_symmetry_multiplicity
 _atom_site_fract_x
 _atom_site_fract_y
 _atom_site_fract_z
 _atom_site_occupancy
  Ba  Ba0  1  0.03232701  0.05690013  0.23463988  1
  Ba  Ba1  1  0.97036113  0.94466492  0.76184542  1
  Li  Li2  1  0.31115758  0.62656176  0.24184075  1
  Li  Li3  1  0.68716257  0.37083227  0.75685713  1
  Li  Li4  1  0.14958388  0.28933983  0.03691893  1
  La  La5  1  0.14275959  0.29388448  0.46321582  1
  La  La6  1  0.85294445  0.70878986  0.97172282  1
  La  La7  1  0.85707895  0.70655933  0.53497444  1
  Mo  Mo8  1  0.43760529  0.88334998  0.09450485  1
  Mo  Mo9  1  0.44365312  0.87749216  0.40459378  1
  Mo  Mo10  1  0.56553618  0.12082814  0.90659092  1
  Mo  Mo11  1  0.55565394  0.12228477  0.59518090  1
  Mo  Mo12  1  0.72616599  0.47475415  0.34311856  1
  Mo  Mo13  1  0.73810815  0.47153278  0.15364015  1
  Mo  Mo14  1  0.27257209  0.52487513  0.65583695  1
  Mo  Mo15  1  0.25921754  0.52453641  0.84554454  1
  O  O16  1  0.70905625  0.70948499  0.32074853  1
  O  O17  1  0.99899898  0.69458961  0.18439440  1
  O  O18  1  0.29253387  0.29190798  0.67962625  1
  O  O19  1  0.00175049  0.30055707  0.81483355  1
  O  O20  1  0.39390707  0.28731883  0.36162954  1
  O  O21  1  0.88779023  0.28817787  0.14251289  1
  O  O22  1  0.60549500  0.71173652  0.63861606  1
  O  O23  1  0.10326431  0.70812995  0.85828701  1
  O  O24  1  0.89774648  0.51327763  0.42825060  1
  O  O25  1  0.60872306  0.51703112  0.07267339  1
  O  O26  1  0.09997678  0.48636220  0.57151553  1
  O  O27  1  0.39274423  0.48858551  0.92598789  1
  O  O28  1  0.93854128  0.39776015  0.28981847  1
  O  O29  1  0.48152434  0.40270506  0.22063413  1
  O  O30  1  0.06521549  0.60234399  0.71107061  1
  O  O31  1  0.52188898  0.59742067  0.78090671  1
  O  O32  1  0.54520938  0.82802075  0.17664109  1
  O  O33  1  0.28056453  0.82166907  0.32529088  1
  O  O34  1  0.45561112  0.17217430  0.82426977  1
  O  O35  1  0.71895961  0.17785609  0.67482513  1
  O  O36  1  0.30839987  0.07792596  0.10825467  1
  O  O37  1  0.76474270  0.07432924  0.39378743  1
  O  O38  1  0.69762724  0.92272585  0.89153040  1
  O  O39  1  0.23439936  0.92544525  0.60646712  1
  O  O40  1  0.72806770  0.96216267  0.03897122  1
  O  O41  1  0.23157014  0.96296099  0.46129601  1
  O  O42  1  0.27245029  0.03041935  0.95949511  1
  O  O43  1  0.76775212  0.03666816  0.53901826  1
  O  O44  1  0.18768830  0.67213321  0.05002004  1
  O  O45  1  0.47142992  0.66273665  0.45200663  1
  O  O46  1  0.80673508  0.34091081  0.94723408  1
  O  O47  1  0.52774832  0.33728640  0.54836076  1
