# generated using pymatgen
data_Ba5Ca2Nb3O15
_symmetry_space_group_name_H-M   'P 1'
_cell_length_a   8.52633750
_cell_length_b   10.50660177
_cell_length_c   10.50660177
_cell_angle_alpha   80.52356219
_cell_angle_beta   113.93882443
_cell_angle_gamma   113.93882446
_symmetry_Int_Tables_number   1
_chemical_formula_structural   Ba5Ca2Nb3O15
_chemical_formula_sum   'Ba10 Ca4 Nb6 O30'
_cell_volume   786.24826903
_cell_formula_units_Z   2
loop_
 _symmetry_equiv_pos_site_id
 _symmetry_equiv_pos_as_xyz
  1  'x, y, z'
loop_
 _atom_site_type_symbol
 _atom_site_label
 _atom_site_symmetry_multiplicity
 _atom_site_fract_x
 _atom_site_fract_y
 _atom_site_fract_z
 _atom_site_occupancy
  Ba  Ba0  1  0.75000000  0.50000000  0.50000000  1
  Ba  Ba1  1  0.34440161  0.90117390  0.29725281  1
  Ba  Ba2  1  0.14597490  0.09882610  0.70274719  1
  Ba  Ba3  1  0.55677229  0.70274719  0.90117390  1
  Ba  Ba4  1  0.95285120  0.29725281  0.09882610  1
  Ba  Ba5  1  0.44322771  0.29725281  0.09882610  1
  Ba  Ba6  1  0.04714880  0.70274719  0.90117390  1
  Ba  Ba7  1  0.85402510  0.90117390  0.29725281  1
  Ba  Ba8  1  0.25000000  0.50000000  0.50000000  1
  Ba  Ba9  1  0.65559839  0.09882610  0.70274719  1
  Ca  Ca10  1  0.79831355  0.19674529  0.39988182  1
  Ca  Ca11  1  0.60156827  0.39988182  0.80325471  1
  Ca  Ca12  1  0.39843173  0.60011818  0.19674529  1
  Ca  Ca13  1  0.20168645  0.80325471  0.60011818  1
  Nb  Nb14  1  0.10157419  0.40799413  0.79515425  1
  Nb  Nb15  1  0.69358006  0.79515425  0.59200587  1
  Nb  Nb16  1  0.50000000  0.00000000  0.00000000  1
  Nb  Nb17  1  0.89842581  0.59200587  0.20484575  1
  Nb  Nb18  1  0.30641994  0.20484575  0.40799413  1
  Nb  Nb19  1  -0.00000000  0.00000000  0.00000000  1
  O  O20  1  0.86437439  0.38975514  0.80479228  1
  O  O21  1  0.47461926  0.80479228  0.61024486  1
  O  O22  1  0.24608162  0.00000000  0.00000000  1
  O  O23  1  0.66982697  0.61024486  0.19520772  1
  O  O24  1  0.05958211  0.19520772  0.38975514  1
  O  O25  1  0.23645869  0.48343207  0.98948531  1
  O  O26  1  0.85846691  0.90538230  0.81155153  1
  O  O27  1  0.63842253  0.09183898  0.18500607  1
  O  O28  1  0.04189340  0.70062036  0.38316644  1
  O  O29  1  0.44068797  0.29592261  0.58545333  1
  O  O30  1  0.04691538  0.18844847  0.90538230  1
  O  O31  1  0.65872696  0.61683356  0.70062036  1
  O  O32  1  0.45341646  0.81499393  0.09183898  1
  O  O33  1  0.85523464  0.41454667  0.29592261  1
  O  O34  1  0.24697338  0.01051469  0.48343207  1
  O  O35  1  0.33017303  0.38975514  0.80479228  1
  O  O36  1  0.94041789  0.80479228  0.61024486  1
  O  O37  1  0.75391838  1.00000000  1.00000000  1
  O  O38  1  0.13562561  0.61024486  0.19520772  1
  O  O39  1  0.52538074  0.19520772  0.38975514  1
  O  O40  1  0.95810660  0.29937964  0.61683356  1
  O  O41  1  0.55931203  0.70407739  0.41454667  1
  O  O42  1  0.36157747  0.90816102  0.81499393  1
  O  O43  1  0.76354131  0.51656793  0.01051469  1
  O  O44  1  0.14153309  0.09461770  0.18844847  1
  O  O45  1  0.14476536  0.58545333  0.70407739  1
  O  O46  1  0.75302662  0.98948531  0.51656793  1
  O  O47  1  0.54658354  0.18500607  0.90816102  1
  O  O48  1  0.95308462  0.81155153  0.09461770  1
  O  O49  1  0.34127304  0.38316644  0.29937964  1
