# generated using pymatgen
data_Ca20Si3Ge9O44
_symmetry_space_group_name_H-M   'P 1'
_cell_length_a   7.01949956
_cell_length_b   13.62135524
_cell_length_c   12.53445074
_cell_angle_alpha   64.77673602
_cell_angle_beta   92.28421525
_cell_angle_gamma   79.31438308
_symmetry_Int_Tables_number   1
_chemical_formula_structural   Ca20Si3Ge9O44
_chemical_formula_sum   'Ca20 Si3 Ge9 O44'
_cell_volume   1055.84309744
_cell_formula_units_Z   1
loop_
 _symmetry_equiv_pos_site_id
 _symmetry_equiv_pos_as_xyz
  1  'x, y, z'
loop_
 _atom_site_type_symbol
 _atom_site_label
 _atom_site_symmetry_multiplicity
 _atom_site_fract_x
 _atom_site_fract_y
 _atom_site_fract_z
 _atom_site_occupancy
  Ca  Ca0  1  0.01799364  0.13218882  0.11423925  1
  Ca  Ca1  1  0.01579533  0.63231415  0.61644980  1
  Ca  Ca2  1  0.98413533  0.86763456  0.88358974  1
  Ca  Ca3  1  0.98515221  0.36895520  0.38373785  1
  Ca  Ca4  1  0.29564918  0.85206856  0.14782058  1
  Ca  Ca5  1  0.29547068  0.35241017  0.64786797  1
  Ca  Ca6  1  0.70428586  0.64786539  0.35212485  1
  Ca  Ca7  1  0.70450655  0.14778349  0.85239764  1
  Ca  Ca8  1  0.68180592  0.41136470  0.08819988  1
  Ca  Ca9  1  0.68198931  0.90760838  0.59224130  1
  Ca  Ca10  1  0.31682531  0.59160902  0.90855025  1
  Ca  Ca11  1  0.32157017  0.08996244  0.40922824  1
  Ca  Ca12  1  0.91785430  0.39204217  0.84992515  1
  Ca  Ca13  1  0.91775664  0.89156151  0.34951931  1
  Ca  Ca14  1  0.54186101  0.57999574  0.66205089  1
  Ca  Ca15  1  0.54230668  0.07936246  0.16166549  1
  Ca  Ca16  1  0.08193351  0.60817693  0.14965549  1
  Ca  Ca17  1  0.08331325  0.10794140  0.65171588  1
  Ca  Ca18  1  0.45655648  0.42165215  0.33793003  1
  Ca  Ca19  1  0.45818274  0.91969204  0.83819284  1
  Si  Si20  1  0.18954992  0.32592057  0.13657499  1
  Si  Si21  1  0.18927847  0.82593389  0.63647707  1
  Si  Si22  1  0.81062519  0.67409463  0.86358788  1
  Ge  Ge23  1  0.81129901  0.17362460  0.36218500  1
  Ge  Ge24  1  0.43625924  0.35243736  0.91595078  1
  Ge  Ge25  1  0.43648503  0.85228283  0.41598831  1
  Ge  Ge26  1  0.56339733  0.64767414  0.08410462  1
  Ge  Ge27  1  0.56010331  0.14690607  0.58701137  1
  Ge  Ge28  1  0.20803721  0.11246731  0.90453576  1
  Ge  Ge29  1  0.20773291  0.61269480  0.40485286  1
  Ge  Ge30  1  0.79220994  0.88724697  0.09499864  1
  Ge  Ge31  1  0.79217501  0.38749006  0.59536686  1
  O  O32  1  0.34481469  0.38493740  0.03983872  1
  O  O33  1  0.34499144  0.88478267  0.54006965  1
  O  O34  1  0.65506205  0.61517052  0.95993345  1
  O  O35  1  0.64543121  0.10997349  0.46495227  1
  O  O36  1  0.63297885  0.33155447  0.69864640  1
  O  O37  1  0.63299165  0.83158671  0.19848738  1
  O  O38  1  0.36696837  0.66831017  0.30151987  1
  O  O39  1  0.36703636  0.16847128  0.80128531  1
  O  O40  1  0.28185034  0.68990950  0.70681761  1
  O  O41  1  0.28231320  0.18986779  0.20705772  1
  O  O42  1  0.98304474  0.33910344  0.05761809  1
  O  O43  1  0.98287427  0.83972812  0.55718063  1
  O  O44  1  0.71470329  0.31931280  0.28875748  1
  O  O45  1  0.71805797  0.80995162  0.79342176  1
  O  O46  1  0.01696041  0.66058063  0.94259611  1
  O  O47  1  0.03006655  0.16159891  0.44673660  1
  O  O48  1  0.23217187  0.39850848  0.80994590  1
  O  O49  1  0.23252318  0.89833951  0.30993473  1
  O  O50  1  0.58827475  0.22046164  0.98782416  1
  O  O51  1  0.58856878  0.72032487  0.48812992  1
  O  O52  1  0.76762215  0.60184761  0.18991086  1
  O  O53  1  0.76760285  0.10181238  0.69036111  1
  O  O54  1  0.41151497  0.77964609  0.01199605  1
  O  O55  1  0.41198697  0.27985564  0.51241325  1
  O  O56  1  0.83650910  0.61310310  0.77662737  1
  O  O57  1  0.83690751  0.10712032  0.27022078  1
  O  O58  1  0.16349894  0.38707128  0.22327846  1
  O  O59  1  0.16328037  0.88664575  0.72361795  1
  O  O60  1  0.14433321  0.50987614  0.36463554  1
  O  O61  1  0.14483992  0.00919880  0.86518223  1
  O  O62  1  0.85519202  0.49059533  0.63552347  1
  O  O63  1  0.85561472  0.99019217  0.13452612  1
  O  O64  1  0.57893578  0.45523402  0.87587792  1
  O  O65  1  0.57926562  0.95478754  0.37597429  1
  O  O66  1  0.41997806  0.54551350  0.12331853  1
  O  O67  1  0.41863892  0.04386642  0.62736518  1
  O  O68  1  0.29909773  0.54699025  0.55965081  1
  O  O69  1  0.29941399  0.04685967  0.05931591  1
  O  O70  1  0.98758228  0.20294247  0.90332739  1
  O  O71  1  0.98725833  0.70268675  0.40388930  1
  O  O72  1  0.70085674  0.45332041  0.44063459  1
  O  O73  1  0.70079531  0.95296801  0.94019822  1
  O  O74  1  0.01276822  0.79697218  0.09615397  1
  O  O75  1  0.01272563  0.29745762  0.59651035  1
