# generated using pymatgen
data_Ce4Si4N6O5
_symmetry_space_group_name_H-M   'P 1'
_cell_length_a   10.35085469
_cell_length_b   10.35085469
_cell_length_c   10.35085469
_cell_angle_alpha   90.00000000
_cell_angle_beta   90.00000000
_cell_angle_gamma   90.00000000
_symmetry_Int_Tables_number   1
_chemical_formula_structural   Ce4Si4N6O5
_chemical_formula_sum   'Ce16 Si16 N24 O20'
_cell_volume   1108.99256727
_cell_formula_units_Z   4
loop_
 _symmetry_equiv_pos_site_id
 _symmetry_equiv_pos_as_xyz
  1  'x, y, z'
loop_
 _atom_site_type_symbol
 _atom_site_label
 _atom_site_symmetry_multiplicity
 _atom_site_fract_x
 _atom_site_fract_y
 _atom_site_fract_z
 _atom_site_occupancy
  Ce  Ce0  1  0.18174163  0.21138399  0.46944452  1
  Ce  Ce1  1  0.96944452  0.31825837  0.78861601  1
  Ce  Ce2  1  0.28861601  0.53055548  0.68174163  1
  Ce  Ce3  1  0.31825837  0.78861601  0.96944452  1
  Ce  Ce4  1  0.53055548  0.68174163  0.28861601  1
  Ce  Ce5  1  0.21138399  0.46944452  0.18174163  1
  Ce  Ce6  1  0.68174163  0.28861601  0.53055548  1
  Ce  Ce7  1  0.46944452  0.18174163  0.21138399  1
  Ce  Ce8  1  0.78861601  0.96944452  0.31825837  1
  Ce  Ce9  1  0.81825837  0.71138399  0.03055548  1
  Ce  Ce10  1  0.03055548  0.81825837  0.71138399  1
  Ce  Ce11  1  0.71138399  0.03055548  0.81825837  1
  Ce  Ce12  1  0.97119552  0.52880448  0.47119552  1
  Ce  Ce13  1  0.52880448  0.47119552  0.97119552  1
  Ce  Ce14  1  0.47119552  0.97119552  0.52880448  1
  Ce  Ce15  1  0.02880448  0.02880448  0.02880448  1
  Si  Si16  1  0.92624194  0.25417214  0.30396630  1
  Si  Si17  1  0.80396630  0.57375806  0.74582786  1
  Si  Si18  1  0.24582786  0.69603370  0.42624194  1
  Si  Si19  1  0.57375806  0.74582786  0.80396630  1
  Si  Si20  1  0.69603370  0.42624194  0.24582786  1
  Si  Si21  1  0.25417214  0.30396630  0.92624194  1
  Si  Si22  1  0.42624194  0.24582786  0.69603370  1
  Si  Si23  1  0.30396630  0.92624194  0.25417214  1
  Si  Si24  1  0.74582786  0.80396630  0.57375806  1
  Si  Si25  1  0.07375806  0.75417214  0.19603370  1
  Si  Si26  1  0.19603370  0.07375806  0.75417214  1
  Si  Si27  1  0.75417214  0.19603370  0.07375806  1
  Si  Si28  1  0.57263802  0.92736198  0.07263802  1
  Si  Si29  1  0.92736198  0.07263802  0.57263802  1
  Si  Si30  1  0.07263802  0.57263802  0.92736198  1
  Si  Si31  1  0.42736198  0.42736198  0.42736198  1
  N  N32  1  0.94688640  0.14666744  0.42799031  1
  N  N33  1  0.92799031  0.55311360  0.85333256  1
  N  N34  1  0.35333256  0.57200969  0.44688640  1
  N  N35  1  0.55311360  0.85333256  0.92799031  1
  N  N36  1  0.57200969  0.44688640  0.35333256  1
  N  N37  1  0.14666744  0.42799031  0.94688640  1
  N  N38  1  0.44688640  0.35333256  0.57200969  1
  N  N39  1  0.42799031  0.94688640  0.14666744  1
  N  N40  1  0.85333256  0.92799031  0.55311360  1
  N  N41  1  0.05311360  0.64666744  0.07200969  1
  N  N42  1  0.07200969  0.05311360  0.64666744  1
  N  N43  1  0.64666744  0.07200969  0.05311360  1
  N  N44  1  0.87968007  0.15681948  0.17737999  1
  N  N45  1  0.67737999  0.62031993  0.84318052  1
  N  N46  1  0.34318052  0.82262001  0.37968007  1
  N  N47  1  0.62031993  0.84318052  0.67737999  1
  N  N48  1  0.82262001  0.37968007  0.34318052  1
  N  N49  1  0.15681948  0.17737999  0.87968007  1
  N  N50  1  0.37968007  0.34318052  0.82262001  1
  N  N51  1  0.17737999  0.87968007  0.15681948  1
  N  N52  1  0.84318052  0.67737999  0.62031993  1
  N  N53  1  0.12031993  0.65681948  0.32262001  1
  N  N54  1  0.32262001  0.12031993  0.65681948  1
  N  N55  1  0.65681948  0.32262001  0.12031993  1
  O  O56  1  0.06936810  0.32903590  0.29311881  1
  O  O57  1  0.79311881  0.43063190  0.67096410  1
  O  O58  1  0.17096410  0.70688119  0.56936810  1
  O  O59  1  0.43063190  0.67096410  0.79311881  1
  O  O60  1  0.70688119  0.56936810  0.17096410  1
  O  O61  1  0.32903590  0.29311881  0.06936810  1
  O  O62  1  0.56936810  0.17096410  0.70688119  1
  O  O63  1  0.29311881  0.06936810  0.32903590  1
  O  O64  1  0.67096410  0.79311881  0.43063190  1
  O  O65  1  0.93063190  0.82903590  0.20688119  1
  O  O66  1  0.20688119  0.93063190  0.82903590  1
  O  O67  1  0.82903590  0.20688119  0.93063190  1
  O  O68  1  0.66566034  0.83433966  0.16566034  1
  O  O69  1  0.83433966  0.16566034  0.66566034  1
  O  O70  1  0.16566034  0.66566034  0.83433966  1
  O  O71  1  0.33433966  0.33433966  0.33433966  1
  O  O72  1  0.09823965  0.40176035  0.59823965  1
  O  O73  1  0.40176035  0.59823965  0.09823965  1
  O  O74  1  0.59823965  0.09823965  0.40176035  1
  O  O75  1  0.90176035  0.90176035  0.90176035  1
