# generated using pymatgen
data_Ba4Pr4Fe4Cu4O21
_symmetry_space_group_name_H-M   'P 1'
_cell_length_a   5.60729506
_cell_length_b   5.60729506
_cell_length_c   16.32884055
_cell_angle_alpha   80.11337589
_cell_angle_beta   80.11337589
_cell_angle_gamma   90.00000000
_symmetry_Int_Tables_number   1
_chemical_formula_structural   Ba4Pr4Fe4Cu4O21
_chemical_formula_sum   'Ba4 Pr4 Fe4 Cu4 O21'
_cell_volume   498.04196510
_cell_formula_units_Z   1
loop_
 _symmetry_equiv_pos_site_id
 _symmetry_equiv_pos_as_xyz
  1  'x, y, z'
loop_
 _atom_site_type_symbol
 _atom_site_label
 _atom_site_symmetry_multiplicity
 _atom_site_fract_x
 _atom_site_fract_y
 _atom_site_fract_z
 _atom_site_occupancy
  Ba  Ba0  1  0.75543598  0.75543598  0.48912803  1
  Ba  Ba1  1  0.49456402  0.49456402  0.01087197  1
  Ba  Ba2  1  0.25543598  0.25543598  0.48912803  1
  Ba  Ba3  1  0.99456402  0.99456402  0.01087197  1
  Pr  Pr4  1  0.62500000  0.62500000  0.75000000  1
  Pr  Pr5  1  0.37500000  0.37500000  0.25000000  1
  Pr  Pr6  1  0.12500000  0.12500000  0.75000000  1
  Pr  Pr7  1  0.87500000  0.87500000  0.25000000  1
  Fe  Fe8  1  0.56487054  0.06487054  0.87025893  1
  Fe  Fe9  1  0.05896825  0.55896825  0.88206351  1
  Fe  Fe10  1  0.68512946  0.18512946  0.62974107  1
  Fe  Fe11  1  0.19103175  0.69103175  0.61793649  1
  Cu  Cu12  1  0.81926371  0.31926371  0.36147258  1
  Cu  Cu13  1  0.31863406  0.81863406  0.36273189  1
  Cu  Cu14  1  0.93136594  0.43136594  0.13726811  1
  Cu  Cu15  1  0.43073629  0.93073629  0.13852742  1
  O  O16  1  0.83324800  0.33324800  0.85282865  1
  O  O17  1  0.57758701  0.07758701  0.34799431  1
  O  O18  1  0.31392336  0.81392336  0.85282865  1
  O  O19  1  0.07441868  0.57441868  0.34799431  1
  O  O20  1  0.31392336  0.33324800  0.85282865  1
  O  O21  1  0.07441868  0.07758701  0.34799431  1
  O  O22  1  0.83324800  0.81392336  0.85282865  1
  O  O23  1  0.57758701  0.57441868  0.34799431  1
  O  O24  1  0.93607664  0.43607664  0.64717135  1
  O  O25  1  0.67241299  0.17241299  0.15200569  1
  O  O26  1  0.41675200  0.91675200  0.64717135  1
  O  O27  1  0.17558132  0.67558132  0.15200569  1
  O  O28  1  0.41675200  0.43607664  0.64717135  1
  O  O29  1  0.17558132  0.17241299  0.15200569  1
  O  O30  1  0.93607664  0.91675200  0.64717135  1
  O  O31  1  0.67241299  0.67558132  0.15200569  1
  O  O32  1  0.74433385  0.24433385  0.51133231  1
  O  O33  1  0.50566615  0.00566615  0.98866769  1
  O  O34  1  0.25024817  0.75024817  0.49950366  1
  O  O35  1  0.99975183  0.49975183  0.00049634  1
  O  O36  1  0.62500000  0.12500000  0.75000000  1
