# generated using pymatgen
data_Bi13Mo5O34
_symmetry_space_group_name_H-M   'P 1'
_cell_length_a   5.91660773
_cell_length_b   11.96038462
_cell_length_c   25.39390987
_cell_angle_alpha   103.49638099
_cell_angle_beta   90.00000000
_cell_angle_gamma   90.00000000
_symmetry_Int_Tables_number   1
_chemical_formula_structural   Bi13Mo5O34
_chemical_formula_sum   'Bi26 Mo10 O68'
_cell_volume   1747.37290459
_cell_formula_units_Z   2
loop_
 _symmetry_equiv_pos_site_id
 _symmetry_equiv_pos_as_xyz
  1  'x, y, z'
loop_
 _atom_site_type_symbol
 _atom_site_label
 _atom_site_symmetry_multiplicity
 _atom_site_fract_x
 _atom_site_fract_y
 _atom_site_fract_z
 _atom_site_occupancy
  Bi  Bi0  1  0.01594062  0.92114581  0.40736003  1
  Bi  Bi1  1  0.01641067  0.07990526  0.09269267  1
  Bi  Bi2  1  0.98358933  0.07990526  0.59269267  1
  Bi  Bi3  1  0.98405938  0.92114581  0.90736003  1
  Bi  Bi4  1  0.50503478  0.63760120  0.17540837  1
  Bi  Bi5  1  0.50237630  0.36214901  0.32415790  1
  Bi  Bi6  1  0.49762370  0.36214901  0.82415790  1
  Bi  Bi7  1  0.49496522  0.63760120  0.67540837  1
  Bi  Bi8  1  0.51071915  0.73457416  0.33919172  1
  Bi  Bi9  1  0.51170191  0.26643026  0.16009915  1
  Bi  Bi10  1  0.48829809  0.26643026  0.66009915  1
  Bi  Bi11  1  0.48928085  0.73457416  0.83919172  1
  Bi  Bi12  1  0.91326271  0.84332887  0.25352876  1
  Bi  Bi13  1  0.91130357  0.15743163  0.24630979  1
  Bi  Bi14  1  0.08869643  0.15743163  0.74630979  1
  Bi  Bi15  1  0.08673729  0.84332887  0.75352876  1
  Bi  Bi16  1  0.41356172  0.95956889  0.17436544  1
  Bi  Bi17  1  0.41330074  0.04088492  0.32539891  1
  Bi  Bi18  1  0.58669926  0.04088492  0.82539891  1
  Bi  Bi19  1  0.58643828  0.95956889  0.67436544  1
  Bi  Bi20  1  0.01855261  0.75375580  0.09944484  1
  Bi  Bi21  1  0.01669209  0.24614701  0.40037325  1
  Bi  Bi22  1  0.98330791  0.24614701  0.90037325  1
  Bi  Bi23  1  0.98144739  0.75375580  0.59944484  1
  Bi  Bi24  1  0.42732597  0.50617511  0.48763502  1
  Bi  Bi25  1  0.57267403  0.50617511  0.98763502  1
  Mo  Mo26  1  0.51315654  0.16907842  0.48930882  1
  Mo  Mo27  1  0.51401366  0.83041519  0.01017758  1
  Mo  Mo28  1  0.48598634  0.83041519  0.51017758  1
  Mo  Mo29  1  0.48684346  0.16907842  0.98930882  1
  Mo  Mo30  1  0.98604844  0.57607070  0.41987808  1
  Mo  Mo31  1  0.99778822  0.42195753  0.07602297  1
  Mo  Mo32  1  0.00221178  0.42195753  0.57602297  1
  Mo  Mo33  1  0.01395156  0.57607070  0.91987808  1
  Mo  Mo34  1  0.99562876  0.50048974  0.25064107  1
  Mo  Mo35  1  0.00437124  0.50048974  0.75064107  1
  O  O36  1  0.23181952  0.46436531  0.40473642  1
  O  O37  1  0.19563711  0.53005681  0.10943268  1
  O  O38  1  0.80436289  0.53005681  0.60943268  1
  O  O39  1  0.76818048  0.46436531  0.90473642  1
  O  O40  1  0.07484227  0.93616719  0.13197028  1
  O  O41  1  0.07467253  0.06389821  0.36742521  1
  O  O42  1  0.92532747  0.06389821  0.86742521  1
  O  O43  1  0.92515773  0.93616719  0.63197028  1
  O  O44  1  0.17515572  0.62459248  0.25486911  1
  O  O45  1  0.17418140  0.37564945  0.24512719  1
  O  O46  1  0.82581860  0.37564945  0.74512719  1
  O  O47  1  0.82484428  0.62459248  0.75486911  1
  O  O48  1  0.29379910  0.06458215  0.47449245  1
  O  O49  1  0.29308813  0.93385773  0.02638600  1
  O  O50  1  0.70691187  0.93385773  0.52638600  1
  O  O51  1  0.70620090  0.06458215  0.97449245  1
  O  O52  1  0.77208050  0.75952928  0.16307947  1
  O  O53  1  0.77073431  0.24136376  0.33617507  1
  O  O54  1  0.22926569  0.24136376  0.83617507  1
  O  O55  1  0.22791950  0.75952928  0.66307947  1
  O  O56  1  0.72042279  0.49652142  0.42183651  1
  O  O57  1  0.72431026  0.49390171  0.07440882  1
  O  O58  1  0.27568974  0.49390171  0.57440882  1
  O  O59  1  0.27957721  0.49652142  0.92183651  1
  O  O60  1  0.25988795  0.86423193  0.33998193  1
  O  O61  1  0.26026191  0.13626963  0.15961303  1
  O  O62  1  0.73973809  0.13626963  0.65961303  1
  O  O63  1  0.74011205  0.86423193  0.83998193  1
  O  O64  1  0.76067737  0.11443845  0.45002461  1
  O  O65  1  0.76119995  0.88384787  0.04990604  1
  O  O66  1  0.23880005  0.88384787  0.54990604  1
  O  O67  1  0.23932263  0.11443845  0.95002461  1
  O  O68  1  0.59828028  0.73945592  0.25580866  1
  O  O69  1  0.59721294  0.26022407  0.24349577  1
  O  O70  1  0.40278706  0.26022407  0.74349577  1
  O  O71  1  0.40171972  0.73945592  0.75580866  1
  O  O72  1  0.22726304  0.99948374  0.24993747  1
  O  O73  1  0.77273696  0.99948374  0.74993747  1
  O  O74  1  0.40840188  0.29333651  0.46652488  1
  O  O75  1  0.41357624  0.70116407  0.02958479  1
  O  O76  1  0.58642376  0.70116407  0.52958479  1
  O  O77  1  0.59159812  0.29333651  0.96652488  1
  O  O78  1  0.82606221  0.51735482  0.31097728  1
  O  O79  1  0.81074400  0.48435885  0.19344738  1
  O  O80  1  0.18925600  0.48435885  0.69344738  1
  O  O81  1  0.17393779  0.51735482  0.81097728  1
  O  O82  1  0.75483405  0.87265776  0.34482498  1
  O  O83  1  0.75440243  0.12752961  0.15463708  1
  O  O84  1  0.24559757  0.12752961  0.65463708  1
  O  O85  1  0.24516595  0.87265776  0.84482498  1
  O  O86  1  0.27584390  0.77249383  0.16517501  1
  O  O87  1  0.27242028  0.22769032  0.33408034  1
  O  O88  1  0.72757972  0.22769032  0.83408034  1
  O  O89  1  0.72415610  0.77249383  0.66517501  1
  O  O90  1  0.56567249  0.20062971  0.56097898  1
  O  O91  1  0.56415244  0.80134368  0.93851263  1
  O  O92  1  0.43584756  0.80134368  0.43851263  1
  O  O93  1  0.43432751  0.20062971  0.06097898  1
  O  O94  1  0.98482594  0.70728089  0.39636742  1
  O  O95  1  0.97658854  0.29872694  0.10550400  1
  O  O96  1  0.02341146  0.29872694  0.60550400  1
  O  O97  1  0.01517406  0.70728089  0.89636742  1
  O  O98  1  0.71789209  0.99985196  0.24976175  1
  O  O99  1  0.28210791  0.99985196  0.74976175  1
  O  O100  1  0.11891348  0.62017145  0.49034223  1
  O  O101  1  0.09212672  0.37386294  0.00848018  1
  O  O102  1  0.90787328  0.37386294  0.50848018  1
  O  O103  1  0.88108652  0.62017145  0.99034223  1
