# generated using pymatgen
data_Ba4NbCo2MoO12
_symmetry_space_group_name_H-M   'P 1'
_cell_length_a   5.82179040
_cell_length_b   8.11837079
_cell_length_c   5.82179040
_cell_angle_alpha   90.00000000
_cell_angle_beta   90.00000000
_cell_angle_gamma   90.00000000
_symmetry_Int_Tables_number   1
_chemical_formula_structural   Ba4NbCo2MoO12
_chemical_formula_sum   'Ba4 Nb1 Co2 Mo1 O12'
_cell_volume   275.15791763
_cell_formula_units_Z   1
loop_
 _symmetry_equiv_pos_site_id
 _symmetry_equiv_pos_as_xyz
  1  'x, y, z'
loop_
 _atom_site_type_symbol
 _atom_site_label
 _atom_site_symmetry_multiplicity
 _atom_site_fract_x
 _atom_site_fract_y
 _atom_site_fract_z
 _atom_site_occupancy
  Ba  Ba0  1  0.50000000  0.25143906  -0.00000000  1
  Ba  Ba1  1  0.00000000  0.74856094  0.50000000  1
  Ba  Ba2  1  0.50000000  0.74856094  0.00000000  1
  Ba  Ba3  1  -0.00000000  0.25143906  0.50000000  1
  Nb  Nb4  1  0.00000000  0.50000000  0.00000000  1
  Co  Co5  1  0.00000000  0.00000000  0.00000000  1
  Co  Co6  1  0.50000000  0.50000000  0.50000000  1
  Mo  Mo7  1  0.50000000  0.00000000  0.50000000  1
  O  O8  1  0.00000000  0.24112486  0.00000000  1
  O  O9  1  0.50000000  0.76355635  0.50000000  1
  O  O10  1  0.24339630  0.50000000  0.24339630  1
  O  O11  1  0.74012363  0.00000000  0.74012363  1
  O  O12  1  0.24339630  0.50000000  0.75660370  1
  O  O13  1  0.74012363  0.00000000  0.25987637  1
  O  O14  1  -0.00000000  0.75887514  -0.00000000  1
  O  O15  1  0.50000000  0.23644365  0.50000000  1
  O  O16  1  0.75660370  0.50000000  0.75660370  1
  O  O17  1  0.25987637  0.00000000  0.25987637  1
  O  O18  1  0.75660370  0.50000000  0.24339630  1
  O  O19  1  0.25987637  0.00000000  0.74012363  1
