# generated using pymatgen
data_Ba4LaTi4CrO15
_symmetry_space_group_name_H-M   'P 1'
_cell_length_a   4.02064558
_cell_length_b   5.70304652
_cell_length_c   14.43867525
_cell_angle_alpha   101.39033785
_cell_angle_beta   90.00000000
_cell_angle_gamma   90.00000000
_symmetry_Int_Tables_number   1
_chemical_formula_structural   Ba4LaTi4CrO15
_chemical_formula_sum   'Ba4 La1 Ti4 Cr1 O15'
_cell_volume   324.55705037
_cell_formula_units_Z   1
loop_
 _symmetry_equiv_pos_site_id
 _symmetry_equiv_pos_as_xyz
  1  'x, y, z'
loop_
 _atom_site_type_symbol
 _atom_site_label
 _atom_site_symmetry_multiplicity
 _atom_site_fract_x
 _atom_site_fract_y
 _atom_site_fract_z
 _atom_site_occupancy
  Ba  Ba0  1  0.00000000  0.99865495  0.99730991  1
  Ba  Ba1  1  0.00000000  0.59981994  0.19963988  1
  Ba  Ba2  1  -0.00000000  0.20018006  0.40036012  1
  Ba  Ba3  1  0.00000000  0.80134505  0.60269009  1
  La  La4  1  0.00000000  0.40000000  0.80000000  1
  Ti  Ti5  1  0.50000000  0.49826828  0.99653656  1
  Ti  Ti6  1  0.50000000  0.09965797  0.19931593  1
  Ti  Ti7  1  0.50000000  0.70034203  0.40068407  1
  Ti  Ti8  1  0.50000000  0.30173172  0.60346344  1
  Cr  Cr9  1  0.50000000  0.90000000  0.80000000  1
  O  O10  1  0.50000000  0.58529009  0.70470808  1
  O  O11  1  0.50000000  0.40000000  0.30000000  1
  O  O12  1  0.50000000  0.00017589  0.50150058  1
  O  O13  1  0.50000000  0.21470991  0.89529192  1
  O  O14  1  0.50000000  0.79982411  0.09849942  1
  O  O15  1  0.50000000  0.68058201  0.89529192  1
  O  O16  1  0.50000000  0.50132469  0.50150058  1
  O  O17  1  0.50000000  0.11941799  0.70470808  1
  O  O18  1  0.50000000  0.29867531  0.09849942  1
  O  O19  1  0.50000000  0.90000000  0.30000000  1
  O  O20  1  0.00000000  0.90000000  0.80000000  1
  O  O21  1  0.00000000  0.70006594  0.40013189  1
  O  O22  1  0.00000000  0.30345082  0.60690164  1
  O  O23  1  0.00000000  0.49654918  0.99309836  1
  O  O24  1  0.00000000  0.09993406  0.19986811  1
