# generated using pymatgen
data_AlSi3AgO8
_symmetry_space_group_name_H-M   'P 1'
_cell_length_a   7.27958939
_cell_length_b   7.86335367
_cell_length_c   7.56155937
_cell_angle_alpha   115.16573527
_cell_angle_beta   100.59954971
_cell_angle_gamma   106.78707539
_symmetry_Int_Tables_number   1
_chemical_formula_structural   AlSi3AgO8
_chemical_formula_sum   'Al2 Si6 Ag2 O16'
_cell_volume   350.77040447
_cell_formula_units_Z   2
loop_
 _symmetry_equiv_pos_site_id
 _symmetry_equiv_pos_as_xyz
  1  'x, y, z'
loop_
 _atom_site_type_symbol
 _atom_site_label
 _atom_site_symmetry_multiplicity
 _atom_site_fract_x
 _atom_site_fract_y
 _atom_site_fract_z
 _atom_site_occupancy
  Al  Al0  1  0.21098354  0.17857304  0.82883299  1
  Al  Al1  1  0.78901646  0.82142696  0.17116701  1
  Si  Si2  1  0.32119155  0.80394470  0.57302552  1
  Si  Si3  1  0.67880845  0.19605530  0.42697448  1
  Si  Si4  1  0.23776995  0.82539424  0.18120874  1
  Si  Si5  1  0.76223005  0.17460576  0.81879126  1
  Si  Si6  1  0.36418843  0.57599577  0.80219367  1
  Si  Si7  1  0.63581157  0.42400423  0.19780633  1
  Ag  Ag8  1  0.12869823  0.25899268  0.26346796  1
  Ag  Ag9  1  0.87130177  0.74100732  0.73653204  1
  O  O10  1  0.97073801  0.13915655  0.86034748  1
  O  O11  1  0.02926199  0.86084345  0.13965252  1
  O  O12  1  0.43331282  0.04946040  0.31163062  1
  O  O13  1  0.56668718  0.95053960  0.68836938  1
  O  O14  1  0.18879989  0.92484302  0.67603047  1
  O  O15  1  0.81120011  0.07515698  0.32396953  1
  O  O16  1  0.28900531  0.59651080  0.59280771  1
  O  O17  1  0.71099469  0.40348920  0.40719229  1
  O  O18  1  0.24830714  0.68211359  0.95584473  1
  O  O19  1  0.75169286  0.31788641  0.04415527  1
  O  O20  1  0.38794033  0.29833780  0.08499625  1
  O  O21  1  0.61205967  0.70166220  0.91500375  1
  O  O22  1  0.24620224  0.71274432  0.32046659  1
  O  O23  1  0.75379776  0.28725568  0.67953341  1
  O  O24  1  0.28180788  0.33247091  0.71992453  1
  O  O25  1  0.71819212  0.66752909  0.28007547  1
