# generated using pymatgen
data_Ag5Sb23(PbS4)12
_symmetry_space_group_name_H-M   'P 1'
_cell_length_a   8.69541899
_cell_length_b   13.29603021
_cell_length_c   19.62485303
_cell_angle_alpha   89.70291618
_cell_angle_beta   89.97763719
_cell_angle_gamma   90.18962151
_symmetry_Int_Tables_number   1
_chemical_formula_structural   Ag5Sb23(PbS4)12
_chemical_formula_sum   'Ag5 Sb23 Pb12 S48'
_cell_volume   2268.87550912
_cell_formula_units_Z   1
loop_
 _symmetry_equiv_pos_site_id
 _symmetry_equiv_pos_as_xyz
  1  'x, y, z'
loop_
 _atom_site_type_symbol
 _atom_site_label
 _atom_site_symmetry_multiplicity
 _atom_site_fract_x
 _atom_site_fract_y
 _atom_site_fract_z
 _atom_site_occupancy
  Ag  Ag0  1  0.62007752  0.18102302  0.85752880  1
  Ag  Ag1  1  0.11864963  0.32352530  0.35946848  1
  Ag  Ag2  1  0.38212363  0.82216277  0.14069350  1
  Ag  Ag3  1  0.88144533  0.67837940  0.64128731  1
  Ag  Ag4  1  0.11701491  0.14854130  0.86795999  1
  Sb  Sb5  1  0.12237660  0.14474657  0.63115472  1
  Sb  Sb6  1  0.62065739  0.34941349  0.12781808  1
  Sb  Sb7  1  0.87919258  0.85057673  0.37192792  1
  Sb  Sb8  1  0.37982555  0.65057194  0.87060855  1
  Sb  Sb9  1  0.64462183  0.12844895  0.64865859  1
  Sb  Sb10  1  0.14254956  0.37342353  0.14769303  1
  Sb  Sb11  1  0.35620575  0.87090450  0.35157532  1
  Sb  Sb12  1  0.85825243  0.62483156  0.85051215  1
  Sb  Sb13  1  0.61980278  0.87900919  0.55548899  1
  Sb  Sb14  1  0.11995617  0.62151394  0.05512536  1
  Sb  Sb15  1  0.38027327  0.12100746  0.44491446  1
  Sb  Sb16  1  0.87933057  0.37655883  0.94266231  1
  Sb  Sb17  1  0.13500292  0.86792327  0.55238565  1
  Sb  Sb18  1  0.63489270  0.63281368  0.05183177  1
  Sb  Sb19  1  0.86790959  0.13204694  0.44757205  1
  Sb  Sb20  1  0.36302818  0.36493841  0.94671699  1
  Sb  Sb21  1  0.14088541  0.88200480  0.94573578  1
  Sb  Sb22  1  0.63897047  0.61965438  0.44641917  1
  Sb  Sb23  1  0.85982332  0.11925143  0.05248913  1
  Sb  Sb24  1  0.35955730  0.38013652  0.55397391  1
  Sb  Sb25  1  0.62219028  0.35021338  0.37019534  1
  Sb  Sb26  1  0.87793409  0.85048644  0.13076296  1
  Sb  Sb27  1  0.37866997  0.64896362  0.63086139  1
  Pb  Pb28  1  0.90207542  0.92377749  0.75156547  1
  Pb  Pb29  1  0.39748789  0.58148155  0.25159032  1
  Pb  Pb30  1  0.10416110  0.08087688  0.25079542  1
  Pb  Pb31  1  0.60225436  0.41403494  0.75278376  1
  Pb  Pb32  1  0.38628366  0.90896841  0.74632436  1
  Pb  Pb33  1  0.89271451  0.59331525  0.24583078  1
  Pb  Pb34  1  0.60806742  0.09487456  0.25519938  1
  Pb  Pb35  1  0.10696254  0.40007655  0.75731656  1
  Pb  Pb36  1  0.62766947  0.89144213  0.94907637  1
  Pb  Pb37  1  0.12786810  0.61233768  0.45134059  1
  Pb  Pb38  1  0.36773560  0.11220797  0.04661396  1
  Pb  Pb39  1  0.87247937  0.38604220  0.54950058  1
  S  S40  1  0.64275430  0.23675409  0.49600323  1
  S  S41  1  0.14797134  0.26399475  0.99702856  1
  S  S42  1  0.35464949  0.76285916  0.50269288  1
  S  S43  1  0.85370262  0.73468796  0.00402723  1
  S  S44  1  0.13956618  0.06252192  0.74546849  1
  S  S45  1  0.63921813  0.43622385  0.24548509  1
  S  S46  1  0.86144523  0.93604793  0.25421219  1
  S  S47  1  0.36190329  0.56399333  0.75470184  1
  S  S48  1  0.64301315  0.04966887  0.76648559  1
  S  S49  1  0.14283160  0.45123797  0.26678267  1
  S  S50  1  0.35685309  0.95032401  0.23326400  1
  S  S51  1  0.85935890  0.54895436  0.73371733  1
  S  S52  1  0.15032026  0.78234287  0.66506559  1
  S  S53  1  0.65038581  0.71710272  0.16553202  1
  S  S54  1  0.84898250  0.21581836  0.33400403  1
  S  S55  1  0.35653861  0.28770733  0.83454132  1
  S  S56  1  0.59143552  0.76085130  0.83370460  1
  S  S57  1  0.09569946  0.74122661  0.33312560  1
  S  S58  1  0.40846761  0.24031275  0.16688979  1
  S  S59  1  0.90562155  0.25777164  0.66689668  1
  S  S60  1  0.58141484  0.24746347  0.98420205  1
  S  S61  1  0.08404951  0.25278562  0.48085629  1
  S  S62  1  0.41853419  0.74951165  0.01763893  1
  S  S63  1  0.91747526  0.74915460  0.51692238  1
  S  S64  1  0.92833307  0.98278744  0.89858267  1
  S  S65  1  0.42453084  0.51826478  0.39799536  1
  S  S66  1  0.07280959  0.01726422  0.10220624  1
  S  S67  1  0.57471331  0.48275894  0.60086777  1
  S  S68  1  0.34332469  0.00195583  0.91058343  1
  S  S69  1  0.84337047  0.49818986  0.40922544  1
  S  S70  1  0.65606603  0.99923841  0.08986970  1
  S  S71  1  0.15403480  0.50189704  0.58971561  1
  S  S72  1  0.42334725  0.00110664  0.59991185  1
  S  S73  1  0.92536278  0.49848147  0.10285477  1
  S  S74  1  0.57747292  0.99866554  0.39895609  1
  S  S75  1  0.07494545  0.50315377  0.89978149  1
  S  S76  1  0.61231174  0.77541835  0.66163495  1
  S  S77  1  0.11332660  0.72449643  0.16151071  1
  S  S78  1  0.38739972  0.22238888  0.33731027  1
  S  S79  1  0.88492221  0.27832927  0.83868616  1
  S  S80  1  0.16217079  0.77181841  0.84076517  1
  S  S81  1  0.65876810  0.73008511  0.34110425  1
  S  S82  1  0.83902538  0.22858066  0.15799186  1
  S  S83  1  0.33955288  0.27029679  0.65963341  1
  S  S84  1  0.83877420  0.99893917  0.60458834  1
  S  S85  1  0.33787131  0.50175538  0.10594783  1
  S  S86  1  0.15848875  0.00107322  0.39404239  1
  S  S87  1  0.65990553  0.50123030  0.89502663  1
