# generated using pymatgen
data_Ba12FeSi3S20
_symmetry_space_group_name_H-M   'P 1'
_cell_length_a   8.63891547
_cell_length_b   9.56932934
_cell_length_c   12.12487274
_cell_angle_alpha   90.00000000
_cell_angle_beta   90.59564733
_cell_angle_gamma   90.00000000
_symmetry_Int_Tables_number   1
_chemical_formula_structural   Ba12FeSi3S20
_chemical_formula_sum   'Ba12 Fe1 Si3 S20'
_cell_volume   1002.29242002
_cell_formula_units_Z   1
loop_
 _symmetry_equiv_pos_site_id
 _symmetry_equiv_pos_as_xyz
  1  'x, y, z'
loop_
 _atom_site_type_symbol
 _atom_site_label
 _atom_site_symmetry_multiplicity
 _atom_site_fract_x
 _atom_site_fract_y
 _atom_site_fract_z
 _atom_site_occupancy
  Ba  Ba0  1  0.57762795  0.97974092  0.31934638  1
  Ba  Ba1  1  0.92019742  0.52307077  0.81959728  1
  Ba  Ba2  1  0.41408075  0.48138010  0.67757221  1
  Ba  Ba3  1  0.08397914  0.02075409  0.18359410  1
  Ba  Ba4  1  0.41408075  0.01861990  0.67757221  1
  Ba  Ba5  1  0.08397914  0.47924591  0.18359410  1
  Ba  Ba6  1  0.57762795  0.52025908  0.31934638  1
  Ba  Ba7  1  0.92019742  0.97692923  0.81959728  1
  Ba  Ba8  1  0.60667887  0.25000000  0.01837721  1
  Ba  Ba9  1  0.90037580  0.25000000  0.51508375  1
  Ba  Ba10  1  0.38968356  0.75000000  0.98133458  1
  Ba  Ba11  1  0.10407989  0.75000000  0.48377402  1
  Fe  Fe12  1  0.31255842  0.25000000  0.40127972  1
  Si  Si13  1  0.18841998  0.25000000  0.89974714  1
  Si  Si14  1  0.68943964  0.75000000  0.60029568  1
  Si  Si15  1  0.80951198  0.75000000  0.10008434  1
  S  S16  1  0.82318718  0.25000000  0.26619737  1
  S  S17  1  0.67206589  0.25000000  0.76062272  1
  S  S18  1  0.17555133  0.75000000  0.73616753  1
  S  S19  1  0.32447104  0.75000000  0.23251618  1
  S  S20  1  0.52447802  0.25000000  0.49919644  1
  S  S21  1  0.98183496  0.25000000  0.99269932  1
  S  S22  1  0.48209325  0.75000000  0.50607711  1
  S  S23  1  0.01642062  0.75000000  0.00792045  1
  S  S24  1  0.36772610  0.25000000  0.22306331  1
  S  S25  1  0.14104850  0.25000000  0.72625825  1
  S  S26  1  0.64319807  0.75000000  0.77354227  1
  S  S27  1  0.85577854  0.75000000  0.27348935  1
  S  S28  1  0.68780166  0.56476861  0.05879341  1
  S  S29  1  0.81010066  0.93590829  0.56113211  1
  S  S30  1  0.31040536  0.06467922  0.93901307  1
  S  S31  1  0.19150624  0.44410767  0.44208807  1
  S  S32  1  0.31040536  0.43532078  0.93901307  1
  S  S33  1  0.19150624  0.05589233  0.44208807  1
  S  S34  1  0.68780166  0.93523139  0.05879341  1
  S  S35  1  0.81010066  0.56409171  0.56113211  1
