# generated using pymatgen
data_SrP3H10C3NO9
_symmetry_space_group_name_H-M   'P 1'
_cell_length_a   8.22811954
_cell_length_b   10.10744246
_cell_length_c   14.14101906
_cell_angle_alpha   90.00000000
_cell_angle_beta   90.00000000
_cell_angle_gamma   106.11350869
_symmetry_Int_Tables_number   1
_chemical_formula_structural   SrP3H10C3NO9
_chemical_formula_sum   'Sr4 P12 H40 C12 N4 O36'
_cell_volume   1129.83905297
_cell_formula_units_Z   4
loop_
 _symmetry_equiv_pos_site_id
 _symmetry_equiv_pos_as_xyz
  1  'x, y, z'
loop_
 _atom_site_type_symbol
 _atom_site_label
 _atom_site_symmetry_multiplicity
 _atom_site_fract_x
 _atom_site_fract_y
 _atom_site_fract_z
 _atom_site_occupancy
  Sr  Sr0  1  0.51449657  0.07444622  0.34683899  1
  Sr  Sr1  1  0.01449657  0.57444622  0.15316101  1
  Sr  Sr2  1  0.48550343  0.92555378  0.65316101  1
  Sr  Sr3  1  0.98550343  0.42555378  0.84683899  1
  P  P4  1  0.95269886  0.31263548  0.35930588  1
  P  P5  1  0.45269886  0.81263548  0.14069412  1
  P  P6  1  0.04730114  0.68736452  0.64069412  1
  P  P7  1  0.54730114  0.18736452  0.85930588  1
  P  P8  1  0.47074493  0.25236844  0.54038129  1
  P  P9  1  0.97074493  0.75236844  0.95961871  1
  P  P10  1  0.52925507  0.74763156  0.45961871  1
  P  P11  1  0.02925507  0.24763156  0.04038129  1
  P  P12  1  0.95761450  0.12476134  0.67211262  1
  P  P13  1  0.45761450  0.62476134  0.82788738  1
  P  P14  1  0.04238550  0.87523866  0.32788738  1
  P  P15  1  0.54238550  0.37523866  0.17211262  1
  H  H16  1  0.21498687  0.25679182  0.39063448  1
  H  H17  1  0.71498687  0.75679182  0.10936552  1
  H  H18  1  0.78501313  0.74320818  0.60936552  1
  H  H19  1  0.28501313  0.24320818  0.89063448  1
  H  H20  1  0.23533945  0.43397977  0.41268640  1
  H  H21  1  0.73533945  0.93397977  0.08731360  1
  H  H22  1  0.76466055  0.56602023  0.58731360  1
  H  H23  1  0.26466055  0.06602023  0.91268640  1
  H  H24  1  0.28184900  0.31016481  0.65255749  1
  H  H25  1  0.78184900  0.81016481  0.84744251  1
  H  H26  1  0.71815100  0.68983519  0.34744251  1
  H  H27  1  0.21815100  0.18983519  0.15255749  1
  H  H28  1  0.36417815  0.44729710  0.57209736  1
  H  H29  1  0.86417815  0.94729710  0.92790264  1
  H  H30  1  0.63582185  0.55270290  0.42790264  1
  H  H31  1  0.13582185  0.05270290  0.07209736  1
  H  H32  1  0.10964486  0.08737165  0.52981795  1
  H  H33  1  0.60964486  0.58737165  0.97018205  1
  H  H34  1  0.89035514  0.91262835  0.47018205  1
  H  H35  1  0.39035514  0.41262835  0.02981795  1
  H  H36  1  0.92178070  0.13570637  0.50314123  1
  H  H37  1  0.42178070  0.63570637  0.99685877  1
  H  H38  1  0.07821930  0.86429363  0.49685877  1
  H  H39  1  0.57821930  0.36429363  0.00314123  1
  H  H40  1  0.07737307  0.36811206  0.55754583  1
  H  H41  1  0.57737307  0.86811206  0.94245417  1
  H  H42  1  0.92262693  0.63188794  0.44245417  1
  H  H43  1  0.42262693  0.13188794  0.05754583  1
  H  H44  1  0.11158941  0.98357767  0.70132719  1
  H  H45  1  0.61158941  0.48357767  0.79867281  1
  H  H46  1  0.88841059  0.01642233  0.29867281  1
  H  H47  1  0.38841059  0.51642233  0.20132719  1
  H  H48  1  0.58159478  0.25005136  0.68001154  1
  H  H49  1  0.08159478  0.75005136  0.81998846  1
  H  H50  1  0.41840522  0.74994864  0.31998846  1
  H  H51  1  0.91840522  0.24994864  0.18001154  1
  H  H52  1  0.73976922  0.36682197  0.43290993  1
  H  H53  1  0.23976922  0.86682197  0.06709007  1
  H  H54  1  0.26023078  0.63317803  0.56709007  1
  H  H55  1  0.76023078  0.13317803  0.93290993  1
  C  C56  1  0.15330802  0.32889891  0.42293007  1
  C  C57  1  0.65330802  0.82889891  0.07706993  1
  C  C58  1  0.84669198  0.67110109  0.57706993  1
  C  C59  1  0.34669198  0.17110109  0.92293007  1
  C  C60  1  0.30819465  0.33548812  0.57753148  1
  C  C61  1  0.80819465  0.83548812  0.92246852  1
  C  C62  1  0.69180535  0.66451188  0.42246852  1
  C  C63  1  0.19180535  0.16451188  0.07753148  1
  C  C64  1  0.03304068  0.15621176  0.54920654  1
  C  C65  1  0.53304068  0.65621176  0.95079346  1
  C  C66  1  0.96695932  0.84378824  0.45079346  1
  C  C67  1  0.46695932  0.34378824  0.04920654  1
  N  N68  1  0.13840331  0.30057660  0.52813822  1
  N  N69  1  0.63840331  0.80057660  0.97186178  1
  N  N70  1  0.86159669  0.69942340  0.47186178  1
  N  N71  1  0.36159669  0.19942340  0.02813822  1
  O  O72  1  0.00356526  0.37220688  0.26174411  1
  O  O73  1  0.50356526  0.87220688  0.23825589  1
  O  O74  1  0.99643474  0.62779312  0.73825589  1
  O  O75  1  0.49643474  0.12779312  0.76174411  1
  O  O76  1  0.86852389  0.40756359  0.42181199  1
  O  O77  1  0.36852389  0.90756359  0.07818801  1
  O  O78  1  0.13147611  0.59243641  0.57818801  1
  O  O79  1  0.63147611  0.09243641  0.92181199  1
  O  O80  1  0.84148089  0.16444806  0.35915959  1
  O  O81  1  0.34148089  0.66444806  0.14084041  1
  O  O82  1  0.15851911  0.83555194  0.64084041  1
  O  O83  1  0.65851911  0.33555194  0.85915959  1
  O  O84  1  0.40374829  0.09690007  0.54013914  1
  O  O85  1  0.90374829  0.59690007  0.95986086  1
  O  O86  1  0.59625171  0.90309993  0.45986086  1
  O  O87  1  0.09625171  0.40309993  0.04013914  1
  O  O88  1  0.60775681  0.30830076  0.62076684  1
  O  O89  1  0.10775681  0.80830076  0.87923316  1
  O  O90  1  0.39224319  0.69169924  0.37923316  1
  O  O91  1  0.89224319  0.19169924  0.12076684  1
  O  O92  1  0.54943098  0.31187609  0.44629445  1
  O  O93  1  0.04943098  0.81187609  0.05370555  1
  O  O94  1  0.45056902  0.68812391  0.55370555  1
  O  O95  1  0.95056902  0.18812391  0.94629445  1
  O  O96  1  0.95896997  0.26259422  0.71367370  1
  O  O97  1  0.45896997  0.76259422  0.78632630  1
  O  O98  1  0.04103003  0.73740578  0.28632630  1
  O  O99  1  0.54103003  0.23740578  0.21367370  1
  O  O100  1  0.79500899  0.00990345  0.66580517  1
  O  O101  1  0.29500899  0.50990345  0.83419483  1
  O  O102  1  0.20499101  0.99009655  0.33419483  1
  O  O103  1  0.70499101  0.49009655  0.16580517  1
  O  O104  1  0.10080726  0.07326171  0.72557618  1
  O  O105  1  0.60080726  0.57326171  0.77442382  1
  O  O106  1  0.89919274  0.92673829  0.27442382  1
  O  O107  1  0.39919274  0.42673829  0.22557618  1
