# generated using pymatgen
data_Cd4FeCu10(SnSe4)5
_symmetry_space_group_name_H-M   'P 1'
_cell_length_a   5.89335267
_cell_length_b   7.15859675
_cell_length_c   26.33526489
_cell_angle_alpha   90.51398175
_cell_angle_beta   90.00000000
_cell_angle_gamma   65.69287409
_symmetry_Int_Tables_number   1
_chemical_formula_structural   Cd4FeCu10(SnSe4)5
_chemical_formula_sum   'Cd4 Fe1 Cu10 Sn5 Se20'
_cell_volume   1012.49566965
_cell_formula_units_Z   1
loop_
 _symmetry_equiv_pos_site_id
 _symmetry_equiv_pos_as_xyz
  1  'x, y, z'
loop_
 _atom_site_type_symbol
 _atom_site_label
 _atom_site_symmetry_multiplicity
 _atom_site_fract_x
 _atom_site_fract_y
 _atom_site_fract_z
 _atom_site_occupancy
  Cd  Cd0  1  -0.00001056  0.00072493  0.99973394  1
  Cd  Cd1  1  0.20040203  0.60011981  0.20010623  1
  Cd  Cd2  1  0.40052185  0.19988019  0.39989377  1
  Cd  Cd3  1  0.60071436  0.79927507  0.60026606  1
  Fe  Fe4  1  0.79857985  0.40000000  0.80000000  1
  Cu  Cu5  1  0.29940031  0.39965462  0.04989247  1
  Cu  Cu6  1  0.70025117  0.59972555  0.44982989  1
  Cu  Cu7  1  0.49999271  0.99960608  0.24997153  1
  Cu  Cu8  1  0.10412656  0.79778514  0.84864241  1
  Cu  Cu9  1  0.89790325  0.20109662  0.65132290  1
  Cu  Cu10  1  0.69899987  0.59890338  0.94867710  1
  Cu  Cu11  1  0.09959879  0.80039392  0.35002847  1
  Cu  Cu12  1  0.89997672  0.20027445  0.15017011  1
  Cu  Cu13  1  0.50191170  0.00221486  0.75135759  1
  Cu  Cu14  1  0.29905493  0.40034538  0.55010753  1
  Sn  Sn15  1  0.39783501  0.20316915  0.89774347  1
  Sn  Sn16  1  0.79917421  0.40000000  0.30000000  1
  Sn  Sn17  1  0.59958629  0.79968817  0.09964553  1
  Sn  Sn18  1  0.20100416  0.59683085  0.70225653  1
  Sn  Sn19  1  -0.00072553  0.00031183  0.50035447  1
  Se  Se20  1  0.50756828  0.51732928  0.87225926  1
  Se  Se21  1  0.68409019  0.12357131  0.07909225  1
  Se  Se22  1  0.88343868  0.72353007  0.27925122  1
  Se  Se23  1  0.08356907  0.32358959  0.47921775  1
  Se  Se24  1  0.28469896  0.92316266  0.68021504  1
  Se  Se25  1  0.09301313  0.32865800  0.97657593  1
  Se  Se26  1  0.29134089  0.92753381  0.17726140  1
  Se  Se27  1  0.49061430  0.52781301  0.37744275  1
  Se  Se28  1  0.69027526  0.12849131  0.57834770  1
  Se  Se29  1  0.87901254  0.70278070  0.77979197  1
  Se  Se30  1  0.41876657  0.67150869  0.02165230  1
  Se  Se31  1  0.61842730  0.27218699  0.22255725  1
  Se  Se32  1  0.81887470  0.87246619  0.42273860  1
  Se  Se33  1  0.02167113  0.47134200  0.62342407  1
  Se  Se34  1  0.18179324  0.09721930  0.82020803  1
  Se  Se35  1  0.00715865  0.47641041  0.12078225  1
  Se  Se36  1  0.20696875  0.07646993  0.32074878  1
  Se  Se37  1  0.40766149  0.67642869  0.52090775  1
  Se  Se38  1  0.62489756  0.28267072  0.72774074  1
  Se  Se39  1  0.80786162  0.87683734  0.91978496  1
