# generated using pymatgen
data_AlZnH10O7F5
_symmetry_space_group_name_H-M   'P 1'
_cell_length_a   6.69551260
_cell_length_b   8.69484945
_cell_length_c   8.85562107
_cell_angle_alpha   105.22357720
_cell_angle_beta   94.85386717
_cell_angle_gamma   99.07207269
_symmetry_Int_Tables_number   1
_chemical_formula_structural   AlZnH10O7F5
_chemical_formula_sum   'Al2 Zn2 H20 O14 F10'
_cell_volume   486.91398564
_cell_formula_units_Z   2
loop_
 _symmetry_equiv_pos_site_id
 _symmetry_equiv_pos_as_xyz
  1  'x, y, z'
loop_
 _atom_site_type_symbol
 _atom_site_label
 _atom_site_symmetry_multiplicity
 _atom_site_fract_x
 _atom_site_fract_y
 _atom_site_fract_z
 _atom_site_occupancy
  Al  Al0  1  0.50000000  -0.00000000  0.50000000  1
  Al  Al1  1  0.50000000  0.50000000  0.00000000  1
  Zn  Zn2  1  -0.00000000  -0.00000000  0.00000000  1
  Zn  Zn3  1  -0.00000000  0.50000000  0.50000000  1
  H  H4  1  0.10150330  0.75301429  0.38168020  1
  H  H5  1  0.10459492  0.36621454  0.72395469  1
  H  H6  1  0.89849670  0.24698571  0.61831980  1
  H  H7  1  0.89540508  0.63378546  0.27604531  1
  H  H8  1  0.94572894  0.01004988  0.69150005  1
  H  H9  1  0.95432135  0.69344411  0.02189689  1
  H  H10  1  0.05427106  0.98995012  0.30849995  1
  H  H11  1  0.04567865  0.30655589  0.97810311  1
  H  H12  1  0.60269037  0.94033914  0.83579887  1
  H  H13  1  0.59450660  0.85478089  0.97353263  1
  H  H14  1  0.39730963  0.05966086  0.16420113  1
  H  H15  1  0.40549340  0.14521911  0.02646737  1
  H  H16  1  0.17751694  0.98382674  0.72647949  1
  H  H17  1  0.18247562  0.73436251  0.98418210  1
  H  H18  1  0.82248306  0.01617326  0.27352051  1
  H  H19  1  0.81752438  0.26563749  0.01581790  1
  H  H20  1  0.66561396  0.25053216  0.36695877  1
  H  H21  1  0.64410683  0.41594907  0.32186749  1
  H  H22  1  0.33438604  0.74946784  0.63304123  1
  H  H23  1  0.35589317  0.58405093  0.67813251  1
  O  O24  1  0.68241243  0.93129261  0.93165658  1
  O  O25  1  0.31758757  0.06870739  0.06834342  1
  O  O26  1  0.72891560  0.36922642  0.38488956  1
  O  O27  1  0.27108440  0.63077358  0.61511044  1
  O  O28  1  0.04227632  0.97671882  0.76280317  1
  O  O29  1  0.04291324  0.75409550  0.96592560  1
  O  O30  1  0.95772368  0.02328118  0.23719683  1
  O  O31  1  0.95708676  0.24590450  0.03407440  1
  O  O32  1  0.72676792  0.59305181  0.72991589  1
  O  O33  1  0.27323208  0.40694819  0.27008411  1
  O  O34  1  0.00489065  0.64403115  0.36156431  1
  O  O35  1  0.99510935  0.35596885  0.63843569  1
  O  O36  1  0.60222665  0.48745443  0.76100644  1
  O  O37  1  0.39777335  0.51254557  0.23899356  1
  F  F38  1  0.57474154  0.06977549  0.32220176  1
  F  F39  1  0.56528765  0.31199330  0.00019539  1
  F  F40  1  0.42525846  0.93022451  0.67779824  1
  F  F41  1  0.43471235  0.68800670  0.99980461  1
  F  F42  1  0.76923653  0.08511247  0.60012713  1
  F  F43  1  0.74756135  0.59567559  0.09287363  1
  F  F44  1  0.23076347  0.91488753  0.39987287  1
  F  F45  1  0.25243865  0.40432441  0.90712637  1
  F  F46  1  0.57261240  0.81093797  0.42060654  1
  F  F47  1  0.42738760  0.18906203  0.57939346  1
