# generated using pymatgen
data_LaTmO3
_symmetry_space_group_name_H-M   'P 1'
_cell_length_a   5.85709029
_cell_length_b   6.05144230
_cell_length_c   8.46815149
_cell_angle_alpha   90.00000000
_cell_angle_beta   90.00000000
_cell_angle_gamma   90.00000000
_symmetry_Int_Tables_number   1
_chemical_formula_structural   LaTmO3
_chemical_formula_sum   'La4 Tm4 O12'
_cell_volume   300.14383984
_cell_formula_units_Z   4
loop_
 _symmetry_equiv_pos_site_id
 _symmetry_equiv_pos_as_xyz
  1  'x, y, z'
loop_
 _atom_site_type_symbol
 _atom_site_label
 _atom_site_symmetry_multiplicity
 _atom_site_fract_x
 _atom_site_fract_y
 _atom_site_fract_z
 _atom_site_occupancy
  O  O0  1  0.30646431  0.69520988  0.56628185  1
  O  O1  1  0.80646431  0.80479012  0.43371815  1
  O  O2  1  0.19353569  0.19520988  0.93371815  1
  O  O3  1  0.69353569  0.30479012  0.06628185  1
  O  O4  1  0.69353569  0.30479012  0.43371815  1
  O  O5  1  0.19353569  0.19520988  0.56628185  1
  O  O6  1  0.80646431  0.80479012  0.06628185  1
  O  O7  1  0.30646431  0.69520988  0.93371815  1
  O  O8  1  0.12435623  0.44545738  0.25000000  1
  O  O9  1  0.62435623  0.05454262  0.75000000  1
  O  O10  1  0.37564377  0.94545738  0.25000000  1
  O  O11  1  0.87564377  0.55454262  0.75000000  1
  La  La12  1  0.98507971  0.04789062  0.25000000  1
  La  La13  1  0.48507971  0.45210938  0.75000000  1
  La  La14  1  0.51492029  0.54789062  0.25000000  1
  La  La15  1  0.01492029  0.95210938  0.75000000  1
  Tm  Tm16  1  0.00000000  0.50000000  0.00000000  1
  Tm  Tm17  1  0.50000000  0.00000000  0.00000000  1
  Tm  Tm18  1  0.50000000  0.00000000  0.50000000  1
  Tm  Tm19  1  0.00000000  0.50000000  0.50000000  1
