# generated using pymatgen
data_Tm2S3
_symmetry_space_group_name_H-M   'P 1'
_cell_length_a   7.26430774
_cell_length_b   7.26430774
_cell_length_c   7.26430773
_cell_angle_alpha   55.81966307
_cell_angle_beta   55.81966307
_cell_angle_gamma   55.81966305
_symmetry_Int_Tables_number   1
_chemical_formula_structural   Tm2S3
_chemical_formula_sum   'Tm4 S6'
_cell_volume   244.78895850
_cell_formula_units_Z   2
loop_
 _symmetry_equiv_pos_site_id
 _symmetry_equiv_pos_as_xyz
  1  'x, y, z'
loop_
 _atom_site_type_symbol
 _atom_site_label
 _atom_site_symmetry_multiplicity
 _atom_site_fract_x
 _atom_site_fract_y
 _atom_site_fract_z
 _atom_site_occupancy
  S  S0  1  0.05244098  0.75000000  0.44755902  1
  S  S1  1  0.75000000  0.44755902  0.05244098  1
  S  S2  1  0.44755902  0.05244098  0.75000000  1
  S  S3  1  0.94755902  0.25000000  0.55244098  1
  S  S4  1  0.55244098  0.94755902  0.25000000  1
  S  S5  1  0.25000000  0.55244098  0.94755902  1
  Tm  Tm6  1  0.84947730  0.84947730  0.84947730  1
  Tm  Tm7  1  0.65052270  0.65052270  0.65052270  1
  Tm  Tm8  1  0.15052270  0.15052270  0.15052270  1
  Tm  Tm9  1  0.34947730  0.34947730  0.34947730  1
