# generated using pymatgen
data_YMnO3
_symmetry_space_group_name_H-M   'P 1'
_cell_length_a   3.62869595
_cell_length_b   3.62869596
_cell_length_c   11.44802934
_cell_angle_alpha   90.00000000
_cell_angle_beta   90.00000000
_cell_angle_gamma   120.00000003
_symmetry_Int_Tables_number   1
_chemical_formula_structural   YMnO3
_chemical_formula_sum   'Y2 Mn2 O6'
_cell_volume   130.54568642
_cell_formula_units_Z   2
loop_
 _symmetry_equiv_pos_site_id
 _symmetry_equiv_pos_as_xyz
  1  'x, y, z'
loop_
 _atom_site_type_symbol
 _atom_site_label
 _atom_site_symmetry_multiplicity
 _atom_site_fract_x
 _atom_site_fract_y
 _atom_site_fract_z
 _atom_site_occupancy
  O  O0  1  0.33333394  0.66666789  0.41600657  1
  O  O1  1  0.66666549  0.33333235  0.91600662  1
  O  O2  1  0.66666549  0.33333235  0.58399353  1
  O  O3  1  0.33333394  0.66666789  0.08399348  1
  O  O4  1  0.00000000  0.00000000  0.24999958  1
  O  O5  1  0.00000000  0.00000000  0.74999963  1
  Mn  Mn6  1  0.66666549  0.33333235  0.74999963  1
  Mn  Mn7  1  0.33333394  0.66666789  0.24999958  1
  Y  Y8  1  0.00000000  0.00000000  0.50000005  1
  Y  Y9  1  0.00000000  0.00000000  0.00000000  1
