# generated using pymatgen
data_Dy4(B2O5)3
_symmetry_space_group_name_H-M   'P 1'
_cell_length_a   4.40702030
_cell_length_b   6.27610600
_cell_length_c   18.96833739
_cell_angle_alpha   96.07854084
_cell_angle_beta   90.00000000
_cell_angle_gamma   110.55431181
_symmetry_Int_Tables_number   1
_chemical_formula_structural   Dy4(B2O5)3
_chemical_formula_sum   'Dy8 B12 O30'
_cell_volume   488.09339927
_cell_formula_units_Z   2
loop_
 _symmetry_equiv_pos_site_id
 _symmetry_equiv_pos_as_xyz
  1  'x, y, z'
loop_
 _atom_site_type_symbol
 _atom_site_label
 _atom_site_symmetry_multiplicity
 _atom_site_fract_x
 _atom_site_fract_y
 _atom_site_fract_z
 _atom_site_occupancy
  B  B0  1  0.02197732  0.66076243  0.02600338  1
  B  B1  1  0.36121490  0.33923757  0.47399662  1
  B  B2  1  0.97802268  0.33923757  0.97399662  1
  B  B3  1  0.63878510  0.66076243  0.52600338  1
  B  B4  1  0.65931697  0.86550564  0.30570467  1
  B  B5  1  0.79381133  0.13449436  0.19429533  1
  B  B6  1  0.34068303  0.13449436  0.69429533  1
  B  B7  1  0.20618867  0.86550564  0.80570467  1
  B  B8  1  0.39131081  0.19523824  0.91231688  1
  B  B9  1  0.19607257  0.80476176  0.58768312  1
  B  B10  1  0.60868919  0.80476176  0.08768312  1
  B  B11  1  0.80392743  0.19523824  0.41231688  1
  O  O12  1  0.44016861  0.36220960  0.86127713  1
  O  O13  1  0.55983139  0.63779040  0.13872287  1
  O  O14  1  0.50447562  0.41685620  0.54900742  1
  O  O15  1  0.08761942  0.58314380  0.95099258  1
  O  O16  1  0.49552438  0.58314380  0.45099258  1
  O  O17  1  0.91238058  0.41685620  0.04900742  1
  O  O18  1  0.18985006  0.02643119  0.62178303  1
  O  O19  1  0.16341887  0.97356881  0.87821697  1
  O  O20  1  0.92204098  0.36220960  0.36127713  1
  O  O21  1  0.83658113  0.02643119  0.12178303  1
  O  O22  1  0.53397261  0.86984561  0.80328157  1
  O  O23  1  0.66412699  0.13015439  0.69671843  1
  O  O24  1  0.46602739  0.13015439  0.19671843  1
  O  O25  1  0.33587301  0.86984561  0.30328157  1
  O  O26  1  0.53970534  0.82826602  0.57044764  1
  O  O27  1  0.71143932  0.17173398  0.92955236  1
  O  O28  1  0.46029466  0.17173398  0.42955236  1
  O  O29  1  0.28856068  0.82826602  0.07044764  1
  O  O30  1  0.00864973  0.25516777  0.47836906  1
  O  O31  1  0.75348196  0.74483223  0.02163094  1
  O  O32  1  0.99135027  0.74483223  0.52163094  1
  O  O33  1  0.24651804  0.25516777  0.97836906  1
  O  O34  1  0.31442385  0.36121611  0.70326557  1
  O  O35  1  0.95320774  0.63878389  0.79673443  1
  O  O36  1  0.68557615  0.63878389  0.29673443  1
  O  O37  1  0.04679226  0.36121611  0.20326557  1
  O  O38  1  0.86538474  0.00000000  0.25000000  1
  O  O39  1  0.13461526  0.00000000  0.75000000  1
  O  O40  1  0.81014994  0.97356881  0.37821697  1
  O  O41  1  0.07795902  0.63779040  0.63872287  1
  Dy  Dy42  1  0.33183172  0.26626859  0.09868640  1
  Dy  Dy43  1  0.06556313  0.73373141  0.40131360  1
  Dy  Dy44  1  0.66816828  0.73373141  0.90131360  1
  Dy  Dy45  1  0.93443687  0.26626859  0.59868640  1
  Dy  Dy46  1  0.07313225  0.72535628  0.19698804  1
  Dy  Dy47  1  0.34777597  0.27464372  0.30301196  1
  Dy  Dy48  1  0.92686775  0.27464372  0.80301196  1
  Dy  Dy49  1  0.65222403  0.72535628  0.69698804  1
