# generated using pymatgen
data_Sr2HoCu3(PbO4)2
_symmetry_space_group_name_H-M   'P 1'
_cell_length_a   5.42179144
_cell_length_b   5.45457978
_cell_length_c   15.93012670
_cell_angle_alpha   90.04961347
_cell_angle_beta   90.49311268
_cell_angle_gamma   90.00589237
_symmetry_Int_Tables_number   1
_chemical_formula_structural   Sr2HoCu3(PbO4)2
_chemical_formula_sum   'Sr4 Ho2 Cu6 Pb4 O16'
_cell_volume   471.09347163
_cell_formula_units_Z   2
loop_
 _symmetry_equiv_pos_site_id
 _symmetry_equiv_pos_as_xyz
  1  'x, y, z'
loop_
 _atom_site_type_symbol
 _atom_site_label
 _atom_site_symmetry_multiplicity
 _atom_site_fract_x
 _atom_site_fract_y
 _atom_site_fract_z
 _atom_site_occupancy
  O  O0  1  0.24798582  0.74952850  0.90841794  1
  O  O1  1  0.75201418  0.25047150  0.09158206  1
  O  O2  1  0.74802686  0.24956583  0.91036528  1
  O  O3  1  0.25197314  0.75043417  0.08963472  1
  O  O4  1  0.24814920  0.24950447  0.91030188  1
  O  O5  1  0.75185080  0.75049553  0.08969812  1
  O  O6  1  0.74812625  0.74950857  0.90848503  1
  O  O7  1  0.25187375  0.25049143  0.09151497  1
  O  O8  1  0.45306969  0.55833780  0.61460913  1
  O  O9  1  0.54693031  0.44166220  0.38539087  1
  O  O10  1  0.50700367  0.99108705  0.25066211  1
  O  O11  1  0.04667856  0.06139363  0.38553472  1
  O  O12  1  0.99253335  0.48822972  0.74923955  1
  O  O13  1  0.00746665  0.51177028  0.25076045  1
  O  O14  1  0.49299633  0.00891295  0.74933789  1
  O  O15  1  0.95332144  0.93860637  0.61446528  1
  Cu  Cu16  1  0.50000000  0.50000000  0.50000000  1
  Cu  Cu17  1  0.00223242  0.50086902  0.10304099  1
  Cu  Cu18  1  0.49779100  0.99973823  0.89693743  1
  Cu  Cu19  1  0.50220900  0.00026177  0.10306257  1
  Cu  Cu20  1  0.00000000  0.00000000  0.50000000  1
  Cu  Cu21  1  0.99776758  0.49913098  0.89695901  1
  Sr  Sr22  1  0.00576678  0.00070735  0.22041430  1
  Sr  Sr23  1  0.99423322  0.99929265  0.77958570  1
  Sr  Sr24  1  0.49427720  0.49843014  0.77959514  1
  Sr  Sr25  1  0.50572280  0.50156986  0.22040486  1
  Ho  Ho26  1  0.00000000  0.00000000  0.00000000  1
  Ho  Ho27  1  0.50000000  0.50000000  0.00000000  1
  Pb  Pb28  1  0.99593517  0.49512058  0.38831440  1
  Pb  Pb29  1  0.00406483  0.50487942  0.61168560  1
  Pb  Pb30  1  0.50433790  0.99226802  0.61178427  1
  Pb  Pb31  1  0.49566210  0.00773198  0.38821573  1
