# generated using pymatgen
data_CaSiO3
_symmetry_space_group_name_H-M   'P 1'
_cell_length_a   6.90945204
_cell_length_b   6.90945205
_cell_length_c   10.61770453
_cell_angle_alpha   71.70553937
_cell_angle_beta   71.70553934
_cell_angle_gamma   60.25370756
_symmetry_Int_Tables_number   1
_chemical_formula_structural   CaSiO3
_chemical_formula_sum   'Ca6 Si6 O18'
_cell_volume   410.09470787
_cell_formula_units_Z   6
loop_
 _symmetry_equiv_pos_site_id
 _symmetry_equiv_pos_as_xyz
  1  'x, y, z'
loop_
 _atom_site_type_symbol
 _atom_site_label
 _atom_site_symmetry_multiplicity
 _atom_site_fract_x
 _atom_site_fract_y
 _atom_site_fract_z
 _atom_site_occupancy
  O  O0  1  0.64206419  0.35793581  0.25000000  1
  O  O1  1  0.35793581  0.64206419  0.75000000  1
  O  O2  1  0.10662083  0.99313648  0.10526860  1
  O  O3  1  0.00686352  0.89337917  0.39473140  1
  O  O4  1  0.89337917  0.00686352  0.89473140  1
  O  O5  1  0.99313648  0.10662083  0.60526860  1
  O  O6  1  0.41788475  0.80510172  0.25248741  1
  O  O7  1  0.19489828  0.58211525  0.24751259  1
  O  O8  1  0.58211525  0.19489828  0.74751259  1
  O  O9  1  0.80510172  0.41788475  0.75248741  1
  O  O10  1  0.82925966  0.62809198  0.11203177  1
  O  O11  1  0.37190802  0.17074034  0.38796823  1
  O  O12  1  0.53221688  0.72433776  0.90338261  1
  O  O13  1  0.27566224  0.46778312  0.59661739  1
  O  O14  1  0.46778312  0.27566224  0.09661739  1
  O  O15  1  0.72433776  0.53221688  0.40338261  1
  O  O16  1  0.62809198  0.82925966  0.61203177  1
  O  O17  1  0.17074034  0.37190802  0.88796823  1
  Si  Si18  1  0.16040054  0.83959946  0.25000000  1
  Si  Si19  1  0.83959946  0.16040054  0.75000000  1
  Si  Si20  1  0.67488402  0.58078116  0.25532285  1
  Si  Si21  1  0.41921884  0.32511598  0.24467715  1
  Si  Si22  1  0.32511598  0.41921884  0.74467715  1
  Si  Si23  1  0.58078116  0.67488402  0.75532285  1
  Ca  Ca24  1  0.00000000  0.50000000  0.50000000  1
  Ca  Ca25  1  0.50000000  0.00000000  0.00000000  1
  Ca  Ca26  1  0.84928025  0.32627343  0.00099864  1
  Ca  Ca27  1  0.67372657  0.15071975  0.49900136  1
  Ca  Ca28  1  0.15071975  0.67372657  0.99900136  1
  Ca  Ca29  1  0.32627343  0.84928025  0.50099864  1
