# generated using pymatgen
data_HgWO4
_symmetry_space_group_name_H-M   'P 1'
_cell_length_a   5.27409950
_cell_length_b   6.21695720
_cell_length_c   6.58503198
_cell_angle_alpha   118.16758972
_cell_angle_beta   110.77712793
_cell_angle_gamma   89.99999994
_symmetry_Int_Tables_number   1
_chemical_formula_structural   HgWO4
_chemical_formula_sum   'Hg2 W2 O8'
_cell_volume   174.25484554
_cell_formula_units_Z   2
loop_
 _symmetry_equiv_pos_site_id
 _symmetry_equiv_pos_as_xyz
  1  'x, y, z'
loop_
 _atom_site_type_symbol
 _atom_site_label
 _atom_site_symmetry_multiplicity
 _atom_site_fract_x
 _atom_site_fract_y
 _atom_site_fract_z
 _atom_site_occupancy
  O  O0  1  0.97574404  0.47604773  0.23366917  1
  O  O1  1  0.52425596  0.24237856  0.76633083  1
  O  O2  1  0.02425596  0.52395227  0.76633083  1
  O  O3  1  0.47574404  0.75762144  0.23366917  1
  O  O4  1  0.02711062  0.00307850  0.19062320  1
  O  O5  1  0.47288938  0.81245530  0.80937680  1
  O  O6  1  0.97288938  0.99692150  0.80937680  1
  O  O7  1  0.52711062  0.18754470  0.19062320  1
  W  W8  1  0.25000000  0.81930133  0.00000000  1
  W  W9  1  0.75000000  0.18069867  0.00000000  1
  Hg  Hg10  1  0.00000000  0.00000000  0.50000000  1
  Hg  Hg11  1  0.50000000  0.50000000  0.50000000  1
