# generated using pymatgen
data_Er2Fe17
_symmetry_space_group_name_H-M   'P 1'
_cell_length_a   8.18163527
_cell_length_b   8.50922741
_cell_length_c   8.50922741
_cell_angle_alpha   120.01302720
_cell_angle_beta   90.00000000
_cell_angle_gamma   90.00000000
_symmetry_Int_Tables_number   1
_chemical_formula_structural   Er2Fe17
_chemical_formula_sum   'Er4 Fe34'
_cell_volume   512.97238101
_cell_formula_units_Z   2
loop_
 _symmetry_equiv_pos_site_id
 _symmetry_equiv_pos_as_xyz
  1  'x, y, z'
loop_
 _atom_site_type_symbol
 _atom_site_label
 _atom_site_symmetry_multiplicity
 _atom_site_fract_x
 _atom_site_fract_y
 _atom_site_fract_z
 _atom_site_occupancy
  Er  Er0  1  0.75000000  0.00004581  0.99995419  1
  Er  Er1  1  0.25000000  0.99995419  0.00004581  1
  Er  Er2  1  0.25000000  0.66676524  0.33323476  1
  Er  Er3  1  0.75000000  0.33323476  0.66676524  1
  Fe  Fe4  1  0.60504839  0.66669160  0.33330840  1
  Fe  Fe5  1  0.39495161  0.33330840  0.66669160  1
  Fe  Fe6  1  0.10504839  0.33330840  0.66669160  1
  Fe  Fe7  1  0.89495161  0.66669160  0.33330840  1
  Fe  Fe8  1  0.50000000  0.50000000  0.00000000  1
  Fe  Fe9  1  0.50000000  0.50000000  0.50000000  1
  Fe  Fe10  1  0.50000000  0.00000000  0.50000000  1
  Fe  Fe11  1  0.00000000  0.50000000  0.00000000  1
  Fe  Fe12  1  0.00000000  0.50000000  0.50000000  1
  Fe  Fe13  1  0.00000000  0.00000000  0.50000000  1
  Fe  Fe14  1  0.75000000  0.67077508  0.03845827  1
  Fe  Fe15  1  0.75000000  0.36773539  0.32919327  1
  Fe  Fe16  1  0.75000000  0.96158356  0.63232712  1
  Fe  Fe17  1  0.75000000  0.36767288  0.03841644  1
  Fe  Fe18  1  0.75000000  0.96154173  0.32922492  1
  Fe  Fe19  1  0.75000000  0.67080673  0.63226461  1
  Fe  Fe20  1  0.25000000  0.32922492  0.96154173  1
  Fe  Fe21  1  0.25000000  0.63226461  0.67080673  1
  Fe  Fe22  1  0.25000000  0.03841644  0.36767288  1
  Fe  Fe23  1  0.25000000  0.63232712  0.96158356  1
  Fe  Fe24  1  0.25000000  0.03845827  0.67077508  1
  Fe  Fe25  1  0.25000000  0.32919327  0.36773539  1
  Fe  Fe26  1  0.48326449  0.83417253  0.66830321  1
  Fe  Fe27  1  0.48325183  0.83413745  0.16586255  1
  Fe  Fe28  1  0.48326449  0.33169679  0.16582747  1
  Fe  Fe29  1  0.51673551  0.16582747  0.33169679  1
  Fe  Fe30  1  0.51674817  0.16586255  0.83413745  1
  Fe  Fe31  1  0.51673551  0.66830321  0.83417253  1
  Fe  Fe32  1  0.98326449  0.16582747  0.33169679  1
  Fe  Fe33  1  0.98325183  0.16586255  0.83413745  1
  Fe  Fe34  1  0.98326449  0.66830321  0.83417253  1
  Fe  Fe35  1  0.01673551  0.83417253  0.66830321  1
  Fe  Fe36  1  0.01674817  0.83413745  0.16586255  1
  Fe  Fe37  1  0.01673551  0.33169679  0.16582747  1
