# generated using pymatgen
data_CoO
_symmetry_space_group_name_H-M   'P 1'
_cell_length_a   3.02349597
_cell_length_b   5.24646459
_cell_length_c   3.02349568
_cell_angle_alpha   106.74698967
_cell_angle_beta   120.00000273
_cell_angle_gamma   73.25301190
_symmetry_Int_Tables_number   1
_chemical_formula_structural   CoO
_chemical_formula_sum   'Co2 O2'
_cell_volume   39.16870864
_cell_formula_units_Z   2
loop_
 _symmetry_equiv_pos_site_id
 _symmetry_equiv_pos_as_xyz
  1  'x, y, z'
loop_
 _atom_site_type_symbol
 _atom_site_label
 _atom_site_symmetry_multiplicity
 _atom_site_fract_x
 _atom_site_fract_y
 _atom_site_fract_z
 _atom_site_occupancy
  Co  Co0  1  0.00000000  0.00000000  0.00000000  1
  Co  Co1  1  0.50000000  0.50000000  0.50000000  1
  O  O2  1  0.25000021  0.24999938  0.74999979  1
  O  O3  1  0.74999979  0.75000062  0.25000021  1
