# generated using pymatgen
data_NaYTiO4
_symmetry_space_group_name_H-M   'P 1'
_cell_length_a   5.30364791
_cell_length_b   5.43983197
_cell_length_c   12.47126556
_cell_angle_alpha   90.00000000
_cell_angle_beta   90.00000000
_cell_angle_gamma   90.00000000
_symmetry_Int_Tables_number   1
_chemical_formula_structural   NaYTiO4
_chemical_formula_sum   'Na4 Y4 Ti4 O16'
_cell_volume   359.80790224
_cell_formula_units_Z   4
loop_
 _symmetry_equiv_pos_site_id
 _symmetry_equiv_pos_as_xyz
  1  'x, y, z'
loop_
 _atom_site_type_symbol
 _atom_site_label
 _atom_site_symmetry_multiplicity
 _atom_site_fract_x
 _atom_site_fract_y
 _atom_site_fract_z
 _atom_site_occupancy
  O  O0  1  0.25000000  0.54896190  0.59763294  1
  O  O1  1  0.75000000  0.45103810  0.40236706  1
  O  O2  1  0.25000000  0.04896190  0.40236706  1
  O  O3  1  0.75000000  0.95103810  0.59763294  1
  O  O4  1  0.25000000  0.42765929  0.93604605  1
  O  O5  1  0.75000000  0.57234071  0.06395395  1
  O  O6  1  0.25000000  0.92765929  0.06395395  1
  O  O7  1  0.75000000  0.07234071  0.93604605  1
  O  O8  1  0.50000000  0.75000000  0.24354071  1
  O  O9  1  0.00000000  0.25000000  0.75645929  1
  O  O10  1  0.50000000  0.25000000  0.75645929  1
  O  O11  1  0.00000000  0.75000000  0.24354071  1
  O  O12  1  0.00000000  0.75000000  0.78953080  1
  O  O13  1  0.50000000  0.25000000  0.21046920  1
  O  O14  1  0.00000000  0.25000000  0.21046920  1
  O  O15  1  0.50000000  0.75000000  0.78953080  1
  Na  Na16  1  0.75000000  0.99834872  0.41342785  1
  Na  Na17  1  0.75000000  0.49834872  0.58657215  1
  Na  Na18  1  0.25000000  0.00165128  0.58657215  1
  Na  Na19  1  0.25000000  0.50165128  0.41342785  1
  Ti  Ti20  1  0.25000000  0.00864289  0.26246334  1
  Ti  Ti21  1  0.75000000  0.49135711  0.26246334  1
  Ti  Ti22  1  0.25000000  0.50864289  0.73753666  1
  Ti  Ti23  1  0.75000000  0.99135711  0.73753666  1
  Y  Y24  1  0.75000000  0.97470366  0.10608136  1
  Y  Y25  1  0.75000000  0.47470366  0.89391864  1
  Y  Y26  1  0.25000000  0.52529634  0.10608136  1
  Y  Y27  1  0.25000000  0.02529634  0.89391864  1
