# generated using pymatgen
data_U(MnAl2)4
_symmetry_space_group_name_H-M   'P 1'
_cell_length_a   5.11248032
_cell_length_b   6.71225099
_cell_length_c   6.71225177
_cell_angle_alpha   81.66080460
_cell_angle_beta   67.61477352
_cell_angle_gamma   67.61477265
_symmetry_Int_Tables_number   1
_chemical_formula_structural   U(MnAl2)4
_chemical_formula_sum   'U1 Mn4 Al8'
_cell_volume   196.93251558
_cell_formula_units_Z   1
loop_
 _symmetry_equiv_pos_site_id
 _symmetry_equiv_pos_as_xyz
  1  'x, y, z'
loop_
 _atom_site_type_symbol
 _atom_site_label
 _atom_site_symmetry_multiplicity
 _atom_site_fract_x
 _atom_site_fract_y
 _atom_site_fract_z
 _atom_site_occupancy
  U  U0  1  -0.00000000  0.00000000  -0.00000000  1
  Mn  Mn1  1  -0.00000000  0.00000000  0.50000000  1
  Mn  Mn2  1  0.50000000  0.00000000  0.50000000  1
  Mn  Mn3  1  0.50000000  0.50000000  -0.00000000  1
  Mn  Mn4  1  -0.00000000  0.50000000  -0.00000000  1
  Al  Al5  1  0.50000000  0.21907504  0.78092496  1
  Al  Al6  1  0.00000000  0.65895521  0.34104479  1
  Al  Al7  1  0.28092496  0.21907504  0.21907504  1
  Al  Al8  1  0.34104479  0.65895521  0.65895521  1
  Al  Al9  1  0.65895521  0.34104479  0.34104479  1
  Al  Al10  1  0.50000000  0.78092496  0.21907504  1
  Al  Al11  1  1.00000000  0.34104479  0.65895521  1
  Al  Al12  1  0.71907504  0.78092496  0.78092496  1
