# generated using pymatgen
data_PrMn7O12
_symmetry_space_group_name_H-M   'P 1'
_cell_length_a   6.56137925
_cell_length_b   6.56137925
_cell_length_c   6.56975754
_cell_angle_alpha   109.42284384
_cell_angle_beta   109.47930045
_cell_angle_gamma   109.45984384
_symmetry_Int_Tables_number   1
_chemical_formula_structural   PrMn7O12
_chemical_formula_sum   'Pr1 Mn7 O12'
_cell_volume   217.86842938
_cell_formula_units_Z   1
loop_
 _symmetry_equiv_pos_site_id
 _symmetry_equiv_pos_as_xyz
  1  'x, y, z'
loop_
 _atom_site_type_symbol
 _atom_site_label
 _atom_site_symmetry_multiplicity
 _atom_site_fract_x
 _atom_site_fract_y
 _atom_site_fract_z
 _atom_site_occupancy
  O  O0  1  0.17453112  0.86773872  0.69235170  1
  O  O1  1  0.17538793  0.48218097  0.30764904  1
  O  O2  1  0.82546844  0.13226152  0.30764815  1
  O  O3  1  0.82461162  0.51781927  0.69235081  1
  O  O4  1  0.30687260  0.82531542  0.13218771  1
  O  O5  1  0.69312764  0.17468294  0.86781176  1
  O  O6  1  0.30674609  0.17471055  0.48145645  1
  O  O7  1  0.69325346  0.82528969  0.51854340  1
  O  O8  1  0.86767520  0.69112218  0.17290905  1
  O  O9  1  0.51821306  0.69476648  0.82709013  1
  O  O10  1  0.48178649  0.30523376  0.17290972  1
  O  O11  1  0.13232342  0.30887618  0.82708988  1
  Mn  Mn12  1  0.49999982  0.99999961  0.99999915  1
  Mn  Mn13  1  0.00000059  0.49999973  0.99999962  1
  Mn  Mn14  1  0.00000016  0.00000076  0.49999987  1
  Mn  Mn15  1  0.50000059  0.50000012  0.50000020  1
  Mn  Mn16  1  0.50000000  0.00000040  0.50000057  1
  Mn  Mn17  1  0.00000077  0.50000051  0.50000104  1
  Mn  Mn18  1  0.50000043  0.49999936  0.00000032  1
  Pr  Pr19  1  0.00000000  0.00000000  0.00000000  1
