# generated using pymatgen
data_LiVO3
_symmetry_space_group_name_H-M   'P 1'
_cell_length_a   5.94367310
_cell_length_b   6.77240003
_cell_length_c   6.77240003
_cell_angle_alpha   79.16421405
_cell_angle_beta   73.60027334
_cell_angle_gamma   73.60027340
_symmetry_Int_Tables_number   1
_chemical_formula_structural   LiVO3
_chemical_formula_sum   'Li4 V4 O12'
_cell_volume   249.13556569
_cell_formula_units_Z   4
loop_
 _symmetry_equiv_pos_site_id
 _symmetry_equiv_pos_as_xyz
  1  'x, y, z'
loop_
 _atom_site_type_symbol
 _atom_site_label
 _atom_site_symmetry_multiplicity
 _atom_site_fract_x
 _atom_site_fract_y
 _atom_site_fract_z
 _atom_site_occupancy
  Li  Li0  1  0.75000000  0.91789938  0.08210062  1
  Li  Li1  1  0.25000000  0.08210062  0.91789938  1
  Li  Li2  1  0.75000000  0.27240002  0.72759998  1
  Li  Li3  1  0.25000000  0.72759998  0.27240002  1
  O  O4  1  0.58608351  0.61563948  0.67872670  1
  O  O5  1  0.41391649  0.38436052  0.32127330  1
  O  O6  1  0.08608351  0.67872670  0.61563948  1
  O  O7  1  0.16566045  0.77809517  0.99502347  1
  O  O8  1  0.83433955  0.22190483  0.00497653  1
  O  O9  1  0.66566045  0.99502347  0.77809517  1
  O  O10  1  0.71517034  0.62477667  0.08750716  1
  O  O11  1  0.33433955  0.00497653  0.22190483  1
  O  O12  1  0.21517034  0.08750716  0.62477667  1
  O  O13  1  0.78482966  0.91249284  0.37522333  1
  O  O14  1  0.28482966  0.37522333  0.91249284  1
  O  O15  1  0.91391649  0.32127330  0.38436052  1
  V  V16  1  0.72907585  0.38072759  0.19371307  1
  V  V17  1  0.22907585  0.19371307  0.38072759  1
  V  V18  1  0.27092415  0.61927241  0.80628693  1
  V  V19  1  0.77092415  0.80628693  0.61927241  1
