# generated using pymatgen
data_Ba7Al13
_symmetry_space_group_name_H-M   'P 1'
_cell_length_a   6.06170300
_cell_length_b   6.06170299
_cell_length_c   17.28000969
_cell_angle_alpha   90.00000000
_cell_angle_beta   90.00000000
_cell_angle_gamma   120.00000004
_symmetry_Int_Tables_number   1
_chemical_formula_structural   Ba7Al13
_chemical_formula_sum   'Ba7 Al13'
_cell_volume   549.87493077
_cell_formula_units_Z   1
loop_
 _symmetry_equiv_pos_site_id
 _symmetry_equiv_pos_as_xyz
  1  'x, y, z'
loop_
 _atom_site_type_symbol
 _atom_site_label
 _atom_site_symmetry_multiplicity
 _atom_site_fract_x
 _atom_site_fract_y
 _atom_site_fract_z
 _atom_site_occupancy
  Al  Al0  1  0.50000000  0.50000000  0.50000000  1
  Al  Al1  1  0.00000000  0.50000000  0.50000000  1
  Al  Al2  1  0.50000000  0.00000000  0.50000000  1
  Al  Al3  1  0.83922211  0.16077789  0.78421073  1
  Al  Al4  1  0.83922211  0.67844423  0.78421073  1
  Al  Al5  1  0.32155577  0.16077789  0.78421073  1
  Al  Al6  1  0.67844423  0.83922211  0.21578927  1
  Al  Al7  1  0.33333333  0.66666667  0.34755999  1
  Al  Al8  1  0.66666667  0.33333333  0.65244001  1
  Al  Al9  1  0.33333333  0.66666667  0.09810693  1
  Al  Al10  1  0.66666667  0.33333333  0.90189307  1
  Al  Al11  1  0.16077789  0.83922211  0.21578927  1
  Al  Al12  1  0.16077789  0.32155577  0.21578927  1
  Ba  Ba13  1  0.66666667  0.33333333  0.32158855  1
  Ba  Ba14  1  0.33333333  0.66666667  0.67841145  1
  Ba  Ba15  1  0.66666667  0.33333333  0.10804725  1
  Ba  Ba16  1  0.33333333  0.66666667  0.89195275  1
  Ba  Ba17  1  0.00000000  0.00000000  0.60685410  1
  Ba  Ba18  1  0.00000000  0.00000000  0.39314590  1
  Ba  Ba19  1  0.00000000  0.00000000  0.00000000  1
