# generated using pymatgen
data_KMnH2C3S3N3O
_symmetry_space_group_name_H-M   'P 1'
_cell_length_a   11.38653921
_cell_length_b   13.25474448
_cell_length_c   14.00296825
_cell_angle_alpha   90.00000000
_cell_angle_beta   90.00000000
_cell_angle_gamma   90.00000000
_symmetry_Int_Tables_number   1
_chemical_formula_structural   KMnH2C3S3N3O
_chemical_formula_sum   'K8 Mn8 H16 C24 S24 N24 O8'
_cell_volume   2113.40733347
_cell_formula_units_Z   8
loop_
 _symmetry_equiv_pos_site_id
 _symmetry_equiv_pos_as_xyz
  1  'x, y, z'
loop_
 _atom_site_type_symbol
 _atom_site_label
 _atom_site_symmetry_multiplicity
 _atom_site_fract_x
 _atom_site_fract_y
 _atom_site_fract_z
 _atom_site_occupancy
  K  K0  1  0.73496188  0.48968247  0.32356299  1
  K  K1  1  0.76503812  0.98968247  0.67643701  1
  K  K2  1  0.23496188  0.51031753  0.17643701  1
  K  K3  1  0.26503812  0.01031753  0.82356299  1
  K  K4  1  0.26503812  0.51031753  0.67643701  1
  K  K5  1  0.23496188  0.01031753  0.32356299  1
  K  K6  1  0.76503812  0.48968247  0.82356299  1
  K  K7  1  0.73496188  0.98968247  0.17643701  1
  Mn  Mn8  1  0.87400725  0.30768318  0.55085844  1
  Mn  Mn9  1  0.62599275  0.80768318  0.44914156  1
  Mn  Mn10  1  0.37400725  0.69231682  0.94914156  1
  Mn  Mn11  1  0.12599275  0.19231682  0.05085844  1
  Mn  Mn12  1  0.12599275  0.69231682  0.44914156  1
  Mn  Mn13  1  0.37400725  0.19231682  0.55085844  1
  Mn  Mn14  1  0.62599275  0.30768318  0.05085844  1
  Mn  Mn15  1  0.87400725  0.80768318  0.94914156  1
  H  H16  1  0.65050356  0.38189004  0.52194761  1
  H  H17  1  0.84949644  0.88189004  0.47805239  1
  H  H18  1  0.15050356  0.61810996  0.97805239  1
  H  H19  1  0.34949644  0.11810996  0.02194761  1
  H  H20  1  0.34949644  0.61810996  0.47805239  1
  H  H21  1  0.15050356  0.11810996  0.52194761  1
  H  H22  1  0.84949644  0.38189004  0.02194761  1
  H  H23  1  0.65050356  0.88189004  0.97805239  1
  H  H24  1  0.65791106  0.28509693  0.45466445  1
  H  H25  1  0.84208894  0.78509693  0.54533555  1
  H  H26  1  0.15791106  0.71490307  0.04533555  1
  H  H27  1  0.34208894  0.21490307  0.95466445  1
  H  H28  1  0.34208894  0.71490307  0.54533555  1
  H  H29  1  0.15791106  0.21490307  0.45466445  1
  H  H30  1  0.84208894  0.28509693  0.95466445  1
  H  H31  1  0.65791106  0.78509693  0.04533555  1
  C  C32  1  0.93126914  0.54561076  0.59505831  1
  C  C33  1  0.56873086  0.04561076  0.40494169  1
  C  C34  1  0.43126914  0.45438924  0.90494169  1
  C  C35  1  0.06873086  0.95438924  0.09505831  1
  C  C36  1  0.06873086  0.45438924  0.40494169  1
  C  C37  1  0.43126914  0.95438924  0.59505831  1
  C  C38  1  0.56873086  0.54561076  0.09505831  1
  C  C39  1  0.93126914  0.04561076  0.90494169  1
  C  C40  1  0.89238235  0.09584423  0.43127555  1
  C  C41  1  0.60761765  0.59584423  0.56872445  1
  C  C42  1  0.39238235  0.90415577  0.06872445  1
  C  C43  1  0.10761765  0.40415577  0.93127555  1
  C  C44  1  0.10761765  0.90415577  0.56872445  1
  C  C45  1  0.39238235  0.40415577  0.43127555  1
  C  C46  1  0.60761765  0.09584423  0.93127555  1
  C  C47  1  0.89238235  0.59584423  0.06872445  1
  C  C48  1  0.12622903  0.26953598  0.66508484  1
  C  C49  1  0.37377097  0.76953598  0.33491516  1
  C  C50  1  0.62622903  0.73046402  0.83491516  1
  C  C51  1  0.87377097  0.23046402  0.16508484  1
  C  C52  1  0.87377097  0.73046402  0.33491516  1
  C  C53  1  0.62622903  0.23046402  0.66508484  1
  C  C54  1  0.37377097  0.26953598  0.16508484  1
  C  C55  1  0.12622903  0.76953598  0.83491516  1
  S  S56  1  0.99618195  0.65398174  0.61243706  1
  S  S57  1  0.50381805  0.15398174  0.38756294  1
  S  S58  1  0.49618195  0.34601826  0.88756294  1
  S  S59  1  0.00381805  0.84601826  0.11243706  1
  S  S60  1  0.00381805  0.34601826  0.38756294  1
  S  S61  1  0.49618195  0.84601826  0.61243706  1
  S  S62  1  0.50381805  0.65398174  0.11243706  1
  S  S63  1  0.99618195  0.15398174  0.88756294  1
  S  S64  1  0.93021214  0.00302308  0.36193473  1
  S  S65  1  0.56978786  0.50302308  0.63806527  1
  S  S66  1  0.43021214  0.99697692  0.13806527  1
  S  S67  1  0.06978786  0.49697692  0.86193473  1
  S  S68  1  0.06978786  0.99697692  0.63806527  1
  S  S69  1  0.43021214  0.49697692  0.36193473  1
  S  S70  1  0.56978786  0.00302308  0.86193473  1
  S  S71  1  0.93021214  0.50302308  0.13806527  1
  S  S72  1  0.25830772  0.25499196  0.70984187  1
  S  S73  1  0.24169228  0.75499196  0.29015813  1
  S  S74  1  0.75830772  0.74500804  0.79015813  1
  S  S75  1  0.74169228  0.24500804  0.20984187  1
  S  S76  1  0.74169228  0.74500804  0.29015813  1
  S  S77  1  0.75830772  0.24500804  0.70984187  1
  S  S78  1  0.24169228  0.25499196  0.20984187  1
  S  S79  1  0.25830772  0.75499196  0.79015813  1
  N  N80  1  0.88271439  0.46732340  0.58539921  1
  N  N81  1  0.61728561  0.96732340  0.41460079  1
  N  N82  1  0.38271439  0.53267660  0.91460079  1
  N  N83  1  0.11728561  0.03267660  0.08539921  1
  N  N84  1  0.11728561  0.53267660  0.41460079  1
  N  N85  1  0.38271439  0.03267660  0.58539921  1
  N  N86  1  0.61728561  0.46732340  0.08539921  1
  N  N87  1  0.88271439  0.96732340  0.91460079  1
  N  N88  1  0.86397497  0.16188487  0.48379959  1
  N  N89  1  0.63602503  0.66188487  0.51620041  1
  N  N90  1  0.36397497  0.83811513  0.01620041  1
  N  N91  1  0.13602503  0.33811513  0.98379959  1
  N  N92  1  0.13602503  0.83811513  0.51620041  1
  N  N93  1  0.36397497  0.33811513  0.48379959  1
  N  N94  1  0.63602503  0.16188487  0.98379959  1
  N  N95  1  0.86397497  0.66188487  0.01620041  1
  N  N96  1  0.03151215  0.28183126  0.63258780  1
  N  N97  1  0.46848785  0.78183126  0.36741220  1
  N  N98  1  0.53151215  0.71816874  0.86741220  1
  N  N99  1  0.96848785  0.21816874  0.13258780  1
  N  N100  1  0.96848785  0.71816874  0.36741220  1
  N  N101  1  0.53151215  0.21816874  0.63258780  1
  N  N102  1  0.46848785  0.28183126  0.13258780  1
  N  N103  1  0.03151215  0.78183126  0.86741220  1
  O  O104  1  0.70047685  0.34632322  0.47502722  1
  O  O105  1  0.79952315  0.84632322  0.52497278  1
  O  O106  1  0.20047685  0.65367678  0.02497278  1
  O  O107  1  0.29952315  0.15367678  0.97502722  1
  O  O108  1  0.29952315  0.65367678  0.52497278  1
  O  O109  1  0.20047685  0.15367678  0.47502722  1
  O  O110  1  0.79952315  0.34632322  0.97502722  1
  O  O111  1  0.70047685  0.84632322  0.02497278  1
