# generated using pymatgen
data_Y(HO)3
_symmetry_space_group_name_H-M   'P 1'
_cell_length_a   6.36311706
_cell_length_b   6.36311707
_cell_length_c   3.55261390
_cell_angle_alpha   90.00000000
_cell_angle_beta   90.00000000
_cell_angle_gamma   120.00000002
_symmetry_Int_Tables_number   1
_chemical_formula_structural   Y(HO)3
_chemical_formula_sum   'Y2 H6 O6'
_cell_volume   124.57143532
_cell_formula_units_Z   2
loop_
 _symmetry_equiv_pos_site_id
 _symmetry_equiv_pos_as_xyz
  1  'x, y, z'
loop_
 _atom_site_type_symbol
 _atom_site_label
 _atom_site_symmetry_multiplicity
 _atom_site_fract_x
 _atom_site_fract_y
 _atom_site_fract_z
 _atom_site_occupancy
  H  H0  1  0.72139501  0.86155359  0.75000000  1
  H  H1  1  0.85984142  0.72139501  0.25000000  1
  H  H2  1  0.14015858  0.27860499  0.75000000  1
  H  H3  1  0.27860499  0.13844641  0.25000000  1
  H  H4  1  0.86155359  0.14015858  0.25000000  1
  H  H5  1  0.13844641  0.85984142  0.75000000  1
  O  O6  1  0.91446498  0.60315182  0.25000000  1
  O  O7  1  0.60315182  0.68868684  0.75000000  1
  O  O8  1  0.08553502  0.39684818  0.75000000  1
  O  O9  1  0.39684818  0.31131316  0.25000000  1
  O  O10  1  0.68868684  0.08553502  0.25000000  1
  O  O11  1  0.31131316  0.91446498  0.75000000  1
  Y  Y12  1  0.66666667  0.33333333  0.75000000  1
  Y  Y13  1  0.33333333  0.66666667  0.25000000  1
