# generated using pymatgen
data_Th2AlH4
_symmetry_space_group_name_H-M   'P 1'
_cell_length_a   6.51431994
_cell_length_b   6.30588174
_cell_length_c   6.30588171
_cell_angle_alpha   74.52603761
_cell_angle_beta   58.90040461
_cell_angle_gamma   58.90040450
_symmetry_Int_Tables_number   1
_chemical_formula_structural   Th2AlH4
_chemical_formula_sum   'Th4 Al2 H8'
_cell_volume   189.92534557
_cell_formula_units_Z   2
loop_
 _symmetry_equiv_pos_site_id
 _symmetry_equiv_pos_as_xyz
  1  'x, y, z'
loop_
 _atom_site_type_symbol
 _atom_site_label
 _atom_site_symmetry_multiplicity
 _atom_site_fract_x
 _atom_site_fract_y
 _atom_site_fract_z
 _atom_site_occupancy
  Th  Th0  1  0.33558869  0.82882262  0.50000000  1
  Th  Th1  1  0.16441131  0.50000000  0.17117738  1
  Th  Th2  1  0.66441131  0.17117738  0.50000000  1
  Th  Th3  1  0.83558869  0.50000000  0.82882262  1
  Al  Al4  1  0.25000000  -0.00000000  -0.00000000  1
  Al  Al5  1  0.75000000  -0.00000000  -0.00000000  1
  H  H6  1  0.72139147  0.75958934  0.50000000  1
  H  H7  1  0.98098081  0.24041066  0.50000000  1
  H  H8  1  0.22139147  0.50000000  0.75958934  1
  H  H9  1  0.48098081  0.50000000  0.24041066  1
  H  H10  1  0.77860853  0.50000000  0.24041066  1
  H  H11  1  0.01901919  0.75958934  0.50000000  1
  H  H12  1  0.51901919  0.50000000  0.75958934  1
  H  H13  1  0.27860853  0.24041066  0.50000000  1
