# generated using pymatgen
data_LiLa2HO3
_symmetry_space_group_name_H-M   'P 1'
_cell_length_a   3.58169562
_cell_length_b   3.79839470
_cell_length_c   6.97238008
_cell_angle_alpha   105.80657807
_cell_angle_beta   104.88316587
_cell_angle_gamma   90.00000004
_symmetry_Int_Tables_number   1
_chemical_formula_structural   LiLa2HO3
_chemical_formula_sum   'Li1 La2 H1 O3'
_cell_volume   87.95825676
_cell_formula_units_Z   1
loop_
 _symmetry_equiv_pos_site_id
 _symmetry_equiv_pos_as_xyz
  1  'x, y, z'
loop_
 _atom_site_type_symbol
 _atom_site_label
 _atom_site_symmetry_multiplicity
 _atom_site_fract_x
 _atom_site_fract_y
 _atom_site_fract_z
 _atom_site_occupancy
  H  H0  1  0.50000000  0.00000000  0.00000000  1
  Li  Li1  1  0.00000000  0.00000000  0.00000000  1
  O  O2  1  0.00000000  0.50000000  0.00000000  1
  O  O3  1  0.82277370  0.82281294  0.64554740  1
  O  O4  1  0.17722630  0.17718706  0.35445260  1
  La  La5  1  0.36344591  0.36344196  0.72689182  1
  La  La6  1  0.63655409  0.63655804  0.27310818  1
