# generated using pymatgen
data_Zn2PH2CO7
_symmetry_space_group_name_H-M   'P 1'
_cell_length_a   4.87175497
_cell_length_b   8.05274412
_cell_length_c   14.35963990
_cell_angle_alpha   97.42298119
_cell_angle_beta   90.00000000
_cell_angle_gamma   90.00000000
_symmetry_Int_Tables_number   1
_chemical_formula_structural   Zn2PH2CO7
_chemical_formula_sum   'Zn8 P4 H8 C4 O28'
_cell_volume   558.62183913
_cell_formula_units_Z   4
loop_
 _symmetry_equiv_pos_site_id
 _symmetry_equiv_pos_as_xyz
  1  'x, y, z'
loop_
 _atom_site_type_symbol
 _atom_site_label
 _atom_site_symmetry_multiplicity
 _atom_site_fract_x
 _atom_site_fract_y
 _atom_site_fract_z
 _atom_site_occupancy
  H  H0  1  0.50044767  0.24790989  0.46627833  1
  H  H1  1  0.00044767  0.25209011  0.03372167  1
  H  H2  1  0.49955233  0.75209011  0.53372167  1
  H  H3  1  0.99955233  0.74790989  0.96627833  1
  H  H4  1  0.26244638  0.10564200  0.46716002  1
  H  H5  1  0.23755362  0.60564200  0.96716002  1
  H  H6  1  0.76244638  0.39435800  0.03283998  1
  H  H7  1  0.73755362  0.89435800  0.53283998  1
  C  C8  1  0.38086442  0.05923691  0.99207389  1
  C  C9  1  0.88086442  0.44076309  0.50792611  1
  C  C10  1  0.61913558  0.94076309  0.00792611  1
  C  C11  1  0.11913558  0.55923691  0.49207389  1
  O  O12  1  0.14626825  0.70363492  0.00518379  1
  O  O13  1  0.70981427  0.99577132  0.30166301  1
  O  O14  1  0.79018573  0.49577132  0.80166301  1
  O  O15  1  0.29018573  0.00422868  0.69833699  1
  O  O16  1  0.65338050  0.62295091  0.28456384  1
  O  O17  1  0.15338050  0.87704909  0.21543616  1
  O  O18  1  0.34661950  0.37704909  0.71543616  1
  O  O19  1  0.20981427  0.50422868  0.19833699  1
  O  O20  1  0.64238773  0.32802494  0.21691803  1
  O  O21  1  0.14238773  0.17197506  0.28308197  1
  O  O22  1  0.35761227  0.67197506  0.78308197  1
  O  O23  1  0.85761227  0.82802494  0.71691803  1
  O  O24  1  0.64812845  0.55637028  0.10868031  1
  O  O25  1  0.14812845  0.94362972  0.39131969  1
  O  O26  1  0.35187155  0.44362972  0.89131969  1
  O  O27  1  0.85187155  0.05637028  0.60868031  1
  O  O28  1  0.77240492  0.36061353  0.43526168  1
  O  O29  1  0.27240492  0.13938647  0.06473832  1
  O  O30  1  0.22759508  0.63938647  0.56473832  1
  O  O31  1  0.72759508  0.86061353  0.93526168  1
  O  O32  1  0.80876402  0.43257024  0.59204821  1
  O  O33  1  0.30876402  0.06742976  0.90795179  1
  O  O34  1  0.19123598  0.56742976  0.40795179  1
  O  O35  1  0.69123598  0.93257024  0.09204821  1
  O  O36  1  0.85373175  0.29636508  0.99481621  1
  O  O37  1  0.35373175  0.20363492  0.50518379  1
  O  O38  1  0.84661950  0.12295091  0.78456384  1
  O  O39  1  0.64626825  0.79636508  0.49481621  1
  P  P40  1  0.97136649  0.00386692  0.70101221  1
  P  P41  1  0.47136649  0.49613308  0.79898779  1
  P  P42  1  0.02863351  0.99613308  0.29898779  1
  P  P43  1  0.52863351  0.50386692  0.20101221  1
  Zn  Zn44  1  0.50535450  0.18885067  0.63341614  1
  Zn  Zn45  1  0.00535450  0.31114933  0.86658386  1
  Zn  Zn46  1  0.49464550  0.81114933  0.36658386  1
  Zn  Zn47  1  0.99464550  0.68885067  0.13341614  1
  Zn  Zn48  1  0.52451705  0.90464513  0.80709956  1
  Zn  Zn49  1  0.02451705  0.59535487  0.69290044  1
  Zn  Zn50  1  0.47548295  0.09535487  0.19290044  1
  Zn  Zn51  1  0.97548295  0.40464513  0.30709956  1
