# generated using pymatgen
data_KClO3
_symmetry_space_group_name_H-M   'P 1'
_cell_length_a   4.75118374
_cell_length_b   5.70128927
_cell_length_c   7.23610415
_cell_angle_alpha   90.00000000
_cell_angle_beta   109.27100937
_cell_angle_gamma   90.00000000
_symmetry_Int_Tables_number   1
_chemical_formula_structural   KClO3
_chemical_formula_sum   'K2 Cl2 O6'
_cell_volume   185.02781234
_cell_formula_units_Z   2
loop_
 _symmetry_equiv_pos_site_id
 _symmetry_equiv_pos_as_xyz
  1  'x, y, z'
loop_
 _atom_site_type_symbol
 _atom_site_label
 _atom_site_symmetry_multiplicity
 _atom_site_fract_x
 _atom_site_fract_y
 _atom_site_fract_z
 _atom_site_occupancy
  O  O0  1  0.83445436  0.96230731  0.69057329  1
  O  O1  1  0.16554564  0.46230731  0.30942671  1
  O  O2  1  0.16554564  0.03769269  0.30942671  1
  O  O3  1  0.83445436  0.53769269  0.69057329  1
  O  O4  1  0.27435881  0.75000000  0.88313514  1
  O  O5  1  0.72564119  0.25000000  0.11686486  1
  Cl  Cl6  1  0.06121014  0.25000000  0.18092612  1
  Cl  Cl7  1  0.93878986  0.75000000  0.81907388  1
  K  K8  1  0.35160479  0.25000000  0.70971118  1
  K  K9  1  0.64839521  0.75000000  0.29028882  1
