# generated using pymatgen
data_ZnH2SeO4
_symmetry_space_group_name_H-M   'P 1'
_cell_length_a   4.85865436
_cell_length_b   5.77585219
_cell_length_c   13.80636564
_cell_angle_alpha   90.00000000
_cell_angle_beta   90.00000000
_cell_angle_gamma   93.07840019
_symmetry_Int_Tables_number   1
_chemical_formula_structural   ZnH2SeO4
_chemical_formula_sum   'Zn4 H8 Se4 O16'
_cell_volume   386.88714565
_cell_formula_units_Z   4
loop_
 _symmetry_equiv_pos_site_id
 _symmetry_equiv_pos_as_xyz
  1  'x, y, z'
loop_
 _atom_site_type_symbol
 _atom_site_label
 _atom_site_symmetry_multiplicity
 _atom_site_fract_x
 _atom_site_fract_y
 _atom_site_fract_z
 _atom_site_occupancy
  H  H0  1  0.17540687  0.96333011  0.88165337  1
  H  H1  1  0.32459313  0.53666989  0.38165337  1
  H  H2  1  0.82459313  0.03666989  0.11834663  1
  H  H3  1  0.67540687  0.46333011  0.61834663  1
  H  H4  1  0.26604344  0.22866051  0.86797718  1
  H  H5  1  0.23395656  0.27133949  0.36797718  1
  H  H6  1  0.73395656  0.77133949  0.13202282  1
  H  H7  1  0.76604344  0.72866051  0.63202282  1
  O  O8  1  0.08922113  0.33516419  0.68084212  1
  O  O9  1  0.41077887  0.16483581  0.18084212  1
  O  O10  1  0.91077887  0.66483581  0.31915788  1
  O  O11  1  0.58922113  0.83516419  0.81915788  1
  O  O12  1  0.57893873  0.38636573  0.82670534  1
  O  O13  1  0.92106127  0.11363427  0.32670534  1
  O  O14  1  0.42106127  0.61363427  0.17329466  1
  O  O15  1  0.07893873  0.88636573  0.67329466  1
  O  O16  1  0.06846940  0.63139380  0.86322939  1
  O  O17  1  0.43153060  0.86860620  0.36322939  1
  O  O18  1  0.93153060  0.36860620  0.13677061  1
  O  O19  1  0.56846940  0.13139380  0.63677061  1
  O  O20  1  0.60513177  0.62061500  0.61742273  1
  O  O21  1  0.89486823  0.87938500  0.11742273  1
  O  O22  1  0.39486823  0.37938500  0.38257727  1
  O  O23  1  0.10513177  0.12061500  0.88257727  1
  Zn  Zn24  1  0.30621989  0.62719736  0.73113804  1
  Zn  Zn25  1  0.19378011  0.87280264  0.23113804  1
  Zn  Zn26  1  0.69378011  0.37280264  0.26886196  1
  Zn  Zn27  1  0.80621989  0.12719736  0.76886196  1
  Se  Se28  1  0.22879998  0.12054686  0.60712114  1
  Se  Se29  1  0.27120002  0.37945314  0.10712114  1
  Se  Se30  1  0.77120002  0.87945314  0.39287886  1
  Se  Se31  1  0.72879998  0.62054686  0.89287886  1
