# generated using pymatgen
data_Na2Co7H16(CO2)16
_symmetry_space_group_name_H-M   'P 1'
_cell_length_a   8.45419911
_cell_length_b   8.55304409
_cell_length_c   12.98599583
_cell_angle_alpha   90.65528642
_cell_angle_beta   95.99846232
_cell_angle_gamma   100.84292146
_symmetry_Int_Tables_number   1
_chemical_formula_structural   Na2Co7H16(CO2)16
_chemical_formula_sum   'Na2 Co7 H16 C16 O32'
_cell_volume   916.72727907
_cell_formula_units_Z   1
loop_
 _symmetry_equiv_pos_site_id
 _symmetry_equiv_pos_as_xyz
  1  'x, y, z'
loop_
 _atom_site_type_symbol
 _atom_site_label
 _atom_site_symmetry_multiplicity
 _atom_site_fract_x
 _atom_site_fract_y
 _atom_site_fract_z
 _atom_site_occupancy
  Na  Na0  1  0.26952473  0.22581496  0.91187915  1
  Na  Na1  1  0.73047527  0.77418504  0.08812085  1
  Co  Co2  1  -0.00000000  0.00000000  0.50000000  1
  Co  Co3  1  0.61605943  0.27301808  0.76489018  1
  Co  Co4  1  0.38394057  0.72698192  0.23510982  1
  Co  Co5  1  0.93091416  0.03435632  0.74229103  1
  Co  Co6  1  0.06908584  0.96564368  0.25770897  1
  Co  Co7  1  0.76809177  0.64399513  0.83633858  1
  Co  Co8  1  0.23190823  0.35600487  0.16366142  1
  H  H9  1  0.73132685  0.21246663  0.47582985  1
  H  H10  1  0.26867315  0.78753337  0.52417015  1
  H  H11  1  0.08619629  0.50479635  0.82588830  1
  H  H12  1  0.91380371  0.49520365  0.17411170  1
  H  H13  1  0.35382362  0.08838988  0.59692464  1
  H  H14  1  0.64617638  0.91161012  0.40307536  1
  H  H15  1  0.18006617  0.87416222  0.99049527  1
  H  H16  1  0.81993383  0.12583778  0.00950473  1
  H  H17  1  0.78898006  0.58939001  0.61387100  1
  H  H18  1  0.21101994  0.41060999  0.38612900  1
  H  H19  1  0.62706291  0.35607713  0.07115112  1
  H  H20  1  0.37293709  0.64392287  0.92884888  1
  H  H21  1  0.51029282  0.97630496  0.87269779  1
  H  H22  1  0.48970718  0.02369504  0.12730221  1
  H  H23  1  0.36056679  0.46056938  0.65255294  1
  H  H24  1  0.63943321  0.53943062  0.34744706  1
  C  C25  1  0.74143794  0.18822840  0.55950409  1
  C  C26  1  0.25856206  0.81177160  0.44049591  1
  C  C27  1  0.99019282  0.40001672  0.80359664  1
  C  C28  1  0.00980718  0.59998328  0.19640336  1
  C  C29  1  0.28685181  0.09276635  0.66523878  1
  C  C30  1  0.71314819  0.90723365  0.33476122  1
  C  C31  1  0.07740397  0.86173948  0.92872946  1
  C  C32  1  0.92259603  0.13826052  0.07127054  1
  C  C33  1  0.84165540  0.71758121  0.61863766  1
  C  C34  1  0.15834460  0.28241879  0.38136234  1
  C  C35  1  0.63924299  0.39180580  0.99025592  1
  C  C36  1  0.36075701  0.60819420  0.00974408  1
  C  C37  1  0.62794605  0.95141742  0.85494817  1
  C  C38  1  0.37205395  0.04858258  0.14505183  1
  C  C39  1  0.44275070  0.55666884  0.70091310  1
  C  C40  1  0.55724930  0.44333116  0.29908690  1
  O  O41  1  0.65303081  0.24976896  0.61355859  1
  O  O42  1  0.34696919  0.75023104  0.38644141  1
  O  O43  1  0.84231466  0.09935378  0.59130503  1
  O  O44  1  0.15768534  0.90064622  0.40869497  1
  O  O45  1  0.84571752  0.42554404  0.79368751  1
  O  O46  1  0.15428248  0.57445596  0.20631249  1
  O  O47  1  0.03373085  0.26874539  0.79070239  1
  O  O48  1  0.96626915  0.73125461  0.20929761  1
  O  O49  1  0.13550107  0.03343420  0.65191908  1
  O  O50  1  0.86449893  0.96656580  0.34808092  1
  O  O51  1  0.36487321  0.15582565  0.74856350  1
  O  O52  1  0.63512679  0.84417435  0.25143650  1
  O  O53  1  0.06546975  0.98555520  0.87783226  1
  O  O54  1  0.93453025  0.01444480  0.12216774  1
  O  O55  1  0.98723668  0.72558582  0.91919464  1
  O  O56  1  0.01276332  0.27441418  0.08080536  1
  O  O57  1  0.88940879  0.77986994  0.53773320  1
  O  O58  1  0.11059121  0.22013006  0.46226680  1
  O  O59  1  0.84729759  0.78687746  0.70786000  1
  O  O60  1  0.15270241  0.21312254  0.29214000  1
  O  O61  1  0.58230847  0.28305403  0.92115670  1
  O  O62  1  0.41769153  0.71694597  0.07884330  1
  O  O63  1  0.70515778  0.53462890  0.97710937  1
  O  O64  1  0.29484222  0.46537110  0.02289063  1
  O  O65  1  0.67487291  0.83264951  0.89496382  1
  O  O66  1  0.32512709  0.16735049  0.10503618  1
  O  O67  1  0.70572543  0.05178513  0.79672771  1
  O  O68  1  0.29427457  0.94821487  0.20327229  1
  O  O69  1  0.56689515  0.50801846  0.75098817  1
  O  O70  1  0.43310485  0.49198154  0.24901183  1
  O  O71  1  0.41457714  0.69257908  0.70418849  1
  O  O72  1  0.58542286  0.30742092  0.29581151  1
