# generated using pymatgen
data_CdP2H6O7
_symmetry_space_group_name_H-M   'P 1'
_cell_length_a   6.82948256
_cell_length_b   7.67521655
_cell_length_c   8.05211981
_cell_angle_alpha   113.61142847
_cell_angle_beta   110.09863739
_cell_angle_gamma   95.20606702
_symmetry_Int_Tables_number   1
_chemical_formula_structural   CdP2H6O7
_chemical_formula_sum   'Cd2 P4 H12 O14'
_cell_volume   350.16285406
_cell_formula_units_Z   2
loop_
 _symmetry_equiv_pos_site_id
 _symmetry_equiv_pos_as_xyz
  1  'x, y, z'
loop_
 _atom_site_type_symbol
 _atom_site_label
 _atom_site_symmetry_multiplicity
 _atom_site_fract_x
 _atom_site_fract_y
 _atom_site_fract_z
 _atom_site_occupancy
  H  H0  1  0.13228388  0.56542777  0.90355699  1
  H  H1  1  0.86771612  0.43457223  0.09644301  1
  H  H2  1  0.64002815  0.92355771  0.43429390  1
  H  H3  1  0.35997185  0.07644229  0.56570610  1
  H  H4  1  0.89604250  0.75329587  0.62458424  1
  H  H5  1  0.10395750  0.24670413  0.37541576  1
  H  H6  1  0.38002336  0.66005180  0.44745378  1
  H  H7  1  0.61997664  0.33994820  0.55254622  1
  H  H8  1  0.20105211  0.72866285  0.52953137  1
  H  H9  1  0.79894789  0.27133715  0.47046863  1
  H  H10  1  0.97925793  0.80471248  0.19224216  1
  H  H11  1  0.02074207  0.19528752  0.80775784  1
  O  O12  1  0.75062182  0.75315402  0.17423158  1
  O  O13  1  0.30751348  0.88263814  0.97641565  1
  O  O14  1  0.10919232  0.24527798  0.17598570  1
  O  O15  1  0.89080768  0.75472202  0.82401430  1
  O  O16  1  0.87436070  0.16856667  0.81524258  1
  O  O17  1  0.12563930  0.83143333  0.18475742  1
  O  O18  1  0.64462966  0.26567968  0.43166328  1
  O  O19  1  0.35537034  0.73432032  0.56833672  1
  O  O20  1  0.50454831  0.57760391  0.27700174  1
  O  O21  1  0.49545169  0.42239609  0.72299826  1
  O  O22  1  0.91014702  0.75156176  0.50162080  1
  O  O23  1  0.08985298  0.24843824  0.49837920  1
  O  O24  1  0.69248652  0.11736186  0.02358435  1
  O  O25  1  0.24937818  0.24684598  0.82576842  1
  P  P26  1  0.11091138  0.75945451  0.96743147  1
  P  P27  1  0.88908862  0.24054549  0.03256853  1
  P  P28  1  0.69150526  0.74781451  0.33922643  1
  P  P29  1  0.30849474  0.25218549  0.66077357  1
  Cd  Cd30  1  0.57234568  0.76416253  0.87465932  1
  Cd  Cd31  1  0.42765432  0.23583747  0.12534068  1
