# generated using pymatgen
data_LiMnPCO7
_symmetry_space_group_name_H-M   'P 1'
_cell_length_a   5.15973016
_cell_length_b   6.21840200
_cell_length_c   8.69466786
_cell_angle_alpha   90.00022829
_cell_angle_beta   86.45944651
_cell_angle_gamma   89.99999847
_symmetry_Int_Tables_number   1
_chemical_formula_structural   LiMnPCO7
_chemical_formula_sum   'Li2 Mn2 P2 C2 O14'
_cell_volume   278.43836034
_cell_formula_units_Z   2
loop_
 _symmetry_equiv_pos_site_id
 _symmetry_equiv_pos_as_xyz
  1  'x, y, z'
loop_
 _atom_site_type_symbol
 _atom_site_label
 _atom_site_symmetry_multiplicity
 _atom_site_fract_x
 _atom_site_fract_y
 _atom_site_fract_z
 _atom_site_occupancy
  Li  Li0  1  0.21977222  0.97543457  0.20489138  1
  Li  Li1  1  0.78022702  0.47543347  0.79511245  1
  C  C2  1  0.72220989  0.74761967  0.06718937  1
  C  C3  1  0.27778807  0.24762235  0.93280545  1
  O  O4  1  0.79349704  0.45044236  0.32365646  1
  O  O5  1  0.95151641  0.75765096  0.12740070  1
  O  O6  1  0.46624568  0.26648132  0.82196744  1
  O  O7  1  0.53375349  0.76647659  0.17803425  1
  O  O8  1  0.18506004  0.56321353  0.67112244  1
  O  O9  1  0.13624733  0.76737733  0.41687881  1
  O  O10  1  0.20650484  0.95044968  0.67634472  1
  O  O11  1  0.04848732  0.25765304  0.87260166  1
  O  O12  1  0.81493549  0.06321019  0.32888060  1
  O  O13  1  0.42791397  0.24656503  0.47096202  1
  O  O14  1  0.68698257  0.71690043  0.93000431  1
  O  O15  1  0.31302063  0.21689726  0.07000008  1
  O  O16  1  0.57208674  0.74656150  0.52903501  1
  O  O17  1  0.86375193  0.26737831  0.58312184  1
  P  P18  1  0.72568359  0.25778896  0.43046032  1
  P  P19  1  0.27431848  0.75778879  0.56953639  1
  Mn  Mn20  1  0.78671318  0.75372483  0.34055048  1
  Mn  Mn21  1  0.21328440  0.25372913  0.65944362  1
