# generated using pymatgen
data_Co2PH2CO7
_symmetry_space_group_name_H-M   'P 1'
_cell_length_a   4.83200459
_cell_length_b   7.97836437
_cell_length_c   14.20804636
_cell_angle_alpha   96.04355771
_cell_angle_beta   90.00000000
_cell_angle_gamma   90.00000000
_symmetry_Int_Tables_number   1
_chemical_formula_structural   Co2PH2CO7
_chemical_formula_sum   'Co8 P4 H8 C4 O28'
_cell_volume   544.69713476
_cell_formula_units_Z   4
loop_
 _symmetry_equiv_pos_site_id
 _symmetry_equiv_pos_as_xyz
  1  'x, y, z'
loop_
 _atom_site_type_symbol
 _atom_site_label
 _atom_site_symmetry_multiplicity
 _atom_site_fract_x
 _atom_site_fract_y
 _atom_site_fract_z
 _atom_site_occupancy
  H  H0  1  0.24575903  0.89019854  0.02169438  1
  H  H1  1  0.74575961  0.60980091  0.47830549  1
  H  H2  1  0.75424005  0.10980114  0.97830562  1
  H  H3  1  0.25424155  0.39019877  0.52169451  1
  H  H4  1  0.00800716  0.74949282  0.03143756  1
  H  H5  1  0.50800774  0.75050663  0.46856230  1
  H  H6  1  0.49199341  0.24949305  0.53143769  1
  H  H7  1  0.99199192  0.25050685  0.96856243  1
  C  C8  1  0.11963441  0.93943506  0.50788412  1
  C  C9  1  0.61963499  0.56056509  0.99211591  1
  C  C10  1  0.88036467  0.06056589  0.49211595  1
  C  C11  1  0.38036616  0.43943458  0.00788408  1
  O  O12  1  0.63533259  0.94957787  0.90100890  1
  O  O13  1  0.80015634  0.00672874  0.19607727  1
  O  O14  1  0.69984539  0.50672921  0.69607730  1
  O  O15  1  0.19984482  0.99327094  0.80392273  1
  O  O16  1  0.86466706  0.44957739  0.40100887  1
  O  O17  1  0.36466649  0.05042308  0.09899117  1
  O  O18  1  0.13533202  0.55042228  0.59899113  1
  O  O19  1  0.30015576  0.49327173  0.30392277  1
  O  O20  1  0.83879911  0.37986132  0.22645374  1
  O  O21  1  0.33880061  0.12013788  0.27354621  1
  O  O22  1  0.16119997  0.62013835  0.77354625  1
  O  O23  1  0.66120055  0.87986179  0.72645378  1
  O  O24  1  0.87069380  0.67881653  0.28640310  1
  O  O25  1  0.37069322  0.82118419  0.21359684  1
  O  O26  1  0.23222394  0.86454624  0.43475020  1
  O  O27  1  0.62930793  0.17881675  0.78640323  1
  O  O28  1  0.35174978  0.29064389  0.48788100  1
  O  O29  1  0.85174828  0.20935658  0.01211903  1
  O  O30  1  0.64825137  0.70935578  0.51211899  1
  O  O31  1  0.14825080  0.79064309  0.98788096  1
  O  O32  1  0.31292909  0.42516103  0.09337114  1
  O  O33  1  0.81292967  0.07483944  0.40662890  1
  O  O34  1  0.68706999  0.57483991  0.90662893  1
  O  O35  1  0.18706941  0.92516024  0.59337110  1
  O  O36  1  0.26777663  0.36454647  0.93475033  1
  O  O37  1  0.76777721  0.13545343  0.56524979  1
  O  O38  1  0.73222244  0.63545447  0.06524974  1
  O  O39  1  0.12930735  0.32118315  0.71359689  1
  P  P40  1  0.52022355  0.00251744  0.80703408  1
  P  P41  1  0.02022505  0.49748246  0.69296534  1
  P  P42  1  0.47977553  0.99748223  0.19296591  1
  P  P43  1  0.97977611  0.50251722  0.30703466  1
  Co  Co44  1  0.03036097  0.19859137  0.13955463  1
  Co  Co45  1  0.46963961  0.69859185  0.63955467  1
  Co  Co46  1  0.96963811  0.80140830  0.86044536  1
  Co  Co47  1  0.53036155  0.30140783  0.36044533  1
  Co  Co48  1  0.96095381  0.08611615  0.69532179  1
  Co  Co49  1  0.46095531  0.41388501  0.80467771  1
  Co  Co50  1  0.03904527  0.91388479  0.30467828  1
  Co  Co51  1  0.53904584  0.58611593  0.19532236  1
