# generated using pymatgen
data_Na4Co7(PO4)6
_symmetry_space_group_name_H-M   'P 1'
_cell_length_a   6.54024613
_cell_length_b   9.01306762
_cell_length_c   9.01306762
_cell_angle_alpha   107.80472697
_cell_angle_beta   99.27431330
_cell_angle_gamma   99.27431320
_symmetry_Int_Tables_number   1
_chemical_formula_structural   Na4Co7(PO4)6
_chemical_formula_sum   'Na4 Co7 P6 O24'
_cell_volume   486.55909005
_cell_formula_units_Z   1
loop_
 _symmetry_equiv_pos_site_id
 _symmetry_equiv_pos_as_xyz
  1  'x, y, z'
loop_
 _atom_site_type_symbol
 _atom_site_label
 _atom_site_symmetry_multiplicity
 _atom_site_fract_x
 _atom_site_fract_y
 _atom_site_fract_z
 _atom_site_occupancy
  O  O0  1  0.25053979  0.44166295  0.44166295  1
  O  O1  1  0.72711249  0.54784867  0.54784867  1
  O  O2  1  0.12584763  0.19489293  0.19489293  1
  O  O3  1  0.86040341  0.79482678  0.79482678  1
  O  O4  1  0.07183680  0.74749827  0.57592344  1
  O  O5  1  0.07183680  0.57592344  0.74749827  1
  O  O6  1  0.91542430  0.41353852  0.23777274  1
  O  O7  1  0.91542430  0.23777274  0.41353852  1
  O  O8  1  0.51014131  0.34243235  0.01616767  1
  O  O9  1  0.51014131  0.01616767  0.34243235  1
  O  O10  1  0.48698061  0.97214181  0.64984449  1
  O  O11  1  0.48698061  0.64984449  0.97214181  1
  O  O12  1  0.13625865  0.38737413  0.96636447  1
  O  O13  1  0.13625865  0.96636447  0.38737413  1
  O  O14  1  0.86373552  0.01626829  0.60690133  1
  O  O15  1  0.86373552  0.60690133  0.01626829  1
  O  O16  1  0.21628014  0.09796310  0.88820575  1
  O  O17  1  0.72937965  0.26000973  0.71980109  1
  O  O18  1  0.72937965  0.71980109  0.26000973  1
  O  O19  1  0.27442595  0.26779082  0.72363110  1
  O  O20  1  0.27442595  0.72363110  0.26779082  1
  O  O21  1  0.77995832  0.89692277  0.10421477  1
  O  O22  1  0.77995832  0.10421477  0.89692277  1
  O  O23  1  0.21628014  0.88820575  0.09796310  1
  Na  Na24  1  0.52013247  0.05943315  0.05943315  1
  Na  Na25  1  0.44215613  0.67602171  0.67602171  1
  Na  Na26  1  0.48913509  0.52043353  0.29112698  1
  Na  Na27  1  0.48913509  0.29112698  0.52043353  1
  P  P28  1  0.05658135  0.32055112  0.32055112  1
  P  P29  1  0.92259478  0.66673303  0.66673303  1
  P  P30  1  0.71027757  0.08020909  0.71447299  1
  P  P31  1  0.71027757  0.71447299  0.08020909  1
  P  P32  1  0.28862178  0.27800623  0.90345775  1
  P  P33  1  0.28862178  0.90345775  0.27800623  1
  Co  Co34  1  0.18232895  0.99662214  0.63950538  1
  Co  Co35  1  0.18232895  0.63950538  0.99662214  1
  Co  Co36  1  0.81572567  0.35688973  0.98444122  1
  Co  Co37  1  0.81572567  0.98444122  0.35688973  1
  Co  Co38  1  0.00205332  0.65239223  0.33741778  1
  Co  Co39  1  0.00205332  0.33741778  0.65239223  1
  Co  Co40  1  0.99640472  0.99498796  0.99498796  1
