# generated using pymatgen
data_Na2CoH4(CO2)4
_symmetry_space_group_name_H-M   'P 1'
_cell_length_a   6.88911337
_cell_length_b   8.97119699
_cell_length_c   9.23774069
_cell_angle_alpha   119.05002795
_cell_angle_beta   105.63676765
_cell_angle_gamma   90.00000000
_symmetry_Int_Tables_number   1
_chemical_formula_structural   Na2CoH4(CO2)4
_chemical_formula_sum   'Na4 Co2 H8 C8 O16'
_cell_volume   474.78497816
_cell_formula_units_Z   2
loop_
 _symmetry_equiv_pos_site_id
 _symmetry_equiv_pos_as_xyz
  1  'x, y, z'
loop_
 _atom_site_type_symbol
 _atom_site_label
 _atom_site_symmetry_multiplicity
 _atom_site_fract_x
 _atom_site_fract_y
 _atom_site_fract_z
 _atom_site_occupancy
  Na  Na0  1  0.18378416  0.70164012  0.20839175  1
  Na  Na1  1  0.31621584  0.49324837  0.79160825  1
  Na  Na2  1  0.81621584  0.29835988  0.79160825  1
  Na  Na3  1  0.68378416  0.50675163  0.20839175  1
  Co  Co4  1  -0.00000000  -0.00000000  0.50000000  1
  Co  Co5  1  0.50000000  0.50000000  0.50000000  1
  H  H6  1  0.37394192  0.08579809  0.85624161  1
  H  H7  1  0.12605808  0.22955648  0.14375839  1
  H  H8  1  0.62605808  0.91420191  0.14375839  1
  H  H9  1  0.87394192  0.77044352  0.85624161  1
  H  H10  1  0.09237219  0.79997527  0.70151952  1
  H  H11  1  0.40762781  0.09845575  0.29848048  1
  H  H12  1  0.90762781  0.20002473  0.29848048  1
  H  H13  1  0.59237219  0.90154425  0.70151952  1
  C  C14  1  0.18387328  0.74694173  0.61039362  1
  C  C15  1  0.31612672  0.13654811  0.38960638  1
  C  C16  1  0.81612672  0.25305827  0.38960638  1
  C  C17  1  0.68387328  0.86345189  0.61039362  1
  C  C18  1  0.35829285  0.19614964  0.83236224  1
  C  C19  1  0.14170715  0.36378740  0.16763776  1
  C  C20  1  0.64170715  0.80385036  0.16763776  1
  C  C21  1  0.85829285  0.63621260  0.83236224  1
  O  O22  1  0.18187138  0.20053273  0.74464773  1
  O  O23  1  0.31812862  0.45588500  0.25535227  1
  O  O24  1  0.81812862  0.79946727  0.25535227  1
  O  O25  1  0.68187138  0.54411500  0.74464773  1
  O  O26  1  0.17103265  0.80040039  0.50457157  1
  O  O27  1  0.32896735  0.29582882  0.49542843  1
  O  O28  1  0.82896735  0.19959961  0.49542843  1
  O  O29  1  0.67103265  0.70417118  0.50457157  1
  O  O30  1  0.29317611  0.63825416  0.62541441  1
  O  O31  1  0.20682389  0.01283975  0.37458559  1
  O  O32  1  0.70682389  0.36174584  0.37458559  1
  O  O33  1  0.79317611  0.98716025  0.62541441  1
  O  O34  1  0.51333635  0.30808319  0.89482045  1
  O  O35  1  0.98666365  0.41326274  0.10517955  1
  O  O36  1  0.48666365  0.69191681  0.10517955  1
  O  O37  1  0.01333635  0.58673726  0.89482045  1
