# generated using pymatgen
data_Na2W2O7
_symmetry_space_group_name_H-M   'P 1'
_cell_length_a   7.09118656
_cell_length_b   7.09118775
_cell_length_c   15.04439345
_cell_angle_alpha   90.00000000
_cell_angle_beta   90.00000000
_cell_angle_gamma   117.24639797
_symmetry_Int_Tables_number   1
_chemical_formula_structural   Na2W2O7
_chemical_formula_sum   'Na8 W8 O28'
_cell_volume   672.56888884
_cell_formula_units_Z   4
loop_
 _symmetry_equiv_pos_site_id
 _symmetry_equiv_pos_as_xyz
  1  'x, y, z'
loop_
 _atom_site_type_symbol
 _atom_site_label
 _atom_site_symmetry_multiplicity
 _atom_site_fract_x
 _atom_site_fract_y
 _atom_site_fract_z
 _atom_site_occupancy
  Na  Na0  1  0.66934937  0.33065063  0.34605304  1
  Na  Na1  1  0.25029260  0.25029260  0.00000000  1
  Na  Na2  1  0.33065063  0.66934937  0.65394696  1
  Na  Na3  1  0.74970740  0.74970740  0.00000000  1
  Na  Na4  1  0.24970740  0.24970740  0.50000000  1
  Na  Na5  1  0.75029260  0.75029260  0.50000000  1
  Na  Na6  1  0.16934937  0.83065063  0.15394696  1
  Na  Na7  1  0.83065063  0.16934937  0.84605304  1
  W  W8  1  0.16231120  0.33768880  0.25000000  1
  W  W9  1  0.74608182  0.25391818  0.58633580  1
  W  W10  1  0.33768880  0.16231120  0.75000000  1
  W  W11  1  0.83768880  0.66231120  0.75000000  1
  W  W12  1  0.75391818  0.24608182  0.08633580  1
  W  W13  1  0.25391818  0.74608182  0.41366420  1
  W  W14  1  0.24608182  0.75391818  0.91366420  1
  W  W15  1  0.66231120  0.83768880  0.25000000  1
  O  O16  1  0.12367220  0.87632780  0.46918234  1
  O  O17  1  0.86028713  0.13971287  0.00226902  1
  O  O18  1  0.19682492  0.20806631  0.83884801  1
  O  O19  1  0.37632780  0.62367220  0.96918234  1
  O  O20  1  0.69682492  0.70806631  0.66115199  1
  O  O21  1  0.79193369  0.80317508  0.83884801  1
  O  O22  1  0.93511008  0.47160035  0.65661285  1
  O  O23  1  0.80317508  0.79193369  0.16115199  1
  O  O24  1  0.43511008  0.97160035  0.84338715  1
  O  O25  1  0.29193369  0.30317508  0.66115199  1
  O  O26  1  0.87666700  0.12333300  0.28151114  1
  O  O27  1  0.63971287  0.36028713  0.50226902  1
  O  O28  1  0.12333300  0.87666700  0.71848886  1
  O  O29  1  0.62367220  0.37632780  0.03081766  1
  O  O30  1  0.37666700  0.62333300  0.21848886  1
  O  O31  1  0.13971287  0.86028713  0.99773098  1
  O  O32  1  0.52839965  0.06488992  0.65661285  1
  O  O33  1  0.02839965  0.56488992  0.84338715  1
  O  O34  1  0.47160035  0.93511008  0.34338715  1
  O  O35  1  0.36028713  0.63971287  0.49773098  1
  O  O36  1  0.62333300  0.37666700  0.78151114  1
  O  O37  1  0.06488992  0.52839965  0.34338715  1
  O  O38  1  0.20806631  0.19682492  0.16115199  1
  O  O39  1  0.97160035  0.43511008  0.15661285  1
  O  O40  1  0.56488992  0.02839965  0.15661285  1
  O  O41  1  0.30317508  0.29193369  0.33884801  1
  O  O42  1  0.87632780  0.12367220  0.53081766  1
  O  O43  1  0.70806631  0.69682492  0.33884801  1
