# generated using pymatgen
data_MnNi(BiO3)2
_symmetry_space_group_name_H-M   'P 1'
_cell_length_a   5.48347949
_cell_length_b   5.52341159
_cell_length_c   9.70554915
_cell_angle_alpha   105.43237471
_cell_angle_beta   90.00000000
_cell_angle_gamma   119.76113334
_symmetry_Int_Tables_number   1
_chemical_formula_structural   MnNi(BiO3)2
_chemical_formula_sum   'Mn2 Ni2 Bi4 O12'
_cell_volume   242.90026122
_cell_formula_units_Z   2
loop_
 _symmetry_equiv_pos_site_id
 _symmetry_equiv_pos_as_xyz
  1  'x, y, z'
loop_
 _atom_site_type_symbol
 _atom_site_label
 _atom_site_symmetry_multiplicity
 _atom_site_fract_x
 _atom_site_fract_y
 _atom_site_fract_z
 _atom_site_occupancy
  O  O0  1  0.63596974  0.68075320  0.86108030  1
  O  O1  1  0.95521594  0.31924667  0.13892025  1
  O  O2  1  0.44651536  0.30498487  0.09039941  1
  O  O3  1  0.14153095  0.69501500  0.90960113  1
  O  O4  1  0.37107727  0.30798814  0.59008684  1
  O  O5  1  0.06308886  0.69201393  0.40991403  1
  O  O6  1  0.55602229  0.68048221  0.36284813  1
  O  O7  1  0.87553949  0.31951767  0.63715138  1
  O  O8  1  0.15200277  0.17951492  0.83048215  1
  O  O9  1  0.97248726  0.82048496  0.16951735  1
  O  O10  1  0.53693640  0.17821471  0.33046771  1
  O  O11  1  0.35872216  0.82178516  0.66953283  1
  Mn  Mn12  1  0.75451162  0.49939836  0.25021730  1
  Mn  Mn13  1  0.25511373  0.50060152  0.74978324  1
  Ni  Ni14  1  0.48750725  0.00000042  0.50000009  1
  Ni  Ni15  1  0.02156972  0.00000000  0.00000000  1
  Bi  Bi16  1  0.61163183  0.26424831  0.87240118  1
  Bi  Bi17  1  0.34738398  0.73575157  0.12759832  1
  Bi  Bi18  1  0.89361982  0.73306724  0.62728615  1
  Bi  Bi19  1  0.16055305  0.26693264  0.37271336  1
