# generated using pymatgen
data_Cd3(PO4)2
_symmetry_space_group_name_H-M   'P 1'
_cell_length_a   7.76665175
_cell_length_b   9.74361353
_cell_length_c   9.74361353
_cell_angle_alpha   106.90114910
_cell_angle_beta   90.00000000
_cell_angle_gamma   90.00000000
_symmetry_Int_Tables_number   1
_chemical_formula_structural   Cd3(PO4)2
_chemical_formula_sum   'Cd12 P8 O32'
_cell_volume   705.50259867
_cell_formula_units_Z   4
loop_
 _symmetry_equiv_pos_site_id
 _symmetry_equiv_pos_as_xyz
  1  'x, y, z'
loop_
 _atom_site_type_symbol
 _atom_site_label
 _atom_site_symmetry_multiplicity
 _atom_site_fract_x
 _atom_site_fract_y
 _atom_site_fract_z
 _atom_site_occupancy
  O  O0  1  0.87330166  0.10170802  0.10170802  1
  O  O1  1  0.37330166  0.39829198  0.39829198  1
  O  O2  1  0.62669834  0.60170802  0.60170802  1
  O  O3  1  0.12669834  0.89829198  0.89829198  1
  O  O4  1  0.53381195  0.11720601  0.11720601  1
  O  O5  1  0.03381195  0.38279399  0.38279399  1
  O  O6  1  0.96618805  0.61720601  0.61720601  1
  O  O7  1  0.46618805  0.88279399  0.88279399  1
  O  O8  1  0.08472160  0.09812768  0.62638541  1
  O  O9  1  0.58472160  0.40187232  0.87361459  1
  O  O10  1  0.41527840  0.12638541  0.59812768  1
  O  O11  1  0.91527840  0.37361459  0.90187232  1
  O  O12  1  0.91527840  0.90187232  0.37361459  1
  O  O13  1  0.41527840  0.59812768  0.12638541  1
  O  O14  1  0.58472160  0.87361459  0.40187232  1
  O  O15  1  0.08472160  0.62638541  0.09812768  1
  O  O16  1  0.26890705  0.18008322  0.84421485  1
  O  O17  1  0.76890705  0.31991678  0.65578515  1
  O  O18  1  0.23109295  0.34421485  0.68008322  1
  O  O19  1  0.73109295  0.15578515  0.81991678  1
  O  O20  1  0.29140489  0.82902421  0.66159595  1
  O  O21  1  0.79140489  0.67097579  0.83840405  1
  O  O22  1  0.20859511  0.16159595  0.32902421  1
  O  O23  1  0.70859511  0.33840405  0.17097579  1
  O  O24  1  0.70859511  0.17097579  0.33840405  1
  O  O25  1  0.20859511  0.32902421  0.16159595  1
  O  O26  1  0.79140489  0.83840405  0.67097579  1
  O  O27  1  0.29140489  0.66159595  0.82902421  1
  O  O28  1  0.26890705  0.84421485  0.18008322  1
  O  O29  1  0.76890705  0.65578515  0.31991678  1
  O  O30  1  0.23109295  0.68008322  0.34421485  1
  O  O31  1  0.73109295  0.81991678  0.15578515  1
  P  P32  1  0.70856713  0.18078263  0.18078263  1
  P  P33  1  0.20856713  0.31921737  0.31921737  1
  P  P34  1  0.79143287  0.68078263  0.68078263  1
  P  P35  1  0.29143287  0.81921737  0.81921737  1
  P  P36  1  0.25000000  0.18683370  0.68683370  1
  P  P37  1  0.75000000  0.31316630  0.81316630  1
  P  P38  1  0.75000000  0.81316630  0.31316630  1
  P  P39  1  0.25000000  0.68683370  0.18683370  1
  Cd  Cd40  1  0.00000000  0.10810236  0.89189764  1
  Cd  Cd41  1  0.50000000  0.39189764  0.60810236  1
  Cd  Cd42  1  0.00000000  0.89189764  0.10810236  1
  Cd  Cd43  1  0.50000000  0.60810236  0.39189764  1
  Cd  Cd44  1  0.55690679  0.68912378  0.96936096  1
  Cd  Cd45  1  0.05690679  0.81087622  0.53063904  1
  Cd  Cd46  1  0.94309321  0.46936096  0.18912378  1
  Cd  Cd47  1  0.44309321  0.03063904  0.31087622  1
  Cd  Cd48  1  0.44309321  0.31087622  0.03063904  1
  Cd  Cd49  1  0.94309321  0.18912378  0.46936096  1
  Cd  Cd50  1  0.05690679  0.53063904  0.81087622  1
  Cd  Cd51  1  0.55690679  0.96936096  0.68912378  1
