# generated using pymatgen
data_ThSnI6
_symmetry_space_group_name_H-M   'P 1'
_cell_length_a   7.82364608
_cell_length_b   7.82364608
_cell_length_c   14.21969962
_cell_angle_alpha   90.00000000
_cell_angle_beta   90.00000000
_cell_angle_gamma   119.99999998
_symmetry_Int_Tables_number   1
_chemical_formula_structural   ThSnI6
_chemical_formula_sum   'Th2 Sn2 I12'
_cell_volume   753.77103734
_cell_formula_units_Z   2
loop_
 _symmetry_equiv_pos_site_id
 _symmetry_equiv_pos_as_xyz
  1  'x, y, z'
loop_
 _atom_site_type_symbol
 _atom_site_label
 _atom_site_symmetry_multiplicity
 _atom_site_fract_x
 _atom_site_fract_y
 _atom_site_fract_z
 _atom_site_occupancy
  Sn  Sn0  1  0.00000000  0.00000000  0.00000000  1
  Sn  Sn1  1  0.00000000  0.00000000  0.50000000  1
  I  I2  1  0.66255908  0.00804366  0.62585111  1
  I  I3  1  0.99195634  0.65451542  0.62585111  1
  I  I4  1  0.33744092  0.34548458  0.12585111  1
  I  I5  1  0.65451542  0.99195634  0.12585111  1
  I  I6  1  0.00804366  0.66255908  0.12585111  1
  I  I7  1  0.65451542  0.66255908  0.37414889  1
  I  I8  1  0.00804366  0.34548458  0.37414889  1
  I  I9  1  0.33744092  0.99195634  0.37414889  1
  I  I10  1  0.66255908  0.65451542  0.87414889  1
  I  I11  1  0.34548458  0.00804366  0.87414889  1
  I  I12  1  0.99195634  0.33744092  0.87414889  1
  I  I13  1  0.34548458  0.33744092  0.62585111  1
  Th  Th14  1  0.66666667  0.33333333  0.75000000  1
  Th  Th15  1  0.33333333  0.66666667  0.25000000  1
