# generated using pymatgen
data_Sb6Pb4S13
_symmetry_space_group_name_H-M   'P 1'
_cell_length_a   3.95840775
_cell_length_b   17.02271550
_cell_length_c   17.99103702
_cell_angle_alpha   91.10548699
_cell_angle_beta   96.28374849
_cell_angle_gamma   96.58401621
_symmetry_Int_Tables_number   1
_chemical_formula_structural   Sb6Pb4S13
_chemical_formula_sum   'Sb12 Pb8 S26'
_cell_volume   1196.43410617
_cell_formula_units_Z   2
loop_
 _symmetry_equiv_pos_site_id
 _symmetry_equiv_pos_as_xyz
  1  'x, y, z'
loop_
 _atom_site_type_symbol
 _atom_site_label
 _atom_site_symmetry_multiplicity
 _atom_site_fract_x
 _atom_site_fract_y
 _atom_site_fract_z
 _atom_site_occupancy
  Sb  Sb0  1  0.62293765  0.75487570  0.50434415  1
  Sb  Sb1  1  0.79560867  0.90872906  0.70258589  1
  Sb  Sb2  1  0.24967851  0.43258229  0.05303158  1
  Sb  Sb3  1  0.33650986  0.36214895  0.29354180  1
  Sb  Sb4  1  0.24899004  0.15103076  0.34918408  1
  Sb  Sb5  1  0.85113856  0.82401657  0.89394840  1
  Sb  Sb6  1  0.67435703  0.66813322  0.69937237  1
  Sb  Sb7  1  0.15758673  0.21358976  0.10813413  1
  Sb  Sb8  1  0.05484273  0.79872675  0.30542769  1
  Sb  Sb9  1  0.41067852  0.28288598  0.52773627  1
  Sb  Sb10  1  0.08198739  0.29174988  0.87521818  1
  Sb  Sb11  1  0.62294532  0.02239830  0.18759855  1
  Pb  Pb12  1  0.43899099  0.77918422  0.09702612  1
  Pb  Pb13  1  0.23998165  0.96842572  0.50566946  1
  Pb  Pb14  1  0.25677483  0.60898527  0.89733759  1
  Pb  Pb15  1  0.42128601  0.12167089  0.71525089  1
  Pb  Pb16  1  0.07274820  0.45613306  0.68419534  1
  Pb  Pb17  1  0.89116270  0.55919913  0.21505726  1
  Pb  Pb18  1  0.51480432  0.07443891  0.94510667  1
  Pb  Pb19  1  0.97673370  0.49381232  0.45364550  1
  S  S20  1  0.15835257  0.01424396  0.29026673  1
  S  S21  1  0.69867527  0.17064904  0.21706835  1
  S  S22  1  0.94023694  0.25681685  0.61731042  1
  S  S23  1  0.71487516  0.45618111  0.96335654  1
  S  S24  1  0.01853649  0.87000777  0.16796097  1
  S  S25  1  0.11327068  0.60252926  0.61607581  1
  S  S26  1  0.77329929  0.11231230  0.43341161  1
  S  S27  1  0.54993256  0.31411234  0.78643182  1
  S  S28  1  0.49039027  0.71184366  0.26005747  1
  S  S29  1  0.38294519  0.97542686  0.78525494  1
  S  S30  1  0.79538170  0.39498446  0.18979556  1
  S  S31  1  0.87031086  0.33555704  0.40000968  1
  S  S32  1  0.23040570  0.84379167  0.60161659  1
  S  S33  1  0.62269406  0.23382193  0.00902274  1
  S  S34  1  0.27457877  0.73450946  0.80010465  1
  S  S35  1  0.49673517  0.42697203  0.56100588  1
  S  S36  1  0.43302650  0.88777811  0.97528514  1
  S  S37  1  0.06136171  0.69422167  0.42291724  1
  S  S38  1  0.84229787  0.70753193  0.97290247  1
  S  S39  1  0.82957345  0.02902345  0.62623406  1
  S  S40  1  0.33955580  0.56942738  0.10114830  1
  S  S41  1  0.07492465  0.06855979  0.07710965  1
  S  S42  1  0.42124435  0.50290966  0.33375258  1
  S  S43  1  0.66513946  0.54897185  0.77616001  1
  S  S44  1  0.65280590  0.87263603  0.42591391  1
  S  S45  1  0.99770424  0.14596465  0.84491695  1
