# generated using pymatgen
data_SrZnBi2
_symmetry_space_group_name_H-M   'P 1'
_cell_length_a   4.63437667
_cell_length_b   4.63437667
_cell_length_c   11.78260359
_cell_angle_alpha   101.34181923
_cell_angle_beta   101.34181924
_cell_angle_gamma   90.00000004
_symmetry_Int_Tables_number   1
_chemical_formula_structural   SrZnBi2
_chemical_formula_sum   'Sr2 Zn2 Bi4'
_cell_volume   243.07595823
_cell_formula_units_Z   2
loop_
 _symmetry_equiv_pos_site_id
 _symmetry_equiv_pos_as_xyz
  1  'x, y, z'
loop_
 _atom_site_type_symbol
 _atom_site_label
 _atom_site_symmetry_multiplicity
 _atom_site_fract_x
 _atom_site_fract_y
 _atom_site_fract_z
 _atom_site_occupancy
  Zn  Zn0  1  0.25000000  0.75000000  0.50000000  1
  Zn  Zn1  1  0.75000000  0.25000000  0.50000000  1
  Sr  Sr2  1  0.87884877  0.87884877  0.75769754  1
  Sr  Sr3  1  0.12115123  0.12115123  0.24230246  1
  Bi  Bi4  1  0.32823047  0.32823047  0.65646094  1
  Bi  Bi5  1  0.67176953  0.67176953  0.34353906  1
  Bi  Bi6  1  0.50000000  0.00000000  0.00000000  1
  Bi  Bi7  1  0.00000000  0.50000000  0.00000000  1
