# generated using pymatgen
data_Mg14Si5O24
_symmetry_space_group_name_H-M   'P 1'
_cell_length_a   5.94114636
_cell_length_b   10.17861438
_cell_length_c   14.34867549
_cell_angle_alpha   90.00000000
_cell_angle_beta   90.00000000
_cell_angle_gamma   90.00000000
_symmetry_Int_Tables_number   1
_chemical_formula_structural   Mg14Si5O24
_chemical_formula_sum   'Mg28 Si10 O48'
_cell_volume   867.70225544
_cell_formula_units_Z   2
loop_
 _symmetry_equiv_pos_site_id
 _symmetry_equiv_pos_as_xyz
  1  'x, y, z'
loop_
 _atom_site_type_symbol
 _atom_site_label
 _atom_site_symmetry_multiplicity
 _atom_site_fract_x
 _atom_site_fract_y
 _atom_site_fract_z
 _atom_site_occupancy
  O  O0  1  0.71772892  0.24722025  0.26212987  1
  O  O1  1  0.71772892  0.75277975  0.73787013  1
  O  O2  1  0.28227108  0.74722025  0.23787013  1
  O  O3  1  0.28227108  0.25277975  0.76212987  1
  O  O4  1  0.28227108  0.75277975  0.73787013  1
  O  O5  1  0.28227108  0.24722025  0.26212987  1
  O  O6  1  0.71772892  0.25277975  0.76212987  1
  O  O7  1  0.71772892  0.74722025  0.23787013  1
  O  O8  1  0.78515734  0.07475190  0.92641451  1
  O  O9  1  0.78515734  0.92524810  0.07358549  1
  O  O10  1  0.21484266  0.57475190  0.57358549  1
  O  O11  1  0.21484266  0.42524810  0.42641451  1
  O  O12  1  0.21484266  0.92524810  0.07358549  1
  O  O13  1  0.21484266  0.07475190  0.92641451  1
  O  O14  1  0.78515734  0.42524810  0.42641451  1
  O  O15  1  0.78515734  0.57475190  0.57358549  1
  O  O16  1  0.76560740  0.07877163  0.58744503  1
  O  O17  1  0.76560740  0.92122837  0.41255497  1
  O  O18  1  0.23439260  0.57877163  0.91255497  1
  O  O19  1  0.23439260  0.42122837  0.08744503  1
  O  O20  1  0.23439260  0.92122837  0.41255497  1
  O  O21  1  0.23439260  0.07877163  0.58744503  1
  O  O22  1  0.76560740  0.42122837  0.08744503  1
  O  O23  1  0.76560740  0.57877163  0.91255497  1
  O  O24  1  0.50000000  0.97170449  0.74021076  1
  O  O25  1  0.50000000  0.02829551  0.25978924  1
  O  O26  1  0.50000000  0.47170449  0.75978924  1
  O  O27  1  0.50000000  0.52829551  0.24021076  1
  O  O28  1  0.50000000  0.66953028  0.07502721  1
  O  O29  1  0.50000000  0.33046972  0.92497279  1
  O  O30  1  0.50000000  0.16953028  0.42497279  1
  O  O31  1  0.50000000  0.83046972  0.57502721  1
  O  O32  1  0.50000000  0.67228096  0.41406769  1
  O  O33  1  0.50000000  0.32771904  0.58593231  1
  O  O34  1  0.50000000  0.17228096  0.08593231  1
  O  O35  1  0.50000000  0.82771904  0.91406769  1
  O  O36  1  0.00000000  0.99573841  0.25839564  1
  O  O37  1  0.00000000  0.00426159  0.74160436  1
  O  O38  1  0.00000000  0.65299731  0.08597885  1
  O  O39  1  0.00000000  0.34700269  0.91402115  1
  O  O40  1  0.00000000  0.15299731  0.41402115  1
  O  O41  1  0.00000000  0.84700269  0.58597885  1
  O  O42  1  0.00000000  0.64644745  0.42423679  1
  O  O43  1  0.00000000  0.35355255  0.57576321  1
  O  O44  1  0.00000000  0.14644745  0.07576321  1
  O  O45  1  0.00000000  0.85355255  0.92423679  1
  O  O46  1  0.00000000  0.50426159  0.75839564  1
  O  O47  1  0.00000000  0.49573841  0.24160436  1
  Mg  Mg48  1  0.75612755  0.41887432  0.66956357  1
  Mg  Mg49  1  0.75612755  0.58112568  0.33043643  1
  Mg  Mg50  1  0.24387245  0.91887432  0.83043643  1
  Mg  Mg51  1  0.24387245  0.08112568  0.16956357  1
  Mg  Mg52  1  0.24387245  0.58112568  0.33043643  1
  Mg  Mg53  1  0.24387245  0.41887432  0.66956357  1
  Mg  Mg54  1  0.75612755  0.08112568  0.16956357  1
  Mg  Mg55  1  0.75612755  0.91887432  0.83043643  1
  Mg  Mg56  1  0.00000000  0.32060788  0.32402877  1
  Mg  Mg57  1  0.00000000  0.67939212  0.67597123  1
  Mg  Mg58  1  0.00000000  0.82060788  0.17597123  1
  Mg  Mg59  1  0.00000000  0.17939212  0.82402877  1
  Mg  Mg60  1  0.75971733  0.24659507  0.50240303  1
  Mg  Mg61  1  0.75971733  0.75340493  0.49759697  1
  Mg  Mg62  1  0.24028267  0.74659507  0.99759697  1
  Mg  Mg63  1  0.24028267  0.25340493  0.00240303  1
  Mg  Mg64  1  0.24028267  0.75340493  0.49759697  1
  Mg  Mg65  1  0.24028267  0.24659507  0.50240303  1
  Mg  Mg66  1  0.75971733  0.25340493  0.00240303  1
  Mg  Mg67  1  0.75971733  0.74659507  0.99759697  1
  Mg  Mg68  1  0.50000000  0.50000000  0.50000000  1
  Mg  Mg69  1  0.50000000  0.00000000  0.00000000  1
  Mg  Mg70  1  0.50000000  0.85450066  0.32542322  1
  Mg  Mg71  1  0.50000000  0.14549934  0.67457678  1
  Mg  Mg72  1  0.50000000  0.35450066  0.17457678  1
  Mg  Mg73  1  0.50000000  0.64549934  0.82542322  1
  Mg  Mg74  1  0.50000000  0.00000000  0.50000000  1
  Mg  Mg75  1  0.50000000  0.50000000  0.00000000  1
  Si  Si76  1  0.00000000  0.49781030  0.12472613  1
  Si  Si77  1  0.00000000  0.50218970  0.87527387  1
  Si  Si78  1  0.00000000  0.99781030  0.37527387  1
  Si  Si79  1  0.00000000  0.00218970  0.62472613  1
  Si  Si80  1  0.50000000  0.67409481  0.18862735  1
  Si  Si81  1  0.50000000  0.32590519  0.81137265  1
  Si  Si82  1  0.50000000  0.17409481  0.31137265  1
  Si  Si83  1  0.50000000  0.82590519  0.68862735  1
  Si  Si84  1  0.00000000  0.50000000  0.50000000  1
  Si  Si85  1  0.00000000  0.00000000  0.00000000  1
