# generated using pymatgen
data_Cu2SO4
_symmetry_space_group_name_H-M   'P 1'
_cell_length_a   4.60599112
_cell_length_b   5.90323548
_cell_length_c   7.85210914
_cell_angle_alpha   83.42970848
_cell_angle_beta   72.94458827
_cell_angle_gamma   67.03776667
_symmetry_Int_Tables_number   1
_chemical_formula_structural   Cu2SO4
_chemical_formula_sum   'Cu4 S2 O8'
_cell_volume   187.93804201
_cell_formula_units_Z   2
loop_
 _symmetry_equiv_pos_site_id
 _symmetry_equiv_pos_as_xyz
  1  'x, y, z'
loop_
 _atom_site_type_symbol
 _atom_site_label
 _atom_site_symmetry_multiplicity
 _atom_site_fract_x
 _atom_site_fract_y
 _atom_site_fract_z
 _atom_site_occupancy
  O  O0  1  0.92242683  0.40655091  0.36819044  1
  O  O1  1  0.19716817  0.09344909  0.13180956  1
  O  O2  1  0.67102226  0.40655091  0.13180956  1
  O  O3  1  0.70938273  0.09344909  0.36819044  1
  O  O4  1  0.07757317  0.59344909  0.63180956  1
  O  O5  1  0.80283183  0.90655091  0.86819044  1
  O  O6  1  0.29061727  0.90655091  0.63180956  1
  O  O7  1  0.32897774  0.59344909  0.86819044  1
  S  S8  1  0.87500000  0.25000000  0.25000000  1
  S  S9  1  0.12500000  0.75000000  0.75000000  1
  Cu  Cu10  1  0.17671194  0.25000000  0.64657611  1
  Cu  Cu11  1  0.57328806  0.25000000  0.85342389  1
  Cu  Cu12  1  0.82328806  0.75000000  0.35342389  1
  Cu  Cu13  1  0.42671194  0.75000000  0.14657611  1
