# generated using pymatgen
data_ZrFeCl6
_symmetry_space_group_name_H-M   'P 1'
_cell_length_a   6.36425229
_cell_length_b   6.36425229
_cell_length_c   13.33921597
_cell_angle_alpha   90.00000000
_cell_angle_beta   90.00000000
_cell_angle_gamma   119.99999996
_symmetry_Int_Tables_number   1
_chemical_formula_structural   ZrFeCl6
_chemical_formula_sum   'Zr2 Fe2 Cl12'
_cell_volume   467.90287195
_cell_formula_units_Z   2
loop_
 _symmetry_equiv_pos_site_id
 _symmetry_equiv_pos_as_xyz
  1  'x, y, z'
loop_
 _atom_site_type_symbol
 _atom_site_label
 _atom_site_symmetry_multiplicity
 _atom_site_fract_x
 _atom_site_fract_y
 _atom_site_fract_z
 _atom_site_occupancy
  Cl  Cl0  1  0.66872198  0.97522805  0.14331809  1
  Cl  Cl1  1  0.02477195  0.69349393  0.14331809  1
  Cl  Cl2  1  0.30650607  0.33127802  0.14331809  1
  Cl  Cl3  1  0.02477195  0.33127802  0.35668191  1
  Cl  Cl4  1  0.33127802  0.30650607  0.64331809  1
  Cl  Cl5  1  0.69349393  0.02477195  0.64331809  1
  Cl  Cl6  1  0.97522805  0.66872198  0.64331809  1
  Cl  Cl7  1  0.69349393  0.66872198  0.85668191  1
  Cl  Cl8  1  0.97522805  0.30650607  0.85668191  1
  Cl  Cl9  1  0.33127802  0.02477195  0.85668191  1
  Cl  Cl10  1  0.66872198  0.69349393  0.35668191  1
  Cl  Cl11  1  0.30650607  0.97522805  0.35668191  1
  Fe  Fe12  1  0.00000000  0.00000000  0.25000000  1
  Fe  Fe13  1  0.00000000  0.00000000  0.75000000  1
  Zr  Zr14  1  0.33333333  0.66666667  0.25000000  1
  Zr  Zr15  1  0.66666667  0.33333333  0.75000000  1
