# generated using pymatgen
data_Nd3S2Br5
_symmetry_space_group_name_H-M   'P 1'
_cell_length_a   6.92728895
_cell_length_b   7.25648069
_cell_length_c   22.78728322
_cell_angle_alpha   90.00000000
_cell_angle_beta   90.00000000
_cell_angle_gamma   90.00000000
_symmetry_Int_Tables_number   1
_chemical_formula_structural   Nd3S2Br5
_chemical_formula_sum   'Nd12 S8 Br20'
_cell_volume   1145.46519402
_cell_formula_units_Z   4
loop_
 _symmetry_equiv_pos_site_id
 _symmetry_equiv_pos_as_xyz
  1  'x, y, z'
loop_
 _atom_site_type_symbol
 _atom_site_label
 _atom_site_symmetry_multiplicity
 _atom_site_fract_x
 _atom_site_fract_y
 _atom_site_fract_z
 _atom_site_occupancy
  S  S0  1  0.69823285  0.83383062  0.82550641  1
  S  S1  1  0.19823285  0.66616938  0.32550641  1
  S  S2  1  0.69823285  0.83383062  0.67449359  1
  S  S3  1  0.30176715  0.16616938  0.17449359  1
  S  S4  1  0.80176715  0.33383062  0.82550641  1
  S  S5  1  0.80176715  0.33383062  0.67449359  1
  S  S6  1  0.30176715  0.16616938  0.32550641  1
  S  S7  1  0.19823285  0.66616938  0.17449359  1
  Br  Br8  1  0.63537965  0.82955948  0.25000000  1
  Br  Br9  1  0.13537965  0.67044052  0.75000000  1
  Br  Br10  1  0.86462035  0.32955948  0.25000000  1
  Br  Br11  1  0.36462035  0.17044052  0.75000000  1
  Br  Br12  1  0.34861912  0.47885453  0.61989477  1
  Br  Br13  1  0.34861912  0.47885453  0.88010523  1
  Br  Br14  1  0.84861912  0.02114547  0.38010523  1
  Br  Br15  1  0.15138088  0.97885453  0.88010523  1
  Br  Br16  1  0.65138088  0.52114547  0.11989477  1
  Br  Br17  1  0.65138088  0.52114547  0.38010523  1
  Br  Br18  1  0.15138088  0.97885453  0.61989477  1
  Br  Br19  1  0.84861912  0.02114547  0.11989477  1
  Br  Br20  1  0.16656602  0.67805856  0.02112208  1
  Br  Br21  1  0.66656602  0.82194144  0.97887792  1
  Br  Br22  1  0.33343398  0.17805856  0.47887792  1
  Br  Br23  1  0.83343398  0.32194144  0.52112208  1
  Br  Br24  1  0.83343398  0.32194144  0.97887792  1
  Br  Br25  1  0.33343398  0.17805856  0.02112208  1
  Br  Br26  1  0.66656602  0.82194144  0.52112208  1
  Br  Br27  1  0.16656602  0.67805856  0.47887792  1
  Nd  Nd28  1  0.05497987  0.38020186  0.39625429  1
  Nd  Nd29  1  0.55497987  0.11979814  0.60374571  1
  Nd  Nd30  1  0.44502013  0.88020186  0.10374571  1
  Nd  Nd31  1  0.94502013  0.61979814  0.89625429  1
  Nd  Nd32  1  0.94502013  0.61979814  0.60374571  1
  Nd  Nd33  1  0.44502013  0.88020186  0.39625429  1
  Nd  Nd34  1  0.55497987  0.11979814  0.89625429  1
  Nd  Nd35  1  0.05497987  0.38020186  0.10374571  1
  Nd  Nd36  1  0.94321985  0.04715280  0.75000000  1
  Nd  Nd37  1  0.44321985  0.45284720  0.25000000  1
  Nd  Nd38  1  0.55678015  0.54715280  0.75000000  1
  Nd  Nd39  1  0.05678015  0.95284720  0.25000000  1
