# generated using pymatgen
data_Rb3Mo2Br9
_symmetry_space_group_name_H-M   'P 1'
_cell_length_a   7.71210697
_cell_length_b   7.71210697
_cell_length_c   18.79970583
_cell_angle_alpha   90.00000000
_cell_angle_beta   90.00000000
_cell_angle_gamma   119.99999998
_symmetry_Int_Tables_number   1
_chemical_formula_structural   Rb3Mo2Br9
_chemical_formula_sum   'Rb6 Mo4 Br18'
_cell_volume   968.33978316
_cell_formula_units_Z   2
loop_
 _symmetry_equiv_pos_site_id
 _symmetry_equiv_pos_as_xyz
  1  'x, y, z'
loop_
 _atom_site_type_symbol
 _atom_site_label
 _atom_site_symmetry_multiplicity
 _atom_site_fract_x
 _atom_site_fract_y
 _atom_site_fract_z
 _atom_site_occupancy
  Br  Br0  1  0.82440965  0.17559035  0.40553056  1
  Br  Br1  1  0.82440965  0.64881931  0.40553056  1
  Br  Br2  1  0.35118069  0.17559035  0.40553056  1
  Br  Br3  1  0.64881931  0.82440965  0.90553056  1
  Br  Br4  1  0.17559035  0.35118069  0.59446944  1
  Br  Br5  1  0.17559035  0.82440965  0.90553056  1
  Br  Br6  1  0.17559035  0.35118069  0.90553056  1
  Br  Br7  1  0.82440965  0.17559035  0.09446944  1
  Br  Br8  1  0.35118069  0.17559035  0.09446944  1
  Br  Br9  1  0.64881931  0.82440965  0.59446944  1
  Br  Br10  1  0.50171600  0.00343201  0.25000000  1
  Br  Br11  1  0.49828400  0.50171600  0.75000000  1
  Br  Br12  1  0.00343201  0.50171600  0.75000000  1
  Br  Br13  1  0.99656799  0.49828400  0.25000000  1
  Br  Br14  1  0.50171600  0.49828400  0.25000000  1
  Br  Br15  1  0.49828400  0.99656799  0.75000000  1
  Br  Br16  1  0.82440965  0.64881931  0.09446944  1
  Br  Br17  1  0.17559035  0.82440965  0.59446944  1
  Rb  Rb18  1  0.00000000  0.00000000  0.25000000  1
  Rb  Rb19  1  0.00000000  0.00000000  0.75000000  1
  Rb  Rb20  1  0.33333333  0.66666667  0.06325947  1
  Rb  Rb21  1  0.66666667  0.33333333  0.56325947  1
  Rb  Rb22  1  0.33333333  0.66666667  0.43674053  1
  Rb  Rb23  1  0.66666667  0.33333333  0.93674053  1
  Mo  Mo24  1  0.33333333  0.66666667  0.82600391  1
  Mo  Mo25  1  0.66666667  0.33333333  0.32600391  1
  Mo  Mo26  1  0.66666667  0.33333333  0.17399609  1
  Mo  Mo27  1  0.33333333  0.66666667  0.67399609  1
