# generated using pymatgen
data_USCl9
_symmetry_space_group_name_H-M   'P 1'
_cell_length_a   11.16055442
_cell_length_b   11.07882715
_cell_length_c   11.70112230
_cell_angle_alpha   90.00000000
_cell_angle_beta   90.00000000
_cell_angle_gamma   90.00000000
_symmetry_Int_Tables_number   1
_chemical_formula_structural   USCl9
_chemical_formula_sum   'U4 S4 Cl36'
_cell_volume   1446.79525155
_cell_formula_units_Z   4
loop_
 _symmetry_equiv_pos_site_id
 _symmetry_equiv_pos_as_xyz
  1  'x, y, z'
loop_
 _atom_site_type_symbol
 _atom_site_label
 _atom_site_symmetry_multiplicity
 _atom_site_fract_x
 _atom_site_fract_y
 _atom_site_fract_z
 _atom_site_occupancy
  S  S0  1  0.42438178  0.46051387  0.40911628  1
  S  S1  1  0.07561822  0.53948613  0.90911628  1
  S  S2  1  0.57561822  0.96051387  0.09088372  1
  S  S3  1  0.92438178  0.03948613  0.59088372  1
  Cl  Cl4  1  0.16900185  0.60155270  0.37064871  1
  Cl  Cl5  1  0.66900185  0.89844730  0.62935129  1
  Cl  Cl6  1  0.83099815  0.10155270  0.12935129  1
  Cl  Cl7  1  0.33099815  0.39844730  0.87064871  1
  Cl  Cl8  1  0.08790753  0.45679422  0.63466958  1
  Cl  Cl9  1  0.58790753  0.04320578  0.36533042  1
  Cl  Cl10  1  0.91209247  0.95679422  0.86533042  1
  Cl  Cl11  1  0.41209247  0.54320578  0.13466958  1
  Cl  Cl12  1  0.93048080  0.38451031  0.37180703  1
  Cl  Cl13  1  0.43048080  0.11548969  0.62819297  1
  Cl  Cl14  1  0.06951920  0.88451031  0.12819297  1
  Cl  Cl15  1  0.56951920  0.61548969  0.87180703  1
  Cl  Cl16  1  0.86341442  0.69620192  0.33360268  1
  Cl  Cl17  1  0.36341442  0.80379808  0.66639732  1
  Cl  Cl18  1  0.13658558  0.19620192  0.16639732  1
  Cl  Cl19  1  0.63658558  0.30379808  0.83360268  1
  Cl  Cl20  1  0.78370936  0.54354540  0.59451317  1
  Cl  Cl21  1  0.28370936  0.95645460  0.40548683  1
  Cl  Cl22  1  0.21629064  0.04354540  0.90548683  1
  Cl  Cl23  1  0.71629064  0.45645460  0.09451317  1
  Cl  Cl24  1  0.01591954  0.76891839  0.59379498  1
  Cl  Cl25  1  0.51591954  0.73108161  0.40620502  1
  Cl  Cl26  1  0.98408046  0.26891839  0.90620502  1
  Cl  Cl27  1  0.48408046  0.23108161  0.09379498  1
  Cl  Cl28  1  0.17006651  0.68875602  0.87311571  1
  Cl  Cl29  1  0.32993349  0.31124398  0.37311571  1
  Cl  Cl30  1  0.82993349  0.18875602  0.62688429  1
  Cl  Cl31  1  0.67006651  0.81124398  0.12688429  1
  Cl  Cl32  1  0.41905234  0.46710070  0.58016986  1
  Cl  Cl33  1  0.91905234  0.03289930  0.41983014  1
  Cl  Cl34  1  0.58094766  0.96710070  0.91983014  1
  Cl  Cl35  1  0.08094766  0.53289930  0.08016986  1
  Cl  Cl36  1  0.59275010  0.40858585  0.37669368  1
  Cl  Cl37  1  0.09275010  0.09141415  0.62330632  1
  Cl  Cl38  1  0.40724990  0.90858585  0.12330632  1
  Cl  Cl39  1  0.90724990  0.59141415  0.87669368  1
  U  U40  1  0.52644213  0.42440103  0.98218099  1
  U  U41  1  0.02644213  0.07559897  0.01781901  1
  U  U42  1  0.47355787  0.92440103  0.51781901  1
  U  U43  1  0.97355787  0.57559897  0.48218099  1
