# generated using pymatgen
data_Cd3(SeO3)4
_symmetry_space_group_name_H-M   'P 1'
_cell_length_a   7.42673379
_cell_length_b   9.53566606
_cell_length_c   9.48716382
_cell_angle_alpha   90.00000000
_cell_angle_beta   113.00287230
_cell_angle_gamma   90.00000000
_symmetry_Int_Tables_number   1
_chemical_formula_structural   Cd3(SeO3)4
_chemical_formula_sum   'Cd6 Se8 O24'
_cell_volume   618.44649298
_cell_formula_units_Z   2
loop_
 _symmetry_equiv_pos_site_id
 _symmetry_equiv_pos_as_xyz
  1  'x, y, z'
loop_
 _atom_site_type_symbol
 _atom_site_label
 _atom_site_symmetry_multiplicity
 _atom_site_fract_x
 _atom_site_fract_y
 _atom_site_fract_z
 _atom_site_occupancy
  Cd  Cd0  1  0.38213238  0.87064233  0.34076328  1
  Cd  Cd1  1  0.11786762  0.37064233  0.65923672  1
  Cd  Cd2  1  0.61786762  0.12935767  0.65923672  1
  Cd  Cd3  1  0.88213238  0.62935767  0.34076328  1
  Cd  Cd4  1  0.50000000  0.50000000  0.50000000  1
  Cd  Cd5  1  0.00000000  -0.00000000  0.50000000  1
  Se  Se6  1  0.86849863  0.88451610  0.11515256  1
  Se  Se7  1  0.63150137  0.38451610  0.88484744  1
  Se  Se8  1  0.13150137  0.11548390  0.88484744  1
  Se  Se9  1  0.36849863  0.61548390  0.11515256  1
  Se  Se10  1  0.54196641  0.16560871  0.29410760  1
  Se  Se11  1  0.95803359  0.66560871  0.70589240  1
  Se  Se12  1  0.45803359  0.83439129  0.70589240  1
  Se  Se13  1  0.04196641  0.33439129  0.29410760  1
  O  O14  1  0.04718085  0.86242261  0.30191422  1
  O  O15  1  0.45281915  0.36242261  0.69808578  1
  O  O16  1  0.95281915  0.13757739  0.69808578  1
  O  O17  1  0.54718085  0.63757739  0.30191422  1
  O  O18  1  0.74100425  0.73387160  0.09873679  1
  O  O19  1  0.75899575  0.23387160  0.90126321  1
  O  O20  1  0.25899575  0.26612840  0.90126321  1
  O  O21  1  0.24100425  0.76612840  0.09873679  1
  O  O22  1  0.74355966  0.02561551  0.12970310  1
  O  O23  1  0.75644034  0.52561551  0.87029690  1
  O  O24  1  0.25644034  0.97438449  0.87029690  1
  O  O25  1  0.24355966  0.47438449  0.12970310  1
  O  O26  1  0.31869592  0.08587690  0.21682696  1
  O  O27  1  0.18130408  0.58587690  0.78317304  1
  O  O28  1  0.68130408  0.91412310  0.78317304  1
  O  O29  1  0.81869592  0.41412310  0.21682696  1
  O  O30  1  0.66295417  0.02025541  0.40929826  1
  O  O31  1  0.83704583  0.52025541  0.59070174  1
  O  O32  1  0.33704583  0.97974459  0.59070174  1
  O  O33  1  0.16295417  0.47974459  0.40929826  1
  O  O34  1  0.52666544  0.26491327  0.44453643  1
  O  O35  1  0.97333456  0.76491327  0.55546357  1
  O  O36  1  0.47333456  0.73508673  0.55546357  1
  O  O37  1  0.02666544  0.23508673  0.44453643  1
