# generated using pymatgen
data_Tb2FeSi2
_symmetry_space_group_name_H-M   'P 1'
_cell_length_a   4.14860575
_cell_length_b   5.69023733
_cell_length_c   8.96835378
_cell_angle_alpha   83.06144694
_cell_angle_beta   76.62688765
_cell_angle_gamma   68.62089933
_symmetry_Int_Tables_number   1
_chemical_formula_structural   Tb2FeSi2
_chemical_formula_sum   'Tb4 Fe2 Si4'
_cell_volume   191.64246533
_cell_formula_units_Z   2
loop_
 _symmetry_equiv_pos_site_id
 _symmetry_equiv_pos_as_xyz
  1  'x, y, z'
loop_
 _atom_site_type_symbol
 _atom_site_label
 _atom_site_symmetry_multiplicity
 _atom_site_fract_x
 _atom_site_fract_y
 _atom_site_fract_z
 _atom_site_occupancy
  Si  Si0  1  0.50193334  0.12345351  0.87267980  1
  Si  Si1  1  0.49806666  0.87654649  0.12732020  1
  Si  Si2  1  0.34262924  0.75048900  0.56425253  1
  Si  Si3  1  0.65737076  0.24951100  0.43574747  1
  Fe  Fe4  1  0.72763527  0.92156690  0.62316257  1
  Fe  Fe5  1  0.27236473  0.07843310  0.37683743  1
  Tb  Tb6  1  0.18882385  0.73077100  0.89158130  1
  Tb  Tb7  1  0.81117615  0.26922900  0.10841870  1
  Tb  Tb8  1  0.99855796  0.33048922  0.67239485  1
  Tb  Tb9  1  0.00144204  0.66951078  0.32760515  1
