# generated using pymatgen
data_Tb5Br8
_symmetry_space_group_name_H-M   'P 1'
_cell_length_a   3.94262092
_cell_length_b   10.36540691
_cell_length_c   10.76658906
_cell_angle_alpha   83.84709121
_cell_angle_beta   79.44990304
_cell_angle_gamma   79.03661320
_symmetry_Int_Tables_number   1
_chemical_formula_structural   Tb5Br8
_chemical_formula_sum   'Tb5 Br8'
_cell_volume   423.46886323
_cell_formula_units_Z   1
loop_
 _symmetry_equiv_pos_site_id
 _symmetry_equiv_pos_as_xyz
  1  'x, y, z'
loop_
 _atom_site_type_symbol
 _atom_site_label
 _atom_site_symmetry_multiplicity
 _atom_site_fract_x
 _atom_site_fract_y
 _atom_site_fract_z
 _atom_site_occupancy
  Br  Br0  1  0.03243599  0.16557998  0.76954804  1
  Br  Br1  1  0.96756401  0.83442002  0.23045196  1
  Br  Br2  1  0.70305259  0.16825266  0.42564216  1
  Br  Br3  1  0.29694741  0.83174734  0.57435784  1
  Br  Br4  1  0.36673217  0.16409467  0.10244100  1
  Br  Br5  1  0.32738185  0.51358159  0.83165470  1
  Br  Br6  1  0.67261815  0.48641841  0.16834530  1
  Br  Br7  1  0.63326783  0.83590533  0.89755900  1
  Tb  Tb8  1  0.14118710  0.37002865  0.34759715  1
  Tb  Tb9  1  0.85881290  0.62997135  0.65240285  1
  Tb  Tb10  1  0.48549683  0.65243182  0.37657451  1
  Tb  Tb11  1  0.51450317  0.34756818  0.62342549  1
  Tb  Tb12  1  0.00000000  0.00000000  0.00000000  1
