# generated using pymatgen
data_K2Mo9S11
_symmetry_space_group_name_H-M   'P 1'
_cell_length_a   13.22665302
_cell_length_b   13.22665301
_cell_length_c   13.22665302
_cell_angle_alpha   41.65874742
_cell_angle_beta   41.65874742
_cell_angle_gamma   41.65874742
_symmetry_Int_Tables_number   1
_chemical_formula_structural   K2Mo9S11
_chemical_formula_sum   'K4 Mo18 S22'
_cell_volume   924.14089898
_cell_formula_units_Z   2
loop_
 _symmetry_equiv_pos_site_id
 _symmetry_equiv_pos_as_xyz
  1  'x, y, z'
loop_
 _atom_site_type_symbol
 _atom_site_label
 _atom_site_symmetry_multiplicity
 _atom_site_fract_x
 _atom_site_fract_y
 _atom_site_fract_z
 _atom_site_occupancy
  S  S0  1  0.05346137  0.44653863  0.75000000  1
  S  S1  1  0.21392334  0.48344672  0.87886186  1
  S  S2  1  0.75000000  0.05346137  0.44653863  1
  S  S3  1  0.87886186  0.21392334  0.48344672  1
  S  S4  1  0.63618565  0.63618565  0.63618565  1
  S  S5  1  0.86381435  0.86381435  0.86381435  1
  S  S6  1  0.36381435  0.36381435  0.36381435  1
  S  S7  1  0.13618565  0.13618565  0.13618565  1
  S  S8  1  0.71392334  0.37886186  0.98344672  1
  S  S9  1  0.37886186  0.98344672  0.71392334  1
  S  S10  1  0.98344672  0.71392334  0.37886186  1
  S  S11  1  0.51655328  0.12113814  0.78607666  1
  S  S12  1  0.12113814  0.78607666  0.51655328  1
  S  S13  1  0.78607666  0.51655328  0.12113814  1
  S  S14  1  0.28607666  0.62113814  0.01655328  1
  S  S15  1  0.62113814  0.01655328  0.28607666  1
  S  S16  1  0.01655328  0.28607666  0.62113814  1
  S  S17  1  0.48344672  0.87886186  0.21392334  1
  S  S18  1  0.55346137  0.25000000  0.94653863  1
  S  S19  1  0.94653863  0.55346137  0.25000000  1
  S  S20  1  0.25000000  0.94653863  0.55346137  1
  S  S21  1  0.44653863  0.75000000  0.05346137  1
  K  K22  1  0.55357226  0.55357226  0.55357226  1
  K  K23  1  0.44642774  0.44642774  0.44642774  1
  K  K24  1  0.94642774  0.94642774  0.94642774  1
  K  K25  1  0.05357226  0.05357226  0.05357226  1
  Mo  Mo26  1  0.85577305  0.52825849  0.67693103  1
  Mo  Mo27  1  0.52825849  0.67693103  0.85577305  1
  Mo  Mo28  1  0.67693103  0.85577305  0.52825849  1
  Mo  Mo29  1  0.82306897  0.97174151  0.64422695  1
  Mo  Mo30  1  0.97174151  0.64422695  0.82306897  1
  Mo  Mo31  1  0.64422695  0.82306897  0.97174151  1
  Mo  Mo32  1  0.14422695  0.47174151  0.32306897  1
  Mo  Mo33  1  0.47174151  0.32306897  0.14422695  1
  Mo  Mo34  1  0.32306897  0.14422695  0.47174151  1
  Mo  Mo35  1  0.17693103  0.02825849  0.35577305  1
  Mo  Mo36  1  0.02825849  0.35577305  0.17693103  1
  Mo  Mo37  1  0.35577305  0.17693103  0.02825849  1
  Mo  Mo38  1  0.58236658  0.91763342  0.75000000  1
  Mo  Mo39  1  0.91763342  0.75000000  0.58236658  1
  Mo  Mo40  1  0.75000000  0.58236658  0.91763342  1
  Mo  Mo41  1  0.41763342  0.08236658  0.25000000  1
  Mo  Mo42  1  0.08236658  0.25000000  0.41763342  1
  Mo  Mo43  1  0.25000000  0.41763342  0.08236658  1
