# generated using pymatgen
data_Li3Co3(PO4)4
_symmetry_space_group_name_H-M   'P 1'
_cell_length_a   14.48058332
_cell_length_b   4.99913684
_cell_length_c   8.25948510
_cell_angle_alpha   90.00000000
_cell_angle_beta   100.54542351
_cell_angle_gamma   90.00000000
_symmetry_Int_Tables_number   1
_chemical_formula_structural   Li3Co3(PO4)4
_chemical_formula_sum   'Li6 Co6 P8 O32'
_cell_volume   587.80899008
_cell_formula_units_Z   2
loop_
 _symmetry_equiv_pos_site_id
 _symmetry_equiv_pos_as_xyz
  1  'x, y, z'
loop_
 _atom_site_type_symbol
 _atom_site_label
 _atom_site_symmetry_multiplicity
 _atom_site_fract_x
 _atom_site_fract_y
 _atom_site_fract_z
 _atom_site_occupancy
  Li  Li0  1  0.12182226  0.49407109  0.82767536  1
  Li  Li1  1  0.87817777  0.50592799  0.17232508  1
  Li  Li2  1  0.62182170  0.00592945  0.32767442  1
  Li  Li3  1  0.49999966  0.50000053  0.49999950  1
  Li  Li4  1  0.37817762  0.99407162  0.67232458  1
  Li  Li5  1  0.00000000  0.00000000  0.00000000  1
  O  O6  1  0.37371678  0.21728693  0.89284730  1
  O  O7  1  0.98017156  0.46765699  0.73929469  1
  O  O8  1  0.74154981  0.39991095  0.06855948  1
  O  O9  1  0.87371693  0.28271360  0.39284780  1
  O  O10  1  0.93021156  0.81222331  0.47556522  1
  O  O11  1  0.84323278  0.90329326  0.18798568  1
  O  O12  1  0.15676725  0.09670581  0.81201355  1
  O  O13  1  0.06978846  0.18777577  0.52443401  1
  O  O14  1  0.12628309  0.71728547  0.60715264  1
  O  O15  1  0.25845022  0.60008812  0.93143975  1
  O  O16  1  0.01982846  0.53234408  0.26070575  1
  O  O17  1  0.24155036  0.10008959  0.56856041  1
  O  O18  1  0.30075513  0.03869937  0.18901069  1
  O  O19  1  0.43021142  0.68777630  0.97556593  1
  O  O20  1  0.10956984  0.20826696  0.10776869  1
  O  O21  1  0.34323263  0.59670634  0.68798639  1
  O  O22  1  0.62628324  0.78271414  0.10715193  1
  O  O23  1  0.10353727  0.70069725  0.04217794  1
  O  O24  1  0.39646239  0.20069871  0.45782156  1
  O  O25  1  0.51982813  0.96765553  0.76070525  1
  O  O26  1  0.75844966  0.89991148  0.43144003  1
  O  O27  1  0.39043052  0.70826550  0.39223225  1
  O  O28  1  0.60956951  0.29173357  0.60776819  1
  O  O29  1  0.69924490  0.96129970  0.81098854  1
  O  O30  1  0.48017190  0.03234355  0.23929398  1
  O  O31  1  0.60353763  0.79930236  0.54217767  1
  O  O32  1  0.89646276  0.29930183  0.95782249  1
  O  O33  1  0.80075479  0.46130116  0.68901140  1
  O  O34  1  0.65676740  0.40329273  0.31201405  1
  O  O35  1  0.89043018  0.79173411  0.89223175  1
  O  O36  1  0.56978861  0.31222477  0.02443451  1
  O  O37  1  0.19924453  0.53869991  0.31098881  1
  P  P38  1  0.35100108  0.51700438  0.87571831  1
  P  P39  1  0.10718726  0.48796787  0.18344301  1
  P  P40  1  0.39281240  0.98796640  0.31655770  1
  P  P41  1  0.60718762  0.01203267  0.68344274  1
  P  P42  1  0.89281277  0.51203320  0.81655743  1
  P  P43  1  0.64899825  0.48299668  0.12428190  1
  P  P44  1  0.14899880  0.01700385  0.62428162  1
  P  P45  1  0.85100122  0.98299522  0.37571761  1
  Co  Co46  1  0.70734786  0.55286514  0.52155432  1
  Co  Co47  1  0.50000025  0.00000000  0.99999951  1
  Co  Co48  1  0.79265252  0.05286460  0.97844463  1
  Co  Co49  1  0.20734750  0.94713647  0.02155460  1
  Co  Co50  1  0.29265216  0.44713593  0.47844490  1
  Co  Co51  1  0.00000011  0.50000053  0.50000022  1
