# generated using pymatgen
data_PdSCl
_symmetry_space_group_name_H-M   'P 1'
_cell_length_a   8.29800741
_cell_length_b   9.71543763
_cell_length_c   12.68351839
_cell_angle_alpha   90.00000000
_cell_angle_beta   90.00000000
_cell_angle_gamma   111.57879762
_symmetry_Int_Tables_number   1
_chemical_formula_structural   PdSCl
_chemical_formula_sum   'Pd12 S12 Cl12'
_cell_volume   950.86329683
_cell_formula_units_Z   12
loop_
 _symmetry_equiv_pos_site_id
 _symmetry_equiv_pos_as_xyz
  1  'x, y, z'
loop_
 _atom_site_type_symbol
 _atom_site_label
 _atom_site_symmetry_multiplicity
 _atom_site_fract_x
 _atom_site_fract_y
 _atom_site_fract_z
 _atom_site_occupancy
  S  S0  1  0.02698859  0.60303585  0.12771545  1
  S  S1  1  0.14507574  0.31886740  0.54310463  1
  S  S2  1  0.85492426  0.68113260  0.04310463  1
  S  S3  1  0.97301141  0.39696415  0.62771545  1
  S  S4  1  0.85492426  0.68113260  0.45689537  1
  S  S5  1  0.02698859  0.60303585  0.37228455  1
  S  S6  1  0.97301141  0.39696415  0.87228455  1
  S  S7  1  0.60287705  0.79523248  0.33412932  1
  S  S8  1  0.39712295  0.20476752  0.83412932  1
  S  S9  1  0.39712295  0.20476752  0.66587068  1
  S  S10  1  0.60287705  0.79523248  0.16587068  1
  S  S11  1  0.14507574  0.31886740  0.95689537  1
  Cl  Cl12  1  0.63982678  0.32817710  0.38958481  1
  Cl  Cl13  1  0.63982678  0.32817710  0.11041519  1
  Cl  Cl14  1  0.36017322  0.67182290  0.61041519  1
  Cl  Cl15  1  0.35406293  0.45690186  0.25000000  1
  Cl  Cl16  1  0.64593707  0.54309814  0.75000000  1
  Cl  Cl17  1  0.79327785  0.02798400  0.88927043  1
  Cl  Cl18  1  0.08039716  0.89905661  0.75000000  1
  Cl  Cl19  1  0.20672215  0.97201600  0.11072957  1
  Cl  Cl20  1  0.79327785  0.02798400  0.61072957  1
  Cl  Cl21  1  0.91960284  0.10094339  0.25000000  1
  Cl  Cl22  1  0.36017322  0.67182290  0.88958481  1
  Cl  Cl23  1  0.20672215  0.97201600  0.38927043  1
  Pd  Pd24  1  0.89726570  0.89722891  0.36559509  1
  Pd  Pd25  1  0.10273430  0.10277109  0.86559509  1
  Pd  Pd26  1  0.10273430  0.10277109  0.63440491  1
  Pd  Pd27  1  0.89726570  0.89722891  0.13440491  1
  Pd  Pd28  1  0.60083882  0.56046402  0.36598365  1
  Pd  Pd29  1  0.39916118  0.43953598  0.86598365  1
  Pd  Pd30  1  0.39916118  0.43953598  0.63401635  1
  Pd  Pd31  1  0.60083882  0.56046402  0.13401635  1
  Pd  Pd32  1  0.13442758  0.79036586  0.25000000  1
  Pd  Pd33  1  0.86557242  0.20963414  0.75000000  1
  Pd  Pd34  1  0.83750078  0.45308312  0.25000000  1
  Pd  Pd35  1  0.16249922  0.54691688  0.75000000  1
