# generated using pymatgen
data_LiFe(PO3)4
_symmetry_space_group_name_H-M   'P 1'
_cell_length_a   7.31629944
_cell_length_b   7.31629942
_cell_length_c   9.85023908
_cell_angle_alpha   82.33072395
_cell_angle_beta   69.00160645
_cell_angle_gamma   109.74738759
_symmetry_Int_Tables_number   1
_chemical_formula_structural   LiFe(PO3)4
_chemical_formula_sum   'Li2 Fe2 P8 O24'
_cell_volume   443.43861556
_cell_formula_units_Z   2
loop_
 _symmetry_equiv_pos_site_id
 _symmetry_equiv_pos_as_xyz
  1  'x, y, z'
loop_
 _atom_site_type_symbol
 _atom_site_label
 _atom_site_symmetry_multiplicity
 _atom_site_fract_x
 _atom_site_fract_y
 _atom_site_fract_z
 _atom_site_occupancy
  Li  Li0  1  0.21700421  0.96700476  0.75000044  1
  Li  Li1  1  0.78299535  0.03299517  0.25000026  1
  O  O2  1  0.57602647  0.78213883  0.93077562  1
  O  O3  1  0.95954098  0.34425177  0.84992104  1
  O  O4  1  0.04045858  0.65574817  0.15007864  1
  O  O5  1  0.11274048  0.80788893  0.56975973  1
  O  O6  1  0.19413365  0.67443318  0.33941347  1
  O  O7  1  0.50181278  0.84869541  0.40652346  1
  O  O8  1  0.29678472  0.69995581  0.83180456  1
  O  O9  1  0.12235098  0.31750014  0.06975965  1
  O  O10  1  0.21291512  0.50680205  0.56922457  1
  O  O11  1  0.75521960  0.90833662  0.09347606  1
  O  O12  1  0.48615327  0.46645278  0.83941287  1
  O  O13  1  0.51384629  0.53354716  0.16058681  1
  O  O14  1  0.69417365  0.80946308  0.65007920  1
  O  O15  1  0.03176111  0.12858944  0.66819529  1
  O  O16  1  0.80586591  0.32556676  0.66058723  1
  O  O17  1  0.30582591  0.19053686  0.34992150  1
  O  O18  1  0.88725908  0.19211100  0.43024096  1
  O  O19  1  0.42397455  0.21786110  0.06922469  1
  O  O20  1  0.24478142  0.09166331  0.90652425  1
  O  O21  1  0.78708444  0.49319788  0.43077612  1
  O  O22  1  0.87764857  0.68249979  0.93024003  1
  O  O23  1  0.70321484  0.30004413  0.16819614  1
  O  O24  1  0.49818824  0.15130452  0.59347583  1
  O  O25  1  0.96823991  0.87141049  0.33180502  1
  P  P26  1  0.29783102  0.25967005  0.97211141  1
  P  P27  1  0.73178048  0.26994195  0.52788924  1
  P  P28  1  0.99884340  0.68186462  0.30467604  1
  P  P29  1  0.26821908  0.73005798  0.47211145  1
  P  P30  1  0.70216854  0.74032988  0.02788929  1
  P  P31  1  0.51345967  0.69648014  0.80467582  1
  P  P32  1  0.48653989  0.30351980  0.19532386  1
  P  P33  1  0.00115616  0.31813531  0.69532466  1
  Fe  Fe34  1  0.99999965  0.00000014  0.50000006  1
  Fe  Fe35  1  0.00000022  0.49999929  0.99999951  1
