# generated using pymatgen
data_LiCr(PO3)4
_symmetry_space_group_name_H-M   'P 1'
_cell_length_a   8.49345908
_cell_length_b   8.49345908
_cell_length_c   7.71034773
_cell_angle_alpha   82.36678628
_cell_angle_beta   97.63321364
_cell_angle_gamma   67.52847856
_symmetry_Int_Tables_number   1
_chemical_formula_structural   LiCr(PO3)4
_chemical_formula_sum   'Li2 Cr2 P8 O24'
_cell_volume   499.08645409
_cell_formula_units_Z   2
loop_
 _symmetry_equiv_pos_site_id
 _symmetry_equiv_pos_as_xyz
  1  'x, y, z'
loop_
 _atom_site_type_symbol
 _atom_site_label
 _atom_site_symmetry_multiplicity
 _atom_site_fract_x
 _atom_site_fract_y
 _atom_site_fract_z
 _atom_site_occupancy
  Li  Li0  1  0.51234869  0.17994402  0.22624813  1
  Li  Li1  1  0.82005677  0.48765100  0.72624801  1
  O  O2  1  0.37526509  0.34023609  0.01499664  1
  O  O3  1  0.99600233  0.74191951  0.51534568  1
  O  O4  1  0.11438987  0.12893312  0.26281045  1
  O  O5  1  0.09184895  0.36246553  0.81746719  1
  O  O6  1  0.25808056  0.00399802  0.01534592  1
  O  O7  1  0.15169212  0.62806433  0.83760191  1
  O  O8  1  0.35727134  0.10088165  0.69728294  1
  O  O9  1  0.09131872  0.85469041  0.18120940  1
  O  O10  1  0.14530957  0.90868160  0.68120907  1
  O  O11  1  0.32696363  0.41249046  0.67365634  1
  O  O12  1  0.65976368  0.62473490  0.51499634  1
  O  O13  1  0.40588119  0.26601402  0.41323668  1
  O  O14  1  0.62071266  0.17566731  0.69869692  1
  O  O15  1  0.37193573  0.84830784  0.33760090  1
  O  O16  1  0.89911893  0.64272830  0.19728334  1
  O  O17  1  0.58751057  0.67303600  0.17365551  1
  O  O18  1  0.87106680  0.88561035  0.76281013  1
  O  O19  1  0.84440526  0.09429904  0.34392325  1
  O  O20  1  0.73398603  0.59411797  0.91323783  1
  O  O21  1  0.90570093  0.15559438  0.84392302  1
  O  O22  1  0.63753365  0.90815167  0.31746726  1
  O  O23  1  0.82433329  0.37928715  0.19869731  1
  O  O24  1  0.99077630  0.26036511  0.51644751  1
  O  O25  1  0.73963486  0.00922315  0.01644786  1
  P  P26  1  0.57814785  0.75868926  0.34997564  1
  P  P27  1  0.76859172  0.58129787  0.10817112  1
  P  P28  1  0.04392601  0.79702284  0.68493707  1
  P  P29  1  0.24130986  0.42185208  0.84997525  1
  P  P30  1  0.41870110  0.23140873  0.60817064  1
  P  P31  1  0.20297717  0.95607421  0.18493732  1
  P  P32  1  0.78863560  0.05803676  0.84278549  1
  P  P33  1  0.94196355  0.21136445  0.34278450  1
  Cr  Cr34  1  0.87454409  0.86907479  0.26287035  1
  Cr  Cr35  1  0.13092549  0.12545586  0.76287142  1
