# generated using pymatgen
data_ZnC4(NO3)2
_symmetry_space_group_name_H-M   'P 1'
_cell_length_a   8.50541426
_cell_length_b   9.01791183
_cell_length_c   13.29111557
_cell_angle_alpha   90.00000000
_cell_angle_beta   90.00000000
_cell_angle_gamma   90.00000000
_symmetry_Int_Tables_number   1
_chemical_formula_structural   ZnC4(NO3)2
_chemical_formula_sum   'Zn4 C16 N8 O24'
_cell_volume   1019.44286379
_cell_formula_units_Z   4
loop_
 _symmetry_equiv_pos_site_id
 _symmetry_equiv_pos_as_xyz
  1  'x, y, z'
loop_
 _atom_site_type_symbol
 _atom_site_label
 _atom_site_symmetry_multiplicity
 _atom_site_fract_x
 _atom_site_fract_y
 _atom_site_fract_z
 _atom_site_occupancy
  Zn  Zn0  1  0.47568161  0.48619277  0.25898735  1
  Zn  Zn1  1  0.47568161  0.51380723  0.74101265  1
  Zn  Zn2  1  0.97568161  0.98619277  0.24101265  1
  Zn  Zn3  1  0.97568161  0.01380723  0.75898735  1
  C  C4  1  0.24960281  0.23126245  0.30461285  1
  C  C5  1  0.24960281  0.76873755  0.69538715  1
  C  C6  1  0.74960281  0.73126245  0.19538715  1
  C  C7  1  0.74960281  0.26873755  0.80461285  1
  C  C8  1  0.24351926  0.74276925  0.30441471  1
  C  C9  1  0.24351926  0.25723075  0.69558529  1
  C  C10  1  0.74351926  0.24276925  0.19558529  1
  C  C11  1  0.74351926  0.75723075  0.80441471  1
  C  C12  1  0.88545656  -0.00000000  0.50000000  1
  C  C13  1  0.38545656  0.50000000  0.00000000  1
  C  C14  1  0.62240913  0.50000000  0.50000000  1
  C  C15  1  0.12240913  -0.00000000  0.00000000  1
  C  C16  1  0.99649536  0.50000000  0.00000000  1
  C  C17  1  0.49649536  -0.00000000  0.50000000  1
  C  C18  1  0.49737394  -0.00000000  0.00000000  1
  C  C19  1  0.99737394  0.50000000  0.50000000  1
  N  N20  1  0.35672038  0.31620168  0.30732472  1
  N  N21  1  0.35672038  0.68379832  0.69267528  1
  N  N22  1  0.85672038  0.81620168  0.19267528  1
  N  N23  1  0.85672038  0.18379832  0.80732472  1
  N  N24  1  0.34415973  0.65179350  0.29884603  1
  N  N25  1  0.34415973  0.34820650  0.70115397  1
  N  N26  1  0.84415973  0.15179350  0.20115397  1
  N  N27  1  0.84415973  0.84820650  0.79884603  1
  O  O28  1  0.14250271  0.14211714  0.30732223  1
  O  O29  1  0.14250271  0.85788286  0.69267777  1
  O  O30  1  0.64250271  0.64211714  0.19267777  1
  O  O31  1  0.64250271  0.35788286  0.80732223  1
  O  O32  1  0.14221485  0.83706780  0.31513712  1
  O  O33  1  0.14221485  0.16293220  0.68486288  1
  O  O34  1  0.64221485  0.33706780  0.18486288  1
  O  O35  1  0.64221485  0.66293220  0.81513712  1
  O  O36  1  0.38176128  0.48183089  0.08724697  1
  O  O37  1  0.38176128  0.51816911  0.91275303  1
  O  O38  1  0.88176128  0.98183089  0.41275303  1
  O  O39  1  0.88176128  0.01816911  0.58724697  1
  O  O40  1  0.12643633  0.99056288  0.08794305  1
  O  O41  1  0.12643633  0.00943712  0.91205695  1
  O  O42  1  0.62643633  0.49056288  0.41205695  1
  O  O43  1  0.62643633  0.50943712  0.58794305  1
  O  O44  1  0.49792590  0.90513921  0.43927532  1
  O  O45  1  0.49792590  0.09486079  0.56072468  1
  O  O46  1  0.99792590  0.40513921  0.06072468  1
  O  O47  1  0.99792590  0.59486079  0.93927532  1
  O  O48  1  0.49535765  0.90233720  0.05865312  1
  O  O49  1  0.49535765  0.09766280  0.94134688  1
  O  O50  1  0.99535765  0.40233720  0.44134688  1
  O  O51  1  0.99535765  0.59766280  0.55865312  1
