# generated using pymatgen
data_Li3Mn2(PO4)3
_symmetry_space_group_name_H-M   'P 1'
_cell_length_a   8.76953199
_cell_length_b   8.76927184
_cell_length_c   6.22822641
_cell_angle_alpha   74.72608863
_cell_angle_beta   105.27574719
_cell_angle_gamma   81.58823993
_symmetry_Int_Tables_number   1
_chemical_formula_structural   Li3Mn2(PO4)3
_chemical_formula_sum   'Li6 Mn4 P6 O24'
_cell_volume   433.58512217
_cell_formula_units_Z   2
loop_
 _symmetry_equiv_pos_site_id
 _symmetry_equiv_pos_as_xyz
  1  'x, y, z'
loop_
 _atom_site_type_symbol
 _atom_site_label
 _atom_site_symmetry_multiplicity
 _atom_site_fract_x
 _atom_site_fract_y
 _atom_site_fract_z
 _atom_site_occupancy
  Li  Li0  1  0.69845226  0.69843867  0.75000441  1
  Li  Li1  1  0.97889947  0.97889677  0.75002731  1
  Li  Li2  1  0.49999912  0.50000170  0.50000038  1
  Li  Li3  1  0.02110169  0.02110038  0.24997391  1
  Li  Li4  1  0.30154831  0.30156214  0.24999652  1
  Li  Li5  1  0.50000128  0.50000011  0.00000055  1
  O  O6  1  0.14466523  0.85170587  0.09155154  1
  O  O7  1  0.85169801  0.14464020  0.40845318  1
  O  O8  1  0.61699611  0.04742211  0.18166311  1
  O  O9  1  0.66539841  0.01597495  0.60116315  1
  O  O10  1  0.01598653  0.66542210  0.89879021  1
  O  O11  1  0.14830231  0.85535847  0.59154735  1
  O  O12  1  0.38300369  0.95257818  0.81833680  1
  O  O13  1  0.33460177  0.98402516  0.39883714  1
  O  O14  1  0.98401430  0.33457747  0.10120896  1
  O  O15  1  0.04741325  0.61702192  0.31828513  1
  O  O16  1  0.44905418  0.70001890  0.70638534  1
  O  O17  1  0.26060633  0.46711336  0.76771964  1
  O  O18  1  0.29998303  0.55094097  0.20638271  1
  O  O19  1  0.27286981  0.18198974  0.97787199  1
  O  O20  1  0.85533461  0.14829334  0.90844959  1
  O  O21  1  0.18198624  0.27285465  0.52214949  1
  O  O22  1  0.81801393  0.72714442  0.47785087  1
  O  O23  1  0.46709815  0.26063369  0.73226381  1
  O  O24  1  0.72712977  0.81801110  0.02212837  1
  O  O25  1  0.70001686  0.44905808  0.79361888  1
  O  O26  1  0.73939362  0.53288707  0.23228011  1
  O  O27  1  0.55094617  0.29998131  0.29361480  1
  O  O28  1  0.95258555  0.38297677  0.68171378  1
  O  O29  1  0.53290124  0.73936698  0.26773554  1
  P  P30  1  0.66966551  0.13663741  0.36815716  1
  P  P31  1  0.86336495  0.33031511  0.86819102  1
  P  P32  1  0.70785256  0.70784160  0.24999956  1
  P  P33  1  0.29214756  0.29215837  0.75000046  1
  P  P34  1  0.33033530  0.86336209  0.63184350  1
  P  P35  1  0.13663493  0.66968432  0.13180882  1
  Mn  Mn36  1  0.05480046  0.63462812  0.62206889  1
  Mn  Mn37  1  0.36542614  0.94520662  0.12214191  1
  Mn  Mn38  1  0.63457475  0.05479490  0.87785725  1
  Mn  Mn39  1  0.94519728  0.36537158  0.37792806  1
