# generated using pymatgen
data_LiCo(PO3)4
_symmetry_space_group_name_H-M   'P 1'
_cell_length_a   8.47329733
_cell_length_b   8.47329733
_cell_length_c   7.65426692
_cell_angle_alpha   82.26085757
_cell_angle_beta   97.73914246
_cell_angle_gamma   67.47747243
_symmetry_Int_Tables_number   1
_chemical_formula_structural   LiCo(PO3)4
_chemical_formula_sum   'Li2 Co2 P8 O24'
_cell_volume   492.48977582
_cell_formula_units_Z   2
loop_
 _symmetry_equiv_pos_site_id
 _symmetry_equiv_pos_as_xyz
  1  'x, y, z'
loop_
 _atom_site_type_symbol
 _atom_site_label
 _atom_site_symmetry_multiplicity
 _atom_site_fract_x
 _atom_site_fract_y
 _atom_site_fract_z
 _atom_site_occupancy
  Li  Li0  1  0.52879578  0.17736932  0.22789071  1
  Li  Li1  1  0.82263151  0.47120370  0.72789159  1
  O  O2  1  0.38209246  0.33918304  0.01468663  1
  O  O3  1  0.99427364  0.74546017  0.51522116  1
  O  O4  1  0.11199682  0.12594099  0.26731700  1
  O  O5  1  0.09514248  0.36206553  0.82088515  1
  O  O6  1  0.25453998  0.00572688  0.01522042  1
  O  O7  1  0.15543374  0.62936671  0.83879377  1
  O  O8  1  0.35761388  0.10045431  0.69394392  1
  O  O9  1  0.08857715  0.85283787  0.17976984  1
  O  O10  1  0.14716259  0.91142252  0.67976933  1
  O  O11  1  0.32556374  0.41415717  0.66994983  1
  O  O12  1  0.66081697  0.61790691  0.51468740  1
  O  O13  1  0.40531773  0.26656633  0.40827854  1
  O  O14  1  0.62062490  0.17746713  0.69706472  1
  O  O15  1  0.37063371  0.84456545  0.33879326  1
  O  O16  1  0.89954524  0.64238668  0.19394440  1
  O  O17  1  0.58584312  0.67443573  0.16994926  1
  O  O18  1  0.87405933  0.88800274  0.76731649  1
  O  O19  1  0.73343335  0.59468263  0.90827782  1
  O  O20  1  0.83742589  0.09672476  0.34622737  1
  O  O21  1  0.90327521  0.16257467  0.84622667  1
  O  O22  1  0.63793492  0.90485763  0.32088581  1
  O  O23  1  0.82253291  0.37937542  0.19706530  1
  O  O24  1  0.98763200  0.26167313  0.51954256  1
  O  O25  1  0.73832702  0.01236861  0.01954311  1
  P  P26  1  0.57759100  0.75558447  0.35058752  1
  P  P27  1  0.76721976  0.58118018  0.10492361  1
  P  P28  1  0.04502047  0.80014512  0.68645862  1
  P  P29  1  0.24441604  0.42240876  0.85058701  1
  P  P30  1  0.41881911  0.23278092  0.60492280  1
  P  P31  1  0.19985466  0.95497865  0.18645802  1
  P  P32  1  0.78892550  0.06215803  0.84537203  1
  P  P33  1  0.93784203  0.21107441  0.34537266  1
  Co  Co34  1  0.87403551  0.86392399  0.26482115  1
  Co  Co35  1  0.13607553  0.12596395  0.76482184  1
