# generated using pymatgen
data_Fe3(P3O10)2
_symmetry_space_group_name_H-M   'P 1'
_cell_length_a   8.44075679
_cell_length_b   8.44075616
_cell_length_c   12.44374593
_cell_angle_alpha   90.00000000
_cell_angle_beta   90.00000000
_cell_angle_gamma   74.77205962
_symmetry_Int_Tables_number   1
_chemical_formula_structural   Fe3(P3O10)2
_chemical_formula_sum   'Fe6 P12 O40'
_cell_volume   855.44288261
_cell_formula_units_Z   2
loop_
 _symmetry_equiv_pos_site_id
 _symmetry_equiv_pos_as_xyz
  1  'x, y, z'
loop_
 _atom_site_type_symbol
 _atom_site_label
 _atom_site_symmetry_multiplicity
 _atom_site_fract_x
 _atom_site_fract_y
 _atom_site_fract_z
 _atom_site_occupancy
  Fe  Fe0  1  0.86131901  0.13868099  -0.00000000  1
  Fe  Fe1  1  0.70478901  0.70478901  0.75000000  1
  Fe  Fe2  1  0.13868099  0.86131901  0.50000000  1
  Fe  Fe3  1  0.29521099  0.29521099  0.25000000  1
  Fe  Fe4  1  0.24728190  0.24728190  0.75000000  1
  Fe  Fe5  1  0.75271810  0.75271810  0.25000000  1
  P  P6  1  0.26099276  0.14794777  0.01357590  1
  P  P7  1  0.17501754  0.69871995  0.27363509  1
  P  P8  1  0.36546625  0.90546863  0.17997254  1
  P  P9  1  0.73900724  0.85205223  0.51357590  1
  P  P10  1  0.90546863  0.36546625  0.32002746  1
  P  P11  1  0.85205223  0.73900724  0.98642410  1
  P  P12  1  0.30128005  0.82498246  0.72636491  1
  P  P13  1  0.69871995  0.17501754  0.22636491  1
  P  P14  1  0.63453375  0.09453137  0.67997254  1
  P  P15  1  0.14794777  0.26099276  0.48642410  1
  P  P16  1  0.09453137  0.63453375  0.82002746  1
  P  P17  1  0.82498246  0.30128005  0.77363509  1
  O  O18  1  0.33176577  0.05138757  0.25456391  1
  O  O19  1  0.92115727  0.84892651  0.51758689  1
  O  O20  1  0.64062089  0.03487668  0.55693894  1
  O  O21  1  0.26612863  0.53257365  0.23104490  1
  O  O22  1  0.32321631  0.16217070  0.90042449  1
  O  O23  1  0.46742635  0.73387137  0.76895510  1
  O  O24  1  0.53257365  0.26612863  0.26895510  1
  O  O25  1  0.84892651  0.92115727  0.98241311  1
  O  O26  1  0.03487668  0.64062089  0.94306106  1
  O  O27  1  0.99046981  0.73035481  0.28501517  1
  O  O28  1  0.74171524  0.24614014  0.11900664  1
  O  O29  1  0.00953019  0.26964519  0.78501517  1
  O  O30  1  0.21031787  0.82846674  0.18529836  1
  O  O31  1  0.30632388  0.27206532  0.08888131  1
  O  O32  1  0.69367612  0.72793468  0.58888131  1
  O  O33  1  0.07884273  0.15107349  0.01758689  1
  O  O34  1  0.22694989  0.47808540  0.80168429  1
  O  O35  1  0.16217070  0.32321631  0.59957551  1
  O  O36  1  0.75385986  0.25828476  0.88099336  1
  O  O37  1  0.72793468  0.69367612  0.91111869  1
  O  O38  1  0.73035481  0.99046981  0.21498483  1
  O  O39  1  0.47808540  0.22694989  0.69831571  1
  O  O40  1  0.26964519  0.00953019  0.71498483  1
  O  O41  1  0.77305011  0.52191460  0.30168429  1
  O  O42  1  0.27206532  0.30632388  0.41111869  1
  O  O43  1  0.25828476  0.75385986  0.61900664  1
  O  O44  1  0.24614014  0.74171524  0.38099336  1
  O  O45  1  0.82846674  0.21031787  0.31470164  1
  O  O46  1  0.94861243  0.66823423  0.74543609  1
  O  O47  1  0.35937911  0.96512332  0.05693894  1
  O  O48  1  0.15107349  0.07884273  0.48241311  1
  O  O49  1  0.52191460  0.77305011  0.19831571  1
  O  O50  1  0.17153326  0.78968213  0.81470164  1
  O  O51  1  0.78968213  0.17153326  0.68529836  1
  O  O52  1  0.96512332  0.35937911  0.44306106  1
  O  O53  1  0.73387137  0.46742635  0.73104490  1
  O  O54  1  0.67678369  0.83782930  0.40042449  1
  O  O55  1  0.05138757  0.33176577  0.24543609  1
  O  O56  1  0.83782930  0.67678369  0.09957551  1
  O  O57  1  0.66823423  0.94861243  0.75456391  1
