# generated using pymatgen
data_Mn4(PO4)3
_symmetry_space_group_name_H-M   'P 1'
_cell_length_a   8.96051236
_cell_length_b   8.96051244
_cell_length_c   6.46573903
_cell_angle_alpha   73.00697092
_cell_angle_beta   106.99302920
_cell_angle_gamma   84.76328385
_symmetry_Int_Tables_number   1
_chemical_formula_structural   Mn4(PO4)3
_chemical_formula_sum   'Mn8 P6 O24'
_cell_volume   465.85388149
_cell_formula_units_Z   2
loop_
 _symmetry_equiv_pos_site_id
 _symmetry_equiv_pos_as_xyz
  1  'x, y, z'
loop_
 _atom_site_type_symbol
 _atom_site_label
 _atom_site_symmetry_multiplicity
 _atom_site_fract_x
 _atom_site_fract_y
 _atom_site_fract_z
 _atom_site_occupancy
  Mn  Mn0  1  0.94132051  0.35049261  0.38733389  1
  Mn  Mn1  1  0.35422741  0.94343704  0.11003019  1
  Mn  Mn2  1  0.47531861  0.51575473  0.04388725  1
  Mn  Mn3  1  0.05656296  0.64577259  0.61003019  1
  Mn  Mn4  1  0.26776246  0.25921806  0.25832830  1
  Mn  Mn5  1  0.48424527  0.52468239  0.54388725  1
  Mn  Mn6  1  0.74078194  0.73223754  0.75832830  1
  Mn  Mn7  1  0.64950739  0.05867949  0.88733389  1
  P  P8  1  0.69925220  0.69597795  0.25017393  1
  P  P9  1  0.33823007  0.87116729  0.62920071  1
  P  P10  1  0.30402205  0.30074780  0.75017393  1
  P  P11  1  0.87189649  0.34303471  0.86611600  1
  P  P12  1  0.65696529  0.12810351  0.36611600  1
  P  P13  1  0.12883271  0.66176993  0.12920071  1
  O  O14  1  0.82681366  0.18183307  0.87991033  1
  O  O15  1  0.27951577  0.19365518  0.96701600  1
  O  O16  1  0.81816693  0.17318634  0.37991033  1
  O  O17  1  0.72538850  0.52609641  0.23306427  1
  O  O18  1  0.95958508  0.39347795  0.68694146  1
  O  O19  1  0.71897363  0.81029281  0.03236677  1
  O  O20  1  0.66227702  0.00684642  0.60096084  1
  O  O21  1  0.52401457  0.27921254  0.29563383  1
  O  O22  1  0.46951090  0.71428168  0.70362337  1
  O  O23  1  0.52425997  0.71469939  0.25674184  1
  O  O24  1  0.33747848  0.99025641  0.39760245  1
  O  O25  1  0.60652205  0.04041492  0.18694146  1
  O  O26  1  0.39037493  0.95571993  0.80908158  1
  O  O27  1  0.04428007  0.60962507  0.30908158  1
  O  O28  1  0.72078746  0.47598543  0.79563383  1
  O  O29  1  0.00974359  0.66252152  0.89760245  1
  O  O30  1  0.80634482  0.72048423  0.46701600  1
  O  O31  1  0.28530061  0.47574003  0.75674184  1
  O  O32  1  0.17423866  0.82285274  0.11282899  1
  O  O33  1  0.99315358  0.33772298  0.10096084  1
  O  O34  1  0.28571832  0.53048910  0.20362337  1
  O  O35  1  0.17714726  0.82576134  0.61282899  1
  O  O36  1  0.18970719  0.28102637  0.53236677  1
  O  O37  1  0.47390359  0.27461150  0.73306427  1
