# generated using pymatgen
data_LiMnPO4
_symmetry_space_group_name_H-M   'P 1'
_cell_length_a   5.09306121
_cell_length_b   5.09306121
_cell_length_c   6.35389404
_cell_angle_alpha   90.00000000
_cell_angle_beta   90.00000000
_cell_angle_gamma   67.04743965
_symmetry_Int_Tables_number   1
_chemical_formula_structural   LiMnPO4
_chemical_formula_sum   'Li2 Mn2 P2 O8'
_cell_volume   151.76663394
_cell_formula_units_Z   2
loop_
 _symmetry_equiv_pos_site_id
 _symmetry_equiv_pos_as_xyz
  1  'x, y, z'
loop_
 _atom_site_type_symbol
 _atom_site_label
 _atom_site_symmetry_multiplicity
 _atom_site_fract_x
 _atom_site_fract_y
 _atom_site_fract_z
 _atom_site_occupancy
  Li  Li0  1  0.33445356  0.33445225  0.75000003  1
  Li  Li1  1  0.66554766  0.66554735  0.25000001  1
  O  O2  1  0.25135800  0.25135714  0.04948382  1
  O  O3  1  0.74864323  0.74864246  0.54948385  1
  O  O4  1  0.74864323  0.74864246  0.95051622  1
  O  O5  1  0.25135800  0.25135714  0.45051620  1
  O  O6  1  0.24440830  0.68882872  0.25000001  1
  O  O7  1  0.75559095  0.31117088  0.75000003  1
  O  O8  1  0.68882807  0.24440794  0.25000001  1
  O  O9  1  0.31117119  0.75559166  0.75000003  1
  P  P10  1  0.64719272  0.64719180  0.75000003  1
  P  P11  1  0.35280653  0.35280780  0.25000001  1
  Mn  Mn12  1  0.00000000  0.00000000  0.00000000  1
  Mn  Mn13  1  0.00000000  0.00000000  0.50000002  1
