# generated using pymatgen
data_LiFeP2O7
_symmetry_space_group_name_H-M   'P 1'
_cell_length_a   6.41881195
_cell_length_b   6.36010031
_cell_length_c   6.91817527
_cell_angle_alpha   112.85911828
_cell_angle_beta   95.18196563
_cell_angle_gamma   82.04014124
_symmetry_Int_Tables_number   1
_chemical_formula_structural   LiFeP2O7
_chemical_formula_sum   'Li2 Fe2 P4 O14'
_cell_volume   257.53443451
_cell_formula_units_Z   2
loop_
 _symmetry_equiv_pos_site_id
 _symmetry_equiv_pos_as_xyz
  1  'x, y, z'
loop_
 _atom_site_type_symbol
 _atom_site_label
 _atom_site_symmetry_multiplicity
 _atom_site_fract_x
 _atom_site_fract_y
 _atom_site_fract_z
 _atom_site_occupancy
  Li  Li0  1  0.00358967  0.70615634  0.16605771  1
  Li  Li1  1  0.99641068  0.29384292  0.83394111  1
  O  O2  1  0.30839943  0.21575323  0.76366377  1
  O  O3  1  0.94782940  0.61143424  0.86134393  1
  O  O4  1  0.05217095  0.38856502  0.13865488  1
  O  O5  1  0.03091547  0.93696323  0.75993007  1
  O  O6  1  0.20776244  0.35246590  0.46851796  1
  O  O7  1  0.59194227  0.22401842  0.52928394  1
  O  O8  1  0.33298578  0.05302308  0.11824253  1
  O  O9  1  0.79223790  0.64753334  0.53148229  1
  O  O10  1  0.40805652  0.77598084  0.47071473  1
  O  O11  1  0.96908489  0.06303603  0.24006875  1
  O  O12  1  0.59793117  0.40481505  0.21384291  1
  O  O13  1  0.66701438  0.94697788  0.88175833  1
  O  O14  1  0.69160092  0.78424602  0.23633505  1
  O  O15  1  0.40206918  0.59518419  0.78615734  1
  P  P16  1  0.38933398  0.34439411  0.64405859  1
  P  P17  1  0.61066637  0.65560513  0.35594166  1
  P  P18  1  0.13478223  0.21381061  0.23040399  1
  P  P19  1  0.86521794  0.78619034  0.76959687  1
  Fe  Fe20  1  0.64797509  0.09731043  0.22271218  1
  Fe  Fe21  1  0.35202525  0.90268881  0.77728808  1
