# generated using pymatgen
data_Li2V3(P2O7)2
_symmetry_space_group_name_H-M   'P 1'
_cell_length_a   7.45947870
_cell_length_b   7.96733899
_cell_length_c   9.77017982
_cell_angle_alpha   90.00000000
_cell_angle_beta   110.26595673
_cell_angle_gamma   90.00000000
_symmetry_Int_Tables_number   1
_chemical_formula_structural   Li2V3(P2O7)2
_chemical_formula_sum   'Li4 V6 P8 O28'
_cell_volume   544.71722512
_cell_formula_units_Z   2
loop_
 _symmetry_equiv_pos_site_id
 _symmetry_equiv_pos_as_xyz
  1  'x, y, z'
loop_
 _atom_site_type_symbol
 _atom_site_label
 _atom_site_symmetry_multiplicity
 _atom_site_fract_x
 _atom_site_fract_y
 _atom_site_fract_z
 _atom_site_occupancy
  Li  Li0  1  0.29383760  0.57875535  0.85437948  1
  Li  Li1  1  0.29383799  0.92124525  0.35437935  1
  Li  Li2  1  0.70616229  0.07875431  0.64562037  1
  Li  Li3  1  0.70616125  0.42124547  0.14562091  1
  O  O4  1  0.37961845  0.67349945  0.39590933  1
  O  O5  1  0.03802228  0.08129135  0.89295903  1
  O  O6  1  0.15791540  0.37474460  0.87895077  1
  O  O7  1  0.00980885  0.79584229  0.35558421  1
  O  O8  1  0.03802266  0.41870843  0.39295891  1
  O  O9  1  0.31915765  0.12957873  0.80769754  1
  O  O10  1  0.37961806  0.82650115  0.89590945  1
  O  O11  1  0.15791579  0.12525518  0.37895065  1
  O  O12  1  0.27873897  0.88815331  0.62471787  1
  O  O13  1  0.39378428  0.49181581  0.70381703  1
  O  O14  1  0.31915805  0.37042231  0.30769846  1
  O  O15  1  0.00980846  0.70415831  0.85558433  1
  O  O16  1  0.27873937  0.61184603  0.12471879  1
  O  O17  1  0.60621561  0.99181559  0.79618281  1
  O  O18  1  0.39378467  0.00818397  0.20381690  1
  O  O19  1  0.72126091  0.38815353  0.87528197  1
  O  O20  1  0.62038183  0.32650137  0.60409039  1
  O  O21  1  0.68084223  0.62957851  0.69230230  1
  O  O22  1  0.60621599  0.50818375  0.29618269  1
  O  O23  1  0.99019038  0.29584125  0.14441501  1
  O  O24  1  0.84208449  0.87474438  0.62104907  1
  O  O25  1  0.62038221  0.17349967  0.10409027  1
  O  O26  1  0.68084262  0.87042209  0.19230218  1
  O  O27  1  0.96197761  0.58129113  0.60704081  1
  O  O28  1  0.99019143  0.20415853  0.64441551  1
  O  O29  1  0.84208488  0.62525496  0.12104999  1
  O  O30  1  0.96197657  0.91870947  0.10704031  1
  O  O31  1  0.72125987  0.11184625  0.37528147  1
  P  P32  1  0.11949755  0.20346337  0.80707746  1
  P  P33  1  0.11949793  0.29653641  0.30707734  1
  P  P34  1  0.40127596  0.94718443  0.78097646  1
  P  P35  1  0.59872393  0.44718465  0.71902442  1
  P  P36  1  0.40127635  0.55281491  0.28097634  1
  P  P37  1  0.59872432  0.05281513  0.21902430  1
  P  P38  1  0.88050234  0.70346315  0.69292238  1
  P  P39  1  0.88050273  0.79653619  0.19292330  1
  V  V40  1  0.99999961  0.00000000  0.50000012  1
  V  V41  1  0.19214259  0.62993552  0.52044118  1
  V  V42  1  0.00000000  0.49999978  0.00000000  1
  V  V43  1  0.19214298  0.87006508  0.02044106  1
  V  V44  1  0.80785730  0.12993574  0.97955970  1
  V  V45  1  0.80785769  0.37006404  0.47955958  1
