# generated using pymatgen
data_LiV(PO3)3
_symmetry_space_group_name_H-M   'P 1'
_cell_length_a   9.85947738
_cell_length_b   9.54762091
_cell_length_c   9.49350996
_cell_angle_alpha   108.41962372
_cell_angle_beta   104.37756338
_cell_angle_gamma   109.88310973
_symmetry_Int_Tables_number   1
_chemical_formula_structural   LiV(PO3)3
_chemical_formula_sum   'Li4 V4 P12 O36'
_cell_volume   731.20557794
_cell_formula_units_Z   4
loop_
 _symmetry_equiv_pos_site_id
 _symmetry_equiv_pos_as_xyz
  1  'x, y, z'
loop_
 _atom_site_type_symbol
 _atom_site_label
 _atom_site_symmetry_multiplicity
 _atom_site_fract_x
 _atom_site_fract_y
 _atom_site_fract_z
 _atom_site_occupancy
  Li  Li0  1  0.50172371  0.93122703  0.34557645  1
  Li  Li1  1  0.33569513  0.14900492  0.35735223  1
  Li  Li2  1  0.66430435  0.85099429  0.64264722  1
  Li  Li3  1  0.49827631  0.06877343  0.65442353  1
  O  O4  1  0.25363775  0.01212150  0.55945015  1
  O  O5  1  -0.00180866  0.27221944  0.95096836  1
  O  O6  1  0.17333439  0.83983345  0.91026151  1
  O  O7  1  0.19852014  0.62993330  0.99840878  1
  O  O8  1  0.14361567  0.69845867  0.40825239  1
  O  O9  1  0.04005677  0.17743811  0.62706085  1
  O  O10  1  0.18453537  0.09334030  0.87808856  1
  O  O11  1  0.32004667  0.43529833  0.96949870  1
  O  O12  1  0.37346620  0.64322206  0.85070822  1
  O  O13  1  0.29090905  0.60351120  0.57327180  1
  O  O14  1  0.29875870  0.92431881  0.21201082  1
  O  O15  1  0.08600225  0.14392938  0.19585475  1
  O  O16  1  0.25789265  0.52517683  0.28035264  1
  O  O17  1  0.44388019  0.82506441  0.49894025  1
  O  O18  1  0.35861480  0.38905530  0.63600841  1
  O  O19  1  0.07494995  0.81214269  0.63754148  1
  O  O20  1  0.57690262  0.68494864  0.72989184  1
  O  O21  1  0.50746515  0.25155119  0.84659722  1
  O  O22  1  0.49253433  0.74844802  0.15340223  1
  O  O23  1  0.42309845  0.31505182  0.27010947  1
  O  O24  1  0.74636174  0.98787771  0.44054930  1
  O  O25  1  0.64138469  0.61094391  0.36399103  1
  O  O26  1  0.55611983  0.17493605  0.50105973  1
  O  O27  1  0.74210737  0.47482363  0.71964734  1
  O  O28  1  0.92504954  0.18785652  0.36245797  1
  O  O29  1  0.70124132  0.07568166  0.78798916  1
  O  O30  1  0.70909096  0.39648926  0.42672924  1
  O  O31  1  0.62653329  0.35677715  0.14929122  1
  O  O32  1  0.67995335  0.56470213  0.03050129  1
  O  O33  1  0.81546465  0.90666016  0.12191143  1
  O  O34  1  0.95994325  0.82256235  0.37294019  1
  O  O35  1  0.85638487  0.30154055  0.59174733  1
  O  O36  1  0.80147988  0.37006716  0.00159120  1
  O  O37  1  0.82666563  0.16016701  0.08973953  1
  O  O38  1  1.00180814  0.72777977  0.04903214  1
  O  O39  1  0.91399777  0.85607108  0.80414524  1
  P  P40  1  0.07882020  0.90884354  0.81126620  1
  P  P41  1  0.10706482  0.84846823  0.49014204  1
  P  P42  1  0.16469785  0.78910940  0.05681633  1
  P  P43  1  0.35390449  0.61252034  0.00196011  1
  P  P44  1  0.29527274  0.66477071  0.43298770  1
  P  P45  1  0.40931598  0.57135300  0.69374983  1
  P  P46  1  0.59068404  0.42864746  0.30625121  1
  P  P47  1  0.70472728  0.33522975  0.56701228  1
  P  P48  1  0.92117982  0.09115692  0.18873379  1
  P  P49  1  0.83530322  0.21089106  0.94318499  1
  P  P50  1  0.89293521  0.15153223  0.50985794  1
  P  P51  1  0.64609554  0.38748012  0.99803987  1
  V  V52  1  0.27435141  0.23026597  0.74742733  1
  V  V53  1  0.21252214  0.29885824  0.09807298  1
  V  V54  1  0.78747734  0.70114097  0.90192646  1
  V  V55  1  0.72564807  0.76973324  0.25257212  1
