# generated using pymatgen
data_LiMoP4O13
_symmetry_space_group_name_H-M   'P 1'
_cell_length_a   7.22106937
_cell_length_b   8.19717130
_cell_length_c   17.39986552
_cell_angle_alpha   90.00000000
_cell_angle_beta   90.00000000
_cell_angle_gamma   90.00000000
_symmetry_Int_Tables_number   1
_chemical_formula_structural   LiMoP4O13
_chemical_formula_sum   'Li4 Mo4 P16 O52'
_cell_volume   1029.93880097
_cell_formula_units_Z   4
loop_
 _symmetry_equiv_pos_site_id
 _symmetry_equiv_pos_as_xyz
  1  'x, y, z'
loop_
 _atom_site_type_symbol
 _atom_site_label
 _atom_site_symmetry_multiplicity
 _atom_site_fract_x
 _atom_site_fract_y
 _atom_site_fract_z
 _atom_site_occupancy
  Li  Li0  1  0.25259384  0.75314404  0.49889731  1
  Li  Li1  1  0.24740676  0.24685686  0.99889746  1
  Li  Li2  1  0.75259305  0.74685609  0.50110242  1
  Li  Li3  1  0.74740597  0.25314359  0.00110285  1
  O  O4  1  0.39320071  0.92895029  0.44397725  1
  O  O5  1  0.98069194  0.85621973  0.85099985  1
  O  O6  1  0.90517962  0.85537147  0.41605051  1
  O  O7  1  0.91527513  0.82402712  0.69396163  1
  O  O8  1  0.99795634  0.28262307  0.51102753  1
  O  O9  1  0.01930787  0.35622051  0.64900003  1
  O  O10  1  0.08375848  0.80590503  0.29015290  1
  O  O11  1  0.08472467  0.32402789  0.80603883  1
  O  O12  1  0.09482019  0.35537224  0.08394907  1
  O  O13  1  0.09770961  0.79072889  0.12543060  1
  O  O14  1  0.10679988  0.07105060  0.94397740  1
  O  O15  1  0.11693796  0.89501325  0.57755331  1
  O  O16  1  0.12890572  0.05840242  0.70400986  1
  O  O17  1  0.16262072  0.51298893  0.20844312  1
  O  O18  1  0.15720947  0.49176035  0.42095662  1
  O  O19  1  0.20696053  0.17901719  0.40921210  1
  O  O20  1  0.24303195  0.21951682  0.20356834  1
  O  O21  1  0.25696865  0.78048286  0.70356849  1
  O  O22  1  0.29304007  0.82098249  0.90921167  1
  O  O23  1  0.34279113  0.50823933  0.92095677  1
  O  O24  1  0.33737988  0.48701074  0.70844327  1
  O  O25  1  0.37109349  0.94159726  0.20400970  1
  O  O26  1  0.38306264  0.10498765  0.07755316  1
  O  O27  1  0.00204346  0.78262352  0.98897292  1
  O  O28  1  0.40229099  0.20927079  0.62543076  1
  O  O29  1  0.40518041  0.64462866  0.58394922  1
  O  O30  1  0.41527592  0.67597178  0.30603868  1
  O  O31  1  0.41624212  0.19409465  0.79015305  1
  O  O32  1  0.48069273  0.64378039  0.14899988  1
  O  O33  1  0.50204425  0.71737661  0.01102738  1
  O  O34  1  0.49795694  0.21737738  0.48897277  1
  O  O35  1  0.51930847  0.14377994  0.35100027  1
  O  O36  1  0.58375769  0.69409510  0.70984683  1
  O  O37  1  0.58472388  0.17597256  0.19396148  1
  O  O38  1  0.59482079  0.14462821  0.91605066  1
  O  O39  1  0.59770882  0.70927123  0.87456970  1
  O  O40  1  0.60680048  0.42894984  0.05602290  1
  O  O41  1  0.61693717  0.60498687  0.42244699  1
  O  O42  1  0.62890632  0.44159681  0.29599045  1
  O  O43  1  0.66261993  0.98701119  0.79155661  1
  O  O44  1  0.65720868  0.00824010  0.57904311  1
  O  O45  1  0.70695974  0.32098204  0.59078821  1
  O  O46  1  0.74303116  0.28048241  0.79643139  1
  O  O47  1  0.75696925  0.71951727  0.29643182  1
  O  O48  1  0.79303928  0.67901764  0.09078806  1
  O  O49  1  0.84279034  0.99176080  0.07904354  1
  O  O50  1  0.83737909  0.01298848  0.29155703  1
  O  O51  1  0.87109409  0.55840286  0.79599002  1
  O  O52  1  0.88306185  0.39501280  0.92244715  1
  O  O53  1  0.89319992  0.57104983  0.55602248  1
  O  O54  1  0.90229020  0.29072844  0.37456955  1
  O  O55  1  0.91624133  0.30590580  0.20984668  1
  P  P56  1  0.93009363  0.82973428  0.07455831  1
  P  P57  1  0.90860263  0.39672147  0.57621695  1
  P  P58  1  0.90276806  0.84868195  0.33112522  1
  P  P59  1  0.90031676  0.38993942  0.83803605  1
  P  P60  1  0.06990617  0.32973383  0.42544184  1
  P  P61  1  0.09139718  0.89672069  0.92378293  1
  P  P62  1  0.09723174  0.34868272  0.16887435  1
  P  P63  1  0.09968444  0.88993865  0.66196383  1
  P  P64  1  0.40031616  0.11006103  0.16196368  1
  P  P65  1  0.40276747  0.65131818  0.66887450  1
  P  P66  1  0.59968365  0.61006148  0.33803590  1
  P  P67  1  0.43009442  0.67026584  0.92544199  1
  P  P68  1  0.56990677  0.17026662  0.57455789  1
  P  P69  1  0.59139778  0.60327943  0.07621679  1
  P  P70  1  0.59723234  0.15131773  0.83112538  1
  P  P71  1  0.40860203  0.10327898  0.42378278  1
  Mo  Mo72  1  0.23284541  0.27283752  0.71321543  1
  Mo  Mo73  1  0.26715519  0.72716215  0.21321528  1
  Mo  Mo74  1  0.73284601  0.22716170  0.28678430  1
  Mo  Mo75  1  0.76715440  0.77283797  0.78678445  1
