# generated using pymatgen
data_LiMoP2O7
_symmetry_space_group_name_H-M   'P 1'
_cell_length_a   8.58294885
_cell_length_b   5.10005528
_cell_length_c   12.75913200
_cell_angle_alpha   90.00000000
_cell_angle_beta   78.18933548
_cell_angle_gamma   90.00000000
_symmetry_Int_Tables_number   1
_chemical_formula_structural   LiMoP2O7
_chemical_formula_sum   'Li4 Mo4 P8 O28'
_cell_volume   546.68795237
_cell_formula_units_Z   4
loop_
 _symmetry_equiv_pos_site_id
 _symmetry_equiv_pos_as_xyz
  1  'x, y, z'
loop_
 _atom_site_type_symbol
 _atom_site_label
 _atom_site_symmetry_multiplicity
 _atom_site_fract_x
 _atom_site_fract_y
 _atom_site_fract_z
 _atom_site_occupancy
  Li  Li0  1  0.11731914  0.25815107  0.30251311  1
  Li  Li1  1  0.38268085  0.75815200  0.19748654  1
  Li  Li2  1  0.61731914  0.24184788  0.80251275  1
  Li  Li3  1  0.88268086  0.74184880  0.69748697  1
  O  O4  1  0.41351442  0.14093255  0.11980795  1
  O  O5  1  0.82672465  0.42821685  0.85476672  1
  O  O6  1  0.91351442  0.35906838  0.61980838  1
  O  O7  1  0.91722934  0.05802930  0.40170905  1
  O  O8  1  0.08672238  0.04638448  0.16055639  1
  O  O9  1  0.17327536  0.57178303  0.14523336  1
  O  O10  1  0.08648558  0.64093150  0.38019170  1
  O  O11  1  0.08277066  0.94197058  0.59829103  1
  O  O12  1  0.09947812  0.29089426  0.74206848  1
  O  O13  1  0.05670569  0.28886676  0.93987282  1
  O  O14  1  0.21563124  0.38258509  0.55133227  1
  O  O15  1  0.91327762  0.95361540  0.83944368  1
  O  O16  1  0.32672464  0.07178407  0.35476629  1
  O  O17  1  0.41327761  0.54638540  0.33944325  1
  O  O18  1  0.28436819  0.88258601  0.94866771  1
  O  O19  1  0.58277123  0.55803022  0.09829112  1
  O  O20  1  0.44329495  0.78886572  0.56012699  1
  O  O21  1  0.40052132  0.79089321  0.75793150  1
  O  O22  1  0.90052189  0.70910562  0.25793159  1
  O  O23  1  0.55670505  0.21113416  0.43987309  1
  O  O24  1  0.41722878  0.44197163  0.90170896  1
  O  O25  1  0.71563181  0.11741386  0.05133236  1
  O  O26  1  0.58672238  0.45361448  0.66055604  1
  O  O27  1  0.67327536  0.92821581  0.64523379  1
  O  O28  1  0.58648558  0.85906733  0.88019134  1
  O  O29  1  0.78436876  0.61741479  0.44866780  1
  O  O30  1  0.94329432  0.71113311  0.06012725  1
  O  O31  1  0.59947868  0.20910666  0.24206857  1
  P  P32  1  0.96961724  0.23780688  0.85167958  1
  P  P33  1  0.92157673  0.76057654  0.37919493  1
  P  P34  1  0.53038276  0.73780780  0.64832014  1
  P  P35  1  0.42157737  0.73942426  0.87919466  1
  P  P36  1  0.03038277  0.76219300  0.14832049  1
  P  P37  1  0.07842327  0.23942334  0.62080515  1
  P  P38  1  0.57842264  0.26057561  0.12080541  1
  P  P39  1  0.46961724  0.26219208  0.35167994  1
  Mo  Mo40  1  0.23774318  0.24664682  0.02887198  1
  Mo  Mo41  1  0.26225681  0.74664775  0.47112767  1
  Mo  Mo42  1  0.73774319  0.25335213  0.52887241  1
  Mo  Mo43  1  0.76225682  0.75335305  0.97112810  1
