# generated using pymatgen
data_H14C5BrN3
_symmetry_space_group_name_H-M   'P 1'
_cell_length_a   7.59352333
_cell_length_b   9.81250941
_cell_length_c   14.16842263
_cell_angle_alpha   90.00000000
_cell_angle_beta   90.00000000
_cell_angle_gamma   103.53465983
_symmetry_Int_Tables_number   1
_chemical_formula_structural   H14C5BrN3
_chemical_formula_sum   'H56 C20 Br4 N12'
_cell_volume   1026.39205016
_cell_formula_units_Z   4
loop_
 _symmetry_equiv_pos_site_id
 _symmetry_equiv_pos_as_xyz
  1  'x, y, z'
loop_
 _atom_site_type_symbol
 _atom_site_label
 _atom_site_symmetry_multiplicity
 _atom_site_fract_x
 _atom_site_fract_y
 _atom_site_fract_z
 _atom_site_occupancy
  H  H0  1  0.89561263  0.66948484  0.55602590  1
  H  H1  1  0.39561263  0.16948484  0.94397410  1
  H  H2  1  0.10438737  0.33051516  0.44397410  1
  H  H3  1  0.60438737  0.83051516  0.05602590  1
  H  H4  1  0.80089974  0.50285068  0.59761299  1
  H  H5  1  0.30089974  0.00285068  0.90238701  1
  H  H6  1  0.19910026  0.49714932  0.40238701  1
  H  H7  1  0.69910026  0.99714932  0.09761299  1
  H  H8  1  0.76106578  0.75536363  0.45545832  1
  H  H9  1  0.26106578  0.25536363  0.04454168  1
  H  H10  1  0.23893422  0.24463637  0.54454168  1
  H  H11  1  0.73893422  0.74463637  0.95545832  1
  H  H12  1  0.77880408  0.92582211  0.50495793  1
  H  H13  1  0.27880408  0.42582211  0.99504207  1
  H  H14  1  0.22119592  0.07417789  0.49504207  1
  H  H15  1  0.72119592  0.57417789  0.00495793  1
  H  H16  1  0.57784244  0.84041845  0.44331493  1
  H  H17  1  0.07784244  0.34041845  0.05668507  1
  H  H18  1  0.42215756  0.15958155  0.55668507  1
  H  H19  1  0.92215756  0.65958155  0.94331493  1
  H  H20  1  0.36998670  0.84139600  0.59083098  1
  H  H21  1  0.86998670  0.34139600  0.90916902  1
  H  H22  1  0.63001330  0.15860400  0.40916902  1
  H  H23  1  0.13001330  0.65860400  0.09083098  1
  H  H24  1  0.57912836  0.95540398  0.62824356  1
  H  H25  1  0.07912836  0.45540398  0.87175644  1
  H  H26  1  0.42087164  0.04459602  0.37175644  1
  H  H27  1  0.92087164  0.54459602  0.12824356  1
  H  H28  1  0.47238599  0.81057541  0.70089291  1
  H  H29  1  0.97238599  0.31057541  0.79910709  1
  H  H30  1  0.52761401  0.18942459  0.29910709  1
  H  H31  1  0.02761401  0.68942459  0.20089291  1
  H  H32  1  0.54918592  0.36753781  0.72028925  1
  H  H33  1  0.04918592  0.86753781  0.77971075  1
  H  H34  1  0.45081408  0.63246219  0.27971075  1
  H  H35  1  0.95081408  0.13246219  0.22028925  1
  H  H36  1  0.50583745  0.48022319  0.81255972  1
  H  H37  1  0.00583745  0.98022319  0.68744028  1
  H  H38  1  0.49416255  0.51977681  0.18744028  1
  H  H39  1  0.99416255  0.01977681  0.31255972  1
  H  H40  1  0.72514213  0.51141397  0.75939542  1
  H  H41  1  0.22514213  0.01141397  0.74060458  1
  H  H42  1  0.27485787  0.48858603  0.24060458  1
  H  H43  1  0.77485787  0.98858603  0.25939542  1
  H  H44  1  0.29529409  0.59867048  0.60321777  1
  H  H45  1  0.79529409  0.09867048  0.89678223  1
  H  H46  1  0.70470591  0.40132952  0.39678223  1
  H  H47  1  0.20470591  0.90132952  0.10321777  1
  H  H48  1  0.27453097  0.60044810  0.72967566  1
  H  H49  1  0.77453097  0.10044810  0.77032434  1
  H  H50  1  0.72546903  0.39955190  0.27032434  1
  H  H51  1  0.22546903  0.89955190  0.22967566  1
  H  H52  1  0.26310515  0.43949687  0.66792583  1
  H  H53  1  0.76310515  0.93949687  0.83207417  1
  H  H54  1  0.73689485  0.56050313  0.33207417  1
  H  H55  1  0.23689485  0.06050313  0.16792583  1
  C  C56  1  0.64197895  0.64590900  0.61654914  1
  C  C57  1  0.14197895  0.14590900  0.88345086  1
  C  C58  1  0.35802105  0.35409100  0.38345086  1
  C  C59  1  0.85802105  0.85409100  0.11654914  1
  C  C60  1  0.68617645  0.82377298  0.49039638  1
  C  C61  1  0.18617645  0.32377298  0.00960362  1
  C  C62  1  0.31382355  0.17622702  0.50960362  1
  C  C63  1  0.81382355  0.67622702  0.99039638  1
  C  C64  1  0.49869845  0.84637744  0.62784627  1
  C  C65  1  0.99869845  0.34637744  0.87215373  1
  C  C66  1  0.50130155  0.15362256  0.37215373  1
  C  C67  1  0.00130155  0.65362256  0.12784627  1
  C  C68  1  0.57952041  0.47624092  0.74622510  1
  C  C69  1  0.07952041  0.97624092  0.75377490  1
  C  C70  1  0.42047959  0.52375908  0.25377490  1
  C  C71  1  0.92047959  0.02375908  0.24622510  1
  C  C72  1  0.32794381  0.55212220  0.66936137  1
  C  C73  1  0.82794381  0.05212220  0.83063863  1
  C  C74  1  0.67205619  0.44787780  0.33063863  1
  C  C75  1  0.17205619  0.94787780  0.16936137  1
  Br  Br76  1  0.63913746  0.23015430  0.07974479  1
  Br  Br77  1  0.13913746  0.73015430  0.42025521  1
  Br  Br78  1  0.36086254  0.76984570  0.92025521  1
  Br  Br79  1  0.86086254  0.26984570  0.57974479  1
  N  N80  1  0.79669694  0.60727968  0.59625283  1
  N  N81  1  0.29669694  0.10727968  0.90374717  1
  N  N82  1  0.20330306  0.39272032  0.40374717  1
  N  N83  1  0.70330306  0.89272032  0.09625283  1
  N  N84  1  0.60476168  0.76177855  0.57821246  1
  N  N85  1  0.10476168  0.26177855  0.92178754  1
  N  N86  1  0.39523832  0.23822145  0.42178754  1
  N  N87  1  0.89523832  0.73822145  0.07821246  1
  N  N88  1  0.52370717  0.56906872  0.67823048  1
  N  N89  1  0.02370717  0.06906872  0.82176952  1
  N  N90  1  0.47629283  0.43093128  0.32176952  1
  N  N91  1  0.97629283  0.93093128  0.17823048  1
