# generated using pymatgen
data_VH2O3
_symmetry_space_group_name_H-M   'P 1'
_cell_length_a   3.81532702
_cell_length_b   5.76549928
_cell_length_c   5.72317320
_cell_angle_alpha   65.15646191
_cell_angle_beta   70.52439274
_cell_angle_gamma   70.67406101
_symmetry_Int_Tables_number   1
_chemical_formula_structural   VH2O3
_chemical_formula_sum   'V2 H4 O6'
_cell_volume   104.99258080
_cell_formula_units_Z   2
loop_
 _symmetry_equiv_pos_site_id
 _symmetry_equiv_pos_as_xyz
  1  'x, y, z'
loop_
 _atom_site_type_symbol
 _atom_site_label
 _atom_site_symmetry_multiplicity
 _atom_site_fract_x
 _atom_site_fract_y
 _atom_site_fract_z
 _atom_site_occupancy
  H  H0  1  0.46985607  0.23413892  0.21382992  1
  H  H1  1  0.91788997  0.26581848  0.28614886  1
  H  H2  1  0.53014301  0.76586150  0.78617020  1
  H  H3  1  0.08210999  0.73418104  0.71385048  1
  O  O4  1  0.99235771  0.25001173  0.75004904  1
  O  O5  1  0.65030538  0.85327052  0.85093184  1
  O  O6  1  0.00764573  0.74998791  0.24995039  1
  O  O7  1  0.34969610  0.14672890  0.14906817  1
  O  O8  1  0.35446021  0.64675053  0.64905241  1
  O  O9  1  0.64553961  0.35325018  0.35094718  1
  V  V10  1  0.43564157  0.25001328  0.75000159  1
  V  V11  1  0.56435888  0.74998647  0.24999786  1
