# generated using pymatgen
data_MgAl2O4
_symmetry_space_group_name_H-M   'P 1'
_cell_length_a   5.76823724
_cell_length_b   5.76823689
_cell_length_c   23.11845211
_cell_angle_alpha   60.06509059
_cell_angle_beta   60.06509263
_cell_angle_gamma   60.00000423
_symmetry_Int_Tables_number   1
_chemical_formula_structural   MgAl2O4
_chemical_formula_sum   'Mg8 Al16 O32'
_cell_volume   544.44818645
_cell_formula_units_Z   8
loop_
 _symmetry_equiv_pos_site_id
 _symmetry_equiv_pos_as_xyz
  1  'x, y, z'
loop_
 _atom_site_type_symbol
 _atom_site_label
 _atom_site_symmetry_multiplicity
 _atom_site_fract_x
 _atom_site_fract_y
 _atom_site_fract_z
 _atom_site_occupancy
  Al  Al0  1  0.01042516  0.49587621  0.12445560  1
  Al  Al1  1  0.49587621  0.01042516  0.12445560  1
  Al  Al2  1  0.49587621  0.49587621  0.12445560  1
  Al  Al3  1  0.00457473  0.49642636  0.37564314  1
  Al  Al4  1  0.49642636  0.00457473  0.37564314  1
  Al  Al5  1  0.49642636  0.49642636  0.37564314  1
  Al  Al6  1  0.00158920  0.50072538  0.62424001  1
  Al  Al7  1  0.50072538  0.00158920  0.62424001  1
  Al  Al8  1  0.88089178  0.88089178  0.21433117  1
  Al  Al9  1  0.50070024  0.50070024  0.49947482  1
  Al  Al10  1  0.50072538  0.50072538  0.62424001  1
  Al  Al11  1  0.00627729  0.49835665  0.87425235  1
  Al  Al12  1  0.49835665  0.00627729  0.87425235  1
  Al  Al13  1  0.50220867  0.50220867  0.74834350  1
  Al  Al14  1  0.49835665  0.49835665  0.87425235  1
  Al  Al15  1  0.87666571  0.87666571  0.96750071  1
  Mg  Mg16  1  0.12090394  0.12090394  0.03432204  1
  Mg  Mg17  1  0.12087251  0.12087251  0.28434562  1
  Mg  Mg18  1  0.49818653  0.49818653  0.00136010  1
  Mg  Mg19  1  0.12369506  0.12369506  0.53222870  1
  Mg  Mg20  1  0.49727267  0.49727267  0.25204550  1
  Mg  Mg21  1  0.12557598  0.12557598  0.78081802  1
  Mg  Mg22  1  0.87898080  0.87898080  0.46576440  1
  Mg  Mg23  1  0.87407711  0.87407711  0.71944216  1
  O  O24  1  0.25367571  0.25367571  0.07006131  1
  O  O25  1  0.25998722  0.25998722  0.18000958  1
  O  O26  1  0.25367571  0.71240335  0.07006131  1
  O  O27  1  0.71240335  0.25367571  0.07006131  1
  O  O28  1  0.27192918  0.75127219  0.18138161  1
  O  O29  1  0.24972327  0.24972327  0.32235454  1
  O  O30  1  0.75127219  0.27192918  0.18138161  1
  O  O31  1  0.25973597  0.25973597  0.43019802  1
  O  O32  1  0.24972327  0.71113527  0.32235454  1
  O  O33  1  0.74543102  0.74543102  0.06592673  1
  O  O34  1  0.75127219  0.75127219  0.18138161  1
  O  O35  1  0.71113527  0.24972327  0.32235454  1
  O  O36  1  0.29691882  0.73417859  0.43368100  1
  O  O37  1  0.26324141  0.26324141  0.56629716  1
  O  O38  1  0.26338330  0.26338330  0.67746253  1
  O  O39  1  0.73417859  0.29691882  0.43368100  1
  O  O40  1  0.26324141  0.70832854  0.56629716  1
  O  O41  1  0.74999268  0.74999268  0.31250549  1
  O  O42  1  0.73417859  0.73417859  0.43368100  1
  O  O43  1  0.70832854  0.26324141  0.56629716  1
  O  O44  1  0.29028091  0.73678210  0.68403872  1
  O  O45  1  0.26593947  0.26593947  0.81485446  1
  O  O46  1  0.26291761  0.26291761  0.92781180  1
  O  O47  1  0.73678210  0.29028091  0.68403872  1
  O  O48  1  0.73753908  0.73753908  0.57184569  1
  O  O49  1  0.26593947  0.70870323  0.81485446  1
  O  O50  1  0.73678210  0.73678210  0.68403872  1
  O  O51  1  0.70870323  0.26593947  0.81485446  1
  O  O52  1  0.26385791  0.75508507  0.93149299  1
  O  O53  1  0.75508507  0.26385791  0.93149299  1
  O  O54  1  0.73199369  0.73199369  0.82600473  1
  O  O55  1  0.75508507  0.75508507  0.93149299  1
