# generated using pymatgen
data_Mg2TiO4
_symmetry_space_group_name_H-M   'P 1'
_cell_length_a   6.02724652
_cell_length_b   6.01075598
_cell_length_c   6.02724695
_cell_angle_alpha   60.09046828
_cell_angle_beta   60.03600593
_cell_angle_gamma   60.09046775
_symmetry_Int_Tables_number   1
_chemical_formula_structural   Mg2TiO4
_chemical_formula_sum   'Mg4 Ti2 O8'
_cell_volume   154.65462584
_cell_formula_units_Z   2
loop_
 _symmetry_equiv_pos_site_id
 _symmetry_equiv_pos_as_xyz
  1  'x, y, z'
loop_
 _atom_site_type_symbol
 _atom_site_label
 _atom_site_symmetry_multiplicity
 _atom_site_fract_x
 _atom_site_fract_y
 _atom_site_fract_z
 _atom_site_occupancy
  Mg  Mg0  1  0.11416816  0.13583184  0.11416816  1
  Mg  Mg1  1  0.50000000  0.50000000  0.50000000  1
  Mg  Mg2  1  0.50000000  0.00000000  0.50000000  1
  Mg  Mg3  1  0.88583184  0.86416816  0.88583184  1
  O  O4  1  0.25151628  0.27433778  0.25151628  1
  O  O5  1  0.25151628  0.72262966  0.25151628  1
  O  O6  1  0.24236579  0.27264810  0.71233800  1
  O  O7  1  0.71233800  0.27264810  0.24236579  1
  O  O8  1  0.28766200  0.72735190  0.75763421  1
  O  O9  1  0.74848372  0.27737034  0.74848372  1
  O  O10  1  0.75763421  0.72735190  0.28766200  1
  O  O11  1  0.74848372  0.72566222  0.74848372  1
  Ti  Ti12  1  0.50000000  0.50000000  0.00000000  1
  Ti  Ti13  1  0.00000000  0.50000000  0.50000000  1
