# generated using pymatgen
data_Nd5AgS8
_symmetry_space_group_name_H-M   'P 1'
_cell_length_a   7.43465401
_cell_length_b   7.43465454
_cell_length_c   7.43465438
_cell_angle_alpha   109.71736899
_cell_angle_beta   109.71736997
_cell_angle_gamma   108.98003213
_symmetry_Int_Tables_number   1
_chemical_formula_structural   Nd5AgS8
_chemical_formula_sum   'Nd5 Ag1 S8'
_cell_volume   316.32721575
_cell_formula_units_Z   1
loop_
 _symmetry_equiv_pos_site_id
 _symmetry_equiv_pos_as_xyz
  1  'x, y, z'
loop_
 _atom_site_type_symbol
 _atom_site_label
 _atom_site_symmetry_multiplicity
 _atom_site_fract_x
 _atom_site_fract_y
 _atom_site_fract_z
 _atom_site_occupancy
  Ag  Ag0  1  0.87500000  0.12500000  0.75000000  1
  Nd  Nd1  1  0.11048659  0.74550610  0.86822966  1
  Nd  Nd2  1  0.25449390  0.62272356  0.36498049  1
  Nd  Nd3  1  0.37727644  0.24225693  0.63177034  1
  Nd  Nd4  1  0.62500000  0.37500000  0.25000000  1
  Nd  Nd5  1  0.75774307  0.88951341  0.13501951  1
  S  S6  1  0.99261204  0.85129250  0.49902613  1
  S  S7  1  0.48342152  0.99275599  0.85637398  1
  S  S8  1  0.50641409  0.00738796  0.35868046  1
  S  S9  1  0.14870750  0.14773363  0.14131954  1
  S  S10  1  0.37295245  0.51657848  0.00933447  1
  S  S11  1  0.63638202  0.62704755  0.64362602  1
  S  S12  1  0.85226637  0.49358591  0.00097387  1
  S  S13  1  0.00724401  0.36361798  0.49066553  1
