# generated using pymatgen
data_Na(Sm2Se3)4
_symmetry_space_group_name_H-M   'P 1'
_cell_length_a   23.03012456
_cell_length_b   8.85495927
_cell_length_c   8.85495948
_cell_angle_alpha   90.00000096
_cell_angle_beta   54.77828983
_cell_angle_gamma   54.77828886
_symmetry_Int_Tables_number   1
_chemical_formula_structural   Na(Sm2Se3)4
_chemical_formula_sum   'Na2 Sm16 Se24'
_cell_volume   1044.77226669
_cell_formula_units_Z   2
loop_
 _symmetry_equiv_pos_site_id
 _symmetry_equiv_pos_as_xyz
  1  'x, y, z'
loop_
 _atom_site_type_symbol
 _atom_site_label
 _atom_site_symmetry_multiplicity
 _atom_site_fract_x
 _atom_site_fract_y
 _atom_site_fract_z
 _atom_site_occupancy
  Na  Na0  1  0.08333300  0.62500000  0.37500000  1
  Na  Na1  1  0.58333300  0.87500000  0.12500000  1
  Se  Se2  1  0.11644561  0.49783939  1.00013727  1
  Se  Se3  1  0.05022039  0.34947511  0.50216061  1
  Se  Se4  1  0.05022039  -0.00013727  0.34717722  1
  Se  Se5  1  0.28975874  0.13461191  0.13775978  1
  Se  Se6  1  0.28975874  0.49611187  0.99296400  1
  Se  Se7  1  0.21611904  0.99791058  0.85176490  1
  Se  Se8  1  0.11644561  0.65282278  0.65052489  1
  Se  Se9  1  0.21611904  0.85373230  0.49987797  1
  Se  Se10  1  0.45054796  0.50208942  1.00012203  1
  Se  Se11  1  0.37690826  0.36538809  0.50703600  1
  Se  Se12  1  0.37690826  0.00388813  0.36224022  1
  Se  Se13  1  0.61644561  0.15052489  0.15282278  1
  Se  Se14  1  0.61644561  0.50013727  0.99783939  1
  Se  Se15  1  0.55022039  0.00216061  0.84947511  1
  Se  Se16  1  0.45054796  0.64626770  0.64823510  1
  Se  Se17  1  0.55022039  0.84717722  0.49986273  1
  Se  Se18  1  0.78975874  0.49296400  0.99611187  1
  Se  Se19  1  0.71611904  0.35176490  0.49791058  1
  Se  Se20  1  0.71611904  -0.00012203  0.35373230  1
  Se  Se21  1  0.95054796  0.14823510  0.14626770  1
  Se  Se22  1  0.95054796  0.50012203  0.00208942  1
  Se  Se23  1  0.87690826  0.00703600  0.86538809  1
  Se  Se24  1  0.78975874  0.63775978  0.63461191  1
  Se  Se25  1  0.87690826  0.86224022  0.50388813  1
  Sm  Sm26  1  0.00221759  0.37443200  0.25048632  1
  Sm  Sm27  1  0.00221759  0.11891523  0.74286091  1
  Sm  Sm28  1  0.16444941  0.25713909  0.62556800  1
  Sm  Sm29  1  0.24775543  0.87836685  0.12836685  1
  Sm  Sm30  1  0.33333300  0.36973702  0.25000000  1
  Sm  Sm31  1  0.16444941  0.74951368  0.88108477  1
  Sm  Sm32  1  0.33333300  0.13026298  0.75000000  1
  Sm  Sm33  1  0.41891157  0.62163315  0.37163315  1
  Sm  Sm34  1  0.50221759  0.24286091  0.61891523  1
  Sm  Sm35  1  0.66444941  0.38108477  0.24951368  1
  Sm  Sm36  1  0.50221759  0.75048632  0.87443200  1
  Sm  Sm37  1  0.66444941  0.12556800  0.75713909  1
  Sm  Sm38  1  0.74775543  0.62836685  0.37836685  1
  Sm  Sm39  1  0.83333300  0.25000000  0.63026298  1
  Sm  Sm40  1  0.91891157  0.87163315  0.12163315  1
  Sm  Sm41  1  0.83333300  0.75000000  0.86973702  1
