# generated using pymatgen
data_Cu(RhO2)2
_symmetry_space_group_name_H-M   'P 1'
_cell_length_a   6.09598478
_cell_length_b   6.09598478
_cell_length_c   6.09598478
_cell_angle_alpha   90.12170440
_cell_angle_beta   119.92975885
_cell_angle_gamma   119.92975880
_symmetry_Int_Tables_number   1
_chemical_formula_structural   Cu(RhO2)2
_chemical_formula_sum   'Cu2 Rh4 O8'
_cell_volume   160.35274814
_cell_formula_units_Z   2
loop_
 _symmetry_equiv_pos_site_id
 _symmetry_equiv_pos_as_xyz
  1  'x, y, z'
loop_
 _atom_site_type_symbol
 _atom_site_label
 _atom_site_symmetry_multiplicity
 _atom_site_fract_x
 _atom_site_fract_y
 _atom_site_fract_z
 _atom_site_occupancy
  O  O0  1  0.22772944  0.61336177  0.38563243  1
  O  O1  1  0.77227056  0.15790300  0.38563233  1
  O  O2  1  0.72772944  0.13563243  0.86336177  1
  O  O3  1  0.77227066  0.61436767  0.38663823  1
  O  O4  1  0.22772934  0.61436757  0.84209700  1
  O  O5  1  0.27227066  0.13663823  0.86436767  1
  O  O6  1  0.27227056  0.13563233  0.40790300  1
  O  O7  1  0.72772934  0.59209700  0.86436757  1
  Cu  Cu8  1  0.00000000  0.00000000  0.00000000  1
  Cu  Cu9  1  0.50000000  0.75000000  0.25000000  1
  Rh  Rh10  1  0.75000010  0.37500010  0.12500000  1
  Rh  Rh11  1  0.74999990  0.37500000  0.62499990  1
  Rh  Rh12  1  0.24999990  0.37499990  0.62500000  1
  Rh  Rh13  1  0.25000010  0.87500000  0.62500010  1
