# generated using pymatgen
data_LiNdS2
_symmetry_space_group_name_H-M   'P 1'
_cell_length_a   7.97017598
_cell_length_b   10.56494850
_cell_length_c   6.93502952
_cell_angle_alpha   29.17126676
_cell_angle_beta   54.92473008
_cell_angle_gamma   41.02494580
_symmetry_Int_Tables_number   1
_chemical_formula_structural   LiNdS2
_chemical_formula_sum   'Li2 Nd2 S4'
_cell_volume   180.26298384
_cell_formula_units_Z   2
loop_
 _symmetry_equiv_pos_site_id
 _symmetry_equiv_pos_as_xyz
  1  'x, y, z'
loop_
 _atom_site_type_symbol
 _atom_site_label
 _atom_site_symmetry_multiplicity
 _atom_site_fract_x
 _atom_site_fract_y
 _atom_site_fract_z
 _atom_site_occupancy
  Li  Li0  1  0.50000052  1.00000111  -0.00000099  1
  Li  Li1  1  0.24999954  0.49999865  1.00000118  1
  Nd  Nd2  1  0.00000042  1.00000049  0.99999489  1
  Nd  Nd3  1  0.74999967  0.49999931  0.00000527  1
  S  S4  1  0.24943977  0.99999891  0.50113309  1
  S  S5  1  0.75055822  0.00000328  0.49887389  1
  S  S6  1  0.50055995  0.50000173  0.49886628  1
  S  S7  1  0.99944191  0.49999651  0.50112639  1
