# generated using pymatgen
data_CoH2(CO2)2
_symmetry_space_group_name_H-M   'P 1'
_cell_length_a   10.08826866
_cell_length_b   11.47207152
_cell_length_c   14.82563758
_cell_angle_alpha   88.87417170
_cell_angle_beta   90.00000000
_cell_angle_gamma   90.00000000
_symmetry_Int_Tables_number   1
_chemical_formula_structural   CoH2(CO2)2
_chemical_formula_sum   'Co12 H24 C24 O48'
_cell_volume   1715.48932175
_cell_formula_units_Z   12
loop_
 _symmetry_equiv_pos_site_id
 _symmetry_equiv_pos_as_xyz
  1  'x, y, z'
loop_
 _atom_site_type_symbol
 _atom_site_label
 _atom_site_symmetry_multiplicity
 _atom_site_fract_x
 _atom_site_fract_y
 _atom_site_fract_z
 _atom_site_occupancy
  Co  Co0  1  0.57849604  0.25442254  0.36700856  1
  Co  Co1  1  0.07849604  0.24557746  0.13299144  1
  Co  Co2  1  0.42150396  0.74557746  0.63299144  1
  Co  Co3  1  0.92150396  0.75442254  0.86700856  1
  Co  Co4  1  0.38581255  0.24092564  0.19307302  1
  Co  Co5  1  0.88581255  0.25907436  0.30692698  1
  Co  Co6  1  0.61418745  0.75907436  0.80692698  1
  Co  Co7  1  0.11418745  0.74092564  0.69307302  1
  Co  Co8  1  0.50000000  0.00000000  0.50000000  1
  Co  Co9  1  0.00000000  0.50000000  0.00000000  1
  Co  Co10  1  0.50000000  0.50000000  0.50000000  1
  Co  Co11  1  0.00000000  0.00000000  0.00000000  1
  H  H12  1  0.74703716  0.35918534  0.12789979  1
  H  H13  1  0.24703716  0.14081466  0.37210021  1
  H  H14  1  0.25296284  0.64081466  0.87210021  1
  H  H15  1  0.75296284  0.85918534  0.62789979  1
  H  H16  1  0.45677486  0.97303571  0.22937882  1
  H  H17  1  0.95677486  0.52696429  0.27062118  1
  H  H18  1  0.54322514  0.02696429  0.77062118  1
  H  H19  1  0.04322514  0.47303571  0.72937882  1
  H  H20  1  0.89269046  0.06354688  0.46029486  1
  H  H21  1  0.39269046  0.43645312  0.03970514  1
  H  H22  1  0.10730954  0.93645312  0.53970514  1
  H  H23  1  0.60730954  0.56354688  0.96029486  1
  H  H24  1  0.30015592  0.48195269  0.26361577  1
  H  H25  1  0.80015592  0.01804731  0.23638423  1
  H  H26  1  0.69984408  0.51804731  0.73638423  1
  H  H27  1  0.19984408  0.98195269  0.76361577  1
  H  H28  1  0.33593257  0.19096620  0.57587417  1
  H  H29  1  0.83593257  0.30903380  0.92412583  1
  H  H30  1  0.66406743  0.80903380  0.42412583  1
  H  H31  1  0.16406743  0.69096620  0.07587417  1
  H  H32  1  0.79558871  0.49410760  0.49468775  1
  H  H33  1  0.29558871  0.00589240  0.00531225  1
  H  H34  1  0.20441129  0.50589240  0.50531225  1
  H  H35  1  0.70441129  0.99410760  0.99468775  1
  C  C36  1  0.66615904  0.32623539  0.17167023  1
  C  C37  1  0.16615904  0.17376461  0.32832977  1
  C  C38  1  0.33384096  0.67376461  0.82832977  1
  C  C39  1  0.83384096  0.82623539  0.67167023  1
  C  C40  1  0.48299487  0.01969337  0.29151902  1
  C  C41  1  0.98299487  0.48030663  0.20848098  1
  C  C42  1  0.51700513  0.98030663  0.70848098  1
  C  C43  1  0.01700513  0.51969337  0.79151902  1
  C  C44  1  0.78496109  0.07787392  0.45118772  1
  C  C45  1  0.28496109  0.42212608  0.04881228  1
  C  C46  1  0.21503891  0.92212608  0.54881228  1
  C  C47  1  0.71503891  0.57787392  0.95118772  1
  C  C48  1  0.36972343  0.45252109  0.31728229  1
  C  C49  1  0.86972343  0.04747891  0.18271771  1
  C  C50  1  0.63027657  0.54747891  0.68271771  1
  C  C51  1  0.13027657  0.95252109  0.81728229  1
  C  C52  1  0.39863322  0.24404703  0.53002102  1
  C  C53  1  0.89863322  0.25595297  0.96997898  1
  C  C54  1  0.60136678  0.75595297  0.46997898  1
  C  C55  1  0.10136678  0.74404703  0.03002102  1
  C  C56  1  0.77548090  0.42497455  0.44590423  1
  C  C57  1  0.27548090  0.07502545  0.05409577  1
  C  C58  1  0.22451910  0.57502545  0.55409577  1
  C  C59  1  0.72451910  0.92497455  0.94590423  1
  O  O60  1  0.69704413  0.30204045  0.25421773  1
  O  O61  1  0.19704413  0.19795955  0.24578227  1
  O  O62  1  0.30295587  0.69795955  0.74578227  1
  O  O63  1  0.80295587  0.80204045  0.75421773  1
  O  O64  1  0.55322915  0.31664859  0.13685428  1
  O  O65  1  0.05322915  0.18335141  0.36314572  1
  O  O66  1  0.44677085  0.68335141  0.86314572  1
  O  O67  1  0.94677085  0.81664859  0.63685428  1
  O  O68  1  0.49027587  0.13135823  0.28327576  1
  O  O69  1  0.99027587  0.36864177  0.21672424  1
  O  O70  1  0.50972413  0.86864177  0.71672424  1
  O  O71  1  0.00972413  0.63135823  0.78327576  1
  O  O72  1  0.50345131  0.96162608  0.36244948  1
  O  O73  1  0.00345131  0.53837392  0.13755052  1
  O  O74  1  0.49654869  0.03837392  0.63755052  1
  O  O75  1  0.99654869  0.46162608  0.86244948  1
  O  O76  1  0.75339992  0.15399025  0.38998403  1
  O  O77  1  0.25339992  0.34600975  0.11001597  1
  O  O78  1  0.24660008  0.84600975  0.61001597  1
  O  O79  1  0.74660008  0.65399025  0.88998403  1
  O  O80  1  0.70675783  0.01954188  0.49998629  1
  O  O81  1  0.20675783  0.48045812  0.00001371  1
  O  O82  1  0.29324217  0.98045812  0.50001371  1
  O  O83  1  0.79324217  0.51954188  0.99998629  1
  O  O84  1  0.41700732  0.34934432  0.30792347  1
  O  O85  1  0.91700732  0.15065568  0.19207653  1
  O  O86  1  0.58299268  0.65065568  0.69207653  1
  O  O87  1  0.08299268  0.84934432  0.80792347  1
  O  O88  1  0.39366495  0.52113565  0.37975303  1
  O  O89  1  0.89366495  0.97886435  0.12024697  1
  O  O90  1  0.60633505  0.47886435  0.62024697  1
  O  O91  1  0.10633505  0.02113565  0.87975303  1
  O  O92  1  0.47297914  0.18583828  0.47616258  1
  O  O93  1  0.97297914  0.31416172  0.02383742  1
  O  O94  1  0.52702086  0.81416172  0.52383742  1
  O  O95  1  0.02702086  0.68583828  0.97616258  1
  O  O96  1  0.39082558  0.35266104  0.53391834  1
  O  O97  1  0.89082558  0.14733896  0.96608166  1
  O  O98  1  0.60917442  0.64733896  0.46608166  1
  O  O99  1  0.10917442  0.85266104  0.03391834  1
  O  O100  1  0.65291192  0.39472912  0.43799581  1
  O  O101  1  0.15291192  0.10527088  0.06200419  1
  O  O102  1  0.34708808  0.60527088  0.56200419  1
  O  O103  1  0.84708808  0.89472912  0.93799581  1
  O  O104  1  0.87215859  0.38405974  0.40365195  1
  O  O105  1  0.37215859  0.11594026  0.09634805  1
  O  O106  1  0.12784141  0.61594026  0.59634805  1
  O  O107  1  0.62784141  0.88405974  0.90365195  1
