# generated using pymatgen
data_Ga4Fe3
_symmetry_space_group_name_H-M   'P 1'
_cell_length_a   6.32560091
_cell_length_b   6.32560091
_cell_length_c   7.84111055
_cell_angle_alpha   77.23665547
_cell_angle_beta   77.23665547
_cell_angle_gamma   74.59181105
_symmetry_Int_Tables_number   1
_chemical_formula_structural   Ga4Fe3
_chemical_formula_sum   'Ga12 Fe9'
_cell_volume   290.57332613
_cell_formula_units_Z   3
loop_
 _symmetry_equiv_pos_site_id
 _symmetry_equiv_pos_as_xyz
  1  'x, y, z'
loop_
 _atom_site_type_symbol
 _atom_site_label
 _atom_site_symmetry_multiplicity
 _atom_site_fract_x
 _atom_site_fract_y
 _atom_site_fract_z
 _atom_site_occupancy
  Ga  Ga0  1  0.72996397  0.72996397  0.08318894  1
  Ga  Ga1  1  0.27003603  0.27003603  0.91681106  1
  Ga  Ga2  1  0.95872278  0.95872278  0.34690170  1
  Ga  Ga3  1  0.04127722  0.04127722  0.65309830  1
  Ga  Ga4  1  0.59566386  0.18921655  0.15123585  1
  Ga  Ga5  1  0.18921655  0.59566386  0.15123585  1
  Ga  Ga6  1  0.40433614  0.81078345  0.84876415  1
  Ga  Ga7  1  0.81078345  0.40433614  0.84876415  1
  Ga  Ga8  1  0.83382938  0.46156641  0.44937212  1
  Ga  Ga9  1  0.46156641  0.83382938  0.44937212  1
  Ga  Ga10  1  0.16617062  0.53843359  0.55062788  1
  Ga  Ga11  1  0.53843359  0.16617062  0.55062788  1
  Fe  Fe12  1  0.00000000  0.00000000  0.00000000  1
  Fe  Fe13  1  0.50542768  0.50542768  0.31058700  1
  Fe  Fe14  1  0.49457232  0.49457232  0.68941300  1
  Fe  Fe15  1  0.77629138  0.77629138  0.64056622  1
  Fe  Fe16  1  0.22370862  0.22370862  0.35943378  1
  Fe  Fe17  1  0.06596842  0.66240969  0.84818818  1
  Fe  Fe18  1  0.66240969  0.06596842  0.84818818  1
  Fe  Fe19  1  0.93403158  0.33759031  0.15181182  1
  Fe  Fe20  1  0.33759031  0.93403158  0.15181182  1
