# generated using pymatgen
data_InPt
_symmetry_space_group_name_H-M   'P 1'
_cell_length_a   4.48124988
_cell_length_b   7.05687170
_cell_length_c   7.27881014
_cell_angle_alpha   65.34379269
_cell_angle_beta   72.08202652
_cell_angle_gamma   71.63329992
_symmetry_Int_Tables_number   1
_chemical_formula_structural   InPt
_chemical_formula_sum   'In5 Pt5'
_cell_volume   194.35225561
_cell_formula_units_Z   5
loop_
 _symmetry_equiv_pos_site_id
 _symmetry_equiv_pos_as_xyz
  1  'x, y, z'
loop_
 _atom_site_type_symbol
 _atom_site_label
 _atom_site_symmetry_multiplicity
 _atom_site_fract_x
 _atom_site_fract_y
 _atom_site_fract_z
 _atom_site_occupancy
  Pt  Pt0  1  0.00000000  0.00000000  0.00000000  1
  In  In1  1  0.50000000  0.50000000  0.50000000  1
  In  In2  1  0.85117003  0.45234986  0.84546388  1
  In  In3  1  0.14882997  0.54765014  0.15453612  1
  In  In4  1  0.62812594  0.98777590  0.75640648  1
  In  In5  1  0.37187406  0.01222410  0.24359352  1
  Pt  Pt6  1  0.74098520  0.25440314  0.26342476  1
  Pt  Pt7  1  0.25901480  0.74559686  0.73657524  1
  Pt  Pt8  1  0.89115412  0.77389658  0.44385226  1
  Pt  Pt9  1  0.10884588  0.22610342  0.55614774  1
