# generated using pymatgen
data_Dy(CrS2)3
_symmetry_space_group_name_H-M   'P 1'
_cell_length_a   10.69544736
_cell_length_b   10.84985190
_cell_length_c   12.65206180
_cell_angle_alpha   90.00000000
_cell_angle_beta   90.00000000
_cell_angle_gamma   90.00000000
_symmetry_Int_Tables_number   1
_chemical_formula_structural   Dy(CrS2)3
_chemical_formula_sum   'Dy8 Cr24 S48'
_cell_volume   1468.19611079
_cell_formula_units_Z   8
loop_
 _symmetry_equiv_pos_site_id
 _symmetry_equiv_pos_as_xyz
  1  'x, y, z'
loop_
 _atom_site_type_symbol
 _atom_site_label
 _atom_site_symmetry_multiplicity
 _atom_site_fract_x
 _atom_site_fract_y
 _atom_site_fract_z
 _atom_site_occupancy
  Cr  Cr0  1  0.00000000  0.33192758  0.42649340  1
  Cr  Cr1  1  0.00000000  0.80578860  0.22384316  1
  Cr  Cr2  1  0.00000000  0.30186965  0.94348752  1
  Cr  Cr3  1  0.00000000  0.84498083  0.73628591  1
  Cr  Cr4  1  0.16719653  0.66494644  0.92775124  1
  Cr  Cr5  1  0.16386477  0.19029830  0.71266606  1
  Cr  Cr6  1  0.16430318  0.70820330  0.44763071  1
  Cr  Cr7  1  0.16447296  0.15422994  0.23913772  1
  Cr  Cr8  1  0.33552704  0.84577006  0.73913772  1
  Cr  Cr9  1  0.33569682  0.29179670  0.94763071  1
  Cr  Cr10  1  0.33613523  0.80970170  0.21266606  1
  Cr  Cr11  1  0.33280347  0.33505356  0.42775124  1
  Cr  Cr12  1  0.50000000  0.15501917  0.23628591  1
  Cr  Cr13  1  0.50000000  0.19421140  0.72384316  1
  Cr  Cr14  1  0.50000000  0.66807242  0.92649340  1
  Cr  Cr15  1  0.50000000  0.69813035  0.44348752  1
  Cr  Cr16  1  0.66719653  0.33505356  0.42775124  1
  Cr  Cr17  1  0.66386477  0.80970170  0.21266606  1
  Cr  Cr18  1  0.66430318  0.29179670  0.94763071  1
  Cr  Cr19  1  0.66447296  0.84577006  0.73913772  1
  Cr  Cr20  1  0.83552704  0.15422994  0.23913772  1
  Cr  Cr21  1  0.83569682  0.70820330  0.44763071  1
  Cr  Cr22  1  0.83613523  0.19029830  0.71266606  1
  Cr  Cr23  1  0.83280347  0.66494644  0.92775124  1
  Dy  Dy24  1  0.00000000  0.48948460  0.16469011  1
  Dy  Dy25  1  0.00000000  0.98762439  0.00017166  1
  Dy  Dy26  1  0.16651753  0.51712523  0.66287899  1
  Dy  Dy27  1  0.33348247  0.48287477  0.16287899  1
  Dy  Dy28  1  0.50000000  0.01237561  0.50017166  1
  Dy  Dy29  1  0.50000000  0.51051540  0.66469011  1
  Dy  Dy30  1  0.66651753  0.48287477  0.16287899  1
  Dy  Dy31  1  0.83348247  0.51712523  0.66287899  1
  S  S32  1  0.00000000  0.21145878  0.11900167  1
  S  S33  1  0.00000000  0.12790807  0.36224273  1
  S  S34  1  0.00000000  0.05331969  0.67042718  1
  S  S35  1  0.00000000  0.71357405  0.04469459  1
  S  S36  1  0.00000000  0.55404497  0.49398199  1
  S  S37  1  0.00000000  0.34238243  0.75725831  1
  S  S38  1  0.00000000  0.84158413  0.40479598  1
  S  S39  1  0.00000000  0.63360518  0.80032766  1
  S  S40  1  0.16558280  0.87070671  0.86379380  1
  S  S41  1  0.16603547  0.29777866  0.54623027  1
  S  S42  1  0.16306030  0.16199993  0.90069827  1
  S  S43  1  0.16721198  0.77560389  0.62404534  1
  S  S44  1  0.16337646  0.94582568  0.17298586  1
  S  S45  1  0.16549838  0.36476810  0.29873235  1
  S  S46  1  0.16734141  0.65613520  0.26026457  1
  S  S47  1  0.16492844  0.45012031  0.99643389  1
  S  S48  1  0.33507156  0.54987969  0.49643389  1
  S  S49  1  0.33265859  0.34386480  0.76026457  1
  S  S50  1  0.33450162  0.63523190  0.79873235  1
  S  S51  1  0.33662354  0.05417432  0.67298586  1
  S  S52  1  0.33278802  0.22439611  0.12404534  1
  S  S53  1  0.33693970  0.83800007  0.40069827  1
  S  S54  1  0.33396453  0.70222134  0.04623027  1
  S  S55  1  0.33441720  0.12929329  0.36379380  1
  S  S56  1  0.50000000  0.28642595  0.54469459  1
  S  S57  1  0.50000000  0.65761757  0.25725831  1
  S  S58  1  0.50000000  0.78854122  0.61900167  1
  S  S59  1  0.50000000  0.15841587  0.90479598  1
  S  S60  1  0.50000000  0.36639482  0.30032766  1
  S  S61  1  0.50000000  0.44595503  0.99398199  1
  S  S62  1  0.50000000  0.94668031  0.17042718  1
  S  S63  1  0.50000000  0.87209193  0.86224273  1
  S  S64  1  0.66558280  0.12929329  0.36379380  1
  S  S65  1  0.66603547  0.70222134  0.04623027  1
  S  S66  1  0.66306030  0.83800007  0.40069827  1
  S  S67  1  0.66721198  0.22439611  0.12404534  1
  S  S68  1  0.66337646  0.05417432  0.67298586  1
  S  S69  1  0.66549838  0.63523190  0.79873235  1
  S  S70  1  0.66734141  0.34386480  0.76026457  1
  S  S71  1  0.66492844  0.54987969  0.49643389  1
  S  S72  1  0.83507156  0.45012031  0.99643389  1
  S  S73  1  0.83265859  0.65613520  0.26026457  1
  S  S74  1  0.83450162  0.36476810  0.29873235  1
  S  S75  1  0.83662354  0.94582568  0.17298586  1
  S  S76  1  0.83278802  0.77560389  0.62404534  1
  S  S77  1  0.83693970  0.16199993  0.90069827  1
  S  S78  1  0.83396453  0.29777866  0.54623027  1
  S  S79  1  0.83441720  0.87070671  0.86379380  1
