# generated using pymatgen
data_Fe4(PO5)3
_symmetry_space_group_name_H-M   'P 1'
_cell_length_a   7.53779131
_cell_length_b   7.26543344
_cell_length_c   10.65795405
_cell_angle_alpha   100.30275312
_cell_angle_beta   110.70906605
_cell_angle_gamma   90.00000000
_symmetry_Int_Tables_number   1
_chemical_formula_structural   Fe4(PO5)3
_chemical_formula_sum   'Fe8 P6 O30'
_cell_volume   535.90020942
_cell_formula_units_Z   2
loop_
 _symmetry_equiv_pos_site_id
 _symmetry_equiv_pos_as_xyz
  1  'x, y, z'
loop_
 _atom_site_type_symbol
 _atom_site_label
 _atom_site_symmetry_multiplicity
 _atom_site_fract_x
 _atom_site_fract_y
 _atom_site_fract_z
 _atom_site_occupancy
  Fe  Fe0  1  0.34405267  0.65332559  0.16223783  1
  Fe  Fe1  1  0.18181484  0.84667441  0.83776217  1
  Fe  Fe2  1  0.65594733  0.34667441  0.83776217  1
  Fe  Fe3  1  0.81818516  0.15332559  0.16223783  1
  Fe  Fe4  1  0.81601945  0.64578009  0.66038377  1
  Fe  Fe5  1  0.15563568  0.85421991  0.33961623  1
  Fe  Fe6  1  0.18398055  0.35421991  0.33961623  1
  Fe  Fe7  1  0.84436432  0.14578009  0.66038377  1
  P  P8  1  0.53709629  0.08737746  0.33756668  1
  P  P9  1  0.19952961  0.41262254  0.66243332  1
  P  P10  1  0.46290371  0.91262254  0.66243332  1
  P  P11  1  0.80047039  0.58737746  0.33756668  1
  P  P12  1  0.12129990  0.25000000  1.00000000  1
  P  P13  1  0.87870010  0.75000000  0.00000000  1
  O  O14  1  0.34780301  0.75000000  0.00000000  1
  O  O15  1  0.65219699  0.25000000  1.00000000  1
  O  O16  1  0.95306946  0.90280716  0.68866885  1
  O  O17  1  0.26440061  0.59719284  0.31133115  1
  O  O18  1  0.04693054  0.09719284  0.31133115  1
  O  O19  1  0.73559939  0.40280716  0.68866885  1
  O  O20  1  0.77246386  0.92222187  0.03245715  1
  O  O21  1  0.74000671  0.57777813  0.96754285  1
  O  O22  1  0.22753614  0.07777813  0.96754285  1
  O  O23  1  0.25999329  0.42222187  0.03245715  1
  O  O24  1  0.61016632  0.60396525  0.22624739  1
  O  O25  1  0.38391892  0.89603475  0.77375261  1
  O  O26  1  0.38983368  0.39603475  0.77375261  1
  O  O27  1  0.61608108  0.10396525  0.22624739  1
  O  O28  1  0.57086107  0.74022497  0.63299277  1
  O  O29  1  0.93786830  0.75977503  0.36700723  1
  O  O30  1  0.42913893  0.25977503  0.36700723  1
  O  O31  1  0.06213170  0.24022497  0.63299277  1
  O  O32  1  0.38559298  0.91438949  0.28098824  1
  O  O33  1  0.10460474  0.58561051  0.71901176  1
  O  O34  1  0.61440702  0.08561051  0.71901176  1
  O  O35  1  0.89539526  0.41438949  0.28098824  1
  O  O36  1  0.93716859  0.75143322  0.87533154  1
  O  O37  1  0.06183705  0.74856678  0.12466846  1
  O  O38  1  0.06283141  0.24856678  0.12466846  1
  O  O39  1  0.93816295  0.25143322  0.87533154  1
  O  O40  1  0.77600776  0.55705841  0.46911066  1
  O  O41  1  0.30689710  0.94294159  0.53088934  1
  O  O42  1  0.22399224  0.44294159  0.53088934  1
  O  O43  1  0.69310290  0.05705841  0.46911066  1
