# generated using pymatgen
data_Al(PO3)3
_symmetry_space_group_name_H-M   'P 1'
_cell_length_a   9.36966455
_cell_length_b   10.59212449
_cell_length_c   11.51486751
_cell_angle_alpha   113.56316009
_cell_angle_beta   109.80543535
_cell_angle_gamma   98.50518980
_symmetry_Int_Tables_number   1
_chemical_formula_structural   Al(PO3)3
_chemical_formula_sum   'Al6 P18 O54'
_cell_volume   930.82849825
_cell_formula_units_Z   6
loop_
 _symmetry_equiv_pos_site_id
 _symmetry_equiv_pos_as_xyz
  1  'x, y, z'
loop_
 _atom_site_type_symbol
 _atom_site_label
 _atom_site_symmetry_multiplicity
 _atom_site_fract_x
 _atom_site_fract_y
 _atom_site_fract_z
 _atom_site_occupancy
  Al  Al0  1  0.90513442  0.41934194  0.82434683  1
  Al  Al1  1  0.58078759  0.59499511  0.17565317  1
  Al  Al2  1  0.57512480  0.08560919  0.16066495  1
  Al  Al3  1  0.91445985  0.92494424  0.83933505  1
  Al  Al4  1  0.26112307  0.74196139  0.50920669  1
  Al  Al5  1  0.25191638  0.23275469  0.49079331  1
  P  P6  1  0.27059546  0.61899849  0.94402215  1
  P  P7  1  0.82657331  0.67497634  0.05597785  1
  P  P8  1  0.94621296  0.26709567  0.27166873  1
  P  P9  1  0.17454423  0.99542694  0.72833127  1
  P  P10  1  0.61810148  0.93282088  0.60672068  1
  P  P11  1  0.51138080  0.32610020  0.39327932  1
  P  P12  1  0.65081567  0.84304488  0.93707190  1
  P  P13  1  0.21374377  0.90597298  0.06292810  1
  P  P14  1  0.32624996  0.49429747  0.27362775  1
  P  P15  1  0.55262222  0.22066972  0.72637225  1
  P  P16  1  0.99546853  0.16296396  0.60253375  1
  P  P17  1  0.89293478  0.56043021  0.39746625  1
  P  P18  1  0.35813928  0.58349043  0.70203914  1
  P  P19  1  0.15610014  0.88145129  0.29796086  1
  P  P20  1  0.00380586  0.28416917  0.03132039  1
  P  P21  1  0.47248547  0.25284879  0.96867961  1
  P  P22  1  0.67457172  0.93800067  0.36428959  1
  P  P23  1  0.81028212  0.57371107  0.63571041  1
  O  O24  1  0.48607428  0.80689016  0.57385472  1
  O  O25  1  0.41221956  0.23303544  0.42614528  1
  O  O26  1  0.12828434  0.51473195  0.92625353  1
  O  O27  1  0.70203081  0.58847842  0.07374647  1
  O  O28  1  0.80128489  0.14143235  0.21997591  1
  O  O29  1  0.08130898  0.92145644  0.78002409  1
  O  O30  1  0.59810807  0.07701737  0.70609665  1
  O  O31  1  0.39201142  0.37092073  0.29390335  1
  O  O32  1  0.23113672  0.76419590  0.95499092  1
  O  O33  1  0.77614580  0.80920498  0.04500908  1
  O  O34  1  0.93025010  0.41246532  0.37501852  1
  O  O35  1  0.05523158  0.03744680  0.62498148  1
  O  O36  1  0.78646492  0.93415034  0.67544884  1
  O  O37  1  0.61101608  0.25870150  0.32455116  1
  O  O38  1  0.43006055  0.65262909  0.05880622  1
  O  O39  1  0.87125433  0.59382287  0.94119378  1
  O  O40  1  0.10848873  0.25928565  0.34300401  1
  O  O41  1  0.26548472  0.91628163  0.65699599  1
  O  O42  1  0.00328310  0.13271185  0.95181722  1
  O  O43  1  0.55146588  0.18089463  0.04818278  1
  O  O44  1  0.70007053  0.79269144  0.31083482  1
  O  O45  1  0.88923572  0.48185662  0.68916518  1
  O  O46  1  0.35972307  0.43760755  0.60878399  1
  O  O47  1  0.25093908  0.82882356  0.39121601  1
  O  O48  1  0.91000451  0.34849672  0.95032011  1
  O  O49  1  0.45968441  0.39817661  0.04967989  1
  O  O50  1  0.57835519  0.97743777  0.25931011  1
  O  O51  1  0.81904508  0.71812766  0.74068989  1
  O  O52  1  0.27680036  0.66463308  0.63518785  1
  O  O53  1  0.14161251  0.02944523  0.36481215  1
  O  O54  1  0.94524716  0.24661788  0.71223231  1
  O  O55  1  0.73301485  0.53438557  0.28776769  1
  O  O56  1  0.54867954  0.91312618  1.00046309  1
  O  O57  1  0.04821645  0.91266309  -0.00046309  1
  O  O58  1  0.25706264  0.56036608  0.37389072  1
  O  O59  1  0.38317192  0.18647537  0.62610928  1
  O  O60  1  0.11165920  0.24842740  0.57644797  1
  O  O61  1  0.03521123  0.67197943  0.42355203  1
  O  O62  1  0.74369843  0.92817400  0.89334554  1
  O  O63  1  0.35035289  0.03482846  0.10665446  1
  O  O64  1  0.45086891  0.59780958  0.27067719  1
  O  O65  1  0.68019172  0.32713239  0.72932281  1
  O  O66  1  0.29204438  0.15359712  0.85555253  1
  O  O67  1  0.93649185  0.29804459  0.14444747  1
  O  O68  1  0.98166795  0.76221740  0.20384353  1
  O  O69  1  0.27782441  0.55837387  0.79615647  1
  O  O70  1  0.62390135  0.48244771  0.52893135  1
  O  O71  1  0.59496999  0.95351636  0.47106865  1
  O  O72  1  0.56560111  0.27375353  0.88120420  1
  O  O73  1  0.18439691  0.39254933  0.11879580  1
  O  O74  1  0.23231294  0.87063746  0.18980104  1
  O  O75  1  0.54251191  0.68083642  0.81019896  1
  O  O76  1  0.88828633  0.60921749  0.54531959  1
  O  O77  1  0.84296674  0.06389790  0.45468041  1
