# generated using pymatgen
data_VH14SO11
_symmetry_space_group_name_H-M   'P 1'
_cell_length_a   6.52963651
_cell_length_b   11.16270226
_cell_length_c   14.18573390
_cell_angle_alpha   105.55365784
_cell_angle_beta   90.00000000
_cell_angle_gamma   90.00000000
_symmetry_Int_Tables_number   1
_chemical_formula_structural   VH14SO11
_chemical_formula_sum   'V4 H56 S4 O44'
_cell_volume   996.11085744
_cell_formula_units_Z   4
loop_
 _symmetry_equiv_pos_site_id
 _symmetry_equiv_pos_as_xyz
  1  'x, y, z'
loop_
 _atom_site_type_symbol
 _atom_site_label
 _atom_site_symmetry_multiplicity
 _atom_site_fract_x
 _atom_site_fract_y
 _atom_site_fract_z
 _atom_site_occupancy
  V  V0  1  0.00000000  0.00000000  0.00000000  1
  V  V1  1  0.50000000  0.50000000  0.00000000  1
  V  V2  1  0.50000000  0.00000000  0.50000000  1
  V  V3  1  0.00000000  0.50000000  0.50000000  1
  S  S4  1  0.47268442  0.17205520  0.22568745  1
  S  S5  1  0.97268442  0.32794480  0.77431255  1
  S  S6  1  0.52731558  0.82794480  0.77431255  1
  S  S7  1  0.02731558  0.67205520  0.22568745  1
  O  O8  1  0.47738950  0.03231635  0.20295211  1
  O  O9  1  0.97738950  0.46768365  0.79704789  1
  O  O10  1  0.52261050  0.96768365  0.79704789  1
  O  O11  1  0.02261050  0.53231635  0.20295211  1
  O  O12  1  0.53321322  0.20962819  0.13576290  1
  O  O13  1  0.03321322  0.29037181  0.86423710  1
  O  O14  1  0.46678678  0.79037181  0.86423710  1
  O  O15  1  0.96678678  0.70962819  0.13576290  1
  O  O16  1  0.61908287  0.22513721  0.30644077  1
  O  O17  1  0.11908287  0.27486279  0.69355923  1
  O  O18  1  0.38091713  0.77486279  0.69355923  1
  O  O19  1  0.88091713  0.72513721  0.30644077  1
  O  O20  1  0.26031109  0.21841782  0.25501658  1
  O  O21  1  0.76031109  0.28158218  0.74498342  1
  O  O22  1  0.73968891  0.78158218  0.74498342  1
  O  O23  1  0.23968891  0.71841782  0.25501658  1
  O  O24  1  0.10661020  0.93722593  0.12259874  1
  O  O25  1  0.60661020  0.56277407  0.87740126  1
  O  O26  1  0.89338980  0.06277407  0.87740126  1
  O  O27  1  0.39338980  0.43722593  0.12259874  1
  O  O28  1  0.95732355  0.18490798  0.10037006  1
  O  O29  1  0.45732355  0.31509202  0.89962994  1
  O  O30  1  0.04267645  0.81509202  0.89962994  1
  O  O31  1  0.54267645  0.68490798  0.10037006  1
  O  O32  1  0.29695007  0.07094130  0.97015726  1
  O  O33  1  0.79695007  0.42905870  0.02984274  1
  O  O34  1  0.70304993  0.92905870  0.02984274  1
  O  O35  1  0.20304993  0.57094130  0.97015726  1
  O  O36  1  0.45457243  0.18200547  0.47801122  1
  O  O37  1  0.95457243  0.31799453  0.52198878  1
  O  O38  1  0.54542757  0.81799453  0.52198878  1
  O  O39  1  0.04542757  0.68200547  0.47801122  1
  O  O40  1  0.78524318  0.06162697  0.57399237  1
  O  O41  1  0.28524318  0.43837303  0.42600763  1
  O  O42  1  0.21475682  0.93837303  0.42600763  1
  O  O43  1  0.71475682  0.56162697  0.57399237  1
  O  O44  1  0.34363502  0.05161043  0.64534969  1
  O  O45  1  0.84363502  0.44838957  0.35465031  1
  O  O46  1  0.65636498  0.94838957  0.35465031  1
  O  O47  1  0.15636498  0.55161043  0.64534969  1
  O  O48  1  0.01436523  0.11717221  0.37085640  1
  O  O49  1  0.51436523  0.38282779  0.62914360  1
  O  O50  1  0.98563477  0.88282779  0.62914360  1
  O  O51  1  0.48563477  0.61717221  0.37085640  1
  H  H52  1  0.24400433  0.95764644  0.15144026  1
  H  H53  1  0.74400433  0.54235356  0.84855974  1
  H  H54  1  0.75599567  0.04235356  0.84855974  1
  H  H55  1  0.25599567  0.45764644  0.15144026  1
  H  H56  1  0.06532930  0.85378995  0.12740474  1
  H  H57  1  0.56532930  0.64621005  0.87259526  1
  H  H58  1  0.93467070  0.14621005  0.87259526  1
  H  H59  1  0.43467070  0.35378995  0.12740474  1
  H  H60  1  0.81330730  0.20502566  0.11981509  1
  H  H61  1  0.31330730  0.29497434  0.88018491  1
  H  H62  1  0.18669270  0.79497434  0.88018491  1
  H  H63  1  0.68669270  0.70502566  0.11981509  1
  H  H64  1  0.04338776  0.20179880  0.15944508  1
  H  H65  1  0.54338776  0.29820120  0.84055492  1
  H  H66  1  0.95661224  0.79820120  0.84055492  1
  H  H67  1  0.45661224  0.70179880  0.15944508  1
  H  H68  1  0.38882064  0.12146452  0.02023149  1
  H  H69  1  0.88882064  0.37853548  0.97976851  1
  H  H70  1  0.61117936  0.87853548  0.97976851  1
  H  H71  1  0.11117936  0.62146452  0.02023149  1
  H  H72  1  0.37802274  0.03682379  0.91033740  1
  H  H73  1  0.87802274  0.46317621  0.08966260  1
  H  H74  1  0.62197726  0.96317621  0.08966260  1
  H  H75  1  0.12197726  0.53682379  0.91033740  1
  H  H76  1  0.52050168  0.20045661  0.42087651  1
  H  H77  1  0.02050168  0.29954339  0.57912349  1
  H  H78  1  0.47949832  0.79954339  0.57912349  1
  H  H79  1  0.97949832  0.70045661  0.42087651  1
  H  H80  1  0.47517252  0.25798378  0.53348635  1
  H  H81  1  0.97517252  0.24201622  0.46651365  1
  H  H82  1  0.52482748  0.74201622  0.46651365  1
  H  H83  1  0.02482748  0.75798378  0.53348635  1
  H  H84  1  0.86456373  0.99602605  0.59435838  1
  H  H85  1  0.36456373  0.50397395  0.40564162  1
  H  H86  1  0.13543627  0.00397395  0.40564162  1
  H  H87  1  0.63543627  0.49602605  0.59435838  1
  H  H88  1  0.78178350  0.13508933  0.63057978  1
  H  H89  1  0.28178350  0.36491067  0.36942022  1
  H  H90  1  0.21821650  0.86491067  0.36942022  1
  H  H91  1  0.71821650  0.63508933  0.63057978  1
  H  H92  1  0.41825951  0.03691495  0.70194759  1
  H  H93  1  0.91825951  0.46308505  0.29805241  1
  H  H94  1  0.58174049  0.96308505  0.29805241  1
  H  H95  1  0.08174049  0.53691495  0.70194759  1
  H  H96  1  0.26732552  0.13092531  0.66745035  1
  H  H97  1  0.76732552  0.36907469  0.33254965  1
  H  H98  1  0.73267448  0.86907469  0.33254965  1
  H  H99  1  0.23267448  0.63092531  0.66745035  1
  H  H100  1  0.88146591  0.08496685  0.34329758  1
  H  H101  1  0.38146591  0.41503315  0.65670242  1
  H  H102  1  0.11853409  0.91503315  0.65670242  1
  H  H103  1  0.61853409  0.58496685  0.34329758  1
  H  H104  1  0.09432524  0.14415946  0.32071838  1
  H  H105  1  0.59432524  0.35584054  0.67928162  1
  H  H106  1  0.90567476  0.85584054  0.67928162  1
  H  H107  1  0.40567476  0.64415946  0.32071838  1
