# generated using pymatgen
data_CaCuAsHO5
_symmetry_space_group_name_H-M   'P 1'
_cell_length_a   5.88755764
_cell_length_b   7.43266400
_cell_length_c   9.49257048
_cell_angle_alpha   90.00000000
_cell_angle_beta   90.00000000
_cell_angle_gamma   90.00000000
_symmetry_Int_Tables_number   1
_chemical_formula_structural   CaCuAsHO5
_chemical_formula_sum   'Ca4 Cu4 As4 H4 O20'
_cell_volume   415.39714077
_cell_formula_units_Z   4
loop_
 _symmetry_equiv_pos_site_id
 _symmetry_equiv_pos_as_xyz
  1  'x, y, z'
loop_
 _atom_site_type_symbol
 _atom_site_label
 _atom_site_symmetry_multiplicity
 _atom_site_fract_x
 _atom_site_fract_y
 _atom_site_fract_z
 _atom_site_occupancy
  Ca  Ca0  1  0.27002021  0.38315486  0.92918874  1
  Ca  Ca1  1  0.77002021  0.61684514  0.57081126  1
  Ca  Ca2  1  0.22997979  0.88315486  0.07081126  1
  Ca  Ca3  1  0.72997979  0.11684514  0.42918874  1
  Cu  Cu4  1  0.00142934  1.00336825  0.75077235  1
  Cu  Cu5  1  0.50142934  -0.00336825  0.74922765  1
  Cu  Cu6  1  0.49857066  0.50336825  0.24922765  1
  Cu  Cu7  1  0.99857066  0.49663175  0.25077235  1
  As  As8  1  0.73543112  0.63133756  0.91353617  1
  As  As9  1  0.23543112  0.36866244  0.58646383  1
  As  As10  1  0.76456888  0.13133756  0.08646383  1
  As  As11  1  0.26456888  0.86866244  0.41353617  1
  O  O12  1  0.75471834  0.81209289  0.79184281  1
  O  O13  1  0.25471834  0.18790711  0.70815719  1
  O  O14  1  0.74528166  0.31209289  0.20815719  1
  O  O15  1  0.24528166  0.68790711  0.29184281  1
  O  O16  1  0.66565554  0.45693164  0.80263669  1
  O  O17  1  0.16565554  0.54306836  0.69736331  1
  O  O18  1  0.83434446  0.95693164  0.19736331  1
  O  O19  1  0.33434446  0.04306836  0.30263669  1
  O  O20  1  0.50468481  0.64861190  0.02390552  1
  O  O21  1  0.00468481  0.35138810  0.47609448  1
  O  O22  1  0.99531519  0.14861190  0.97609448  1
  O  O23  1  0.49531519  0.85138810  0.52390552  1
  O  O24  1  0.98815046  0.61294704  0.00212871  1
  O  O25  1  0.48815046  0.38705296  0.49787129  1
  O  O26  1  0.51184954  0.11294704  0.99787129  1
  O  O27  1  0.01184954  0.88705296  0.50212871  1
  O  O28  1  0.74914813  0.14043822  0.68288188  1
  O  O29  1  0.24914813  0.85956178  0.81711812  1
  O  O30  1  0.75085187  0.64043822  0.31711812  1
  O  O31  1  0.25085187  0.35956178  0.18288188  1
  H  H32  1  0.73911200  0.25871503  0.73333579  1
  H  H33  1  0.23911200  0.74128497  0.76666421  1
  H  H34  1  0.76088800  0.75871503  0.26666421  1
  H  H35  1  0.26088800  0.24128497  0.23333579  1
