# generated using pymatgen
data_Rb16Sn16F47
_symmetry_space_group_name_H-M   'P 1'
_cell_length_a   16.98735689
_cell_length_b   10.36384467
_cell_length_c   10.33243246
_cell_angle_alpha   80.36036654
_cell_angle_beta   72.54675767
_cell_angle_gamma   72.34711713
_symmetry_Int_Tables_number   1
_chemical_formula_structural   Rb16Sn16F47
_chemical_formula_sum   'Rb16 Sn16 F47'
_cell_volume   1647.74336142
_cell_formula_units_Z   1
loop_
 _symmetry_equiv_pos_site_id
 _symmetry_equiv_pos_as_xyz
  1  'x, y, z'
loop_
 _atom_site_type_symbol
 _atom_site_label
 _atom_site_symmetry_multiplicity
 _atom_site_fract_x
 _atom_site_fract_y
 _atom_site_fract_z
 _atom_site_occupancy
  F  F0  1  0.04017043  0.32323144  0.16384521  1
  F  F1  1  0.01952107  0.15866687  0.72433070  1
  F  F2  1  0.11310220  0.29097627  0.38597579  1
  F  F3  1  0.03029554  0.81873472  0.57403126  1
  F  F4  1  0.12813190  0.76467324  0.04656700  1
  F  F5  1  0.12581035  0.08686762  0.91251878  1
  F  F6  1  0.12300449  0.95252980  0.23333689  1
  F  F7  1  0.21857078  0.42523521  0.18173947  1
  F  F8  1  0.13849283  0.61350467  0.70600750  1
  F  F9  1  0.28793306  0.16983043  0.33302297  1
  F  F10  1  0.23246988  0.27530510  0.84401878  1
  F  F11  1  0.27238792  0.72632629  0.15640904  1
  F  F12  1  0.20926614  0.83540101  0.67777966  1
  F  F13  1  0.36152253  0.38911677  0.29112508  1
  F  F14  1  0.29617345  0.85082236  0.37135645  1
  F  F15  1  0.28022126  0.57056667  0.81836614  1
  F  F16  1  0.37751736  0.04826011  0.76090701  1
  F  F17  1  0.37817483  0.91751361  0.07942278  1
  F  F18  1  0.37815319  0.23464787  0.94786604  1
  F  F19  1  0.47087969  0.17949002  0.41805814  1
  F  F20  1  0.38602522  0.71392831  0.62782298  1
  F  F21  1  0.53285922  0.34190703  0.15649818  1
  F  F22  1  0.47904750  0.83726222  0.27761300  1
  F  F23  1  0.52373872  0.16035846  0.72221089  1
  F  F24  1  0.46713098  0.65829586  0.84364260  1
  F  F25  1  0.61437476  0.28543436  0.37195657  1
  F  F26  1  0.52982237  0.81908508  0.58051774  1
  F  F27  1  0.62482470  0.76497531  0.05162213  1
  F  F28  1  0.62290254  0.08197093  0.92155993  1
  F  F29  1  0.62447848  0.95065835  0.24037881  1
  F  F30  1  0.71963048  0.42829866  0.18172322  1
  F  F31  1  0.70464794  0.14904232  0.62938750  1
  F  F32  1  0.63887257  0.61029266  0.71001405  1
  F  F33  1  0.78983872  0.15840251  0.32268475  1
  F  F34  1  0.72736453  0.27617331  0.84399001  1
  F  F35  1  0.77070833  0.72759091  0.15905706  1
  F  F36  1  0.71365969  0.82843273  0.66193052  1
  F  F37  1  0.86316498  0.37728102  0.28915280  1
  F  F38  1  0.78092249  0.57665169  0.82057472  1
  F  F39  1  0.87623368  0.04860888  0.77039785  1
  F  F40  1  0.87369175  0.91931091  0.08122727  1
  F  F41  1  0.87331237  0.24080921  0.95269587  1
  F  F42  1  0.97051601  0.18131427  0.42680982  1
  F  F43  1  0.95404896  0.62776809  0.15133211  1
  F  F44  1  0.88765415  0.70874558  0.61026563  1
  F  F45  1  0.97857904  0.84289364  0.27324997  1
  F  F46  1  0.96307174  0.66656464  0.82952884  1
  Rb  Rb47  1  0.12694797  0.01680959  0.48604409  1
  Rb  Rb48  1  0.22046974  0.14782853  0.11551886  1
  Rb  Rb49  1  0.02919611  0.88488943  0.85215878  1
  Rb  Rb50  1  0.12153976  0.51429124  0.98205650  1
  Rb  Rb51  1  0.36974375  0.48556745  0.01924781  1
  Rb  Rb52  1  0.46775951  0.10882823  0.15484735  1
  Rb  Rb53  1  0.27764955  0.85615394  0.88793956  1
  Rb  Rb54  1  0.37279169  0.97918735  0.51060075  1
  Rb  Rb55  1  0.62556941  0.02232664  0.49134121  1
  Rb  Rb56  1  0.71926405  0.15069866  0.10964899  1
  Rb  Rb57  1  0.53222563  0.89063658  0.84538769  1
  Rb  Rb58  1  0.62879034  0.51552254  0.98159238  1
  Rb  Rb59  1  0.87727714  0.49116913  0.02180904  1
  Rb  Rb60  1  0.97216861  0.11245096  0.14473097  1
  Rb  Rb61  1  0.78009579  0.85184403  0.88341366  1
  Rb  Rb62  1  0.87501293  0.98682537  0.51778734  1
  Sn  Sn63  1  0.02519479  0.61685042  0.62963410  1
  Sn  Sn64  1  0.12396713  0.24451938  0.75499621  1
  Sn  Sn65  1  0.12518352  0.74917885  0.25080325  1
  Sn  Sn66  1  0.22392937  0.36861933  0.38461063  1
  Sn  Sn67  1  0.27348569  0.63894907  0.61789946  1
  Sn  Sn68  1  0.37249080  0.25296428  0.74636263  1
  Sn  Sn69  1  0.38773191  0.74628831  0.21727885  1
  Sn  Sn70  1  0.47626244  0.38051127  0.36361749  1
  Sn  Sn71  1  0.52318665  0.61882263  0.63694762  1
  Sn  Sn72  1  0.61167555  0.25307163  0.78308717  1
  Sn  Sn73  1  0.62668708  0.74709195  0.25477566  1
  Sn  Sn74  1  0.72764217  0.35690570  0.38145087  1
  Sn  Sn75  1  0.77624926  0.62708142  0.61791049  1
  Sn  Sn76  1  0.87474999  0.25224026  0.74931923  1
  Sn  Sn77  1  0.86340533  0.78406862  0.25380996  1
  Sn  Sn78  1  0.97643551  0.38185018  0.36144186  1
