# generated using pymatgen
data_Dy(CrS2)3
_symmetry_space_group_name_H-M   'P 1'
_cell_length_a   10.69725291
_cell_length_b   21.69141100
_cell_length_c   12.65619366
_cell_angle_alpha   90.00000000
_cell_angle_beta   89.99749443
_cell_angle_gamma   90.00000000
_symmetry_Int_Tables_number   1
_chemical_formula_structural   Dy(CrS2)3
_chemical_formula_sum   'Dy16 Cr48 S96'
_cell_volume   2936.72430839
_cell_formula_units_Z   16
loop_
 _symmetry_equiv_pos_site_id
 _symmetry_equiv_pos_as_xyz
  1  'x, y, z'
loop_
 _atom_site_type_symbol
 _atom_site_label
 _atom_site_symmetry_multiplicity
 _atom_site_fract_x
 _atom_site_fract_y
 _atom_site_fract_z
 _atom_site_occupancy
  Cr  Cr0  1  0.00035762  0.16832790  0.42696921  1
  Cr  Cr1  1  -0.00012004  0.40298346  0.22390312  1
  Cr  Cr2  1  0.99774471  0.14626148  0.94732601  1
  Cr  Cr3  1  0.99995965  0.66552255  0.42727910  1
  Cr  Cr4  1  0.99708881  0.90525453  0.21296419  1
  Cr  Cr5  1  0.99964967  0.65068338  0.94395085  1
  Cr  Cr6  1  0.99751912  0.92251167  0.73865686  1
  Cr  Cr7  1  0.16730933  0.33248853  0.92794637  1
  Cr  Cr8  1  0.16563264  0.83215430  0.92759078  1
  Cr  Cr9  1  0.16872253  0.09496890  0.71246252  1
  Cr  Cr10  1  0.16423362  0.59486441  0.71299964  1
  Cr  Cr11  1  0.16500687  0.35401286  0.44793167  1
  Cr  Cr12  1  0.16809070  0.85384842  0.44749112  1
  Cr  Cr13  1  0.16820154  0.07741703  0.23874890  1
  Cr  Cr14  1  0.16473863  0.57730757  0.23931448  1
  Cr  Cr15  1  0.33546087  0.42258013  0.73924774  1
  Cr  Cr16  1  0.33314799  0.92219254  0.73628349  1
  Cr  Cr17  1  0.33339104  0.15072879  0.94353735  1
  Cr  Cr18  1  0.33536724  0.64598688  0.94780082  1
  Cr  Cr19  1  0.33600476  0.40532105  0.21347061  1
  Cr  Cr20  1  0.33314481  0.90284802  0.22323796  1
  Cr  Cr21  1  0.33302893  0.16568389  0.42678197  1
  Cr  Cr22  1  0.33266752  0.66791724  0.42730465  1
  Cr  Cr23  1  0.49751912  0.07748833  0.23865686  1
  Cr  Cr24  1  0.49708881  0.09474547  0.71296419  1
  Cr  Cr25  1  0.49987645  0.57756601  0.23666560  1
  Cr  Cr26  1  0.49995965  0.33447745  0.92727910  1
  Cr  Cr27  1  0.49964967  0.34931662  0.44395085  1
  Cr  Cr28  1  0.49987996  0.59701654  0.72390312  1
  Cr  Cr29  1  0.49774471  0.85373852  0.44732601  1
  Cr  Cr30  1  0.50035762  0.83167210  0.92696921  1
  Cr  Cr31  1  0.66563264  0.16784570  0.42759078  1
  Cr  Cr32  1  0.66730933  0.66751147  0.42794637  1
  Cr  Cr33  1  0.66423362  0.40513559  0.21299964  1
  Cr  Cr34  1  0.66872253  0.90503110  0.21246252  1
  Cr  Cr35  1  0.66809070  0.14615158  0.94749112  1
  Cr  Cr36  1  0.66500687  0.64598714  0.94793167  1
  Cr  Cr37  1  0.66820154  0.92258297  0.73874890  1
  Cr  Cr38  1  0.66473863  0.42269243  0.73931448  1
  Cr  Cr39  1  0.83314799  0.07780746  0.23628349  1
  Cr  Cr40  1  0.83546087  0.57741987  0.23924774  1
  Cr  Cr41  1  0.83536724  0.35401312  0.44780082  1
  Cr  Cr42  1  0.83339104  0.84927121  0.44353735  1
  Cr  Cr43  1  0.83314481  0.09715198  0.72323796  1
  Cr  Cr44  1  0.83600476  0.59467895  0.71347061  1
  Cr  Cr45  1  0.83266752  0.33208276  0.92730465  1
  Cr  Cr46  1  0.83302893  0.83431611  0.92678197  1
  Cr  Cr47  1  0.99987645  0.42243399  0.73666560  1
  Dy  Dy48  1  0.99960215  0.24301771  0.16442340  1
  Dy  Dy49  1  0.00027719  0.49339320  0.00033678  1
  Dy  Dy50  1  0.99991048  0.74347791  0.16238692  1
  Dy  Dy51  1  0.16631291  0.25840312  0.66308956  1
  Dy  Dy52  1  0.16670625  0.75817057  0.66285546  1
  Dy  Dy53  1  0.33266252  0.99330799  -0.00039628  1
  Dy  Dy54  1  0.33307230  0.24365412  0.16218919  1
  Dy  Dy55  1  0.33340409  0.74269353  0.16465412  1
  Dy  Dy56  1  0.49991048  0.25652209  0.66238692  1
  Dy  Dy57  1  0.50027719  0.50660680  0.50033678  1
  Dy  Dy58  1  0.49960215  0.75698229  0.66442340  1
  Dy  Dy59  1  0.66670625  0.24182943  0.16285546  1
  Dy  Dy60  1  0.66631291  0.74159688  0.16308956  1
  Dy  Dy61  1  0.83266252  0.00669201  0.49960372  1
  Dy  Dy62  1  0.83340409  0.25730647  0.66465412  1
  Dy  Dy63  1  0.83307230  0.75634588  0.66218919  1
  S  S64  1  1.00001149  0.11338610  0.12440355  1
  S  S65  1  0.99871823  0.06517224  0.36375634  1
  S  S66  1  0.99638602  0.02692005  0.67254390  1
  S  S67  1  -0.00031601  0.35644746  0.04462873  1
  S  S68  1  0.99905238  0.27650663  0.49490421  1
  S  S69  1  0.00034923  0.17178586  0.75973866  1
  S  S70  1  0.00002669  0.42069125  0.40515335  1
  S  S71  1  0.00010185  0.60536697  0.11891989  1
  S  S72  1  -0.00004531  0.31693492  0.80022511  1
  S  S73  1  1.00000094  0.52645453  0.67089181  1
  S  S74  1  0.99930866  0.85217398  0.04624243  1
  S  S75  1  -0.00087358  0.77544630  0.49540162  1
  S  S76  1  0.99640099  0.91923275  0.40078574  1
  S  S77  1  0.99849691  0.81713260  0.79894510  1
  S  S78  1  0.16576487  0.43529797  0.86386234  1
  S  S79  1  0.16723530  0.93502988  0.86341680  1
  S  S80  1  0.16635182  0.14886003  0.54603048  1
  S  S81  1  0.16669178  0.64854977  0.54638377  1
  S  S82  1  0.16967960  0.08092720  0.90056726  1
  S  S83  1  0.16323075  0.58082752  0.90108861  1
  S  S84  1  0.16697890  0.38762800  0.62439861  1
  S  S85  1  0.16608728  0.88743295  0.62392811  1
  S  S86  1  0.16354096  0.47308216  0.17321627  1
  S  S87  1  0.16950411  0.97305045  0.17265258  1
  S  S88  1  0.16748934  0.18263070  0.29852222  1
  S  S89  1  0.16551855  0.68248883  0.29905202  1
  S  S90  1  0.16715769  0.32821559  0.26043503  1
  S  S91  1  0.16583344  0.82808071  0.25998827  1
  S  S92  1  0.16627135  0.22502995  0.99606873  1
  S  S93  1  0.16680974  0.72483428  0.99627686  1
  S  S94  1  0.33382997  0.27555391  0.49555851  1
  S  S95  1  0.33396817  0.77620876  0.49465139  1
  S  S96  1  0.33301053  0.17107028  0.75733073  1
  S  S97  1  0.33267137  0.67159995  0.76022686  1
  S  S98  1  0.33443652  0.31720476  0.79948449  1
  S  S99  1  0.33305191  0.81667279  0.79982408  1
  S  S100  1  0.33303603  0.02642590  0.67086982  1
  S  S101  1  0.33659068  0.52685368  0.67316363  1
  S  S102  1  0.33286682  0.10525969  0.11830879  1
  S  S103  1  0.33295641  0.61311964  0.12486478  1
  S  S104  1  0.33671190  0.41927370  0.40127712  1
  S  S105  1  0.33312209  0.92046547  0.40455896  1
  S  S106  1  0.33360233  0.35241804  0.04665074  1
  S  S107  1  0.33330639  0.85602088  0.04425391  1
  S  S108  1  0.33287160  0.06391506  0.36155627  1
  S  S109  1  0.33426823  0.56483223  0.36411114  1
  S  S110  1  0.49930866  0.14782602  0.54624243  1
  S  S111  1  0.49968399  0.64355254  0.54462873  1
  S  S112  1  0.50001149  0.88661390  0.62440355  1
  S  S113  1  0.50010185  0.39463303  0.61891989  1
  S  S114  1  0.49640099  0.08076725  0.90078574  1
  S  S115  1  0.50001637  0.32897228  0.25773257  1
  S  S116  1  0.49849691  0.18286740  0.29894510  1
  S  S117  1  0.50002669  0.57930875  0.90515335  1
  S  S118  1  0.49912642  0.22455370  0.99540162  1
  S  S119  1  0.50000094  0.47354547  0.17089181  1
  S  S120  1  0.49995469  0.68306508  0.30022511  1
  S  S121  1  0.50034923  0.82821414  0.25973866  1
  S  S122  1  0.49638602  0.97307995  0.17254390  1
  S  S123  1  0.49905238  0.72349337  0.99490421  1
  S  S124  1  0.49871823  0.93482776  0.86375634  1
  S  S125  1  0.50004583  0.43622638  0.86214364  1
  S  S126  1  0.66723530  0.06497012  0.36341680  1
  S  S127  1  0.66576487  0.56470203  0.36386234  1
  S  S128  1  0.66669178  0.35145023  0.04638377  1
  S  S129  1  0.66635182  0.85113997  0.04603048  1
  S  S130  1  0.66323075  0.41917248  0.40108861  1
  S  S131  1  0.66967960  0.91907280  0.40056726  1
  S  S132  1  0.66608728  0.11256705  0.12392811  1
  S  S133  1  0.66697890  0.61237200  0.12439861  1
  S  S134  1  0.66950411  0.02694955  0.67265258  1
  S  S135  1  0.66354096  0.52691784  0.67321627  1
  S  S136  1  0.66551855  0.31751117  0.79905202  1
  S  S137  1  0.66748934  0.81736930  0.79852222  1
  S  S138  1  0.66583344  0.17191929  0.75998827  1
  S  S139  1  0.66715769  0.67178441  0.76043503  1
  S  S140  1  0.66680974  0.27516572  0.49627686  1
  S  S141  1  0.66627135  0.77497005  0.49606873  1
  S  S142  1  0.83396817  0.22379124  0.99465139  1
  S  S143  1  0.83382997  0.72444609  0.99555851  1
  S  S144  1  0.83267137  0.32840005  0.26022686  1
  S  S145  1  0.83301053  0.82892972  0.25733073  1
  S  S146  1  0.83305191  0.18332721  0.29982408  1
  S  S147  1  0.83443652  0.68279524  0.29948449  1
  S  S148  1  0.83659068  0.47314632  0.17316363  1
  S  S149  1  0.83303603  0.97357410  0.17086982  1
  S  S150  1  0.83295641  0.38688036  0.62486478  1
  S  S151  1  0.83286682  0.89474031  0.61830879  1
  S  S152  1  0.83312209  0.07953453  0.90455896  1
  S  S153  1  0.83671190  0.58072630  0.90127712  1
  S  S154  1  0.83330639  0.14397912  0.54425391  1
  S  S155  1  0.83360233  0.64758196  0.54665074  1
  S  S156  1  0.83426823  0.43516777  0.86411114  1
  S  S157  1  0.83287160  0.93608494  0.86155627  1
  S  S158  1  1.00004583  0.56377362  0.36214364  1
  S  S159  1  1.00001637  0.67102772  0.75773257  1
