# generated using pymatgen
data_MnPO4
_symmetry_space_group_name_H-M   'P 1'
_cell_length_a   5.08789601
_cell_length_b   5.19973308
_cell_length_c   6.22037273
_cell_angle_alpha   99.90882117
_cell_angle_beta   90.28768768
_cell_angle_gamma   72.94666089
_symmetry_Int_Tables_number   1
_chemical_formula_structural   MnPO4
_chemical_formula_sum   'Mn2 P2 O8'
_cell_volume   154.80135221
_cell_formula_units_Z   2
loop_
 _symmetry_equiv_pos_site_id
 _symmetry_equiv_pos_as_xyz
  1  'x, y, z'
loop_
 _atom_site_type_symbol
 _atom_site_label
 _atom_site_symmetry_multiplicity
 _atom_site_fract_x
 _atom_site_fract_y
 _atom_site_fract_z
 _atom_site_occupancy
  O  O0  1  0.80266753  0.10895256  0.24639221  1
  O  O1  1  0.60028707  0.07739535  0.70938715  1
  O  O2  1  0.24929449  0.30973005  0.01864028  1
  O  O3  1  0.12746896  0.35090646  0.63139357  1
  O  O4  1  0.75070651  0.69027195  0.98136072  1
  O  O5  1  0.19733247  0.89104644  0.75360879  1
  O  O6  1  0.87253004  0.64909254  0.36860543  1
  O  O7  1  0.39971293  0.92260465  0.29061385  1
  P  P8  1  0.29160224  0.14444441  0.78423545  1
  P  P9  1  0.70839676  0.85555559  0.21576455  1
  Mn  Mn10  1  0.87211917  0.73625168  0.70418596  1
  Mn  Mn11  1  0.12788083  0.26374732  0.29581404  1
