# generated using pymatgen
data_Gd3NbS3O4
_symmetry_space_group_name_H-M   'P 1'
_cell_length_a   6.67624609
_cell_length_b   7.63882157
_cell_length_c   14.34444892
_cell_angle_alpha   90.00000000
_cell_angle_beta   90.00000000
_cell_angle_gamma   90.00000000
_symmetry_Int_Tables_number   1
_chemical_formula_structural   Gd3NbS3O4
_chemical_formula_sum   'Gd12 Nb4 S12 O16'
_cell_volume   731.54756777
_cell_formula_units_Z   4
loop_
 _symmetry_equiv_pos_site_id
 _symmetry_equiv_pos_as_xyz
  1  'x, y, z'
loop_
 _atom_site_type_symbol
 _atom_site_label
 _atom_site_symmetry_multiplicity
 _atom_site_fract_x
 _atom_site_fract_y
 _atom_site_fract_z
 _atom_site_occupancy
  Gd  Gd0  1  0.77575939  0.74982303  0.41861629  1
  Gd  Gd1  1  0.22424061  0.24982303  0.58138371  1
  Gd  Gd2  1  0.72424061  0.24982303  0.91861629  1
  Gd  Gd3  1  0.27575939  0.74982303  0.08138371  1
  Gd  Gd4  1  0.21658610  0.00550205  0.34339200  1
  Gd  Gd5  1  0.78341390  0.50550205  0.65660800  1
  Gd  Gd6  1  0.28341390  0.50550205  0.84339200  1
  Gd  Gd7  1  0.71658610  0.00550205  0.15660800  1
  Gd  Gd8  1  0.22590115  0.49511560  0.33487466  1
  Gd  Gd9  1  0.77409885  0.99511560  0.66512534  1
  Gd  Gd10  1  0.27409885  0.99511560  0.83487466  1
  Gd  Gd11  1  0.72590115  0.49511560  0.16512534  1
  Nb  Nb12  1  0.81578365  0.26166979  0.42769471  1
  Nb  Nb13  1  0.18421635  0.76166979  0.57230529  1
  Nb  Nb14  1  0.68421635  0.76166979  0.92769471  1
  Nb  Nb15  1  0.31578365  0.26166979  0.07230529  1
  S  S16  1  0.50221055  0.75682205  0.27350427  1
  S  S17  1  0.49778945  0.25682205  0.72649573  1
  S  S18  1  0.99778945  0.25682205  0.77350427  1
  S  S19  1  0.00221055  0.75682205  0.22649573  1
  S  S20  1  0.54567908  0.24266264  0.29764650  1
  S  S21  1  0.45432092  0.74266264  0.70235350  1
  S  S22  1  0.95432092  0.74266264  0.79764650  1
  S  S23  1  0.04567908  0.24266264  0.20235350  1
  S  S24  1  0.47518786  0.97549511  0.50598207  1
  S  S25  1  0.52481214  0.47549511  0.49401793  1
  S  S26  1  0.02481214  0.47549511  0.00598207  1
  S  S27  1  0.97518786  0.97549511  0.99401793  1
  O  O28  1  0.85618916  0.24378498  0.56325905  1
  O  O29  1  0.14381084  0.74378498  0.43674095  1
  O  O30  1  0.64381084  0.74378498  0.06325905  1
  O  O31  1  0.35618916  0.24378498  0.93674095  1
  O  O32  1  0.87548524  0.02712087  0.38481692  1
  O  O33  1  0.12451476  0.52712087  0.61518308  1
  O  O34  1  0.62451476  0.52712087  0.88481692  1
  O  O35  1  0.37548524  0.02712087  0.11518308  1
  O  O36  1  0.88199504  0.47945757  0.36709555  1
  O  O37  1  0.11800496  0.97945757  0.63290445  1
  O  O38  1  0.61800496  0.97945757  0.86709555  1
  O  O39  1  0.38199504  0.47945757  0.13290445  1
  O  O40  1  0.13488251  0.25892632  0.42738919  1
  O  O41  1  0.86511749  0.75892632  0.57261081  1
  O  O42  1  0.36511749  0.75892632  0.92738919  1
  O  O43  1  0.63488251  0.25892632  0.07261081  1
