# generated using pymatgen
data_Ca3V2O8
_symmetry_space_group_name_H-M   'P 1'
_cell_length_a   5.63264647
_cell_length_b   5.64281226
_cell_length_c   7.10935988
_cell_angle_alpha   66.32642824
_cell_angle_beta   66.66518298
_cell_angle_gamma   60.05636119
_symmetry_Int_Tables_number   1
_chemical_formula_structural   Ca3V2O8
_chemical_formula_sum   'Ca3 V2 O8'
_cell_volume   173.78725682
_cell_formula_units_Z   1
loop_
 _symmetry_equiv_pos_site_id
 _symmetry_equiv_pos_as_xyz
  1  'x, y, z'
loop_
 _atom_site_type_symbol
 _atom_site_label
 _atom_site_symmetry_multiplicity
 _atom_site_fract_x
 _atom_site_fract_y
 _atom_site_fract_z
 _atom_site_occupancy
  Ca  Ca0  1  0.00000000  0.00000000  0.00000000  1
  Ca  Ca1  1  0.19339284  0.19878512  0.41439054  1
  Ca  Ca2  1  0.80660716  0.80121488  0.58560946  1
  V  V3  1  0.40374586  0.40376468  0.78873272  1
  V  V4  1  0.59625414  0.59623532  0.21126728  1
  O  O5  1  0.26287236  0.77358519  0.70055283  1
  O  O6  1  0.73712764  0.22641481  0.29944717  1
  O  O7  1  0.31649580  0.30733624  0.05972390  1
  O  O8  1  0.68350420  0.69266376  0.94027610  1
  O  O9  1  0.22754366  0.73255216  0.30157399  1
  O  O10  1  0.26172719  0.26741464  0.69838831  1
  O  O11  1  0.77245634  0.26744784  0.69842601  1
  O  O12  1  0.73827281  0.73258536  0.30161169  1
