# generated using pymatgen
data_Sc2PbSe4
_symmetry_space_group_name_H-M   'P 1'
_cell_length_a   3.94300350
_cell_length_b   12.35381368
_cell_length_c   14.40348855
_cell_angle_alpha   90.00000000
_cell_angle_beta   90.00000000
_cell_angle_gamma   90.00000000
_symmetry_Int_Tables_number   1
_chemical_formula_structural   Sc2PbSe4
_chemical_formula_sum   'Sc8 Pb4 Se16'
_cell_volume   701.61021155
_cell_formula_units_Z   4
loop_
 _symmetry_equiv_pos_site_id
 _symmetry_equiv_pos_as_xyz
  1  'x, y, z'
loop_
 _atom_site_type_symbol
 _atom_site_label
 _atom_site_symmetry_multiplicity
 _atom_site_fract_x
 _atom_site_fract_y
 _atom_site_fract_z
 _atom_site_occupancy
  Sc  Sc0  1  0.75000000  0.55269493  0.61130978  1
  Sc  Sc1  1  0.25000000  0.44730507  0.38869022  1
  Sc  Sc2  1  0.75000000  0.05269493  0.88869022  1
  Sc  Sc3  1  0.25000000  0.94730507  0.11130978  1
  Sc  Sc4  1  0.75000000  0.58294180  0.09388582  1
  Sc  Sc5  1  0.25000000  0.41705820  0.90611418  1
  Sc  Sc6  1  0.75000000  0.08294180  0.40611418  1
  Sc  Sc7  1  0.25000000  0.91705820  0.59388582  1
  Pb  Pb8  1  0.75000000  0.24012586  0.67663673  1
  Pb  Pb9  1  0.25000000  0.75987414  0.32336327  1
  Pb  Pb10  1  0.75000000  0.74012586  0.82336327  1
  Pb  Pb11  1  0.25000000  0.25987414  0.17663673  1
  Se  Se12  1  0.75000000  0.79802622  0.15652172  1
  Se  Se13  1  0.25000000  0.20197378  0.84347828  1
  Se  Se14  1  0.75000000  0.29802622  0.34347828  1
  Se  Se15  1  0.25000000  0.70197378  0.65652172  1
  Se  Se16  1  0.75000000  0.87670804  0.46872142  1
  Se  Se17  1  0.25000000  0.12329196  0.53127858  1
  Se  Se18  1  0.75000000  0.37670804  0.03127858  1
  Se  Se19  1  0.25000000  0.62329196  0.96872142  1
  Se  Se20  1  0.75000000  0.46628866  0.78489906  1
  Se  Se21  1  0.25000000  0.53371134  0.21510094  1
  Se  Se22  1  0.75000000  0.96628866  0.71510094  1
  Se  Se23  1  0.25000000  0.03371134  0.28489906  1
  Se  Se24  1  0.75000000  0.59158493  0.42783822  1
  Se  Se25  1  0.25000000  0.40841507  0.57216178  1
  Se  Se26  1  0.75000000  0.09158493  0.07216178  1
  Se  Se27  1  0.25000000  0.90841507  0.92783822  1
