# generated using pymatgen
data_LiAlAs2O7
_symmetry_space_group_name_H-M   'P 1'
_cell_length_a   4.70739882
_cell_length_b   5.26818385
_cell_length_c   5.26818527
_cell_angle_alpha   101.24387595
_cell_angle_beta   98.91752933
_cell_angle_gamma   98.91746579
_symmetry_Int_Tables_number   1
_chemical_formula_structural   LiAlAs2O7
_chemical_formula_sum   'Li1 Al1 As2 O7'
_cell_volume   124.25671869
_cell_formula_units_Z   1
loop_
 _symmetry_equiv_pos_site_id
 _symmetry_equiv_pos_as_xyz
  1  'x, y, z'
loop_
 _atom_site_type_symbol
 _atom_site_label
 _atom_site_symmetry_multiplicity
 _atom_site_fract_x
 _atom_site_fract_y
 _atom_site_fract_z
 _atom_site_occupancy
  O  O0  1  0.65940393  0.36200807  0.14884968  1
  As  As1  1  0.90557221  0.17906413  0.25238539  1
  As  As2  1  0.09442793  0.74761478  0.82093546  1
  O  O3  1  0.76802064  0.54809871  0.66032829  1
  O  O4  1  0.23854344  0.62377972  0.07214490  1
  O  O5  1  -0.00000026  0.05771459  0.94228521  1
  O  O6  1  0.23197885  0.33967182  0.45190198  1
  Al  Al7  1  0.49999995  0.62206096  0.37793887  1
  O  O8  1  0.76145674  0.92785501  0.37622011  1
  Li  Li9  1  0.50000012  0.24615170  0.75384800  1
  O  O10  1  0.34059645  0.85115051  0.63799211  1
