# generated using pymatgen
data_Rb3Sc(HO)6
_symmetry_space_group_name_H-M   'P 1'
_cell_length_a   7.73074699
_cell_length_b   7.73074668
_cell_length_c   7.73074672
_cell_angle_alpha   96.79766505
_cell_angle_beta   96.79766476
_cell_angle_gamma   96.79766884
_symmetry_Int_Tables_number   1
_chemical_formula_structural   Rb3Sc(HO)6
_chemical_formula_sum   'Rb6 Sc2 H12 O12'
_cell_volume   451.42673760
_cell_formula_units_Z   2
loop_
 _symmetry_equiv_pos_site_id
 _symmetry_equiv_pos_as_xyz
  1  'x, y, z'
loop_
 _atom_site_type_symbol
 _atom_site_label
 _atom_site_symmetry_multiplicity
 _atom_site_fract_x
 _atom_site_fract_y
 _atom_site_fract_z
 _atom_site_occupancy
  Sc  Sc0  1  0.00000000  0.00000000  0.00000000  1
  Sc  Sc1  1  0.50000000  0.50000000  0.50000000  1
  Rb  Rb2  1  0.63284448  0.86715552  0.25000000  1
  Rb  Rb3  1  0.25000000  0.63284448  0.86715552  1
  Rb  Rb4  1  0.86715552  0.25000000  0.63284448  1
  Rb  Rb5  1  0.36715552  0.13284448  0.75000000  1
  Rb  Rb6  1  0.75000000  0.36715552  0.13284448  1
  Rb  Rb7  1  0.13284448  0.75000000  0.36715552  1
  O  O8  1  0.40953031  0.53781728  0.23386322  1
  O  O9  1  0.23386322  0.40953031  0.53781729  1
  O  O10  1  0.53781729  0.23386322  0.40953031  1
  O  O11  1  0.96218271  0.09046969  0.26613678  1
  O  O12  1  0.26613678  0.96218272  0.09046969  1
  O  O13  1  0.09046969  0.26613678  0.96218271  1
  O  O14  1  0.59046969  0.46218272  0.76613678  1
  O  O15  1  0.76613678  0.59046969  0.46218271  1
  O  O16  1  0.46218271  0.76613678  0.59046969  1
  O  O17  1  0.03781729  0.90953031  0.73386322  1
  O  O18  1  0.73386322  0.03781728  0.90953031  1
  O  O19  1  0.90953031  0.73386322  0.03781729  1
  H  H20  1  0.37662069  0.42402045  0.16184083  1
  H  H21  1  0.16184083  0.37662069  0.42402045  1
  H  H22  1  0.42402045  0.16184083  0.37662069  1
  H  H23  1  0.07597955  0.12337931  0.33815917  1
  H  H24  1  0.33815917  0.07597955  0.12337931  1
  H  H25  1  0.12337931  0.33815917  0.07597955  1
  H  H26  1  0.62337931  0.57597955  0.83815917  1
  H  H27  1  0.83815917  0.62337931  0.57597955  1
  H  H28  1  0.57597955  0.83815917  0.62337931  1
  H  H29  1  0.92402045  0.87662069  0.66184083  1
  H  H30  1  0.66184083  0.92402045  0.87662069  1
  H  H31  1  0.87662069  0.66184083  0.92402045  1
