# generated using pymatgen
data_Ho5Si4
_symmetry_space_group_name_H-M   'P 1'
_cell_length_a   7.38568716
_cell_length_b   7.66687412
_cell_length_c   14.50025666
_cell_angle_alpha   90.00000000
_cell_angle_beta   90.00000000
_cell_angle_gamma   90.00000000
_symmetry_Int_Tables_number   1
_chemical_formula_structural   Ho5Si4
_chemical_formula_sum   'Ho20 Si16'
_cell_volume   821.07897272
_cell_formula_units_Z   4
loop_
 _symmetry_equiv_pos_site_id
 _symmetry_equiv_pos_as_xyz
  1  'x, y, z'
loop_
 _atom_site_type_symbol
 _atom_site_label
 _atom_site_symmetry_multiplicity
 _atom_site_fract_x
 _atom_site_fract_y
 _atom_site_fract_z
 _atom_site_occupancy
  Ho  Ho0  1  0.65061599  0.98752001  0.75000000  1
  Ho  Ho1  1  0.15061599  0.51247999  0.75000000  1
  Ho  Ho2  1  0.84938401  0.48752001  0.25000000  1
  Ho  Ho3  1  0.34938401  0.01247999  0.25000000  1
  Ho  Ho4  1  0.97418201  0.81773534  0.90224481  1
  Ho  Ho5  1  0.47418201  0.68226466  0.59775519  1
  Ho  Ho6  1  0.52581799  0.31773534  0.09775519  1
  Ho  Ho7  1  0.02581799  0.18226466  0.40224481  1
  Ho  Ho8  1  0.02581799  0.18226466  0.09775519  1
  Ho  Ho9  1  0.52581799  0.31773534  0.40224481  1
  Ho  Ho10  1  0.47418201  0.68226466  0.90224481  1
  Ho  Ho11  1  0.97418201  0.81773534  0.59775519  1
  Ho  Ho12  1  0.68074443  0.82047207  0.12318660  1
  Ho  Ho13  1  0.18074443  0.67952793  0.37681340  1
  Ho  Ho14  1  0.81925557  0.32047207  0.87681340  1
  Ho  Ho15  1  0.31925557  0.17952793  0.62318660  1
  Ho  Ho16  1  0.31925557  0.17952793  0.87681340  1
  Ho  Ho17  1  0.81925557  0.32047207  0.62318660  1
  Ho  Ho18  1  0.18074443  0.67952793  0.12318660  1
  Ho  Ho19  1  0.68074443  0.82047207  0.37681340  1
  Si  Si20  1  0.76895176  0.62822840  0.75000000  1
  Si  Si21  1  0.26895176  0.87177160  0.75000000  1
  Si  Si22  1  0.73104824  0.12822840  0.25000000  1
  Si  Si23  1  0.23104824  0.37177160  0.25000000  1
  Si  Si24  1  0.02285112  0.10323634  0.75000000  1
  Si  Si25  1  0.52285112  0.39676366  0.75000000  1
  Si  Si26  1  0.47714888  0.60323634  0.25000000  1
  Si  Si27  1  0.97714888  0.89676366  0.25000000  1
  Si  Si28  1  0.85182464  0.52870391  0.03978721  1
  Si  Si29  1  0.35182464  0.97129609  0.46021279  1
  Si  Si30  1  0.64817536  0.02870391  0.96021279  1
  Si  Si31  1  0.14817536  0.47129609  0.53978721  1
  Si  Si32  1  0.14817536  0.47129609  0.96021279  1
  Si  Si33  1  0.64817536  0.02870391  0.53978721  1
  Si  Si34  1  0.35182464  0.97129609  0.03978721  1
  Si  Si35  1  0.85182464  0.52870391  0.46021279  1
