# generated using pymatgen
data_Ce2Zn17
_symmetry_space_group_name_H-M   'P 1'
_cell_length_a   6.84784543
_cell_length_b   6.84784595
_cell_length_c   6.84784581
_cell_angle_alpha   82.70786825
_cell_angle_beta   82.70786772
_cell_angle_gamma   82.70786932
_symmetry_Int_Tables_number   1
_chemical_formula_structural   Ce2Zn17
_chemical_formula_sum   'Ce2 Zn17'
_cell_volume   313.93210749
_cell_formula_units_Z   1
loop_
 _symmetry_equiv_pos_site_id
 _symmetry_equiv_pos_as_xyz
  1  'x, y, z'
loop_
 _atom_site_type_symbol
 _atom_site_label
 _atom_site_symmetry_multiplicity
 _atom_site_fract_x
 _atom_site_fract_y
 _atom_site_fract_z
 _atom_site_occupancy
  Ce  Ce0  1  0.33662400  0.33662400  0.33662400  1
  Ce  Ce1  1  0.66337600  0.66337600  0.66337600  1
  Zn  Zn2  1  0.09990688  0.09990688  0.09990688  1
  Zn  Zn3  1  0.90009312  0.90009312  0.90009312  1
  Zn  Zn4  1  0.00000000  0.00000000  0.50000000  1
  Zn  Zn5  1  0.50000000  0.00000000  0.00000000  1
  Zn  Zn6  1  0.00000000  0.50000000  0.00000000  1
  Zn  Zn7  1  0.70582182  0.29417818  0.00000000  1
  Zn  Zn8  1  1.00000000  0.70582182  0.29417818  1
  Zn  Zn9  1  0.29417818  0.00000000  0.70582182  1
  Zn  Zn10  1  0.29417818  0.70582182  1.00000000  1
  Zn  Zn11  1  0.00000000  0.29417818  0.70582182  1
  Zn  Zn12  1  0.70582182  1.00000000  0.29417818  1
  Zn  Zn13  1  0.64881227  0.16056960  0.64881227  1
  Zn  Zn14  1  0.64881227  0.64881227  0.16056960  1
  Zn  Zn15  1  0.16056960  0.64881227  0.64881227  1
  Zn  Zn16  1  0.83943040  0.35118773  0.35118773  1
  Zn  Zn17  1  0.35118773  0.83943040  0.35118773  1
  Zn  Zn18  1  0.35118773  0.35118773  0.83943040  1
