# generated using pymatgen
data_Na2Cd(SiO3)2
_symmetry_space_group_name_H-M   'P 1'
_cell_length_a   7.55692264
_cell_length_b   10.54744644
_cell_length_c   10.66211694
_cell_angle_alpha   90.00000000
_cell_angle_beta   90.00000000
_cell_angle_gamma   90.00000000
_symmetry_Int_Tables_number   1
_chemical_formula_structural   Na2Cd(SiO3)2
_chemical_formula_sum   'Na12 Cd6 Si12 O36'
_cell_volume   849.83721757
_cell_formula_units_Z   6
loop_
 _symmetry_equiv_pos_site_id
 _symmetry_equiv_pos_as_xyz
  1  'x, y, z'
loop_
 _atom_site_type_symbol
 _atom_site_label
 _atom_site_symmetry_multiplicity
 _atom_site_fract_x
 _atom_site_fract_y
 _atom_site_fract_z
 _atom_site_occupancy
  Na  Na0  1  0.23320005  0.25566632  0.49187131  1
  Na  Na1  1  0.49494558  0.00000000  0.50910281  1
  Na  Na2  1  0.27224609  0.00000000  0.27347537  1
  Na  Na3  1  0.76679995  0.75566632  0.99187131  1
  Na  Na4  1  0.28273940  0.27446075  0.01906803  1
  Na  Na5  1  0.28273940  0.72553925  0.01906803  1
  Na  Na6  1  0.76679995  0.24433368  0.99187131  1
  Na  Na7  1  0.23320005  0.74433368  0.49187131  1
  Na  Na8  1  0.71726060  0.22553925  0.51906803  1
  Na  Na9  1  0.72775391  0.50000000  0.77347537  1
  Na  Na10  1  0.71726060  0.77446075  0.51906803  1
  Na  Na11  1  0.50505442  0.50000000  0.00910281  1
  Cd  Cd12  1  0.98213713  0.50000000  0.50262558  1
  Cd  Cd13  1  0.73489838  0.50000000  0.24572227  1
  Cd  Cd14  1  0.74933573  0.00000000  0.75295641  1
  Cd  Cd15  1  0.25066427  0.50000000  0.25295641  1
  Cd  Cd16  1  0.01786287  0.00000000  0.00262558  1
  Cd  Cd17  1  0.26510162  0.00000000  0.74572227  1
  Si  Si18  1  0.03191177  0.72175964  0.75929151  1
  Si  Si19  1  0.50083775  0.50000000  0.53573834  1
  Si  Si20  1  0.96808823  0.77824036  0.25929151  1
  Si  Si21  1  0.99794021  0.00000000  0.47177903  1
  Si  Si22  1  0.96808823  0.22175964  0.25929151  1
  Si  Si23  1  0.46595194  0.72195460  0.74457642  1
  Si  Si24  1  0.49916225  0.00000000  0.03573834  1
  Si  Si25  1  0.00205979  0.50000000  0.97177903  1
  Si  Si26  1  0.53404806  0.22195460  0.24457642  1
  Si  Si27  1  0.03191177  0.27824036  0.75929151  1
  Si  Si28  1  0.46595194  0.27804540  0.74457642  1
  Si  Si29  1  0.53404806  0.77804540  0.24457642  1
  O  O30  1  0.01965664  0.36301952  0.31114078  1
  O  O31  1  0.24734595  0.28235329  0.73939958  1
  O  O32  1  0.98034336  0.13698048  0.81114078  1
  O  O33  1  0.47921489  0.63683393  0.19696144  1
  O  O34  1  0.80801627  0.00000000  0.53941225  1
  O  O35  1  0.75265405  0.21764671  0.23939958  1
  O  O36  1  0.32299382  0.00000000  0.94626636  1
  O  O37  1  0.98125832  0.37515224  0.87690620  1
  O  O38  1  0.67700618  0.50000000  0.44626636  1
  O  O39  1  0.24734595  0.71764671  0.73939958  1
  O  O40  1  0.46039950  0.17139194  0.37605583  1
  O  O41  1  0.53960050  0.67139194  0.87605583  1
  O  O42  1  0.52823254  0.62492594  0.62824067  1
  O  O43  1  0.17990870  0.00000000  0.55217144  1
  O  O44  1  0.46039950  0.82860806  0.37605583  1
  O  O45  1  0.47176746  0.87507406  0.12824067  1
  O  O46  1  0.19198373  0.50000000  0.03941225  1
  O  O47  1  0.52078511  0.86316607  0.69696144  1
  O  O48  1  0.05747805  0.17247534  0.12988738  1
  O  O49  1  0.69481312  0.00000000  0.97195184  1
  O  O50  1  0.01965664  0.63698048  0.31114078  1
  O  O51  1  0.01874168  0.87515224  0.37690620  1
  O  O52  1  0.98034336  0.86301952  0.81114078  1
  O  O53  1  0.98125832  0.62484776  0.87690620  1
  O  O54  1  0.53960050  0.32860806  0.87605583  1
  O  O55  1  0.94252195  0.67247534  0.62988738  1
  O  O56  1  0.75265405  0.78235329  0.23939958  1
  O  O57  1  0.52078511  0.13683393  0.69696144  1
  O  O58  1  0.47921489  0.36316607  0.19696144  1
  O  O59  1  0.47176746  0.12492594  0.12824067  1
  O  O60  1  0.01874168  0.12484776  0.37690620  1
  O  O61  1  0.82009130  0.50000000  0.05217144  1
  O  O62  1  0.52823254  0.37507406  0.62824067  1
  O  O63  1  0.05747805  0.82752466  0.12988738  1
  O  O64  1  0.30518688  0.50000000  0.47195184  1
  O  O65  1  0.94252195  0.32752466  0.62988738  1
