# generated using pymatgen
data_Sr2YGaCu2O7
_symmetry_space_group_name_H-M   'P 1'
_cell_length_a   5.42112123
_cell_length_b   5.52988121
_cell_length_c   12.23910920
_cell_angle_alpha   103.03251727
_cell_angle_beta   102.77463406
_cell_angle_gamma   89.97801216
_symmetry_Int_Tables_number   1
_chemical_formula_structural   Sr2YGaCu2O7
_chemical_formula_sum   'Sr4 Y2 Ga2 Cu4 O14'
_cell_volume   348.13426918
_cell_formula_units_Z   2
loop_
 _symmetry_equiv_pos_site_id
 _symmetry_equiv_pos_as_xyz
  1  'x, y, z'
loop_
 _atom_site_type_symbol
 _atom_site_label
 _atom_site_symmetry_multiplicity
 _atom_site_fract_x
 _atom_site_fract_y
 _atom_site_fract_z
 _atom_site_occupancy
  Sr  Sr0  1  0.14796557  0.16954425  0.30278196  1
  Sr  Sr1  1  0.84521394  0.83036569  0.69710170  1
  Sr  Sr2  1  0.64802770  0.63335086  0.30280043  1
  Sr  Sr3  1  0.34519545  0.36665406  0.69707800  1
  Y  Y4  1  0.50011204  0.50004218  0.00010436  1
  Y  Y5  1  0.00002294  0.00006513  0.00009490  1
  Ga  Ga6  1  0.21046771  0.81953527  0.49998896  1
  Ga  Ga7  1  0.71034673  0.18053306  0.49993645  1
  Cu  Cu8  1  0.42899593  0.92984292  0.85790171  1
  Cu  Cu9  1  0.07133529  0.57260676  0.14263295  1
  Cu  Cu10  1  0.92870099  0.42750480  0.85742183  1
  Cu  Cu11  1  0.57117262  0.07013926  0.14227932  1
  O  O12  1  0.81015865  0.31283981  0.12303291  1
  O  O13  1  0.85744697  0.86561164  0.49990583  1
  O  O14  1  0.31053102  0.30992954  0.12311602  1
  O  O15  1  0.84903615  0.36770939  0.64633898  1
  O  O16  1  0.68625371  0.18535563  0.87239580  1
  O  O17  1  0.18720806  0.18582044  0.87224676  1
  O  O18  1  0.35731208  0.13426069  0.49987385  1
  O  O19  1  0.18775767  0.69032896  0.87700587  1
  O  O20  1  0.68697101  0.68744578  0.87691280  1
  O  O21  1  0.34911756  0.77839600  0.64626121  1
  O  O22  1  0.20295012  0.63218866  0.35355422  1
  O  O23  1  0.70294061  0.22157653  0.35362440  1
  O  O24  1  0.81416620  0.81449519  0.12788644  1
  O  O25  1  0.31459124  0.81385650  0.12772135  1
