# generated using pymatgen
data_KClO3
_symmetry_space_group_name_H-M   'P 1'
_cell_length_a   4.73665857
_cell_length_b   5.71955706
_cell_length_c   13.66505079
_cell_angle_alpha   90.00000000
_cell_angle_beta   90.00000000
_cell_angle_gamma   90.00000000
_symmetry_Int_Tables_number   1
_chemical_formula_structural   KClO3
_chemical_formula_sum   'K4 Cl4 O12'
_cell_volume   370.20793919
_cell_formula_units_Z   4
loop_
 _symmetry_equiv_pos_site_id
 _symmetry_equiv_pos_as_xyz
  1  'x, y, z'
loop_
 _atom_site_type_symbol
 _atom_site_label
 _atom_site_symmetry_multiplicity
 _atom_site_fract_x
 _atom_site_fract_y
 _atom_site_fract_z
 _atom_site_occupancy
  K  K0  1  0.99641911  0.25000000  0.64658789  1
  K  K1  1  0.00358089  0.75000000  0.35341211  1
  K  K2  1  0.49641911  0.75000000  0.85341211  1
  K  K3  1  0.50358089  0.25000000  0.14658789  1
  Cl  Cl4  1  0.53431459  0.75000000  0.58695625  1
  Cl  Cl5  1  0.96568541  0.75000000  0.08695625  1
  Cl  Cl6  1  0.03431459  0.25000000  0.91304375  1
  Cl  Cl7  1  0.46568541  0.25000000  0.41304375  1
  O  O8  1  0.00657643  0.53834522  0.15124398  1
  O  O9  1  0.49342357  0.53834522  0.65124398  1
  O  O10  1  0.16139657  0.25000000  0.44456772  1
  O  O11  1  0.00657643  0.96165478  0.15124398  1
  O  O12  1  0.83860343  0.75000000  0.55543228  1
  O  O13  1  0.50657643  0.03834522  0.34875602  1
  O  O14  1  0.33860343  0.25000000  0.94456772  1
  O  O15  1  0.99342357  0.03834522  0.84875602  1
  O  O16  1  0.66139657  0.75000000  0.05543228  1
  O  O17  1  0.50657643  0.46165478  0.34875602  1
  O  O18  1  0.49342357  0.96165478  0.65124398  1
  O  O19  1  0.99342357  0.46165478  0.84875602  1
