# generated using pymatgen
data_Na2Si2O5
_symmetry_space_group_name_H-M   'P 1'
_cell_length_a   5.65116495
_cell_length_b   8.46353400
_cell_length_c   9.53623080
_cell_angle_alpha   90.00000000
_cell_angle_beta   90.00000000
_cell_angle_gamma   90.00000000
_symmetry_Int_Tables_number   1
_chemical_formula_structural   Na2Si2O5
_chemical_formula_sum   'Na8 Si8 O20'
_cell_volume   456.10673025
_cell_formula_units_Z   4
loop_
 _symmetry_equiv_pos_site_id
 _symmetry_equiv_pos_as_xyz
  1  'x, y, z'
loop_
 _atom_site_type_symbol
 _atom_site_label
 _atom_site_symmetry_multiplicity
 _atom_site_fract_x
 _atom_site_fract_y
 _atom_site_fract_z
 _atom_site_occupancy
  Na  Na0  1  0.06234313  0.47830194  0.01098651  1
  Na  Na1  1  0.08695834  0.75317002  0.75440052  1
  Na  Na2  1  0.91304166  0.75317002  0.25440052  1
  Na  Na3  1  0.91304166  0.25317002  0.24559948  1
  Na  Na4  1  0.93765687  0.47830194  0.51098651  1
  Na  Na5  1  0.06234313  0.97830194  0.48901349  1
  Na  Na6  1  0.93765687  0.97830194  0.98901349  1
  Na  Na7  1  0.08695834  0.25317002  0.74559948  1
  Si  Si8  1  0.54927235  0.24890757  0.95271158  1
  Si  Si9  1  0.36987554  0.05676079  0.19173721  1
  Si  Si10  1  0.36987554  0.55676079  0.30826279  1
  Si  Si11  1  0.63012446  0.55676079  0.80826279  1
  Si  Si12  1  0.45072765  0.24890757  0.45271158  1
  Si  Si13  1  0.54927235  0.74890757  0.54728842  1
  Si  Si14  1  0.63012446  0.05676079  0.69173721  1
  Si  Si15  1  0.45072765  0.74890757  0.04728842  1
  O  O16  1  0.89102568  1.00189704  0.73277986  1
  O  O17  1  0.18115354  0.74669278  0.99911586  1
  O  O18  1  0.64225175  0.70877765  0.92042332  1
  O  O19  1  0.81884646  0.24669278  0.00088414  1
  O  O20  1  0.35774825  0.70877765  0.42042332  1
  O  O21  1  0.45790239  0.42115173  0.88544112  1
  O  O22  1  0.10897432  1.00189704  0.23277986  1
  O  O23  1  0.47321717  0.61964049  0.67228961  1
  O  O24  1  0.35774825  0.20877765  0.07957668  1
  O  O25  1  0.52678283  0.11964049  0.32771039  1
  O  O26  1  0.47321717  0.11964049  0.82771039  1
  O  O27  1  0.89102568  0.50189704  0.76722014  1
  O  O28  1  0.10897432  0.50189704  0.26722014  1
  O  O29  1  0.54209761  0.42115173  0.38544112  1
  O  O30  1  0.18115354  0.24669278  0.50088414  1
  O  O31  1  0.52678283  0.61964049  0.17228961  1
  O  O32  1  0.81884646  0.74669278  0.49911586  1
  O  O33  1  0.54209761  0.92115173  0.11455888  1
  O  O34  1  0.64225175  0.20877765  0.57957668  1
  O  O35  1  0.45790239  0.92115173  0.61455888  1
