# generated using pymatgen
data_S
_symmetry_space_group_name_H-M   'P 1'
_cell_length_a   8.26149719
_cell_length_b   12.49819273
_cell_length_c   22.76662269
_cell_angle_alpha   90.00000000
_cell_angle_beta   90.00000000
_cell_angle_gamma   90.00000000
_symmetry_Int_Tables_number   1
_chemical_formula_structural   S
_chemical_formula_sum   S72
_cell_volume   2350.73994435
_cell_formula_units_Z   72
loop_
 _symmetry_equiv_pos_site_id
 _symmetry_equiv_pos_as_xyz
  1  'x, y, z'
loop_
 _atom_site_type_symbol
 _atom_site_label
 _atom_site_symmetry_multiplicity
 _atom_site_fract_x
 _atom_site_fract_y
 _atom_site_fract_z
 _atom_site_occupancy
  S  S0  1  0.27078929  0.94943774  0.01617233  1
  S  S1  1  0.90485767  0.71222385  0.00758264  1
  S  S2  1  0.12731008  0.81379774  0.85525000  1
  S  S3  1  0.72217398  0.81624158  0.98258222  1
  S  S4  1  0.40485767  0.28777615  0.49241736  1
  S  S5  1  0.59029349  0.94617872  0.51061883  1
  S  S6  1  0.59514233  0.21222385  0.99241736  1
  S  S7  1  0.35468514  0.04915232  0.35660701  1
  S  S8  1  0.37747318  0.74605443  0.40664635  1
  S  S9  1  0.77782602  0.31624158  0.01741778  1
  S  S10  1  0.72098231  0.05095480  0.68459379  1
  S  S11  1  0.87268992  0.68620226  0.35525000  1
  S  S12  1  0.77901769  0.55095480  0.31540621  1
  S  S13  1  0.77078929  0.05056226  0.48382767  1
  S  S14  1  0.90970651  0.44617872  0.48938117  1
  S  S15  1  0.27544987  0.66334389  0.33755755  1
  S  S16  1  0.59325606  0.18590900  0.84764832  1
  S  S17  1  0.40989436  0.57968061  0.15531100  1
  S  S18  1  0.56955277  0.25894088  0.19212517  1
  S  S19  1  0.25691249  0.92802669  0.16113446  1
  S  S20  1  0.77544987  0.33665611  0.16244245  1
  S  S21  1  0.44886008  0.50574507  0.80916043  1
  S  S22  1  0.09010564  0.07968061  0.84468900  1
  S  S23  1  0.73229671  0.31258389  0.81778004  1
  S  S24  1  0.62731008  0.18620226  0.64475000  1
  S  S25  1  0.72455013  0.83665611  0.83755755  1
  S  S26  1  0.27901769  0.44904520  0.18459379  1
  S  S27  1  0.68860339  0.12302903  0.92372421  1
  S  S28  1  0.09029349  0.05382128  0.98938117  1
  S  S29  1  0.81139661  0.62302903  0.07627579  1
  S  S30  1  0.09514233  0.78777615  0.50758264  1
  S  S31  1  0.68813547  0.85886286  0.57925838  1
  S  S32  1  0.36395246  0.01132862  0.09322917  1
  S  S33  1  0.31186453  0.64113714  0.07925838  1
  S  S34  1  0.74308751  0.57197331  0.66113446  1
  S  S35  1  0.37268992  0.31379774  0.14475000  1
  S  S36  1  0.22921071  0.44943774  0.98382767  1
  S  S37  1  0.86395246  0.98867138  0.40677083  1
  S  S38  1  0.24308751  0.42802669  0.83886554  1
  S  S39  1  0.06955277  0.74105912  0.30787483  1
  S  S40  1  0.18860339  0.87697097  0.57627579  1
  S  S41  1  0.18813547  0.14113714  0.92074162  1
  S  S42  1  0.14531486  0.54915232  0.64339299  1
  S  S43  1  0.13604754  0.51132862  0.90677083  1
  S  S44  1  0.31139661  0.37697097  0.42372421  1
  S  S45  1  0.05113992  0.00574507  0.19083957  1
  S  S46  1  0.94886008  0.49425493  0.69083957  1
  S  S47  1  0.63604754  0.48867138  0.59322917  1
  S  S48  1  0.22098231  0.94904520  0.81540621  1
  S  S49  1  0.87747318  0.25394557  0.09335365  1
  S  S50  1  0.12252682  0.24605443  0.59335365  1
  S  S51  1  0.55113992  0.99425493  0.30916043  1
  S  S52  1  0.76770329  0.81258389  0.18221996  1
  S  S53  1  0.93044723  0.75894088  0.80787483  1
  S  S54  1  0.40970651  0.55382128  0.01061883  1
  S  S55  1  0.09325606  0.81409100  0.65235168  1
  S  S56  1  0.23229671  0.68741611  0.68221996  1
  S  S57  1  0.90674394  0.68590900  0.15235168  1
  S  S58  1  0.81186453  0.35886286  0.42074162  1
  S  S59  1  0.72921071  0.55056226  0.51617233  1
  S  S60  1  0.26770329  0.18741611  0.31778004  1
  S  S61  1  0.22217398  0.18375842  0.51741778  1
  S  S62  1  0.27782602  0.68375842  0.48258222  1
  S  S63  1  0.43044723  0.24105912  0.69212517  1
  S  S64  1  0.90989436  0.42031939  0.34468900  1
  S  S65  1  0.75691249  0.07197331  0.33886554  1
  S  S66  1  0.64531486  0.45084768  0.85660701  1
  S  S67  1  0.59010564  0.92031939  0.65531100  1
  S  S68  1  0.40674394  0.31409100  0.34764832  1
  S  S69  1  0.85468514  0.95084768  0.14339299  1
  S  S70  1  0.22455013  0.16334389  0.66244245  1
  S  S71  1  0.62252682  0.75394557  0.90664635  1
