# generated using pymatgen
data_Ba2Nd2Ti2Cu2O11
_symmetry_space_group_name_H-M   'P 1'
_cell_length_a   3.93789264
_cell_length_b   3.93789264
_cell_length_c   16.03637035
_cell_angle_alpha   90.00000000
_cell_angle_beta   90.00000000
_cell_angle_gamma   90.00000000
_symmetry_Int_Tables_number   1
_chemical_formula_structural   Ba2Nd2Ti2Cu2O11
_chemical_formula_sum   'Ba2 Nd2 Ti2 Cu2 O11'
_cell_volume   248.67597007
_cell_formula_units_Z   1
loop_
 _symmetry_equiv_pos_site_id
 _symmetry_equiv_pos_as_xyz
  1  'x, y, z'
loop_
 _atom_site_type_symbol
 _atom_site_label
 _atom_site_symmetry_multiplicity
 _atom_site_fract_x
 _atom_site_fract_y
 _atom_site_fract_z
 _atom_site_occupancy
  Ba  Ba0  1  0.50000000  0.50000000  0.23374706  1
  Ba  Ba1  1  0.50000000  0.50000000  0.76625294  1
  Nd  Nd2  1  0.50000000  0.50000000  0.00000000  1
  Nd  Nd3  1  0.50000000  0.50000000  0.50000000  1
  Ti  Ti4  1  0.00000000  0.00000000  0.62563132  1
  Ti  Ti5  1  0.00000000  0.00000000  0.37436868  1
  Cu  Cu6  1  0.00000000  0.00000000  0.10650170  1
  Cu  Cu7  1  0.00000000  0.00000000  0.89349830  1
  O  O8  1  0.50000000  0.00000000  0.61254827  1
  O  O9  1  0.00000000  0.50000000  0.61254827  1
  O  O10  1  0.50000000  0.00000000  0.90434743  1
  O  O11  1  0.00000000  0.50000000  0.09565257  1
  O  O12  1  0.50000000  0.00000000  0.09565257  1
  O  O13  1  0.00000000  0.50000000  0.38745173  1
  O  O14  1  0.00000000  0.00000000  0.25818798  1
  O  O15  1  0.00000000  0.00000000  0.74181202  1
  O  O16  1  0.00000000  0.00000000  0.50000000  1
  O  O17  1  0.50000000  0.00000000  0.38745173  1
  O  O18  1  0.00000000  0.50000000  0.90434743  1
