# generated using pymatgen
data_Na7SnS3(O4F)3
_symmetry_space_group_name_H-M   'P 1'
_cell_length_a   10.93353392
_cell_length_b   10.93353402
_cell_length_c   6.79374422
_cell_angle_alpha   90.00000000
_cell_angle_beta   90.00000000
_cell_angle_gamma   119.99999971
_symmetry_Int_Tables_number   1
_chemical_formula_structural   Na7SnS3(O4F)3
_chemical_formula_sum   'Na14 Sn2 S6 O24 F6'
_cell_volume   703.33291465
_cell_formula_units_Z   2
loop_
 _symmetry_equiv_pos_site_id
 _symmetry_equiv_pos_as_xyz
  1  'x, y, z'
loop_
 _atom_site_type_symbol
 _atom_site_label
 _atom_site_symmetry_multiplicity
 _atom_site_fract_x
 _atom_site_fract_y
 _atom_site_fract_z
 _atom_site_occupancy
  Na  Na0  1  0.82651049  0.65302097  0.50869549  1
  Na  Na1  1  0.46941771  0.93883542  0.73078458  1
  Na  Na2  1  0.53058229  0.46941771  0.23078458  1
  Na  Na3  1  0.82651049  0.17348951  0.50869549  1
  Na  Na4  1  0.17348951  0.34697903  0.00869549  1
  Na  Na5  1  0.06116458  0.53058229  0.73078458  1
  Na  Na6  1  0.53058229  0.06116458  0.23078458  1
  Na  Na7  1  0.93883542  0.46941771  0.23078458  1
  Na  Na8  1  0.34697903  0.17348951  0.50869549  1
  Na  Na9  1  0.00000000  0.00000000  0.29565201  1
  Na  Na10  1  0.17348951  0.82651049  0.00869549  1
  Na  Na11  1  0.65302097  0.82651049  0.00869549  1
  Na  Na12  1  0.46941771  0.53058229  0.73078458  1
  Na  Na13  1  0.00000000  0.00000000  0.79565201  1
  Sn  Sn14  1  0.66666700  0.33333300  0.74855108  1
  Sn  Sn15  1  0.33333300  0.66666700  0.24855108  1
  S  S16  1  0.83057436  0.16942564  0.99940763  1
  S  S17  1  0.66114872  0.83057436  0.49940763  1
  S  S18  1  0.16942564  0.33885128  0.49940763  1
  S  S19  1  0.83057436  0.66114872  0.99940763  1
  S  S20  1  0.33885128  0.16942564  0.99940763  1
  S  S21  1  0.16942564  0.83057436  0.49940763  1
  O  O22  1  0.90715834  0.81431667  0.05418216  1
  O  O23  1  0.09284166  0.18568333  0.55418216  1
  O  O24  1  0.29624064  0.36957377  0.37973695  1
  O  O25  1  0.07333313  0.36957377  0.37973695  1
  O  O26  1  0.09284166  0.90715834  0.55418216  1
  O  O27  1  0.92666687  0.63042623  0.87973695  1
  O  O28  1  0.42989784  0.21494892  0.17865459  1
  O  O29  1  0.36957377  0.29624064  0.87973695  1
  O  O30  1  0.21494892  0.42989784  0.67865459  1
  O  O31  1  0.63042623  0.92666687  0.37973695  1
  O  O32  1  0.78505108  0.57010216  0.17865459  1
  O  O33  1  0.18568333  0.09284166  0.05418216  1
  O  O34  1  0.70375936  0.07333313  0.87973695  1
  O  O35  1  0.21494892  0.78505108  0.67865459  1
  O  O36  1  0.63042623  0.70375936  0.37973695  1
  O  O37  1  0.92666687  0.29624064  0.87973695  1
  O  O38  1  0.57010216  0.78505108  0.67865459  1
  O  O39  1  0.36957377  0.07333313  0.87973695  1
  O  O40  1  0.90715834  0.09284166  0.05418216  1
  O  O41  1  0.70375936  0.63042623  0.87973695  1
  O  O42  1  0.29624064  0.92666687  0.37973695  1
  O  O43  1  0.81431667  0.90715834  0.55418216  1
  O  O44  1  0.78505108  0.21494892  0.17865459  1
  O  O45  1  0.07333313  0.70375936  0.37973695  1
  F  F46  1  0.42062563  0.84125126  0.04983393  1
  F  F47  1  0.42062563  0.57937437  0.04983393  1
  F  F48  1  0.57937437  0.15874874  0.54983393  1
  F  F49  1  0.15874874  0.57937437  0.04983393  1
  F  F50  1  0.57937437  0.42062563  0.54983393  1
  F  F51  1  0.84125126  0.42062563  0.54983393  1
