# generated using pymatgen
data_Sr7Zr(Si2O7)3
_symmetry_space_group_name_H-M   'P 1'
_cell_length_a   8.51058635
_cell_length_b   8.52064386
_cell_length_c   8.52726833
_cell_angle_alpha   106.05294443
_cell_angle_beta   106.14996021
_cell_angle_gamma   106.01309357
_symmetry_Int_Tables_number   1
_chemical_formula_structural   Sr7Zr(Si2O7)3
_chemical_formula_sum   'Sr7 Zr1 Si6 O21'
_cell_volume   527.46997945
_cell_formula_units_Z   1
loop_
 _symmetry_equiv_pos_site_id
 _symmetry_equiv_pos_as_xyz
  1  'x, y, z'
loop_
 _atom_site_type_symbol
 _atom_site_label
 _atom_site_symmetry_multiplicity
 _atom_site_fract_x
 _atom_site_fract_y
 _atom_site_fract_z
 _atom_site_occupancy
  Sr  Sr0  1  0.62844085  0.15176401  0.75051475  1
  Sr  Sr1  1  0.85104699  0.24917927  0.37259824  1
  Sr  Sr2  1  0.50000000  0.50000000  0.50000000  1
  Sr  Sr3  1  0.37155915  0.84823599  0.24948525  1
  Sr  Sr4  1  0.14895301  0.75082073  0.62740176  1
  Sr  Sr5  1  0.24973044  0.37300728  0.84948735  1
  Sr  Sr6  1  0.75026956  0.62699272  0.15051265  1
  Zr  Zr7  1  0.00000000  -0.00000000  0.00000000  1
  Si  Si8  1  0.92696573  0.54200206  0.81711616  1
  Si  Si9  1  0.54058758  0.81605843  0.92740417  1
  Si  Si10  1  0.18337539  0.07269963  0.45852700  1
  Si  Si11  1  0.45941242  0.18394157  0.07259583  1
  Si  Si12  1  0.81662461  0.92730037  0.54147300  1
  Si  Si13  1  0.07303427  0.45799794  0.18288384  1
  O  O14  1  0.74509497  0.71479036  0.45536230  1
  O  O15  1  0.01222684  0.45816706  0.68138833  1
  O  O16  1  0.98322477  0.24218196  0.12481078  1
  O  O17  1  0.12544054  0.98410283  0.24271597  1
  O  O18  1  0.71413192  0.45637444  0.74580750  1
  O  O19  1  0.45908259  0.68205546  0.01544055  1
  O  O20  1  0.28586808  0.54362556  0.25419250  1
  O  O21  1  0.45141875  0.74141716  0.71486353  1
  O  O22  1  0.31894580  0.98659950  0.54175506  1
  O  O23  1  0.01677523  0.75781804  0.87518922  1
  O  O24  1  0.68105420  0.01340050  0.45824494  1
  O  O25  1  0.25490503  0.28520964  0.54463770  1
  O  O26  1  0.87455946  0.01589717  0.75728403  1
  O  O27  1  0.75691813  0.87347488  0.01430090  1
  O  O28  1  0.00000000  0.50000000  0.00000000  1
  O  O29  1  0.54091741  0.31794454  0.98455945  1
  O  O30  1  0.00000000  -0.00000000  0.50000000  1
  O  O31  1  0.98777316  0.54183294  0.31861167  1
  O  O32  1  0.54858125  0.25858284  0.28513647  1
  O  O33  1  0.50000000  -0.00000000  0.00000000  1
  O  O34  1  0.24308187  0.12652512  0.98569910  1
