# generated using pymatgen
data_Rb2USi2O9
_symmetry_space_group_name_H-M   'P 1'
_cell_length_a   7.78114778
_cell_length_b   12.30524043
_cell_length_c   20.50617565
_cell_angle_alpha   90.00000000
_cell_angle_beta   90.00000000
_cell_angle_gamma   96.65550797
_symmetry_Int_Tables_number   1
_chemical_formula_structural   Rb2USi2O9
_chemical_formula_sum   'Rb16 U8 Si16 O72'
_cell_volume   1950.21189645
_cell_formula_units_Z   8
loop_
 _symmetry_equiv_pos_site_id
 _symmetry_equiv_pos_as_xyz
  1  'x, y, z'
loop_
 _atom_site_type_symbol
 _atom_site_label
 _atom_site_symmetry_multiplicity
 _atom_site_fract_x
 _atom_site_fract_y
 _atom_site_fract_z
 _atom_site_occupancy
  Rb  Rb0  1  0.99701018  0.82083660  0.25064675  1
  Rb  Rb1  1  0.49701018  0.32083660  0.24935325  1
  Rb  Rb2  1  0.00298982  0.17916340  0.74935325  1
  Rb  Rb3  1  0.50298982  0.67916340  0.75064675  1
  Rb  Rb4  1  0.49620700  0.14873277  0.43570808  1
  Rb  Rb5  1  0.99620700  0.64873277  0.06429192  1
  Rb  Rb6  1  0.50379300  0.85126723  0.56429192  1
  Rb  Rb7  1  0.00379300  0.35126723  0.93570808  1
  Rb  Rb8  1  0.96744996  0.13710415  0.31602020  1
  Rb  Rb9  1  0.46744996  0.63710415  0.18397980  1
  Rb  Rb10  1  0.03255004  0.86289585  0.68397980  1
  Rb  Rb11  1  0.53255004  0.36289585  0.81602020  1
  Rb  Rb12  1  0.96305978  0.66531672  0.50299251  1
  Rb  Rb13  1  0.46305978  0.16531672  0.99700749  1
  Rb  Rb14  1  0.03694022  0.33468328  0.49700749  1
  Rb  Rb15  1  0.53694022  0.83468328  0.00299251  1
  U  U16  1  0.46681738  0.98882004  0.25244684  1
  U  U17  1  0.96681738  0.48882004  0.24755316  1
  U  U18  1  0.53318262  0.01117996  0.74755316  1
  U  U19  1  0.03318262  0.51117996  0.75244684  1
  U  U20  1  0.50000000  0.50000000  0.50000000  1
  U  U21  1  0.00000000  -0.00000000  -0.00000000  1
  U  U22  1  0.00000000  -0.00000000  0.50000000  1
  U  U23  1  0.50000000  0.50000000  -0.00000000  1
  Si  Si24  1  0.68536700  0.86436219  0.37915780  1
  Si  Si25  1  0.18536700  0.36436219  0.12084220  1
  Si  Si26  1  0.31463300  0.13563781  0.62084220  1
  Si  Si27  1  0.81463300  0.63563781  0.87915780  1
  Si  Si28  1  0.27865736  0.61394323  0.37063651  1
  Si  Si29  1  0.77865736  0.11394323  0.12936349  1
  Si  Si30  1  0.72134264  0.38605677  0.62936349  1
  Si  Si31  1  0.22134264  0.88605677  0.87063651  1
  Si  Si32  1  0.29303608  0.85977650  0.39724828  1
  Si  Si33  1  0.79303608  0.35977650  0.10275172  1
  Si  Si34  1  0.70696392  0.14022350  0.60275172  1
  Si  Si35  1  0.20696392  0.64022350  0.89724828  1
  Si  Si36  1  0.67018997  0.61900106  0.35435417  1
  Si  Si37  1  0.17018997  0.11900106  0.14564583  1
  Si  Si38  1  0.32981003  0.38099894  0.64564583  1
  Si  Si39  1  0.82981003  0.88099894  0.85435417  1
  O  O40  1  0.96664758  0.12492216  0.16803435  1
  O  O41  1  0.46664758  0.62492216  0.33196565  1
  O  O42  1  0.03335242  0.87507784  0.83196565  1
  O  O43  1  0.53335242  0.37507784  0.66803435  1
  O  O44  1  0.36713599  0.86015101  0.20981292  1
  O  O45  1  0.86713599  0.36015101  0.29018708  1
  O  O46  1  0.63286401  0.13984899  0.79018708  1
  O  O47  1  0.13286401  0.63984899  0.70981292  1
  O  O48  1  0.10642912  0.11686205  0.45104119  1
  O  O49  1  0.60642912  0.61686205  0.04895881  1
  O  O50  1  0.89357088  0.88313795  0.54895881  1
  O  O51  1  0.39357088  0.38313795  0.95104119  1
  O  O52  1  0.64156768  0.03044280  0.16995366  1
  O  O53  1  0.14156768  0.53044280  0.33004634  1
  O  O54  1  0.35843232  0.96955720  0.83004634  1
  O  O55  1  0.85843232  0.46955720  0.66995366  1
  O  O56  1  0.21119819  0.73665259  0.37122966  1
  O  O57  1  0.71119819  0.23665259  0.12877034  1
  O  O58  1  0.78880181  0.26334741  0.62877034  1
  O  O59  1  0.28880181  0.76334741  0.87122966  1
  O  O60  1  0.82539972  0.95259449  0.41507198  1
  O  O61  1  0.32539972  0.45259449  0.08492802  1
  O  O62  1  0.17460028  0.04740551  0.58492802  1
  O  O63  1  0.67460028  0.54740551  0.91507198  1
  O  O64  1  0.75384447  0.74178541  0.38043919  1
  O  O65  1  0.25384447  0.24178541  0.11956081  1
  O  O66  1  0.24615553  0.25821459  0.61956081  1
  O  O67  1  0.74615553  0.75821459  0.88043919  1
  O  O68  1  0.67758476  0.53467113  0.41527037  1
  O  O69  1  0.17758476  0.03467113  0.08472963  1
  O  O70  1  0.32241524  0.46532887  0.58472963  1
  O  O71  1  0.82241524  0.96532887  0.91527037  1
  O  O72  1  0.29859299  0.57481481  0.44591196  1
  O  O73  1  0.79859299  0.07481481  0.05408804  1
  O  O74  1  0.70140701  0.42518519  0.55408804  1
  O  O75  1  0.20140701  0.92518519  0.94591196  1
  O  O76  1  0.27047860  0.08762508  0.21115871  1
  O  O77  1  0.77047860  0.58762508  0.28884129  1
  O  O78  1  0.72952140  0.91237492  0.78884129  1
  O  O79  1  0.22952140  0.41237492  0.71115871  1
  O  O80  1  0.40987012  0.36345595  0.46427211  1
  O  O81  1  0.90987012  0.86345595  0.03572789  1
  O  O82  1  0.59012988  0.63654405  0.53572789  1
  O  O83  1  0.09012988  0.13654405  0.96427211  1
  O  O84  1  0.19070416  0.88988513  0.46264207  1
  O  O85  1  0.69070416  0.38988513  0.03735793  1
  O  O86  1  0.80929584  0.11011487  0.53735793  1
  O  O87  1  0.30929584  0.61011487  0.96264207  1
  O  O88  1  0.28585854  0.94587183  0.33721002  1
  O  O89  1  0.78585854  0.44587183  0.16278998  1
  O  O90  1  0.71414146  0.05412817  0.66278998  1
  O  O91  1  0.21414146  0.55412817  0.83721002  1
  O  O92  1  0.56366643  0.11386507  0.29737501  1
  O  O93  1  0.06366643  0.61386507  0.20262499  1
  O  O94  1  0.43633357  0.88613493  0.70262499  1
  O  O95  1  0.93633357  0.38613493  0.79737501  1
  O  O96  1  0.49871094  0.85665460  0.41926690  1
  O  O97  1  0.99871094  0.35665460  0.08073310  1
  O  O98  1  0.50128906  0.14334540  0.58073310  1
  O  O99  1  0.00128906  0.64334540  0.91926690  1
  O  O100  1  0.65783393  0.89719865  0.30309879  1
  O  O101  1  0.15783393  0.39719865  0.19690121  1
  O  O102  1  0.34216607  0.10280135  0.69690121  1
  O  O103  1  0.84216607  0.60280135  0.80309879  1
  O  O104  1  0.77236571  0.32918351  0.39059055  1
  O  O105  1  0.27236571  0.82918351  0.10940945  1
  O  O106  1  0.22763429  0.67081649  0.60940945  1
  O  O107  1  0.72763429  0.17081649  0.89059055  1
  O  O108  1  0.75018704  0.83466979  0.13384125  1
  O  O109  1  0.25018704  0.33466979  0.36615875  1
  O  O110  1  0.24981296  0.16533021  0.86615875  1
  O  O111  1  0.74981296  0.66533021  0.63384125  1
