# generated using pymatgen
data_Sr2Cu3(ClO2)2
_symmetry_space_group_name_H-M   'P 1'
_cell_length_a   5.49015584
_cell_length_b   5.49025287
_cell_length_c   7.55566790
_cell_angle_alpha   111.31293612
_cell_angle_beta   111.31248785
_cell_angle_gamma   89.99226946
_symmetry_Int_Tables_number   1
_chemical_formula_structural   Sr2Cu3(ClO2)2
_chemical_formula_sum   'Sr2 Cu3 Cl2 O4'
_cell_volume   195.36164449
_cell_formula_units_Z   1
loop_
 _symmetry_equiv_pos_site_id
 _symmetry_equiv_pos_as_xyz
  1  'x, y, z'
loop_
 _atom_site_type_symbol
 _atom_site_label
 _atom_site_symmetry_multiplicity
 _atom_site_fract_x
 _atom_site_fract_y
 _atom_site_fract_z
 _atom_site_occupancy
  O  O0  1  0.74929836  0.25065367  0.00000000  1
  O  O1  1  0.25070177  0.74934902  1.00000052  1
  Sr  Sr2  1  0.36106253  0.36106013  0.72213828  1
  Cl  Cl3  1  0.74998826  0.25000885  0.49999853  1
  Cu  Cu4  1  1.00000126  -0.00000081  0.99999908  1
  O  O5  1  0.25069318  0.25064368  0.00000206  1
  Cl  Cl6  1  0.25001149  0.74999042  0.50000214  1
  Sr  Sr7  1  0.63893876  0.63893808  0.27786232  1
  Cu  Cu8  1  0.49999751  1.00000043  0.99999931  1
  Cu  Cu9  1  0.00000079  0.50000103  0.99999996  1
  O  O10  1  0.74930610  0.74935550  0.99999781  1
