# generated using pymatgen
data_Cu7As6(PbO12)2
_symmetry_space_group_name_H-M   'P 1'
_cell_length_a   5.24531686
_cell_length_b   8.50495968
_cell_length_c   11.43103037
_cell_angle_alpha   90.56518990
_cell_angle_beta   90.85677988
_cell_angle_gamma   93.26224700
_symmetry_Int_Tables_number   1
_chemical_formula_structural   Cu7As6(PbO12)2
_chemical_formula_sum   'Cu7 As6 Pb2 O24'
_cell_volume   509.03946782
_cell_formula_units_Z   1
loop_
 _symmetry_equiv_pos_site_id
 _symmetry_equiv_pos_as_xyz
  1  'x, y, z'
loop_
 _atom_site_type_symbol
 _atom_site_label
 _atom_site_symmetry_multiplicity
 _atom_site_fract_x
 _atom_site_fract_y
 _atom_site_fract_z
 _atom_site_occupancy
  Cu  Cu0  1  0.98148897  0.28286964  0.16587375  1
  Cu  Cu1  1  0.96745969  0.92039185  0.31944096  1
  Cu  Cu2  1  0.03254031  0.07960815  0.68055904  1
  Cu  Cu3  1  0.00000000  0.00000000  0.00000000  1
  Cu  Cu4  1  0.01851103  0.71713036  0.83412625  1
  Cu  Cu5  1  0.50000000  0.50000000  0.00000000  1
  Cu  Cu6  1  0.50000000  0.00000000  0.50000000  1
  As  As7  1  0.02419419  0.65966722  0.11455529  1
  As  As8  1  0.96561417  0.27015575  0.44800156  1
  As  As9  1  0.97580581  0.34033278  0.88544471  1
  As  As10  1  0.48461190  0.07975392  0.22055090  1
  As  As11  1  0.51538810  0.92024608  0.77944910  1
  As  As12  1  0.03438583  0.72984425  0.55199844  1
  Pb  Pb13  1  0.50144434  0.46122310  0.66838259  1
  Pb  Pb14  1  0.49855566  0.53877690  0.33161741  1
  O  O15  1  0.88365323  0.21760037  0.00178870  1
  O  O16  1  0.76864874  0.90218930  0.87714515  1
  O  O17  1  0.37459449  0.72992812  0.77478731  1
  O  O18  1  0.81416945  0.08175719  0.41826557  1
  O  O19  1  0.67281049  0.98039913  0.64963089  1
  O  O20  1  0.70428649  0.60329463  0.12327460  1
  O  O21  1  0.26961538  0.60781204  0.51391499  1
  O  O22  1  0.73038462  0.39218796  0.48608501  1
  O  O23  1  0.19021602  0.24806525  0.55590910  1
  O  O24  1  0.18583055  0.91824281  0.58173443  1
  O  O25  1  0.32718951  0.01960087  0.35036911  1
  O  O26  1  0.88849065  0.66000252  0.67863764  1
  O  O27  1  0.11634677  0.78239963  0.99821130  1
  O  O28  1  0.87303661  0.25515017  0.75585883  1
  O  O29  1  0.11150935  0.33999748  0.32136236  1
  O  O30  1  0.62540551  0.27007188  0.22521269  1
  O  O31  1  0.29571351  0.39670537  0.87672540  1
  O  O32  1  0.19735219  0.49047970  0.10122438  1
  O  O33  1  0.80264781  0.50952030  0.89877562  1
  O  O34  1  0.28981405  0.04970190  0.81532372  1
  O  O35  1  0.71018595  0.95029810  0.18467628  1
  O  O36  1  0.23135126  0.09781070  0.12285485  1
  O  O37  1  0.80978398  0.75193475  0.44409090  1
  O  O38  1  0.12696339  0.74484983  0.24414117  1
