# generated using pymatgen
data_MnVAgO4
_symmetry_space_group_name_H-M   'P 1'
_cell_length_a   5.45188439
_cell_length_b   6.92034012
_cell_length_c   9.76351078
_cell_angle_alpha   90.00000000
_cell_angle_beta   90.00000000
_cell_angle_gamma   90.00000000
_symmetry_Int_Tables_number   1
_chemical_formula_structural   MnVAgO4
_chemical_formula_sum   'Mn4 V4 Ag4 O16'
_cell_volume   368.36646596
_cell_formula_units_Z   4
loop_
 _symmetry_equiv_pos_site_id
 _symmetry_equiv_pos_as_xyz
  1  'x, y, z'
loop_
 _atom_site_type_symbol
 _atom_site_label
 _atom_site_symmetry_multiplicity
 _atom_site_fract_x
 _atom_site_fract_y
 _atom_site_fract_z
 _atom_site_occupancy
  Mn  Mn0  1  0.50000000  0.50000000  0.50000000  1
  Mn  Mn1  1  0.00000000  0.50000000  0.00000000  1
  Mn  Mn2  1  0.50000000  0.00000000  0.50000000  1
  Mn  Mn3  1  0.00000000  0.00000000  0.00000000  1
  V  V4  1  0.97864227  0.75000000  0.32204767  1
  V  V5  1  0.47864227  0.25000000  0.17795233  1
  V  V6  1  0.02135773  0.25000000  0.67795233  1
  V  V7  1  0.52135773  0.75000000  0.82204767  1
  Ag  Ag8  1  0.99940155  0.75000000  0.65133266  1
  Ag  Ag9  1  0.49940155  0.25000000  0.84866734  1
  Ag  Ag10  1  0.00059845  0.25000000  0.34866734  1
  Ag  Ag11  1  0.50059845  0.75000000  0.15133266  1
  O  O12  1  0.93947535  0.75000000  0.13848707  1
  O  O13  1  0.43947535  0.25000000  0.36151293  1
  O  O14  1  0.06052465  0.25000000  0.86151293  1
  O  O15  1  0.56052465  0.75000000  0.63848707  1
  O  O16  1  0.28575692  0.75000000  0.38210965  1
  O  O17  1  0.78575692  0.25000000  0.11789035  1
  O  O18  1  0.71424308  0.25000000  0.61789035  1
  O  O19  1  0.21424308  0.75000000  0.88210965  1
  O  O20  1  0.82261479  0.55088122  0.38499114  1
  O  O21  1  0.32261479  0.44911878  0.11500886  1
  O  O22  1  0.17738521  0.05088122  0.61500886  1
  O  O23  1  0.67738521  0.94911878  0.88499114  1
  O  O24  1  0.17738521  0.44911878  0.61500886  1
  O  O25  1  0.67738521  0.55088122  0.88499114  1
  O  O26  1  0.82261479  0.94911878  0.38499114  1
  O  O27  1  0.32261479  0.05088122  0.11500886  1
