# generated using pymatgen
data_P3RuO9
_symmetry_space_group_name_H-M   'P 1'
_cell_length_a   6.58675215
_cell_length_b   7.43394161
_cell_length_c   8.45017294
_cell_angle_alpha   73.99211129
_cell_angle_beta   67.06163806
_cell_angle_gamma   63.70334972
_symmetry_Int_Tables_number   1
_chemical_formula_structural   P3RuO9
_chemical_formula_sum   'P6 Ru2 O18'
_cell_volume   338.94020266
_cell_formula_units_Z   2
loop_
 _symmetry_equiv_pos_site_id
 _symmetry_equiv_pos_as_xyz
  1  'x, y, z'
loop_
 _atom_site_type_symbol
 _atom_site_label
 _atom_site_symmetry_multiplicity
 _atom_site_fract_x
 _atom_site_fract_y
 _atom_site_fract_z
 _atom_site_occupancy
  P  P0  1  0.97879291  0.54869747  0.17800231  1
  P  P1  1  0.55290453  0.75000000  0.75000000  1
  P  P2  1  0.79450731  0.04869747  0.67800231  1
  P  P3  1  0.20549269  0.95130253  0.32199769  1
  P  P4  1  0.02120709  0.45130253  0.82199769  1
  P  P5  1  0.44709547  0.25000000  0.25000000  1
  Ru  Ru6  1  0.00000000  0.00000000  0.00000000  1
  Ru  Ru7  1  0.50000000  0.50000000  0.50000000  1
  O  O8  1  0.66351392  0.20514604  0.09245468  1
  O  O9  1  0.33648608  0.79485396  0.90754532  1
  O  O10  1  0.83304654  0.44572230  0.32658133  1
  O  O11  1  0.09654025  0.22779619  0.82537123  1
  O  O12  1  0.24826107  0.43482388  0.17842059  1
  O  O13  1  0.90345975  0.77220381  0.17462877  1
  O  O14  1  0.35029233  0.72779619  0.32537123  1
  O  O15  1  0.36150554  0.06517612  0.32157941  1
  O  O16  1  0.16695346  0.55427770  0.67341867  1
  O  O17  1  0.10535017  0.05427770  0.17341867  1
  O  O18  1  0.53888535  0.70514604  0.59245468  1
  O  O19  1  0.46111465  0.29485396  0.40754532  1
  O  O20  1  0.00000000  0.00000000  0.50000000  1
  O  O21  1  0.75173893  0.56517612  0.82157941  1
  O  O22  1  0.63849446  0.93482388  0.67842059  1
  O  O23  1  0.64970767  0.27220381  0.67462877  1
  O  O24  1  0.89464983  0.94572230  0.82658133  1
  O  O25  1  0.00000000  0.50000000  0.00000000  1
