# generated using pymatgen
data_NaSbS2
_symmetry_space_group_name_H-M   'P 1'
_cell_length_a   5.94227792
_cell_length_b   5.58812786
_cell_length_c   7.01485641
_cell_angle_alpha   113.47235996
_cell_angle_beta   113.49261831
_cell_angle_gamma   90.00000617
_symmetry_Int_Tables_number   1
_chemical_formula_structural   NaSbS2
_chemical_formula_sum   'Na2 Sb2 S4'
_cell_volume   192.42964081
_cell_formula_units_Z   2
loop_
 _symmetry_equiv_pos_site_id
 _symmetry_equiv_pos_as_xyz
  1  'x, y, z'
loop_
 _atom_site_type_symbol
 _atom_site_label
 _atom_site_symmetry_multiplicity
 _atom_site_fract_x
 _atom_site_fract_y
 _atom_site_fract_z
 _atom_site_occupancy
  Na  Na0  1  0.13544391  0.37367161  0.74734321  1
  Na  Na1  1  0.86455609  0.62632839  0.25265679  1
  Sb  Sb2  1  0.41056030  0.13137391  0.26274781  1
  Sb  Sb3  1  0.58943970  0.86862609  0.73725219  1
  S  S4  1  0.19012380  0.88170115  0.76340231  1
  S  S5  1  0.63244631  0.36265731  0.72531462  1
  S  S6  1  0.80987620  0.11829885  0.23659769  1
  S  S7  1  0.36755369  0.63734269  0.27468538  1
