# generated using pymatgen
data_SiO2
_symmetry_space_group_name_H-M   'P 1'
_cell_length_a   7.47056767
_cell_length_b   8.85296841
_cell_length_c   15.90395583
_cell_angle_alpha   90.00000000
_cell_angle_beta   91.17997083
_cell_angle_gamma   90.00000000
_symmetry_Int_Tables_number   1
_chemical_formula_structural   SiO2
_chemical_formula_sum   'Si18 O36'
_cell_volume   1051.61210047
_cell_formula_units_Z   18
loop_
 _symmetry_equiv_pos_site_id
 _symmetry_equiv_pos_as_xyz
  1  'x, y, z'
loop_
 _atom_site_type_symbol
 _atom_site_label
 _atom_site_symmetry_multiplicity
 _atom_site_fract_x
 _atom_site_fract_y
 _atom_site_fract_z
 _atom_site_occupancy
  Si  Si0  1  0.35058229  0.65427884  0.07988086  1
  Si  Si1  1  0.14941771  0.65427884  0.42011914  1
  Si  Si2  1  0.39033774  0.64864875  0.67929713  1
  Si  Si3  1  0.64941771  0.34572116  0.92011914  1
  Si  Si4  1  0.25000000  0.49629205  0.25000000  1
  Si  Si5  1  0.10966226  0.64864875  0.82070287  1
  Si  Si6  1  0.74557078  0.60359119  0.05571617  1
  Si  Si7  1  0.44458963  0.82528468  0.50925560  1
  Si  Si8  1  0.94458963  0.17471532  0.00925560  1
  Si  Si9  1  0.85058229  0.34572116  0.57988086  1
  Si  Si10  1  0.25442922  0.39640881  0.94428383  1
  Si  Si11  1  0.89033774  0.35135125  0.17929713  1
  Si  Si12  1  0.75000000  0.50370795  0.75000000  1
  Si  Si13  1  0.60966226  0.35135125  0.32070287  1
  Si  Si14  1  0.05541037  0.82528468  0.99074440  1
  Si  Si15  1  0.24557078  0.39640881  0.55571617  1
  Si  Si16  1  0.75442922  0.60359119  0.44428383  1
  Si  Si17  1  0.55541037  0.17471532  0.49074440  1
  O  O18  1  0.91265182  0.22086605  0.10749534  1
  O  O19  1  0.60219024  0.72212815  0.47064034  1
  O  O20  1  0.69808593  0.38940810  0.82500981  1
  O  O21  1  0.56285552  0.69462834  0.07656064  1
  O  O22  1  0.91638226  0.61425977  0.77584116  1
  O  O23  1  0.06285552  0.30537166  0.57656064  1
  O  O24  1  0.93714448  0.69462834  0.42343936  1
  O  O25  1  0.08734818  0.77913395  0.89250466  1
  O  O26  1  0.58361774  0.61425977  0.72415884  1
  O  O27  1  0.20334460  0.50938681  0.47780414  1
  O  O28  1  0.80191407  0.38940810  0.67499019  1
  O  O29  1  0.73915201  0.19912066  0.54650991  1
  O  O30  1  0.81442286  0.50753351  0.13723064  1
  O  O31  1  0.29665540  0.50938681  0.02219586  1
  O  O32  1  0.10219024  0.27787185  0.97064034  1
  O  O33  1  0.43714448  0.30537166  0.92343936  1
  O  O34  1  0.41638226  0.38574023  0.27584116  1
  O  O35  1  0.31442286  0.49246649  0.63723064  1
  O  O36  1  0.68557714  0.50753351  0.36276936  1
  O  O37  1  0.89780976  0.72212815  0.02935966  1
  O  O38  1  0.30191407  0.61059190  0.17499019  1
  O  O39  1  0.18557714  0.49246649  0.86276936  1
  O  O40  1  0.00000000  0.00000000  0.00000000  1
  O  O41  1  0.08361774  0.38574023  0.22415884  1
  O  O42  1  0.19808593  0.61059190  0.32500981  1
  O  O43  1  0.58734818  0.22086605  0.39250466  1
  O  O44  1  0.41265182  0.77913395  0.60749534  1
  O  O45  1  0.70334460  0.49061319  0.97780414  1
  O  O46  1  0.76084799  0.19912066  0.95349009  1
  O  O47  1  0.75000000  0.29367072  0.25000000  1
  O  O48  1  0.79665540  0.49061319  0.52219586  1
  O  O49  1  0.50000000  0.00000000  0.50000000  1
  O  O50  1  0.25000000  0.70632928  0.75000000  1
  O  O51  1  0.39780976  0.27787185  0.52935966  1
  O  O52  1  0.26084799  0.80087934  0.45349009  1
  O  O53  1  0.23915201  0.80087934  0.04650991  1
