# generated using pymatgen
data_K2Ba(NO2)4
_symmetry_space_group_name_H-M   'P 1'
_cell_length_a   9.15400877
_cell_length_b   9.15369685
_cell_length_c   13.21526746
_cell_angle_alpha   108.86621277
_cell_angle_beta   108.83611361
_cell_angle_gamma   93.85259168
_symmetry_Int_Tables_number   1
_chemical_formula_structural   K2Ba(NO2)4
_chemical_formula_sum   'K8 Ba4 N16 O32'
_cell_volume   973.36689005
_cell_formula_units_Z   4
loop_
 _symmetry_equiv_pos_site_id
 _symmetry_equiv_pos_as_xyz
  1  'x, y, z'
loop_
 _atom_site_type_symbol
 _atom_site_label
 _atom_site_symmetry_multiplicity
 _atom_site_fract_x
 _atom_site_fract_y
 _atom_site_fract_z
 _atom_site_occupancy
  K  K0  1  0.57715515  0.08999740  0.16487633  1
  K  K1  1  0.92507908  0.41236837  0.83513990  1
  K  K2  1  0.91136488  0.92422843  0.33512384  1
  K  K3  1  0.42284485  0.91000260  0.83512367  1
  K  K4  1  0.58892078  0.57605444  0.66490457  1
  K  K5  1  0.41107922  0.42394556  0.33509543  1
  K  K6  1  0.08863512  0.07577157  0.66487616  1
  K  K7  1  0.07492092  0.58763163  0.16486010  1
  Ba  Ba8  1  0.50000000  0.50000000  0.00000000  1
  Ba  Ba9  1  0.50000000  0.00000000  0.50000000  1
  Ba  Ba10  1  0.00000000  0.00000000  0.00000000  1
  Ba  Ba11  1  0.00000000  0.50000000  0.50000000  1
  N  N12  1  0.73103674  0.23108049  0.49999429  1
  N  N13  1  0.50861955  0.25769944  0.76630938  1
  N  N14  1  0.73123271  0.73119376  0.99999355  1
  N  N15  1  0.23450053  0.76935812  0.00394550  1
  N  N16  1  0.75618610  0.51115878  0.26735078  1
  N  N17  1  0.23048776  0.26604846  0.49644491  1
  N  N18  1  0.26896326  0.76891951  0.50000571  1
  N  N19  1  0.76549947  0.23064188  0.99605450  1
  N  N20  1  0.25821253  0.00702153  0.26520989  1
  N  N21  1  0.00960659  0.75662077  0.76621669  1
  N  N22  1  0.74178747  0.99297847  0.73479011  1
  N  N23  1  0.76951224  0.73395154  0.50355509  1
  N  N24  1  0.49138045  0.74230056  0.23369062  1
  N  N25  1  0.26876729  0.26880624  0.00000645  1
  N  N26  1  0.99039341  0.24337923  0.23378331  1
  N  N27  1  0.24381390  0.48884122  0.73264922  1
  O  O28  1  0.90612970  0.20812482  0.28572444  1
  O  O29  1  0.07761454  0.37957656  0.28572600  1
  O  O30  1  0.09387030  0.79187518  0.71427556  1
  O  O31  1  0.69283132  0.32322622  0.44569708  1
  O  O32  1  0.63293111  0.69977108  0.50422844  1
  O  O33  1  0.37174159  0.80414948  0.00456266  1
  O  O34  1  0.30716868  0.67677378  0.55430292  1
  O  O35  1  0.19566065  0.12879527  0.49578802  1
  O  O36  1  0.29277223  0.09271252  0.21394291  1
  O  O37  1  0.20031256  0.63272580  0.00455851  1
  O  O38  1  0.87746864  0.24706865  0.55427853  1
  O  O39  1  0.70722777  0.90728748  0.78605709  1
  O  O40  1  0.62825841  0.19585052  0.99543734  1
  O  O41  1  0.79022889  0.59800428  0.21673004  1
  O  O42  1  0.79968744  0.36727420  0.99544149  1
  O  O43  1  0.61871276  0.42647376  0.21672743  1
  O  O44  1  0.12253136  0.75293135  0.44572147  1
  O  O45  1  0.25278041  0.12233321  0.94569838  1
  O  O46  1  0.36706889  0.30022892  0.49577156  1
  O  O47  1  0.40313858  0.70890366  0.28363797  1
  O  O48  1  0.82340096  0.69296344  0.94568179  1
  O  O49  1  0.92238546  0.62042344  0.71427400  1
  O  O50  1  0.80433935  0.87120473  0.50421198  1
  O  O51  1  0.59686142  0.29109634  0.71636203  1
  O  O52  1  0.57473881  0.88049157  0.28364074  1
  O  O53  1  0.42526119  0.11950843  0.71635926  1
  O  O54  1  0.17659904  0.30703656  0.05431821  1
  O  O55  1  0.74721959  0.87766679  0.05430162  1
  O  O56  1  0.12125369  0.92117156  0.21394548  1
  O  O57  1  0.38128724  0.57352624  0.78327257  1
  O  O58  1  0.87874631  0.07882844  0.78605452  1
  O  O59  1  0.20977111  0.40199572  0.78326996  1
