# generated using pymatgen
data_AgTeO3
_symmetry_space_group_name_H-M   'P 1'
_cell_length_a   6.02456380
_cell_length_b   8.21685392
_cell_length_c   11.82669282
_cell_angle_alpha   90.00000000
_cell_angle_beta   90.00000000
_cell_angle_gamma   100.93502646
_symmetry_Int_Tables_number   1
_chemical_formula_structural   AgTeO3
_chemical_formula_sum   'Ag8 Te8 O24'
_cell_volume   574.82613825
_cell_formula_units_Z   8
loop_
 _symmetry_equiv_pos_site_id
 _symmetry_equiv_pos_as_xyz
  1  'x, y, z'
loop_
 _atom_site_type_symbol
 _atom_site_label
 _atom_site_symmetry_multiplicity
 _atom_site_fract_x
 _atom_site_fract_y
 _atom_site_fract_z
 _atom_site_occupancy
  Ag  Ag0  1  0.84843372  0.27656473  0.32659774  1
  Ag  Ag1  1  0.42293936  0.03044830  0.35489087  1
  Ag  Ag2  1  0.34843372  0.77656473  0.17340226  1
  Ag  Ag3  1  0.07706064  0.46955170  0.85489087  1
  Ag  Ag4  1  0.65156628  0.22343527  0.82659774  1
  Ag  Ag5  1  0.57706064  0.96955170  0.64510913  1
  Ag  Ag6  1  0.92293936  0.53044830  0.14510913  1
  Ag  Ag7  1  0.15156628  0.72343527  0.67340226  1
  Te  Te8  1  0.40035148  0.49183499  0.37668731  1
  Te  Te9  1  0.62025937  0.68620024  0.92415923  1
  Te  Te10  1  0.87974063  0.81379976  0.42415923  1
  Te  Te11  1  0.09964852  0.00816501  0.87668731  1
  Te  Te12  1  0.37974063  0.31379976  0.07584077  1
  Te  Te13  1  0.12025937  0.18620024  0.57584077  1
  Te  Te14  1  0.90035148  0.99183499  0.12331269  1
  Te  Te15  1  0.59964852  0.50816501  0.62331269  1
  O  O16  1  0.28471880  0.51624798  0.04192737  1
  O  O17  1  0.91816881  0.77581298  0.85290266  1
  O  O18  1  0.32818624  0.55501292  0.53719234  1
  O  O19  1  0.82818624  0.05501292  0.96280766  1
  O  O20  1  0.26011068  0.23687752  0.91231456  1
  O  O21  1  0.08183119  0.22418702  0.14709734  1
  O  O22  1  0.85352132  0.43867084  0.68535570  1
  O  O23  1  0.76011068  0.73687752  0.58768544  1
  O  O24  1  0.02448675  0.91160401  0.25897996  1
  O  O25  1  0.23988932  0.26312248  0.41231456  1
  O  O26  1  0.52448675  0.41160401  0.24102004  1
  O  O27  1  0.21528120  0.98375202  0.54192737  1
  O  O28  1  0.71528120  0.48375202  0.95807263  1
  O  O29  1  0.97551325  0.08839599  0.74102004  1
  O  O30  1  0.35352132  0.93867084  0.81464430  1
  O  O31  1  0.17181376  0.94498708  0.03719234  1
  O  O32  1  0.78471880  0.01624798  0.45807263  1
  O  O33  1  0.14647868  0.56132916  0.31464430  1
  O  O34  1  0.58183119  0.72418702  0.35290266  1
  O  O35  1  0.73988932  0.76312248  0.08768544  1
  O  O36  1  0.41816881  0.27581298  0.64709734  1
  O  O37  1  0.64647868  0.06132916  0.18535570  1
  O  O38  1  0.67181376  0.44498708  0.46280766  1
  O  O39  1  0.47551325  0.58839599  0.75897996  1
