# generated using pymatgen
data_NbIO2
_symmetry_space_group_name_H-M   'P 1'
_cell_length_a   3.81186668
_cell_length_b   4.00370719
_cell_length_c   21.66041291
_cell_angle_alpha   90.00000000
_cell_angle_beta   90.00000000
_cell_angle_gamma   90.00000000
_symmetry_Int_Tables_number   1
_chemical_formula_structural   NbIO2
_chemical_formula_sum   'Nb4 I4 O8'
_cell_volume   330.57251508
_cell_formula_units_Z   4
loop_
 _symmetry_equiv_pos_site_id
 _symmetry_equiv_pos_as_xyz
  1  'x, y, z'
loop_
 _atom_site_type_symbol
 _atom_site_label
 _atom_site_symmetry_multiplicity
 _atom_site_fract_x
 _atom_site_fract_y
 _atom_site_fract_z
 _atom_site_occupancy
  Nb  Nb0  1  0.25000000  0.54944854  0.93476860  1
  Nb  Nb1  1  0.75000000  0.04944854  0.56523140  1
  Nb  Nb2  1  0.75000000  0.45055146  0.06523140  1
  Nb  Nb3  1  0.25000000  0.95055146  0.43476860  1
  I  I4  1  0.25000000  0.99499776  0.67082259  1
  I  I5  1  0.75000000  0.00500224  0.32917741  1
  I  I6  1  0.25000000  0.50500224  0.17082259  1
  I  I7  1  0.75000000  0.49499776  0.82917741  1
  O  O8  1  0.25000000  0.49883137  0.42797119  1
  O  O9  1  0.75000000  0.50116863  0.57202881  1
  O  O10  1  0.25000000  0.00116863  0.92797119  1
  O  O11  1  0.75000000  0.00622163  0.46857028  1
  O  O12  1  0.25000000  0.99377837  0.53142972  1
  O  O13  1  0.25000000  0.50622163  0.03142972  1
  O  O14  1  0.75000000  0.99883137  0.07202881  1
  O  O15  1  0.75000000  0.49377837  0.96857028  1
