# generated using pymatgen
data_Sm7BP2O17
_symmetry_space_group_name_H-M   'P 1'
_cell_length_a   6.82481729
_cell_length_b   12.29134435
_cell_length_c   17.62250168
_cell_angle_alpha   90.00000000
_cell_angle_beta   90.00000000
_cell_angle_gamma   97.15701459
_symmetry_Int_Tables_number   1
_chemical_formula_structural   Sm7BP2O17
_chemical_formula_sum   'Sm28 B4 P8 O68'
_cell_volume   1466.76621490
_cell_formula_units_Z   4
loop_
 _symmetry_equiv_pos_site_id
 _symmetry_equiv_pos_as_xyz
  1  'x, y, z'
loop_
 _atom_site_type_symbol
 _atom_site_label
 _atom_site_symmetry_multiplicity
 _atom_site_fract_x
 _atom_site_fract_y
 _atom_site_fract_z
 _atom_site_occupancy
  Sm  Sm0  1  0.97566163  0.17994854  0.27569392  1
  Sm  Sm1  1  0.21054005  0.43193410  0.13493582  1
  Sm  Sm2  1  0.31268205  0.59468350  0.77455256  1
  Sm  Sm3  1  0.28945995  0.06806590  0.63493582  1
  Sm  Sm4  1  0.48696232  0.28878923  0.98115688  1
  Sm  Sm5  1  0.76042574  0.57403917  0.65346527  1
  Sm  Sm6  1  0.99123755  0.30172439  0.89439398  1
  Sm  Sm7  1  0.73957426  0.92596083  0.15346527  1
  Sm  Sm8  1  0.52433837  0.32005146  0.77569392  1
  Sm  Sm9  1  0.22444105  0.50693674  0.55438837  1
  Sm  Sm10  1  0.01303768  0.21121077  0.48115688  1
  Sm  Sm11  1  0.18731795  0.90531650  0.27455256  1
  Sm  Sm12  1  0.68731795  0.40531650  0.22544744  1
  Sm  Sm13  1  0.98696232  0.78878923  0.51884312  1
  Sm  Sm14  1  0.23957426  0.42596083  0.34653473  1
  Sm  Sm15  1  0.26042574  0.07403917  0.84653473  1
  Sm  Sm16  1  0.78945995  0.56806590  0.86506418  1
  Sm  Sm17  1  0.51303768  0.71121077  0.01884312  1
  Sm  Sm18  1  0.77555895  0.49306326  0.44561163  1
  Sm  Sm19  1  0.71054005  0.93193410  0.36506418  1
  Sm  Sm20  1  0.81268205  0.09468350  0.72544744  1
  Sm  Sm21  1  0.50876245  0.19827561  0.39439398  1
  Sm  Sm22  1  0.49123755  0.80172439  0.60560602  1
  Sm  Sm23  1  0.00876245  0.69827561  0.10560602  1
  Sm  Sm24  1  0.72444105  0.00693674  0.94561163  1
  Sm  Sm25  1  0.27555895  0.99306326  0.05438837  1
  Sm  Sm26  1  0.02433837  0.82005146  0.72430608  1
  Sm  Sm27  1  0.47566163  0.67994854  0.22430608  1
  B  B28  1  0.75162160  0.50072437  0.06773958  1
  B  B29  1  0.24837840  0.49927563  0.93226042  1
  B  B30  1  0.74837840  -0.00072437  0.56773958  1
  B  B31  1  0.25162160  1.00072437  0.43226042  1
  P  P32  1  0.44882365  0.16451170  0.19859513  1
  P  P33  1  0.03733144  0.81729298  0.93735518  1
  P  P34  1  0.96266856  0.18270702  0.06264482  1
  P  P35  1  0.05117635  0.33548830  0.69859513  1
  P  P36  1  0.53733144  0.31729298  0.56264482  1
  P  P37  1  0.55117635  0.83548830  0.80140487  1
  P  P38  1  0.94882365  0.66451170  0.30140487  1
  P  P39  1  0.46266856  0.68270702  0.43735518  1
  O  O40  1  0.91513572  0.11872126  0.85639611  1
  O  O41  1  0.99651696  0.62539224  0.74249338  1
  O  O42  1  0.69532964  0.73996109  0.13228804  1
  O  O43  1  0.49651696  0.12539224  0.75750662  1
  O  O44  1  0.38218624  0.80750580  0.74148516  1
  O  O45  1  0.41513572  0.61872126  0.64360389  1
  O  O46  1  0.45199865  0.73786141  0.36018154  1
  O  O47  1  0.60242636  0.72257459  0.82763347  1
  O  O48  1  0.22049957  0.41764266  0.98737282  1
  O  O49  1  0.48026294  0.90544032  0.86619251  1
  O  O50  1  0.04800135  0.76213859  0.86018154  1
  O  O51  1  0.27950043  0.08235734  0.48737282  1
  O  O52  1  0.26495325  0.09797349  0.23524263  1
  O  O53  1  0.73504675  0.90202651  0.76475737  1
  O  O54  1  0.09731800  0.49913316  0.87709417  1
  O  O55  1  0.19532964  0.23996109  0.36771196  1
  O  O56  1  0.58486428  0.38127874  0.35639611  1
  O  O57  1  0.89757364  0.77742541  0.32763347  1
  O  O58  1  0.53505521  0.90221528  0.04276217  1
  O  O59  1  0.88218624  0.30750580  0.75851484  1
  O  O60  1  0.61781376  0.19249420  0.25851484  1
  O  O61  1  0.91403185  0.07325627  0.57914710  1
  O  O62  1  0.80763249  0.12451381  0.39079749  1
  O  O63  1  0.67599892  0.69690256  0.46902260  1
  O  O64  1  0.95199865  0.23786141  0.13981846  1
  O  O65  1  0.69236751  0.37548619  0.89079749  1
  O  O66  1  0.10399574  0.00716387  0.73478422  1
  O  O67  1  0.72049957  0.91764266  0.51262718  1
  O  O68  1  0.89600426  0.99283613  0.26521578  1
  O  O69  1  0.41403185  0.57325627  0.92085290  1
  O  O70  1  0.40605336  0.55523553  0.43544355  1
  O  O71  1  0.40268200  1.00086684  0.37709417  1
  O  O72  1  0.01973706  0.59455968  0.36619251  1
  O  O73  1  0.82400108  0.80309744  0.96902260  1
  O  O74  1  0.00348304  0.37460776  0.25750662  1
  O  O75  1  0.90605336  0.05523553  0.06455645  1
  O  O76  1  0.58596815  0.42674373  0.07914710  1
  O  O77  1  0.96494479  0.59778472  0.54276217  1
  O  O78  1  0.30763249  0.62451381  0.10920251  1
  O  O79  1  0.11781376  0.69249420  0.24148516  1
  O  O80  1  0.30467036  0.26003891  0.86771196  1
  O  O81  1  0.59731800  -0.00086684  0.62290583  1
  O  O82  1  0.32206806  0.72886665  0.49555292  1
  O  O83  1  0.82206806  0.22886665  0.00444708  1
  O  O84  1  0.59394664  0.44476447  0.56455645  1
  O  O85  1  0.80467036  0.76003891  0.63228804  1
  O  O86  1  0.19236751  0.87548619  0.60920251  1
  O  O87  1  0.90268200  0.50086684  0.12290583  1
  O  O88  1  0.08596815  0.92674373  0.42085290  1
  O  O89  1  0.54800135  0.26213859  0.63981846  1
  O  O90  1  0.77950043  0.58235734  0.01262718  1
  O  O91  1  0.17793194  0.77113335  0.99555292  1
  O  O92  1  0.17599892  0.19690256  0.03097740  1
  O  O93  1  0.51973706  0.09455968  0.13380749  1
  O  O94  1  0.32400108  0.30309744  0.53097740  1
  O  O95  1  0.39600426  0.49283613  0.23478422  1
  O  O96  1  0.39757364  0.27742541  0.17236653  1
  O  O97  1  0.67793194  0.27113335  0.50444708  1
  O  O98  1  0.10242636  0.22257459  0.67236653  1
  O  O99  1  0.98026294  0.40544032  0.63380749  1
  O  O100  1  0.76495325  0.59797349  0.26475737  1
  O  O101  1  0.46494479  0.09778472  0.95723783  1
  O  O102  1  0.03505521  0.40221528  0.45723783  1
  O  O103  1  0.50348304  0.87460776  0.24249338  1
  O  O104  1  0.09394664  0.94476447  0.93544355  1
  O  O105  1  0.08486428  0.88127874  0.14360389  1
  O  O106  1  0.23504675  0.40202651  0.73524263  1
  O  O107  1  0.60399574  0.50716387  0.76521578  1
