# generated using pymatgen
data_H23RuS2N5ClO12
_symmetry_space_group_name_H-M   'P 1'
_cell_length_a   6.90320567
_cell_length_b   10.01215164
_cell_length_c   14.30834279
_cell_angle_alpha   82.34505962
_cell_angle_beta   79.25825371
_cell_angle_gamma   80.22074162
_symmetry_Int_Tables_number   1
_chemical_formula_structural   H23RuS2N5ClO12
_chemical_formula_sum   'H46 Ru2 S4 N10 Cl2 O24'
_cell_volume   952.20667978
_cell_formula_units_Z   2
loop_
 _symmetry_equiv_pos_site_id
 _symmetry_equiv_pos_as_xyz
  1  'x, y, z'
loop_
 _atom_site_type_symbol
 _atom_site_label
 _atom_site_symmetry_multiplicity
 _atom_site_fract_x
 _atom_site_fract_y
 _atom_site_fract_z
 _atom_site_occupancy
  H  H0  1  0.85575909  0.76643257  0.22077133  1
  H  H1  1  0.14424091  0.23356743  0.77922867  1
  H  H2  1  0.69397830  0.71081296  0.31408976  1
  H  H3  1  0.30602170  0.28918704  0.68591024  1
  H  H4  1  0.65278811  0.70946129  0.20270234  1
  H  H5  1  0.34721189  0.29053871  0.79729766  1
  H  H6  1  0.05761014  0.60284715  0.37063971  1
  H  H7  1  0.94238986  0.39715285  0.62936029  1
  H  H8  1  0.22411037  0.47087278  0.33265379  1
  H  H9  1  0.77588963  0.52912722  0.66734621  1
  H  H10  1  0.20743121  0.62319754  0.26460890  1
  H  H11  1  0.79256879  0.37680246  0.73539110  1
  H  H12  1  0.86779494  0.38526653  0.42325238  1
  H  H13  1  0.13220506  0.61473347  0.57674762  1
  H  H14  1  0.69755212  0.52386561  0.41130844  1
  H  H15  1  0.30244788  0.47613439  0.58869156  1
  H  H16  1  0.66863436  0.37582385  0.37602205  1
  H  H17  1  0.33136564  0.62417615  0.62397795  1
  H  H18  1  0.18666343  0.62449297  0.11118656  1
  H  H19  1  0.81333657  0.37550703  0.88881344  1
  H  H20  1  0.16344376  0.47785195  0.07235344  1
  H  H21  1  0.83655624  0.52214805  0.92764656  1
  H  H22  1  0.98738645  0.61416429  0.06387437  1
  H  H23  1  0.01261355  0.38583571  0.93612563  1
  H  H24  1  0.97423684  0.23056128  0.26489001  1
  H  H25  1  0.02576316  0.76943872  0.73510999  1
  H  H26  1  0.18112703  0.27711043  0.28767305  1
  H  H27  1  0.81887297  0.72288957  0.71232695  1
  H  H28  1  0.15377527  0.27341801  0.17406061  1
  H  H29  1  0.84622473  0.72658199  0.82593939  1
  H  H30  1  0.61370074  0.15352225  0.57480653  1
  H  H31  1  0.38629926  0.84647775  0.42519347  1
  H  H32  1  0.78959398  0.82448936  0.96963294  1
  H  H33  1  0.21040602  0.17551064  0.03036706  1
  H  H34  1  0.70413832  0.18360639  0.13112412  1
  H  H35  1  0.29586168  0.81639361  0.86887588  1
  H  H36  1  0.74748194  0.01464221  0.55343619  1
  H  H37  1  0.25251806  0.98535779  0.44656381  1
  H  H38  1  0.80353136  0.05168278  0.34411645  1
  H  H39  1  0.19646864  0.94831722  0.65588355  1
  H  H40  1  0.72658199  0.08626538  0.05048778  1
  H  H41  1  0.27341801  0.91373462  0.94951222  1
  H  H42  1  0.62957009  0.73908091  0.02601362  1
  H  H43  1  0.37042991  0.26091909  0.97398638  1
  H  H44  1  0.61872489  0.16587201  0.34577232  1
  H  H45  1  0.38127511  0.83412799  0.65422768  1
  Ru  Ru46  1  0.91835995  0.49469118  0.24035885  1
  Ru  Ru47  1  0.08164005  0.50530882  0.75964115  1
  S  S48  1  0.74051164  0.73650252  0.50490862  1
  S  S49  1  0.25948836  0.26349748  0.49509138  1
  S  S50  1  0.73942178  0.11891477  0.84996443  1
  S  S51  1  0.26057822  0.88108523  0.15003557  1
  N  N52  1  0.76162281  0.69425452  0.24469310  1
  N  N53  1  0.23837719  0.30574548  0.75530690  1
  N  N54  1  0.12752138  0.55515366  0.30930201  1
  N  N55  1  0.87247862  0.44484634  0.69069799  1
  N  N56  1  0.77080465  0.43781399  0.37906789  1
  N  N57  1  0.22919535  0.56218601  0.62093211  1
  N  N58  1  0.08640469  0.56003935  0.10624342  1
  N  N59  1  0.91359531  0.43996065  0.89375658  1
  N  N60  1  0.08024103  0.29545295  0.24072432  1
  N  N61  1  0.91975897  0.70454705  0.75927568  1
  Cl  Cl62  1  0.68973302  0.43237543  0.16680979  1
  Cl  Cl63  1  0.31026698  0.56762457  0.83319021  1
  O  O64  1  0.60908709  0.69423054  0.44459611  1
  O  O65  1  0.39091291  0.30576946  0.55540389  1
  O  O66  1  0.65616769  0.70299633  0.60893726  1
  O  O67  1  0.34383231  0.29700367  0.39106274  1
  O  O68  1  0.94458587  0.65537087  0.48465919  1
  O  O69  1  0.05541413  0.34462913  0.51534081  1
  O  O70  1  0.74819087  0.88372613  0.48231862  1
  O  O71  1  0.25180913  0.11627387  0.51768138  1
  O  O72  1  0.62594695  0.05705275  0.79143777  1
  O  O73  1  0.37405305  0.94294725  0.20856223  1
  O  O74  1  0.62705503  0.25388805  0.87948857  1
  O  O75  1  0.37294497  0.74611195  0.12051143  1
  O  O76  1  0.76257980  0.02125525  0.93639441  1
  O  O77  1  0.23742020  0.97874475  0.06360559  1
  O  O78  1  0.93305460  0.14091708  0.79123183  1
  O  O79  1  0.06694540  0.85908292  0.20876817  1
  O  O80  1  0.76587997  0.72921183  0.98866329  1
  O  O81  1  0.23412003  0.27078817  0.01133671  1
  O  O82  1  0.73869844  0.09626755  0.58748104  1
  O  O83  1  0.26130156  0.90373245  0.41251896  1
  O  O84  1  0.76418121  0.14960084  0.32935859  1
  O  O85  1  0.23581879  0.85039916  0.67064141  1
  O  O86  1  0.73460786  0.08870485  0.11819427  1
  O  O87  1  0.26539214  0.91129515  0.88180573  1
