# generated using pymatgen
data_Ca4Mn3O10
_symmetry_space_group_name_H-M   'P 1'
_cell_length_a   5.39131537
_cell_length_b   5.34000130
_cell_length_c   27.05339373
_cell_angle_alpha   90.00000000
_cell_angle_beta   90.00000000
_cell_angle_gamma   90.00000000
_symmetry_Int_Tables_number   1
_chemical_formula_structural   Ca4Mn3O10
_chemical_formula_sum   'Ca16 Mn12 O40'
_cell_volume   778.85722507
_cell_formula_units_Z   4
loop_
 _symmetry_equiv_pos_site_id
 _symmetry_equiv_pos_as_xyz
  1  'x, y, z'
loop_
 _atom_site_type_symbol
 _atom_site_label
 _atom_site_symmetry_multiplicity
 _atom_site_fract_x
 _atom_site_fract_y
 _atom_site_fract_z
 _atom_site_occupancy
  Ca  Ca0  1  0.45920450  0.99357289  0.70469180  1
  Ca  Ca1  1  0.54079550  0.50642711  0.20469180  1
  Ca  Ca2  1  0.95920450  0.00642711  0.79530820  1
  Ca  Ca3  1  0.95738986  0.49334219  0.43054118  1
  Ca  Ca4  1  0.04261014  0.50665781  0.56945882  1
  Ca  Ca5  1  0.95920450  0.50642711  0.70469180  1
  Ca  Ca6  1  0.04079550  0.49357289  0.29530820  1
  Ca  Ca7  1  0.45920450  0.49357289  0.79530820  1
  Ca  Ca8  1  0.54079550  0.00642711  0.29530820  1
  Ca  Ca9  1  0.45738986  0.50665781  0.06945882  1
  Ca  Ca10  1  0.95738986  0.99334219  0.06945882  1
  Ca  Ca11  1  0.54261014  0.99334219  0.56945882  1
  Ca  Ca12  1  0.45738986  0.00665781  0.43054118  1
  Ca  Ca13  1  0.04261014  0.00665781  0.93054118  1
  Ca  Ca14  1  0.54261014  0.49334219  0.93054118  1
  Ca  Ca15  1  0.04079550  0.99357289  0.20469180  1
  Mn  Mn16  1  0.00193534  0.49984088  0.14080591  1
  Mn  Mn17  1  0.49806466  0.99984088  0.85919409  1
  Mn  Mn18  1  0.50193534  0.00015912  0.14080591  1
  Mn  Mn19  1  0.00193534  0.99984088  0.35919409  1
  Mn  Mn20  1  0.99806466  0.00015912  0.64080591  1
  Mn  Mn21  1  0.50000000  0.00000000  0.00000000  1
  Mn  Mn22  1  0.50193534  0.50015912  0.35919409  1
  Mn  Mn23  1  0.99806466  0.50015912  0.85919409  1
  Mn  Mn24  1  0.00000000  0.50000000  0.00000000  1
  Mn  Mn25  1  0.49806466  0.49984088  0.64080591  1
  Mn  Mn26  1  0.50000000  0.50000000  0.50000000  1
  Mn  Mn27  1  0.00000000  0.00000000  0.50000000  1
  O  O28  1  0.50822690  0.55325329  0.71118924  1
  O  O29  1  0.29040105  0.79297199  0.63023184  1
  O  O30  1  0.29185856  0.29125815  0.15074279  1
  O  O31  1  0.48062975  0.42444168  0.56999922  1
  O  O32  1  0.79040105  0.70702801  0.63023184  1
  O  O33  1  0.70959895  0.70702801  0.13023184  1
  O  O34  1  0.51937025  0.57555832  0.43000078  1
  O  O35  1  0.49177310  0.44674671  0.28881076  1
  O  O36  1  0.79246818  0.20590352  0.98875251  1
  O  O37  1  0.20959895  0.79297199  0.13023184  1
  O  O38  1  0.20814144  0.79125815  0.84925721  1
  O  O39  1  0.70753182  0.70590352  0.01124749  1
  O  O40  1  0.01937025  0.92444168  0.43000078  1
  O  O41  1  0.51937025  0.07555832  0.06999922  1
  O  O42  1  0.20753182  0.29409648  0.48875251  1
  O  O43  1  0.29185856  0.79125815  0.34925721  1
  O  O44  1  0.99177310  0.05325329  0.28881076  1
  O  O45  1  0.50822690  0.05325329  0.78881076  1
  O  O46  1  0.70814144  0.70874185  0.84925721  1
  O  O47  1  0.79185856  0.70874185  0.34925721  1
  O  O48  1  0.79246818  0.70590352  0.51124749  1
  O  O49  1  0.79185856  0.20874185  0.15074279  1
  O  O50  1  0.20959895  0.29297199  0.36976816  1
  O  O51  1  0.48062975  0.92444168  0.93000078  1
  O  O52  1  0.29246818  0.79409648  0.51124749  1
  O  O53  1  0.70753182  0.20590352  0.48875251  1
  O  O54  1  0.20814144  0.29125815  0.65074279  1
  O  O55  1  0.70814144  0.20874185  0.65074279  1
  O  O56  1  0.70959895  0.20702801  0.36976816  1
  O  O57  1  0.29246818  0.29409648  0.98875251  1
  O  O58  1  0.29040105  0.29297199  0.86976816  1
  O  O59  1  0.01937025  0.42444168  0.06999922  1
  O  O60  1  0.79040105  0.20702801  0.86976816  1
  O  O61  1  0.00822690  0.44674671  0.78881076  1
  O  O62  1  0.98062975  0.57555832  0.93000078  1
  O  O63  1  0.49177310  0.94674671  0.21118924  1
  O  O64  1  0.99177310  0.55325329  0.21118924  1
  O  O65  1  0.00822690  0.94674671  0.71118924  1
  O  O66  1  0.98062975  0.07555832  0.56999922  1
  O  O67  1  0.20753182  0.79409648  0.01124749  1
