# generated using pymatgen
data_TiSCl6O
_symmetry_space_group_name_H-M   'P 1'
_cell_length_a   7.91557837
_cell_length_b   10.63901477
_cell_length_c   12.97123734
_cell_angle_alpha   90.00000000
_cell_angle_beta   104.42630142
_cell_angle_gamma   90.00000000
_symmetry_Int_Tables_number   1
_chemical_formula_structural   TiSCl6O
_chemical_formula_sum   'Ti4 S4 Cl24 O4'
_cell_volume   1057.91591222
_cell_formula_units_Z   4
loop_
 _symmetry_equiv_pos_site_id
 _symmetry_equiv_pos_as_xyz
  1  'x, y, z'
loop_
 _atom_site_type_symbol
 _atom_site_label
 _atom_site_symmetry_multiplicity
 _atom_site_fract_x
 _atom_site_fract_y
 _atom_site_fract_z
 _atom_site_occupancy
  Ti  Ti0  1  0.35106439  0.35727188  0.44959967  1
  Ti  Ti1  1  0.64893561  0.64272812  0.55040033  1
  Ti  Ti2  1  0.35106439  0.14272812  0.94959967  1
  Ti  Ti3  1  0.64893561  0.85727188  0.05040033  1
  S  S4  1  0.89767877  0.07772895  0.25111721  1
  S  S5  1  0.10232123  0.57772895  0.24888279  1
  S  S6  1  0.89767877  0.42227105  0.75111721  1
  S  S7  1  0.10232123  0.92227105  0.74888279  1
  Cl  Cl8  1  0.68315984  0.73792196  0.70710968  1
  Cl  Cl9  1  0.68315984  0.76207804  0.20710968  1
  Cl  Cl10  1  0.31684016  0.23792196  0.79289032  1
  Cl  Cl11  1  0.91098690  0.44998067  0.17532431  1
  Cl  Cl12  1  0.51659824  0.28530122  0.05093531  1
  Cl  Cl13  1  0.39975724  0.52343242  0.58744259  1
  Cl  Cl14  1  0.91098690  0.05001933  0.67532431  1
  Cl  Cl15  1  0.31684016  0.26207804  0.29289032  1
  Cl  Cl16  1  0.48340176  0.71469878  0.94906469  1
  Cl  Cl17  1  0.48340176  0.78530122  0.44906469  1
  Cl  Cl18  1  0.09750453  0.18834065  0.98610703  1
  Cl  Cl19  1  0.26382293  0.93331663  0.64606489  1
  Cl  Cl20  1  0.51659824  0.21469878  0.55093531  1
  Cl  Cl21  1  0.60024276  0.47656758  0.41255741  1
  Cl  Cl22  1  0.08901310  0.94998067  0.32467569  1
  Cl  Cl23  1  0.73617707  0.43331663  0.85393511  1
  Cl  Cl24  1  0.39975724  0.97656758  0.08744259  1
  Cl  Cl25  1  0.09750453  0.31165935  0.48610703  1
  Cl  Cl26  1  0.08901310  0.55001933  0.82467569  1
  Cl  Cl27  1  0.60024276  0.02343242  0.91255741  1
  Cl  Cl28  1  0.90249547  0.81165935  0.01389297  1
  Cl  Cl29  1  0.73617707  0.06668337  0.35393511  1
  Cl  Cl30  1  0.26382293  0.56668337  0.14606489  1
  Cl  Cl31  1  0.90249547  0.68834065  0.51389297  1
  O  O32  1  0.80424709  0.47615511  0.64870279  1
  O  O33  1  0.19575291  0.52384489  0.35129721  1
  O  O34  1  0.80424709  0.02384489  0.14870279  1
  O  O35  1  0.19575291  0.97615511  0.85129721  1
