# generated using pymatgen
data_VH10N2(OF2)2
_symmetry_space_group_name_H-M   'P 1'
_cell_length_a   7.07955058
_cell_length_b   9.80783936
_cell_length_c   10.31354049
_cell_angle_alpha   90.00000000
_cell_angle_beta   101.63806836
_cell_angle_gamma   90.00000000
_symmetry_Int_Tables_number   1
_chemical_formula_structural   VH10N2(OF2)2
_chemical_formula_sum   'V4 H40 N8 O8 F16'
_cell_volume   701.39922655
_cell_formula_units_Z   4
loop_
 _symmetry_equiv_pos_site_id
 _symmetry_equiv_pos_as_xyz
  1  'x, y, z'
loop_
 _atom_site_type_symbol
 _atom_site_label
 _atom_site_symmetry_multiplicity
 _atom_site_fract_x
 _atom_site_fract_y
 _atom_site_fract_z
 _atom_site_occupancy
  V  V0  1  0.77009209  0.95396568  0.75019642  1
  V  V1  1  0.77009209  0.54603432  0.25019642  1
  V  V2  1  0.22990791  0.45396568  0.74980358  1
  V  V3  1  0.22990791  0.04603432  0.24980358  1
  H  H4  1  0.10545406  0.43549969  0.15718901  1
  H  H5  1  0.62348540  0.14179210  0.94764676  1
  H  H6  1  0.10545406  0.06450031  0.65718901  1
  H  H7  1  0.62348540  0.35820790  0.44764676  1
  H  H8  1  0.77945957  0.53332885  0.96723867  1
  H  H9  1  0.33797559  0.77450596  0.44373641  1
  H  H10  1  0.65063229  0.58100972  0.81504274  1
  H  H11  1  0.77945957  0.96667115  0.46723867  1
  H  H12  1  0.22054043  0.46667115  0.03276133  1
  H  H13  1  0.89454594  0.56450031  0.84281099  1
  H  H14  1  0.37651460  0.64179210  0.55235324  1
  H  H15  1  0.04739182  0.12776399  0.93619212  1
  H  H16  1  0.89454594  0.93549969  0.34281099  1
  H  H17  1  0.50114249  0.64967754  0.43028778  1
  H  H18  1  0.34936771  0.08100972  0.68495726  1
  H  H19  1  0.20652787  0.30408252  0.08951766  1
  H  H20  1  0.66202441  0.27450596  0.05626359  1
  H  H21  1  0.79347213  0.80408252  0.41048234  1
  H  H22  1  0.74180261  0.12121929  0.10859732  1
  H  H23  1  0.65063229  0.91899028  0.31504274  1
  H  H24  1  0.95260818  0.87223601  0.06380788  1
  H  H25  1  0.22054043  0.03332885  0.53276133  1
  H  H26  1  0.94666282  0.22480662  0.81825099  1
  H  H27  1  0.33797559  0.72549404  0.94373641  1
  H  H28  1  0.49885751  0.14967754  0.06971222  1
  H  H29  1  0.25819739  0.62121929  0.39140268  1
  H  H30  1  0.49885751  0.35032246  0.56971222  1
  H  H31  1  0.66202441  0.22549404  0.55626359  1
  H  H32  1  0.34936771  0.41899028  0.18495726  1
  H  H33  1  0.95260818  0.62776399  0.56380788  1
  H  H34  1  0.74180261  0.37878071  0.60859732  1
  H  H35  1  0.20652787  0.19591748  0.58951766  1
  H  H36  1  0.79347213  0.69591748  0.91048234  1
  H  H37  1  0.25819739  0.87878071  0.89140268  1
  H  H38  1  0.05333718  0.77519338  0.18174901  1
  H  H39  1  0.04739182  0.37223601  0.43619212  1
  H  H40  1  0.05333718  0.72480662  0.68174901  1
  H  H41  1  0.94666282  0.27519338  0.31825099  1
  H  H42  1  0.37651460  0.85820790  0.05235324  1
  H  H43  1  0.50114249  0.85032246  0.93028778  1
  N  N44  1  0.78023069  0.90613418  0.38417728  1
  N  N45  1  0.36949497  0.82906653  0.95441524  1
  N  N46  1  0.36949497  0.67093347  0.45441524  1
  N  N47  1  0.63050503  0.32906653  0.54558476  1
  N  N48  1  0.21976931  0.40613418  0.11582272  1
  N  N49  1  0.21976931  0.09386582  0.61582272  1
  N  N50  1  0.78023069  0.59386582  0.88417728  1
  N  N51  1  0.63050503  0.17093347  0.04558476  1
  O  O52  1  0.06545309  0.63648013  0.63783990  1
  O  O53  1  0.34740157  0.33063634  0.83900799  1
  O  O54  1  0.93454691  0.36351987  0.36216010  1
  O  O55  1  0.34740157  0.16936366  0.33900799  1
  O  O56  1  0.93454691  0.13648013  0.86216010  1
  O  O57  1  0.65259843  0.83063634  0.66099201  1
  O  O58  1  0.65259843  0.66936366  0.16099201  1
  O  O59  1  0.06545309  0.86351987  0.13783990  1
  F  F60  1  0.55569579  0.06436233  0.78632284  1
  F  F61  1  0.44430421  0.93563767  0.21367716  1
  F  F62  1  0.96308524  0.11277871  0.24245843  1
  F  F63  1  0.79596205  0.07418528  0.60018057  1
  F  F64  1  0.22372742  0.12251113  0.07002326  1
  F  F65  1  0.77627258  0.87748887  0.92997674  1
  F  F66  1  0.79596205  0.42581472  0.10018057  1
  F  F67  1  0.20403795  0.92581472  0.39981943  1
  F  F68  1  0.22372742  0.37748887  0.57002326  1
  F  F69  1  0.03691476  0.61277871  0.25754157  1
  F  F70  1  0.03691476  0.88722129  0.75754157  1
  F  F71  1  0.44430421  0.56436233  0.71367716  1
  F  F72  1  0.77627258  0.62251113  0.42997674  1
  F  F73  1  0.96308524  0.38722129  0.74245843  1
  F  F74  1  0.20403795  0.57418528  0.89981943  1
  F  F75  1  0.55569579  0.43563767  0.28632284  1
