# generated using pymatgen
data_Na2Ca(AsO3)4
_symmetry_space_group_name_H-M   'P 1'
_cell_length_a   5.23961140
_cell_length_b   10.13124762
_cell_length_c   10.13124762
_cell_angle_alpha   90.00000000
_cell_angle_beta   90.00000000
_cell_angle_gamma   90.00000000
_symmetry_Int_Tables_number   1
_chemical_formula_structural   Na2Ca(AsO3)4
_chemical_formula_sum   'Na4 Ca2 As8 O24'
_cell_volume   537.80512774
_cell_formula_units_Z   2
loop_
 _symmetry_equiv_pos_site_id
 _symmetry_equiv_pos_as_xyz
  1  'x, y, z'
loop_
 _atom_site_type_symbol
 _atom_site_label
 _atom_site_symmetry_multiplicity
 _atom_site_fract_x
 _atom_site_fract_y
 _atom_site_fract_z
 _atom_site_occupancy
  Na  Na0  1  0.00000000  0.50000000  0.00000000  1
  Na  Na1  1  0.00000000  0.50000000  0.50000000  1
  Na  Na2  1  0.00000000  0.00000000  0.50000000  1
  Na  Na3  1  0.00000000  0.00000000  0.00000000  1
  Ca  Ca4  1  0.00000000  0.25000000  0.25000000  1
  Ca  Ca5  1  0.00000000  0.75000000  0.75000000  1
  As  As6  1  0.50000000  0.97708022  0.25000000  1
  As  As7  1  0.50000000  0.75000000  0.02291978  1
  As  As8  1  0.50000000  0.02291978  0.75000000  1
  As  As9  1  0.50000000  0.25000000  0.97708022  1
  As  As10  1  0.50000000  0.47708022  0.75000000  1
  As  As11  1  0.50000000  0.52291978  0.25000000  1
  As  As12  1  0.50000000  0.25000000  0.52291978  1
  As  As13  1  0.50000000  0.75000000  0.47708022  1
  O  O14  1  0.34813823  0.86586300  0.13413700  1
  O  O15  1  0.74393052  0.17841657  0.44443806  1
  O  O16  1  0.65186177  0.13413700  0.86586300  1
  O  O17  1  0.74393052  0.82158343  0.94443806  1
  O  O18  1  0.74393052  0.67841657  0.55556194  1
  O  O19  1  0.74393052  0.05556194  0.17841657  1
  O  O20  1  0.34813823  0.36586300  0.86586300  1
  O  O21  1  0.25606948  0.82158343  0.55556194  1
  O  O22  1  0.74393052  0.55556194  0.82158343  1
  O  O23  1  0.25606948  0.05556194  0.32158343  1
  O  O24  1  0.25606948  0.94443806  0.82158343  1
  O  O25  1  0.65186177  0.63413700  0.13413700  1
  O  O26  1  0.25606948  0.44443806  0.17841657  1
  O  O27  1  0.65186177  0.36586300  0.63413700  1
  O  O28  1  0.74393052  0.44443806  0.32158343  1
  O  O29  1  0.25606948  0.55556194  0.67841657  1
  O  O30  1  0.74393052  0.94443806  0.67841657  1
  O  O31  1  0.74393052  0.32158343  0.05556194  1
  O  O32  1  0.65186177  0.86586300  0.36586300  1
  O  O33  1  0.25606948  0.17841657  0.05556194  1
  O  O34  1  0.25606948  0.32158343  0.44443806  1
  O  O35  1  0.34813823  0.63413700  0.36586300  1
  O  O36  1  0.25606948  0.67841657  0.94443806  1
  O  O37  1  0.34813823  0.13413700  0.63413700  1
