# generated using pymatgen
data_CaSiO3
_symmetry_space_group_name_H-M   'P 1'
_cell_length_a   6.91081440
_cell_length_b   6.92299528
_cell_length_c   19.77629736
_cell_angle_alpha   89.67127003
_cell_angle_beta   89.34136244
_cell_angle_gamma   60.05818617
_symmetry_Int_Tables_number   1
_chemical_formula_structural   CaSiO3
_chemical_formula_sum   'Ca12 Si12 O36'
_cell_volume   819.83135288
_cell_formula_units_Z   12
loop_
 _symmetry_equiv_pos_site_id
 _symmetry_equiv_pos_as_xyz
  1  'x, y, z'
loop_
 _atom_site_type_symbol
 _atom_site_label
 _atom_site_symmetry_multiplicity
 _atom_site_fract_x
 _atom_site_fract_y
 _atom_site_fract_z
 _atom_site_occupancy
  Ca  Ca0  1  -0.00000000  0.00000000  0.50000000  1
  Ca  Ca1  1  -0.00000000  0.00000000  0.00000000  1
  Ca  Ca2  1  0.65626227  0.68747546  0.25000000  1
  Ca  Ca3  1  0.34373773  0.31252454  0.75000000  1
  Ca  Ca4  1  0.67126625  0.65746751  0.75000000  1
  Ca  Ca5  1  0.32873375  0.34253249  0.25000000  1
  Ca  Ca6  1  0.99398466  0.01203068  0.75000000  1
  Ca  Ca7  1  0.00601534  0.98796932  0.25000000  1
  Ca  Ca8  1  0.67730332  0.67225328  0.49958031  1
  Ca  Ca9  1  0.65044340  0.67225328  0.00041969  1
  Ca  Ca10  1  0.32269668  0.32774672  0.50041969  1
  Ca  Ca11  1  0.34955660  0.32774672  0.99958031  1
  Si  Si12  1  0.25406328  0.07782624  0.12495204  1
  Si  Si13  1  0.66811048  0.07782624  0.37504796  1
  Si  Si14  1  0.74593672  0.92217376  0.87504796  1
  Si  Si15  1  0.33188952  0.92217376  0.62495204  1
  Si  Si16  1  0.92266681  0.34068968  0.37206597  1
  Si  Si17  1  0.73664351  0.34068968  0.12793403  1
  Si  Si18  1  0.07733319  0.65931032  0.62793403  1
  Si  Si19  1  0.26335649  0.65931032  0.87206597  1
  Si  Si20  1  0.00086529  0.59438938  0.12212443  1
  Si  Si21  1  0.40474534  0.59438938  0.37787557  1
  Si  Si22  1  0.99913471  0.40561062  0.87787557  1
  Si  Si23  1  0.59525466  0.40561062  0.62212443  1
  O  O24  1  0.00257442  0.69088487  0.04791105  1
  O  O25  1  0.30654071  0.69088487  0.45208895  1
  O  O26  1  0.99742558  0.30911513  0.95208895  1
  O  O27  1  0.69345929  0.30911513  0.54791105  1
  O  O28  1  0.66707490  0.97570123  0.30256167  1
  O  O29  1  0.35722387  0.97570123  0.19743833  1
  O  O30  1  0.33292510  0.02429877  0.69743833  1
  O  O31  1  0.64277613  0.02429877  0.80256167  1
  O  O32  1  0.01925623  0.34451589  0.29785015  1
  O  O33  1  0.63622789  0.34451589  0.20214985  1
  O  O34  1  0.98074377  0.65548411  0.70214985  1
  O  O35  1  0.36377211  0.65548411  0.79785015  1
  O  O36  1  0.77448732  0.56304102  0.12513993  1
  O  O37  1  0.66247165  0.56304102  0.37486007  1
  O  O38  1  0.22551268  0.43695898  0.87486007  1
  O  O39  1  0.33752835  0.43695898  0.62513993  1
  O  O40  1  0.03022025  0.34050492  0.44351178  1
  O  O41  1  0.62927482  0.34050492  0.05648822  1
  O  O42  1  0.96977975  0.65949508  0.55648822  1
  O  O43  1  0.37072518  0.65949508  0.94351178  1
  O  O44  1  0.99412404  0.11498382  0.12611088  1
  O  O45  1  0.89089213  0.11498382  0.37388912  1
  O  O46  1  0.00587596  0.88501618  0.87388912  1
  O  O47  1  0.10910787  0.88501618  0.62611088  1
  O  O48  1  0.00340034  0.70166578  0.19355971  1
  O  O49  1  0.29493388  0.70166578  0.30644029  1
  O  O50  1  0.99659966  0.29833422  0.80644029  1
  O  O51  1  0.70506612  0.29833422  0.69355971  1
  O  O52  1  0.67293978  0.97066515  0.44759310  1
  O  O53  1  0.35639507  0.97066515  0.05240690  1
  O  O54  1  0.32706022  0.02933485  0.55240690  1
  O  O55  1  0.64360493  0.02933485  0.94759310  1
  O  O56  1  0.22301662  0.33465521  0.12376075  1
  O  O57  1  0.44232817  0.33465521  0.37623925  1
  O  O58  1  0.77698338  0.66534479  0.87623925  1
  O  O59  1  0.55767183  0.66534479  0.62376075  1
