# generated using pymatgen
data_S
_symmetry_space_group_name_H-M   'P 1'
_cell_length_a   6.05936923
_cell_length_b   10.34384162
_cell_length_c   15.54443518
_cell_angle_alpha   95.13797303
_cell_angle_beta   97.95035416
_cell_angle_gamma   100.77510776
_symmetry_Int_Tables_number   1
_chemical_formula_structural   S
_chemical_formula_sum   S28
_cell_volume   941.21062897
_cell_formula_units_Z   28
loop_
 _symmetry_equiv_pos_site_id
 _symmetry_equiv_pos_as_xyz
  1  'x, y, z'
loop_
 _atom_site_type_symbol
 _atom_site_label
 _atom_site_symmetry_multiplicity
 _atom_site_fract_x
 _atom_site_fract_y
 _atom_site_fract_z
 _atom_site_occupancy
  S  S0  1  0.08795907  0.43642128  0.72352760  1
  S  S1  1  0.58303339  0.04948502  0.67541777  1
  S  S2  1  0.30563808  0.62733484  0.91685065  1
  S  S3  1  0.71490687  0.32320332  0.46884396  1
  S  S4  1  1.01642449  0.70073148  0.93123860  1
  S  S5  1  0.20235531  0.43595777  0.85490727  1
  S  S6  1  0.91204093  0.56357872  0.27647240  1
  S  S7  1  -0.01642449  0.29926852  0.06876140  1
  S  S8  1  0.12407240  0.80684195  0.59569327  1
  S  S9  1  0.88234145  0.98804312  0.11195310  1
  S  S10  1  0.87592760  0.19315805  0.40430673  1
  S  S11  1  0.47705552  0.83595251  0.21810864  1
  S  S12  1  0.69436192  0.37266516  0.08314935  1
  S  S13  1  0.97445549  0.82067768  0.83324488  1
  S  S14  1  0.65937032  0.57379385  0.35203629  1
  S  S15  1  0.52294448  0.16404749  0.78189136  1
  S  S16  1  0.02554451  0.17932232  0.16675512  1
  S  S17  1  0.28509313  0.67679668  0.53115604  1
  S  S18  1  0.53648327  0.94731121  0.11693790  1
  S  S19  1  0.49760142  0.61343617  0.62711855  1
  S  S20  1  0.71027202  1.00442302  0.41625295  1
  S  S21  1  0.11765855  0.01195688  0.88804690  1
  S  S22  1  0.28972798  -0.00442302  0.58374705  1
  S  S23  1  0.34062968  0.42620615  0.64796371  1
  S  S24  1  0.41696661  0.95051498  0.32458223  1
  S  S25  1  0.79764469  0.56404223  0.14509273  1
  S  S26  1  0.46351673  0.05268879  0.88306210  1
  S  S27  1  0.50239858  0.38656383  0.37288145  1
