# generated using pymatgen
data_KVPO5
_symmetry_space_group_name_H-M   'P 1'
_cell_length_a   7.47236271
_cell_length_b   7.75354035
_cell_length_c   8.54289359
_cell_angle_alpha   90.00000000
_cell_angle_beta   90.00000000
_cell_angle_gamma   90.00000000
_symmetry_Int_Tables_number   1
_chemical_formula_structural   KVPO5
_chemical_formula_sum   'K4 V4 P4 O20'
_cell_volume   494.95189647
_cell_formula_units_Z   4
loop_
 _symmetry_equiv_pos_site_id
 _symmetry_equiv_pos_as_xyz
  1  'x, y, z'
loop_
 _atom_site_type_symbol
 _atom_site_label
 _atom_site_symmetry_multiplicity
 _atom_site_fract_x
 _atom_site_fract_y
 _atom_site_fract_z
 _atom_site_occupancy
  K  K0  1  0.63288843  0.78883930  0.00910719  1
  K  K1  1  0.86711157  0.28883930  0.99089281  1
  K  K2  1  0.36711157  0.71116070  0.50910719  1
  K  K3  1  0.13288843  0.21116070  0.49089281  1
  V  V4  1  0.63298066  0.19794678  0.36809353  1
  V  V5  1  0.13298066  0.80205322  0.13190647  1
  V  V6  1  0.36701934  0.30205322  0.86809353  1
  V  V7  1  0.86701934  0.69794678  0.63190647  1
  P  P8  1  0.37316526  0.43674048  0.15372051  1
  P  P9  1  0.62683474  0.06325952  0.65372051  1
  P  P10  1  0.87316526  0.56325952  0.34627949  1
  P  P11  1  0.12683474  0.93674048  0.84627949  1
  O  O12  1  0.42752763  0.34914553  0.30954408  1
  O  O13  1  0.68191023  0.87663743  0.69125333  1
  O  O14  1  0.77839408  0.16338810  0.56512439  1
  O  O15  1  0.66644551  0.05650761  0.22875950  1
  O  O16  1  0.16644551  0.94349239  0.27124050  1
  O  O17  1  0.47393966  0.07476179  0.52841818  1
  O  O18  1  0.72160592  0.66338810  0.43487561  1
  O  O19  1  0.57247237  0.15085447  0.80954408  1
  O  O20  1  0.27839408  0.83661190  0.93487561  1
  O  O21  1  0.33355449  0.44349239  0.72875950  1
  O  O22  1  0.31808977  0.62336257  0.19125333  1
  O  O23  1  0.18191023  0.12336257  0.80874667  1
  O  O24  1  0.52606034  0.42523821  0.02841818  1
  O  O25  1  0.83355449  0.55650761  0.77124050  1
  O  O26  1  0.97393966  0.92523821  0.97158182  1
  O  O27  1  0.92752763  0.65085447  0.19045592  1
  O  O28  1  0.22160592  0.33661190  0.06512439  1
  O  O29  1  0.02606034  0.57476179  0.47158182  1
  O  O30  1  0.07247237  0.84914553  0.69045592  1
  O  O31  1  0.81808977  0.37663743  0.30874667  1
