# generated using pymatgen
data_Sr3Y2(BO3)4
_symmetry_space_group_name_H-M   'P 1'
_cell_length_a   7.41225613
_cell_length_b   8.74786804
_cell_length_c   16.33863912
_cell_angle_alpha   90.00000000
_cell_angle_beta   90.00000000
_cell_angle_gamma   90.00000000
_symmetry_Int_Tables_number   1
_chemical_formula_structural   Sr3Y2(BO3)4
_chemical_formula_sum   'Sr12 Y8 B16 O48'
_cell_volume   1059.42086374
_cell_formula_units_Z   4
loop_
 _symmetry_equiv_pos_site_id
 _symmetry_equiv_pos_as_xyz
  1  'x, y, z'
loop_
 _atom_site_type_symbol
 _atom_site_label
 _atom_site_symmetry_multiplicity
 _atom_site_fract_x
 _atom_site_fract_y
 _atom_site_fract_z
 _atom_site_occupancy
  Sr  Sr0  1  0.02808027  0.66415497  0.22535028  1
  Sr  Sr1  1  0.30856472  0.65135396  0.68155108  1
  Sr  Sr2  1  0.69143528  0.34864604  0.18155108  1
  Sr  Sr3  1  0.82713663  0.85187565  0.43033415  1
  Sr  Sr4  1  0.67286337  0.35187565  0.93033415  1
  Sr  Sr5  1  0.17286337  0.14812435  0.93033415  1
  Sr  Sr6  1  0.32713663  0.64812435  0.43033415  1
  Sr  Sr7  1  0.80856472  0.84864604  0.68155108  1
  Sr  Sr8  1  0.19143528  0.15135396  0.18155108  1
  Sr  Sr9  1  0.47191973  0.16415497  0.72535028  1
  Sr  Sr10  1  0.97191973  0.33584503  0.72535028  1
  Sr  Sr11  1  0.52808027  0.83584503  0.22535028  1
  Y  Y12  1  0.49497489  0.17639397  0.39030793  1
  Y  Y13  1  0.68355737  0.47135822  0.55746959  1
  Y  Y14  1  0.18355737  0.02864178  0.55746959  1
  Y  Y15  1  0.50502511  0.82360603  0.89030793  1
  Y  Y16  1  0.00502511  0.67639397  0.89030793  1
  Y  Y17  1  0.99497489  0.32360603  0.39030793  1
  Y  Y18  1  0.31644263  0.52864178  0.05746959  1
  Y  Y19  1  0.81644263  0.97135822  0.05746959  1
  B  B20  1  0.16992422  0.95564320  0.35604767  1
  B  B21  1  0.65863333  0.56595044  0.76596357  1
  B  B22  1  0.48642557  0.12557479  0.05180857  1
  B  B23  1  0.83007578  0.04435680  0.85604767  1
  B  B24  1  0.01357443  0.62557479  0.55180857  1
  B  B25  1  0.28902150  0.34659528  0.55371741  1
  B  B26  1  0.84136667  0.06595044  0.26596357  1
  B  B27  1  0.71097850  0.65340472  0.05371741  1
  B  B28  1  0.66992422  0.54435680  0.35604767  1
  B  B29  1  0.98642557  0.37442521  0.05180857  1
  B  B30  1  0.34136667  0.43404956  0.26596357  1
  B  B31  1  0.51357443  0.87442521  0.55180857  1
  B  B32  1  0.78902150  0.15340472  0.55371741  1
  B  B33  1  0.15863333  0.93404956  0.76596357  1
  B  B34  1  0.21097850  0.84659528  0.05371741  1
  B  B35  1  0.33007578  0.45564320  0.85604767  1
  O  O36  1  0.58578081  0.45245603  0.41484646  1
  O  O37  1  0.88814231  0.19346254  0.84703534  1
  O  O38  1  0.88750965  0.97203668  0.20181756  1
  O  O39  1  0.46170233  0.95521568  0.48141631  1
  O  O40  1  0.20276796  0.46796291  0.32041892  1
  O  O41  1  0.70276796  0.03203709  0.32041892  1
  O  O42  1  0.96170233  0.54478432  0.48141631  1
  O  O43  1  0.55540598  0.07390555  0.12578278  1
  O  O44  1  0.94459402  0.57390555  0.62578278  1
  O  O45  1  0.38814231  0.30653746  0.84703534  1
  O  O46  1  0.61249035  0.47203668  0.70181756  1
  O  O47  1  0.12673007  0.98536689  0.05922156  1
  O  O48  1  0.68923504  0.98820646  0.80939712  1
  O  O49  1  0.26800452  0.76712243  0.12167891  1
  O  O50  1  0.91421919  0.95245603  0.91484646  1
  O  O51  1  0.43118922  0.29497104  0.27319605  1
  O  O52  1  0.38750965  0.52796332  0.20181756  1
  O  O53  1  0.26379458  0.27240647  0.47843199  1
  O  O54  1  0.11249035  0.02796332  0.70181756  1
  O  O55  1  0.37326993  0.48536689  0.55922156  1
  O  O56  1  0.93118922  0.20502896  0.27319605  1
  O  O57  1  0.23199548  0.26712243  0.62167891  1
  O  O58  1  0.76800452  0.73287757  0.12167891  1
  O  O59  1  0.08578081  0.04754397  0.41484646  1
  O  O60  1  0.41421919  0.54754397  0.91484646  1
  O  O61  1  0.61185769  0.69346254  0.34703534  1
  O  O62  1  0.18923504  0.51179354  0.80939712  1
  O  O63  1  0.38304519  0.25816549  0.04800676  1
  O  O64  1  0.73199548  0.23287757  0.62167891  1
  O  O65  1  0.44459402  0.92609445  0.62578278  1
  O  O66  1  0.87326993  0.01463311  0.55922156  1
  O  O67  1  0.79723204  0.53203709  0.82041892  1
  O  O68  1  0.73620542  0.72759353  0.97843199  1
  O  O69  1  0.29723204  0.96796291  0.82041892  1
  O  O70  1  0.11185769  0.80653746  0.34703534  1
  O  O71  1  0.56881078  0.70502896  0.77319605  1
  O  O72  1  0.11695481  0.75816549  0.54800676  1
  O  O73  1  0.53829767  0.04478432  0.98141631  1
  O  O74  1  0.05540598  0.42609445  0.12578278  1
  O  O75  1  0.06881078  0.79497104  0.77319605  1
  O  O76  1  0.03829767  0.45521568  0.98141631  1
  O  O77  1  0.62673007  0.51463311  0.05922156  1
  O  O78  1  0.76379458  0.22759353  0.47843199  1
  O  O79  1  0.61695481  0.74183451  0.54800676  1
  O  O80  1  0.88304519  0.24183451  0.04800676  1
  O  O81  1  0.31076496  0.01179354  0.30939712  1
  O  O82  1  0.81076496  0.48820646  0.30939712  1
  O  O83  1  0.23620542  0.77240647  0.97843199  1
