# generated using pymatgen
data_CaV2CuO7
_symmetry_space_group_name_H-M   'P 1'
_cell_length_a   8.93043247
_cell_length_b   10.32397659
_cell_length_c   10.33693848
_cell_angle_alpha   91.88922466
_cell_angle_beta   90.00000000
_cell_angle_gamma   90.00000000
_symmetry_Int_Tables_number   1
_chemical_formula_structural   CaV2CuO7
_chemical_formula_sum   'Ca6 V12 Cu6 O42'
_cell_volume   952.52262790
_cell_formula_units_Z   6
loop_
 _symmetry_equiv_pos_site_id
 _symmetry_equiv_pos_as_xyz
  1  'x, y, z'
loop_
 _atom_site_type_symbol
 _atom_site_label
 _atom_site_symmetry_multiplicity
 _atom_site_fract_x
 _atom_site_fract_y
 _atom_site_fract_z
 _atom_site_occupancy
  Ca  Ca0  1  0.44450697  0.17729263  0.56848061  1
  Ca  Ca1  1  0.93557756  0.50000000  0.75000000  1
  Ca  Ca2  1  0.44450697  0.82270737  0.93151939  1
  Ca  Ca3  1  0.06442244  0.50000000  0.25000000  1
  Ca  Ca4  1  0.55549303  0.82270737  0.43151939  1
  Ca  Ca5  1  0.55549303  0.17729263  0.06848061  1
  V  V6  1  0.20287178  0.16473465  0.28812228  1
  V  V7  1  0.74703378  0.16267918  0.38236029  1
  V  V8  1  0.25296622  0.16267918  0.88236029  1
  V  V9  1  0.79712822  0.16473465  0.78812228  1
  V  V10  1  0.29651294  0.47455985  0.95879527  1
  V  V11  1  0.74703378  0.83732082  0.11763971  1
  V  V12  1  0.70348706  0.47455985  0.45879527  1
  V  V13  1  0.25296622  0.83732082  0.61763971  1
  V  V14  1  0.29651294  0.52544015  0.54120473  1
  V  V15  1  0.70348706  0.52544015  0.04120473  1
  V  V16  1  0.79712822  0.83526535  0.71187772  1
  V  V17  1  0.20287178  0.83526535  0.21187772  1
  Cu  Cu18  1  0.93498274  0.80652611  0.40996670  1
  Cu  Cu19  1  0.06501726  0.19347389  0.59003330  1
  Cu  Cu20  1  0.44272325  0.50000000  0.25000000  1
  Cu  Cu21  1  0.93498274  0.19347389  0.09003330  1
  Cu  Cu22  1  0.55727675  0.50000000  0.75000000  1
  Cu  Cu23  1  0.06501726  0.80652611  0.90996670  1
  O  O24  1  0.78328153  0.19279951  0.95606930  1
  O  O25  1  0.77315865  0.82866536  0.28544203  1
  O  O26  1  0.85238854  0.00000000  0.75000000  1
  O  O27  1  0.87643003  0.50955903  0.09949270  1
  O  O28  1  0.38059436  0.95193734  0.57628920  1
  O  O29  1  0.92708815  0.26872133  0.71705152  1
  O  O30  1  0.35634217  0.30660585  0.94009961  1
  O  O31  1  0.12356997  0.50955903  0.59949270  1
  O  O32  1  0.71535396  0.48351268  0.87605868  1
  O  O33  1  0.38059436  0.04806266  0.92371080  1
  O  O34  1  0.71535396  0.51648732  0.62394132  1
  O  O35  1  0.42000787  0.57641583  0.87793828  1
  O  O36  1  0.91015756  0.85037206  0.03316782  1
  O  O37  1  0.07291185  0.26872133  0.21705152  1
  O  O38  1  0.64365783  0.69339415  0.05990039  1
  O  O39  1  0.35634217  0.69339415  0.55990039  1
  O  O40  1  0.92708815  0.73127867  0.78294848  1
  O  O41  1  0.61940564  0.04806266  0.42371080  1
  O  O42  1  0.21671847  0.19279951  0.45606930  1
  O  O43  1  0.57999213  0.42358417  0.12206172  1
  O  O44  1  0.37533830  0.80933434  0.27009178  1
  O  O45  1  0.28464604  0.51648732  0.12394132  1
  O  O46  1  0.08984244  0.85037206  0.53316782  1
  O  O47  1  0.28464604  0.48351268  0.37605868  1
  O  O48  1  0.87643003  0.49044097  0.40050730  1
  O  O49  1  0.57999213  0.57641583  0.37793828  1
  O  O50  1  0.12356997  0.49044097  0.90050730  1
  O  O51  1  0.62466170  0.80933434  0.77009178  1
  O  O52  1  0.62466170  0.19066566  0.72990822  1
  O  O53  1  0.08984244  0.14962794  0.96683218  1
  O  O54  1  0.07291185  0.73127867  0.28294848  1
  O  O55  1  0.78328153  0.80720049  0.54393070  1
  O  O56  1  0.14761146  0.00000000  0.25000000  1
  O  O57  1  0.22684135  0.82866536  0.78544203  1
  O  O58  1  0.61940564  0.95193734  0.07628920  1
  O  O59  1  0.91015756  0.14962794  0.46683218  1
  O  O60  1  0.21671847  0.80720049  0.04393070  1
  O  O61  1  0.77315865  0.17133464  0.21455797  1
  O  O62  1  0.42000787  0.42358417  0.62206172  1
  O  O63  1  0.64365783  0.30660585  0.44009961  1
  O  O64  1  0.22684135  0.17133464  0.71455797  1
  O  O65  1  0.37533830  0.19066566  0.22990822  1
