# generated using pymatgen
data_Ba4Na2CaTi3Si4(SO13)2
_symmetry_space_group_name_H-M   'P 1'
_cell_length_a   5.49541956
_cell_length_b   7.20678603
_cell_length_c   15.00012271
_cell_angle_alpha   98.72108021
_cell_angle_beta   94.83720804
_cell_angle_gamma   89.94065117
_symmetry_Int_Tables_number   1
_chemical_formula_structural   Ba4Na2CaTi3Si4(SO13)2
_chemical_formula_sum   'Ba4 Na2 Ca1 Ti3 Si4 S2 O26'
_cell_volume   585.06795462
_cell_formula_units_Z   1
loop_
 _symmetry_equiv_pos_site_id
 _symmetry_equiv_pos_as_xyz
  1  'x, y, z'
loop_
 _atom_site_type_symbol
 _atom_site_label
 _atom_site_symmetry_multiplicity
 _atom_site_fract_x
 _atom_site_fract_y
 _atom_site_fract_z
 _atom_site_occupancy
  Ba  Ba0  1  0.41758596  0.16704765  0.62129009  1
  Ba  Ba1  1  0.93208973  0.70615708  0.70487220  1
  Ba  Ba2  1  1.00186781  0.99628096  0.01838300  1
  Ba  Ba3  1  0.48083165  0.45854523  0.93123113  1
  Na  Na4  1  0.71135693  0.57835451  0.31827392  1
  Na  Na5  1  0.20995097  0.31620938  0.31742128  1
  Ca  Ca6  1  0.21108157  0.85692649  0.31720401  1
  Ti  Ti7  1  0.39256098  0.64140679  0.51956547  1
  Ti  Ti8  1  0.71160791  0.09535780  0.31788321  1
  Ti  Ti9  1  0.02608637  0.52237375  0.11576718  1
  Si  Si10  1  0.53074284  0.80622876  0.12620643  1
  Si  Si11  1  0.89003766  0.35583696  0.50873218  1
  Si  Si12  1  0.53121426  0.24240722  0.12917620  1
  Si  Si13  1  0.88791781  0.92117970  0.50737393  1
  S  S14  1  0.94772338  0.28532836  0.79514694  1
  S  S15  1  0.46024760  0.87997781  0.84001183  1
  O  O16  1  0.90162913  0.15120620  0.54975124  1
  O  O17  1  0.93403495  0.08646412  0.75379977  1
  O  O18  1  0.46439041  0.08249512  0.87380597  1
  O  O19  1  0.14789116  0.46298836  0.55446322  1
  O  O20  1  0.04882088  0.56327318  0.23014145  1
  O  O21  1  0.76289483  0.69735974  0.07832582  1
  O  O22  1  0.27468427  0.32354465  0.08414121  1
  O  O23  1  0.14408516  0.83970026  0.55328726  1
  O  O24  1  0.65551107  0.84059711  0.55390586  1
  O  O25  1  0.87218478  0.32185532  0.39951868  1
  O  O26  1  0.97131606  0.30878827  0.89656189  1
  O  O27  1  0.72088421  0.38421800  0.76544216  1
  O  O28  1  0.76292966  0.32375398  0.08267747  1
  O  O29  1  0.24752391  0.78739755  0.87305420  1
  O  O30  1  0.45235835  0.09366892  0.38845915  1
  O  O31  1  0.87420734  0.88900571  0.39862166  1
  O  O32  1  0.69036665  0.79077055  0.87342603  1
  O  O33  1  0.43728709  0.84202845  0.73837576  1
  O  O34  1  0.36959215  0.61122788  0.40515564  1
  O  O35  1  0.55117490  0.27495377  0.23815186  1
  O  O36  1  0.27245966  0.69861921  0.07979987  1
  O  O37  1  0.96821781  0.04959798  0.24504167  1
  O  O38  1  0.54622935  0.83821480  0.23496259  1
  O  O39  1  0.16306811  0.37973820  0.76490249  1
  O  O40  1  0.65661531  0.46526049  0.55540791  1
  O  O41  1  0.51753937  0.01255371  0.08618016  1
