# generated using pymatgen
data_ZrCuH8C2NCl6
_symmetry_space_group_name_H-M   'P 1'
_cell_length_a   9.80709045
_cell_length_b   10.66930225
_cell_length_c   12.64673082
_cell_angle_alpha   109.74841838
_cell_angle_beta   90.00000000
_cell_angle_gamma   90.00000000
_symmetry_Int_Tables_number   1
_chemical_formula_structural   ZrCuH8C2NCl6
_chemical_formula_sum   'Zr4 Cu4 H32 C8 N4 Cl24'
_cell_volume   1245.45955583
_cell_formula_units_Z   4
loop_
 _symmetry_equiv_pos_site_id
 _symmetry_equiv_pos_as_xyz
  1  'x, y, z'
loop_
 _atom_site_type_symbol
 _atom_site_label
 _atom_site_symmetry_multiplicity
 _atom_site_fract_x
 _atom_site_fract_y
 _atom_site_fract_z
 _atom_site_occupancy
  Zr  Zr0  1  0.75285633  0.74946987  0.50066237  1
  Zr  Zr1  1  0.24714367  0.25053013  0.49933763  1
  Zr  Zr2  1  0.74714367  0.74946987  0.00066237  1
  Zr  Zr3  1  0.25285633  0.25053013  0.99933763  1
  Cu  Cu4  1  0.29960923  0.25567029  0.26074962  1
  Cu  Cu5  1  0.20039077  0.25567029  0.76074962  1
  Cu  Cu6  1  0.79960923  0.74432971  0.23925038  1
  Cu  Cu7  1  0.70039077  0.74432971  0.73925038  1
  H  H8  1  0.60706532  0.38397683  0.70292001  1
  H  H9  1  0.84283020  0.32632690  0.36283182  1
  H  H10  1  0.62584798  0.17443063  0.55660665  1
  H  H11  1  0.71326259  0.21214164  0.28534146  1
  H  H12  1  0.15716980  0.67367310  0.63716818  1
  H  H13  1  0.34283020  0.67367310  0.13716818  1
  H  H14  1  0.78673741  0.21214164  0.78534146  1
  H  H15  1  0.89293468  0.38397683  0.20292001  1
  H  H16  1  0.72622789  0.39800261  0.22368647  1
  H  H17  1  0.37415202  0.82556937  0.44339335  1
  H  H18  1  0.27377211  0.60199739  0.77631353  1
  H  H19  1  0.39293468  0.61602317  0.29707999  1
  H  H20  1  0.65716980  0.32632690  0.86283182  1
  H  H21  1  0.28673741  0.78785836  0.71465854  1
  H  H22  1  0.69239329  0.18020508  0.07554918  1
  H  H23  1  0.10706532  0.61602317  0.79707999  1
  H  H24  1  0.77674562  0.30116436  0.02738563  1
  H  H25  1  0.10967204  0.82259324  0.74861889  1
  H  H26  1  0.22622789  0.60199739  0.27631353  1
  H  H27  1  0.12584798  0.82556937  0.94339335  1
  H  H28  1  0.72325438  0.30116436  0.52738563  1
  H  H29  1  0.30760671  0.81979492  0.92445082  1
  H  H30  1  0.80760671  0.18020508  0.57554918  1
  H  H31  1  0.77377211  0.39800261  0.72368647  1
  H  H32  1  0.27674562  0.69883564  0.47261437  1
  H  H33  1  0.39032796  0.82259324  0.24861889  1
  H  H34  1  0.19239329  0.81979492  0.42445082  1
  H  H35  1  0.21326259  0.78785836  0.21465854  1
  H  H36  1  0.89032796  0.17740676  0.25138111  1
  H  H37  1  0.22325438  0.69883564  0.97261437  1
  H  H38  1  0.60967204  0.17740676  0.75138111  1
  H  H39  1  0.87415202  0.17443063  0.05660665  1
  C  C40  1  0.31330148  0.74422005  0.21911408  1
  C  C41  1  0.18669852  0.74422005  0.71911408  1
  C  C42  1  0.81330148  0.25577995  0.28088592  1
  C  C43  1  0.71512123  0.23945131  0.58076345  1
  C  C44  1  0.68669852  0.25577995  0.78088592  1
  C  C45  1  0.28487877  0.76054869  0.41923655  1
  C  C46  1  0.21512123  0.76054869  0.91923655  1
  C  C47  1  0.78487877  0.23945131  0.08076345  1
  N  N48  1  0.19539896  0.67082978  0.80074980  1
  N  N49  1  0.69539896  0.32917022  0.69925020  1
  N  N50  1  0.30460104  0.67082978  0.30074980  1
  N  N51  1  0.80460104  0.32917022  0.19925020  1
  Cl  Cl52  1  0.08084053  0.08271440  0.40647978  1
  Cl  Cl53  1  0.16131220  0.40167638  0.39547700  1
  Cl  Cl54  1  0.57311355  0.85177896  0.64536363  1
  Cl  Cl55  1  0.42688645  0.14822104  0.35463637  1
  Cl  Cl56  1  0.42792979  0.35482033  0.15552374  1
  Cl  Cl57  1  0.07311355  0.14822104  0.85463637  1
  Cl  Cl58  1  0.66305319  0.88483782  0.38652848  1
  Cl  Cl59  1  0.83868780  0.59832362  0.60452300  1
  Cl  Cl60  1  0.83694681  0.88483782  0.88652848  1
  Cl  Cl61  1  0.33694681  0.11516218  0.61347152  1
  Cl  Cl62  1  0.92792979  0.64517967  0.34447626  1
  Cl  Cl63  1  0.16305319  0.11516218  0.11347152  1
  Cl  Cl64  1  0.58084053  0.91728560  0.09352022  1
  Cl  Cl65  1  0.07207021  0.35482033  0.65552374  1
  Cl  Cl66  1  0.41915947  0.08271440  0.90647978  1
  Cl  Cl67  1  0.09625083  0.43621829  0.10533026  1
  Cl  Cl68  1  0.91915947  0.91728560  0.59352022  1
  Cl  Cl69  1  0.90374917  0.56378171  0.89466974  1
  Cl  Cl70  1  0.57207021  0.64517967  0.84447626  1
  Cl  Cl71  1  0.33868780  0.40167638  0.89547700  1
  Cl  Cl72  1  0.59625083  0.56378171  0.39466974  1
  Cl  Cl73  1  0.66131220  0.59832362  0.10452300  1
  Cl  Cl74  1  0.92688645  0.85177896  0.14536363  1
  Cl  Cl75  1  0.40374917  0.43621829  0.60533026  1
