# generated using pymatgen
data_La2Rh7
_symmetry_space_group_name_H-M   'P 1'
_cell_length_a   5.34206232
_cell_length_b   5.34206280
_cell_length_c   26.63754442
_cell_angle_alpha   90.00000000
_cell_angle_beta   90.00000000
_cell_angle_gamma   120.00000289
_symmetry_Int_Tables_number   1
_chemical_formula_structural   La2Rh7
_chemical_formula_sum   'La8 Rh28'
_cell_volume   658.32863375
_cell_formula_units_Z   4
loop_
 _symmetry_equiv_pos_site_id
 _symmetry_equiv_pos_as_xyz
  1  'x, y, z'
loop_
 _atom_site_type_symbol
 _atom_site_label
 _atom_site_symmetry_multiplicity
 _atom_site_fract_x
 _atom_site_fract_y
 _atom_site_fract_z
 _atom_site_occupancy
  La  La0  1  0.66666700  0.33333300  0.53004532  1
  La  La1  1  0.33333300  0.66666700  0.03004532  1
  La  La2  1  0.33333300  0.66666700  0.17456957  1
  La  La3  1  0.66666700  0.33333300  0.96995468  1
  La  La4  1  0.66666700  0.33333300  0.67456957  1
  La  La5  1  0.66666700  0.33333300  0.82543043  1
  La  La6  1  0.33333300  0.66666700  0.32543043  1
  La  La7  1  0.33333300  0.66666700  0.46995468  1
  Rh  Rh8  1  0.00000000  0.00000000  0.66729110  1
  Rh  Rh9  1  0.83330108  0.66660217  0.25000000  1
  Rh  Rh10  1  0.16701531  0.33403063  0.58552712  1
  Rh  Rh11  1  0.83298469  0.16701531  0.41447288  1
  Rh  Rh12  1  0.66596937  0.83298469  0.91447288  1
  Rh  Rh13  1  0.33333300  0.66666700  0.83323195  1
  Rh  Rh14  1  0.83298469  0.66596937  0.08552712  1
  Rh  Rh15  1  0.83298469  0.66596937  0.41447288  1
  Rh  Rh16  1  0.16701531  0.83298469  0.91447288  1
  Rh  Rh17  1  0.66666700  0.33333300  0.33323195  1
  Rh  Rh18  1  0.00000000  0.00000000  0.33270890  1
  Rh  Rh19  1  0.16701531  0.83298469  0.58552712  1
  Rh  Rh20  1  0.33403063  0.16701531  0.41447288  1
  Rh  Rh21  1  0.00000000  0.00000000  -0.00000000  1
  Rh  Rh22  1  0.00000000  0.00000000  0.16729110  1
  Rh  Rh23  1  0.33333300  0.66666700  0.66676805  1
  Rh  Rh24  1  0.66596937  0.83298469  0.58552712  1
  Rh  Rh25  1  0.66660217  0.83330108  0.75000000  1
  Rh  Rh26  1  0.83298469  0.16701531  0.08552712  1
  Rh  Rh27  1  0.83330108  0.16669892  0.25000000  1
  Rh  Rh28  1  0.33403063  0.16701531  0.08552712  1
  Rh  Rh29  1  0.66666700  0.33333300  0.16676805  1
  Rh  Rh30  1  0.16701531  0.33403063  0.91447288  1
  Rh  Rh31  1  0.00000000  0.00000000  0.50000000  1
  Rh  Rh32  1  0.16669892  0.33339783  0.75000000  1
  Rh  Rh33  1  0.00000000  0.00000000  0.83270890  1
  Rh  Rh34  1  0.16669892  0.83330108  0.75000000  1
  Rh  Rh35  1  0.33339783  0.16669892  0.25000000  1
