# generated using pymatgen
data_CeNiSb3
_symmetry_space_group_name_H-M   'P 1'
_cell_length_a   6.25854298
_cell_length_b   12.23214406
_cell_length_c   12.53379931
_cell_angle_alpha   90.00000000
_cell_angle_beta   90.00000000
_cell_angle_gamma   90.00000000
_symmetry_Int_Tables_number   1
_chemical_formula_structural   CeNiSb3
_chemical_formula_sum   'Ce8 Ni8 Sb24'
_cell_volume   959.53001139
_cell_formula_units_Z   8
loop_
 _symmetry_equiv_pos_site_id
 _symmetry_equiv_pos_as_xyz
  1  'x, y, z'
loop_
 _atom_site_type_symbol
 _atom_site_label
 _atom_site_symmetry_multiplicity
 _atom_site_fract_x
 _atom_site_fract_y
 _atom_site_fract_z
 _atom_site_occupancy
  Ce  Ce0  1  0.28181118  0.75000000  0.30403998  1
  Ce  Ce1  1  0.75000000  0.50000000  0.30033450  1
  Ce  Ce2  1  0.78181118  0.75000000  0.69596002  1
  Ce  Ce3  1  0.75000000  0.00000000  0.30033450  1
  Ce  Ce4  1  0.71818882  0.25000000  0.69596002  1
  Ce  Ce5  1  0.25000000  0.00000000  0.69966550  1
  Ce  Ce6  1  0.21818882  0.25000000  0.30403998  1
  Ce  Ce7  1  0.25000000  0.50000000  0.69966550  1
  Ni  Ni8  1  0.95475989  0.13630431  0.89994760  1
  Ni  Ni9  1  0.04524011  0.63630431  0.10005240  1
  Ni  Ni10  1  0.95475989  0.36369569  0.89994760  1
  Ni  Ni11  1  0.54524011  0.63630431  0.89994760  1
  Ni  Ni12  1  0.54524011  0.86369569  0.89994760  1
  Ni  Ni13  1  0.45475989  0.36369569  0.10005240  1
  Ni  Ni14  1  0.04524011  0.86369569  0.10005240  1
  Ni  Ni15  1  0.45475989  0.13630431  0.10005240  1
  Sb  Sb16  1  0.71756074  0.25000000  0.22720500  1
  Sb  Sb17  1  0.75000000  0.50000000  0.77172049  1
  Sb  Sb18  1  0.48375512  0.37593592  0.49680380  1
  Sb  Sb19  1  0.59740546  0.25000000  0.94196580  1
  Sb  Sb20  1  0.75000000  0.00000000  0.77172049  1
  Sb  Sb21  1  0.28243926  0.75000000  0.77279500  1
  Sb  Sb22  1  0.25000000  0.00000000  0.97045437  1
  Sb  Sb23  1  0.25000000  0.50000000  0.97045437  1
  Sb  Sb24  1  0.48375512  0.12406408  0.49680380  1
  Sb  Sb25  1  0.90259454  0.75000000  0.94196580  1
  Sb  Sb26  1  0.25000000  0.00000000  0.22827951  1
  Sb  Sb27  1  0.01624488  0.62406408  0.49680380  1
  Sb  Sb28  1  0.78243926  0.75000000  0.22720500  1
  Sb  Sb29  1  0.75000000  0.00000000  0.02954563  1
  Sb  Sb30  1  0.40259454  0.75000000  0.05803420  1
  Sb  Sb31  1  0.51624488  0.62406408  0.50319620  1
  Sb  Sb32  1  0.98375512  0.37593592  0.50319620  1
  Sb  Sb33  1  0.75000000  0.50000000  0.02954563  1
  Sb  Sb34  1  0.25000000  0.50000000  0.22827951  1
  Sb  Sb35  1  0.21756074  0.25000000  0.77279500  1
  Sb  Sb36  1  0.51624488  0.87593592  0.50319620  1
  Sb  Sb37  1  0.01624488  0.87593592  0.49680380  1
  Sb  Sb38  1  0.09740546  0.25000000  0.05803420  1
  Sb  Sb39  1  0.98375512  0.12406408  0.50319620  1
