# generated using pymatgen
data_Sm3(CoGe2)2
_symmetry_space_group_name_H-M   'P 1'
_cell_length_a   4.18875998
_cell_length_b   5.85940647
_cell_length_c   8.15062407
_cell_angle_alpha   106.50106593
_cell_angle_beta   90.00000000
_cell_angle_gamma   110.94299513
_symmetry_Int_Tables_number   1
_chemical_formula_structural   Sm3(CoGe2)2
_chemical_formula_sum   'Sm3 Co2 Ge4'
_cell_volume   177.98056747
_cell_formula_units_Z   1
loop_
 _symmetry_equiv_pos_site_id
 _symmetry_equiv_pos_as_xyz
  1  'x, y, z'
loop_
 _atom_site_type_symbol
 _atom_site_label
 _atom_site_symmetry_multiplicity
 _atom_site_fract_x
 _atom_site_fract_y
 _atom_site_fract_z
 _atom_site_occupancy
  Sm  Sm0  1  0.38096872  0.76193744  0.30773110  1
  Sm  Sm1  1  0.00000000  0.00000000  0.00000000  1
  Sm  Sm2  1  0.61903128  0.23806256  0.69226890  1
  Co  Co3  1  0.69503757  0.39007514  0.37259807  1
  Co  Co4  1  0.30496243  0.60992486  0.62740193  1
  Ge  Ge5  1  0.28870735  0.57741470  0.91737462  1
  Ge  Ge6  1  0.89539784  0.79079567  0.60141012  1
  Ge  Ge7  1  0.71129265  0.42258530  0.08262538  1
  Ge  Ge8  1  0.10460216  0.20920433  0.39858988  1
