# generated using pymatgen
data_KTiCl3
_symmetry_space_group_name_H-M   'P 1'
_cell_length_a   12.63125701
_cell_length_b   12.63125674
_cell_length_c   5.63352477
_cell_angle_alpha   90.00000000
_cell_angle_beta   90.00000000
_cell_angle_gamma   120.00000070
_symmetry_Int_Tables_number   1
_chemical_formula_structural   KTiCl3
_chemical_formula_sum   'K6 Ti6 Cl18'
_cell_volume   778.40205078
_cell_formula_units_Z   6
loop_
 _symmetry_equiv_pos_site_id
 _symmetry_equiv_pos_as_xyz
  1  'x, y, z'
loop_
 _atom_site_type_symbol
 _atom_site_label
 _atom_site_symmetry_multiplicity
 _atom_site_fract_x
 _atom_site_fract_y
 _atom_site_fract_z
 _atom_site_occupancy
  K  K0  1  0.66210255  -0.00403044  0.67681659  1
  K  K1  1  1.00403044  0.66613299  0.67681659  1
  K  K2  1  0.33789745  1.00403044  0.17681659  1
  K  K3  1  0.66613299  0.66210255  0.17681659  1
  K  K4  1  0.33386701  0.33789745  0.67681659  1
  K  K5  1  -0.00403044  0.33386701  0.17681659  1
  Ti  Ti6  1  0.00000000  0.00000000  0.51210679  1
  Ti  Ti7  1  0.66666700  0.33333300  0.85561857  1
  Ti  Ti8  1  0.66666700  0.33333300  0.40769169  1
  Ti  Ti9  1  0.00000000  0.00000000  0.01210679  1
  Ti  Ti10  1  0.33333300  0.66666700  0.35561857  1
  Ti  Ti11  1  0.33333300  0.66666700  0.90769169  1
  Cl  Cl12  1  0.51620900  0.82007415  0.13237862  1
  Cl  Cl13  1  0.48379100  0.17992585  0.63237862  1
  Cl  Cl14  1  0.83912823  0.47903841  0.13052822  1
  Cl  Cl15  1  0.30386515  0.48379100  0.13237862  1
  Cl  Cl16  1  0.63991018  0.16087177  0.13052822  1
  Cl  Cl17  1  0.18076967  0.14464745  0.26207088  1
  Cl  Cl18  1  0.16087177  0.52096159  0.63052822  1
  Cl  Cl19  1  0.85535255  0.03612222  0.26207088  1
  Cl  Cl20  1  0.14464745  0.96387778  0.76207088  1
  Cl  Cl21  1  0.96387778  0.81923033  0.26207088  1
  Cl  Cl22  1  0.81923033  0.85535255  0.76207088  1
  Cl  Cl23  1  0.82007415  0.30386515  0.63237862  1
  Cl  Cl24  1  0.03612222  0.18076967  0.76207088  1
  Cl  Cl25  1  0.17992585  0.69613485  0.13237862  1
  Cl  Cl26  1  0.69613485  0.51620900  0.63237862  1
  Cl  Cl27  1  0.36008982  0.83912823  0.63052822  1
  Cl  Cl28  1  0.47903841  0.63991018  0.63052822  1
  Cl  Cl29  1  0.52096159  0.36008982  0.13052822  1
