# generated using pymatgen
data_RbCrCl3
_symmetry_space_group_name_H-M   'P 1'
_cell_length_a   7.14408406
_cell_length_b   7.18530348
_cell_length_c   12.82195575
_cell_angle_alpha   92.39854031
_cell_angle_beta   90.00000000
_cell_angle_gamma   119.81041460
_symmetry_Int_Tables_number   1
_chemical_formula_structural   RbCrCl3
_chemical_formula_sum   'Rb4 Cr4 Cl12'
_cell_volume   570.42339146
_cell_formula_units_Z   4
loop_
 _symmetry_equiv_pos_site_id
 _symmetry_equiv_pos_as_xyz
  1  'x, y, z'
loop_
 _atom_site_type_symbol
 _atom_site_label
 _atom_site_symmetry_multiplicity
 _atom_site_fract_x
 _atom_site_fract_y
 _atom_site_fract_z
 _atom_site_occupancy
  Rb  Rb0  1  0.65840788  0.33810573  0.12002539  1
  Rb  Rb1  1  0.61821225  0.32695130  0.62290184  1
  Rb  Rb2  1  0.29126095  0.67304870  0.37709816  1
  Rb  Rb3  1  0.32030215  0.66189427  0.87997461  1
  Cr  Cr4  1  0.00814243  0.00000000  -0.00000000  1
  Cr  Cr5  1  0.97394833  0.00532368  0.25032664  1
  Cr  Cr6  1  0.96862464  0.99467632  0.74967336  1
  Cr  Cr7  1  0.94021180  0.00000000  0.50000000  1
  Cl  Cl8  1  0.15092222  0.33084639  0.15830128  1
  Cl  Cl9  1  0.84094966  0.14655150  0.88903159  1
  Cl  Cl10  1  0.82007583  0.66915361  0.84169872  1
  Cl  Cl11  1  0.31840981  0.15768439  0.89343641  1
  Cl  Cl12  1  0.09923418  0.84611475  0.61055759  1
  Cl  Cl13  1  0.11713962  0.32097518  0.66069701  1
  Cl  Cl14  1  0.25311943  0.15388525  0.38944241  1
  Cl  Cl15  1  0.79616444  0.67902482  0.33930299  1
  Cl  Cl16  1  0.62171276  0.82837472  0.60194794  1
  Cl  Cl17  1  0.69439815  0.85344850  0.11096841  1
  Cl  Cl18  1  0.79333804  0.17162528  0.39805206  1
  Cl  Cl19  1  0.16072542  0.84231561  0.10656359  1
