# generated using pymatgen
data_Ba3NaSi2B7O20
_symmetry_space_group_name_H-M   'P 1'
_cell_length_a   8.54215607
_cell_length_b   8.54215607
_cell_length_c   13.30168846
_cell_angle_alpha   92.77148603
_cell_angle_beta   105.81375739
_cell_angle_gamma   120.02358967
_symmetry_Int_Tables_number   1
_chemical_formula_structural   Ba3NaSi2B7O20
_chemical_formula_sum   'Ba6 Na2 Si4 B14 O40'
_cell_volume   788.43640020
_cell_formula_units_Z   2
loop_
 _symmetry_equiv_pos_site_id
 _symmetry_equiv_pos_as_xyz
  1  'x, y, z'
loop_
 _atom_site_type_symbol
 _atom_site_label
 _atom_site_symmetry_multiplicity
 _atom_site_fract_x
 _atom_site_fract_y
 _atom_site_fract_z
 _atom_site_occupancy
  Ba  Ba0  1  0.32549485  0.57549485  0.75000000  1
  Ba  Ba1  1  0.67450515  0.42450515  0.25000000  1
  Ba  Ba2  1  0.05180372  0.27485599  0.19864117  1
  Ba  Ba3  1  0.57621483  0.85316255  0.30135883  1
  Ba  Ba4  1  0.94819628  0.72514401  0.80135883  1
  Ba  Ba5  1  0.42378517  0.14683745  0.69864117  1
  Na  Na6  1  0.50000000  0.00000000  0.00000000  1
  Na  Na7  1  0.50000000  0.50000000  0.50000000  1
  Si  Si8  1  0.73461467  0.47174411  0.99126037  1
  Si  Si9  1  0.98048374  0.74335430  0.50873963  1
  Si  Si10  1  0.26538533  0.52825589  0.00873963  1
  Si  Si11  1  0.01951626  0.25664570  0.49126037  1
  B  B12  1  0.33479198  0.25115930  0.96730290  1
  B  B13  1  0.78385639  0.36748907  0.53269710  1
  B  B14  1  0.66520802  0.74884070  0.03269710  1
  B  B15  1  0.21614361  0.63251093  0.46730290  1
  B  B16  1  0.88338900  0.31600973  0.87915716  1
  B  B17  1  0.93685256  0.00423184  0.62084284  1
  B  B18  1  0.11661100  0.68399027  0.12084284  1
  B  B19  1  0.06314744  0.99576816  0.37915716  1
  B  B20  1  0.80426336  0.02219994  0.94310080  1
  B  B21  1  0.57909914  0.86116256  0.55689920  1
  B  B22  1  0.19573664  0.97780006  0.05689920  1
  B  B23  1  0.42090086  0.13883744  0.44310080  1
  B  B24  1  0.76660744  0.01660744  0.75000000  1
  B  B25  1  0.23339256  0.98339256  0.25000000  1
  O  O26  1  0.30325852  0.36361906  0.03639367  1
  O  O27  1  0.82722539  0.26686485  0.46360633  1
  O  O28  1  0.69674148  0.63638094  0.96360633  1
  O  O29  1  0.17277461  0.73313515  0.53639367  1
  O  O30  1  0.54256536  0.30084053  0.01097032  1
  O  O31  1  0.78987020  0.53159504  0.48902968  1
  O  O32  1  0.45743464  0.69915947  0.98902968  1
  O  O33  1  0.21012980  0.46840496  0.51097032  1
  O  O34  1  0.78795409  0.94598148  0.03175915  1
  O  O35  1  0.41422233  0.75619494  0.46824085  1
  O  O36  1  0.21204591  0.05401852  0.96824085  1
  O  O37  1  0.58577767  0.24380506  0.53175915  1
  O  O38  1  0.73841179  0.92000568  0.84156346  1
  O  O39  1  0.57844222  0.89684833  0.65843654  1
  O  O40  1  0.26158821  0.07999432  0.15843654  1
  O  O41  1  0.42155778  0.10315167  0.34156346  1
  O  O42  1  0.91312318  0.53151532  0.10293238  1
  O  O43  1  0.92858294  0.81019080  0.39706762  1
  O  O44  1  0.08687682  0.46848468  0.89706762  1
  O  O45  1  0.07141706  0.18980920  0.60293238  1
  O  O46  1  0.88033435  0.21025123  0.96488808  1
  O  O47  1  0.74536315  0.91544626  0.53511192  1
  O  O48  1  0.11966565  0.78974877  0.03511192  1
  O  O49  1  0.25463685  0.08455374  0.46488808  1
  O  O50  1  0.23128111  0.59726799  0.11393613  1
  O  O51  1  0.98333186  0.11734497  0.38606387  1
  O  O52  1  0.76871889  0.40273201  0.88606387  1
  O  O53  1  0.01666814  0.88265503  0.61393613  1
  O  O54  1  0.79027473  0.19682771  0.77359431  1
  O  O55  1  0.92323340  0.01668042  0.72640569  1
  O  O56  1  0.20972527  0.80317229  0.22640569  1
  O  O57  1  0.07676660  0.98331958  0.27359431  1
  O  O58  1  0.32537047  0.88079882  0.81490866  1
  O  O59  1  0.56589016  0.51046181  0.68509134  1
  O  O60  1  0.67462953  0.11920118  0.18509134  1
  O  O61  1  0.43410984  0.48953819  0.31490866  1
  O  O62  1  0.31710287  0.28015030  0.85863902  1
  O  O63  1  0.92151127  0.45846385  0.64136098  1
  O  O64  1  0.68289713  0.71984970  0.14136098  1
  O  O65  1  0.07848873  0.54153615  0.35863902  1
