# generated using pymatgen
data_Na2TiSi4H2O13
_symmetry_space_group_name_H-M   'P 1'
_cell_length_a   7.44642791
_cell_length_b   8.78701564
_cell_length_c   16.53026446
_cell_angle_alpha   90.00000000
_cell_angle_beta   90.00000000
_cell_angle_gamma   90.00000000
_symmetry_Int_Tables_number   1
_chemical_formula_structural   Na2TiSi4H2O13
_chemical_formula_sum   'Na8 Ti4 Si16 H8 O52'
_cell_volume   1081.60625584
_cell_formula_units_Z   4
loop_
 _symmetry_equiv_pos_site_id
 _symmetry_equiv_pos_as_xyz
  1  'x, y, z'
loop_
 _atom_site_type_symbol
 _atom_site_label
 _atom_site_symmetry_multiplicity
 _atom_site_fract_x
 _atom_site_fract_y
 _atom_site_fract_z
 _atom_site_occupancy
  Na  Na0  1  0.62042714  0.30755984  0.39746486  1
  Na  Na1  1  0.87957286  0.19244016  0.89746486  1
  Na  Na2  1  0.87957286  0.80755984  0.60253514  1
  Na  Na3  1  0.62042714  0.69244016  0.10253514  1
  Na  Na4  1  0.37957286  0.69244016  0.60253514  1
  Na  Na5  1  0.12042714  0.80755984  0.10253514  1
  Na  Na6  1  0.12042714  0.19244016  0.39746486  1
  Na  Na7  1  0.37957286  0.30755984  0.89746486  1
  Ti  Ti8  1  0.00000000  0.50000000  0.50000000  1
  Ti  Ti9  1  0.50000000  0.00000000  0.00000000  1
  Ti  Ti10  1  0.50000000  0.00000000  0.50000000  1
  Ti  Ti11  1  0.00000000  0.50000000  -0.00000000  1
  Si  Si12  1  0.12253773  0.84031065  0.41955220  1
  Si  Si13  1  0.37746227  0.65968935  0.91955220  1
  Si  Si14  1  0.37746227  0.34031065  0.58044780  1
  Si  Si15  1  0.12253773  0.15968935  0.08044780  1
  Si  Si16  1  0.87746227  0.15968935  0.58044780  1
  Si  Si17  1  0.62253773  0.34031065  0.08044780  1
  Si  Si18  1  0.62253773  0.65968935  0.41955220  1
  Si  Si19  1  0.87746227  0.84031065  0.91955220  1
  Si  Si20  1  0.25843997  0.55982961  0.34279850  1
  Si  Si21  1  0.24156003  0.94017039  0.84279850  1
  Si  Si22  1  0.24156003  0.05982961  0.65720150  1
  Si  Si23  1  0.25843997  0.44017039  0.15720150  1
  Si  Si24  1  0.74156003  0.44017039  0.65720150  1
  Si  Si25  1  0.75843997  0.05982961  0.15720150  1
  Si  Si26  1  0.75843997  0.94017039  0.34279850  1
  Si  Si27  1  0.74156003  0.55982961  0.84279850  1
  H  H28  1  0.84392838  0.31812110  0.25537343  1
  H  H29  1  0.65607162  0.18187890  0.75537343  1
  H  H30  1  0.65607162  0.81812110  0.74462657  1
  H  H31  1  0.84392838  0.68187890  0.24462657  1
  H  H32  1  0.15607162  0.68187890  0.74462657  1
  H  H33  1  0.34392838  0.81812110  0.24462657  1
  H  H34  1  0.34392838  0.18187890  0.25537343  1
  H  H35  1  0.15607162  0.31812110  0.75537343  1
  O  O36  1  0.20009990  0.74115356  0.34072308  1
  O  O37  1  0.29990010  0.75884644  0.84072308  1
  O  O38  1  0.29990010  0.24115356  0.65927692  1
  O  O39  1  0.20009990  0.25884644  0.15927692  1
  O  O40  1  0.79990010  0.25884644  0.65927692  1
  O  O41  1  0.70009990  0.24115356  0.15927692  1
  O  O42  1  0.70009990  0.75884644  0.34072308  1
  O  O43  1  0.79990010  0.74115356  0.84072308  1
  O  O44  1  0.26952612  0.96411252  0.44880548  1
  O  O45  1  0.23047388  0.53588748  0.94880548  1
  O  O46  1  0.23047388  0.46411252  0.55119452  1
  O  O47  1  0.26952612  0.03588748  0.05119452  1
  O  O48  1  0.73047388  0.03588748  0.55119452  1
  O  O49  1  0.76952612  0.46411252  0.05119452  1
  O  O50  1  0.76952612  0.53588748  0.44880548  1
  O  O51  1  0.73047388  0.96411252  0.94880548  1
  O  O52  1  0.05834143  0.72069906  0.48891484  1
  O  O53  1  0.44165857  0.77930094  0.98891484  1
  O  O54  1  0.44165857  0.22069906  0.51108516  1
  O  O55  1  0.05834143  0.27930094  0.01108516  1
  O  O56  1  0.94165857  0.27930094  0.51108516  1
  O  O57  1  0.55834143  0.22069906  0.01108516  1
  O  O58  1  0.55834143  0.77930094  0.48891484  1
  O  O59  1  0.94165857  0.72069906  0.98891484  1
  O  O60  1  0.95897279  0.94958868  0.38384704  1
  O  O61  1  0.54102721  0.55041132  0.88384704  1
  O  O62  1  0.54102721  0.44958868  0.61615296  1
  O  O63  1  0.95897279  0.05041132  0.11615296  1
  O  O64  1  0.04102721  0.05041132  0.61615296  1
  O  O65  1  0.45897279  0.44958868  0.11615296  1
  O  O66  1  0.45897279  0.55041132  0.38384704  1
  O  O67  1  0.04102721  0.94958868  0.88384704  1
  O  O68  1  0.11502635  0.45890317  0.39347776  1
  O  O69  1  0.38497365  0.04109683  0.89347776  1
  O  O70  1  0.38497365  0.95890317  0.60652224  1
  O  O71  1  0.11502635  0.54109683  0.10652224  1
  O  O72  1  0.88497365  0.54109683  0.60652224  1
  O  O73  1  0.61502635  0.95890317  0.10652224  1
  O  O74  1  0.61502635  0.04109683  0.39347776  1
  O  O75  1  0.88497365  0.45890317  0.89347776  1
  O  O76  1  0.27299547  0.50000000  0.25000000  1
  O  O77  1  0.22700453  0.00000000  0.75000000  1
  O  O78  1  0.72700453  0.50000000  0.75000000  1
  O  O79  1  0.77299547  0.00000000  0.25000000  1
  O  O80  1  0.87494555  0.28773391  0.31130340  1
  O  O81  1  0.62505445  0.21226609  0.81130340  1
  O  O82  1  0.62505445  0.78773391  0.68869660  1
  O  O83  1  0.87494555  0.71226609  0.18869660  1
  O  O84  1  0.12505445  0.71226609  0.68869660  1
  O  O85  1  0.37494555  0.78773391  0.18869660  1
  O  O86  1  0.37494555  0.21226609  0.31130340  1
  O  O87  1  0.12505445  0.28773391  0.81130340  1
