# generated using pymatgen
data_Ca5Pb3
_symmetry_space_group_name_H-M   'P 1'
_cell_length_a   16.44440232
_cell_length_b   16.44440204
_cell_length_c   6.91977838
_cell_angle_alpha   90.00000000
_cell_angle_beta   90.00000000
_cell_angle_gamma   120.00000056
_symmetry_Int_Tables_number   1
_chemical_formula_structural   Ca5Pb3
_chemical_formula_sum   'Ca30 Pb18'
_cell_volume   1620.53716091
_cell_formula_units_Z   6
loop_
 _symmetry_equiv_pos_site_id
 _symmetry_equiv_pos_as_xyz
  1  'x, y, z'
loop_
 _atom_site_type_symbol
 _atom_site_label
 _atom_site_symmetry_multiplicity
 _atom_site_fract_x
 _atom_site_fract_y
 _atom_site_fract_z
 _atom_site_occupancy
  Ca  Ca0  1  0.48844917  0.24422459  0.25685108  1
  Ca  Ca1  1  0.08935914  0.91064086  0.25586229  1
  Ca  Ca2  1  0.00230323  0.66737129  0.00932666  1
  Ca  Ca3  1  0.84594674  0.42297337  0.76560148  1
  Ca  Ca4  1  0.24422459  0.75577541  0.75685108  1
  Ca  Ca5  1  0.42297337  0.57702663  0.26560148  1
  Ca  Ca6  1  0.57702663  0.15405326  0.76560148  1
  Ca  Ca7  1  0.66737129  0.66506806  0.50932666  1
  Ca  Ca8  1  0.75577541  0.51155083  0.25685108  1
  Ca  Ca9  1  0.08935914  0.17871828  0.25586229  1
  Ca  Ca10  1  0.24422459  0.48844917  0.75685108  1
  Ca  Ca11  1  0.57702663  0.42297337  0.76560148  1
  Ca  Ca12  1  0.33493194  0.33262871  0.50932666  1
  Ca  Ca13  1  0.00230323  0.33493194  0.00932666  1
  Ca  Ca14  1  0.66506806  0.99769677  0.00932666  1
  Ca  Ca15  1  0.99769677  0.66506806  0.50932666  1
  Ca  Ca16  1  0.42297337  0.84594674  0.26560148  1
  Ca  Ca17  1  0.33262871  0.33493194  0.00932666  1
  Ca  Ca18  1  0.15405326  0.57702663  0.26560148  1
  Ca  Ca19  1  0.82128172  0.91064086  0.25586229  1
  Ca  Ca20  1  0.99769677  0.33262871  0.50932666  1
  Ca  Ca21  1  0.33262871  0.99769677  0.00932666  1
  Ca  Ca22  1  0.91064086  0.08935914  0.75586229  1
  Ca  Ca23  1  0.75577541  0.24422459  0.25685108  1
  Ca  Ca24  1  0.66737129  0.00230323  0.50932666  1
  Ca  Ca25  1  0.91064086  0.82128172  0.75586229  1
  Ca  Ca26  1  0.66506806  0.66737129  0.00932666  1
  Ca  Ca27  1  0.51155083  0.75577541  0.75685108  1
  Ca  Ca28  1  0.17871828  0.08935914  0.75586229  1
  Ca  Ca29  1  0.33493194  0.00230323  0.50932666  1
  Pb  Pb30  1  0.92316378  0.46158189  0.26198332  1
  Pb  Pb31  1  0.12888343  0.87111657  0.74599513  1
  Pb  Pb32  1  0.87111657  0.74223314  0.24599513  1
  Pb  Pb33  1  0.87111657  0.12888343  0.24599513  1
  Pb  Pb34  1  0.20430465  0.40860929  0.26905338  1
  Pb  Pb35  1  0.74223314  0.87111657  0.74599513  1
  Pb  Pb36  1  0.12888343  0.25776686  0.74599513  1
  Pb  Pb37  1  0.20430465  0.79569535  0.26905338  1
  Pb  Pb38  1  0.53841811  0.46158189  0.26198332  1
  Pb  Pb39  1  0.79569535  0.20430465  0.76905338  1
  Pb  Pb40  1  0.07683622  0.53841811  0.76198332  1
  Pb  Pb41  1  0.25776686  0.12888343  0.24599513  1
  Pb  Pb42  1  0.59139071  0.79569535  0.26905338  1
  Pb  Pb43  1  0.79569535  0.59139071  0.76905338  1
  Pb  Pb44  1  0.40860929  0.20430465  0.76905338  1
  Pb  Pb45  1  0.46158189  0.53841811  0.76198332  1
  Pb  Pb46  1  0.53841811  0.07683622  0.26198332  1
  Pb  Pb47  1  0.46158189  0.92316378  0.76198332  1
