# generated using pymatgen
data_Li5Mo2P5O18
_symmetry_space_group_name_H-M   'P 1'
_cell_length_a   9.33687746
_cell_length_b   10.91265124
_cell_length_c   6.62626703
_cell_angle_alpha   92.33660418
_cell_angle_beta   91.01212094
_cell_angle_gamma   96.14779082
_symmetry_Int_Tables_number   1
_chemical_formula_structural   Li5Mo2P5O18
_chemical_formula_sum   'Li10 Mo4 P10 O36'
_cell_volume   670.54504409
_cell_formula_units_Z   2
loop_
 _symmetry_equiv_pos_site_id
 _symmetry_equiv_pos_as_xyz
  1  'x, y, z'
loop_
 _atom_site_type_symbol
 _atom_site_label
 _atom_site_symmetry_multiplicity
 _atom_site_fract_x
 _atom_site_fract_y
 _atom_site_fract_z
 _atom_site_occupancy
  Li  Li0  1  0.37783634  0.86003990  0.34754178  1
  Li  Li1  1  0.27714662  0.59095378  0.55500075  1
  Li  Li2  1  0.22073034  0.66200680  0.12636324  1
  Li  Li3  1  0.12402966  0.35996451  0.82150482  1
  Li  Li4  1  0.87597034  0.64003549  0.17849518  1
  Li  Li5  1  0.94336462  0.13387849  0.01215782  1
  Li  Li6  1  0.72285338  0.40904622  0.44499925  1
  Li  Li7  1  0.05663538  0.86612151  0.98784218  1
  Li  Li8  1  0.77926966  0.33799320  0.87363676  1
  Li  Li9  1  0.62216366  0.13996010  0.65245822  1
  Mo  Mo10  1  0.35679277  0.39996374  0.22969951  1
  Mo  Mo11  1  0.23161830  0.05309706  0.66705665  1
  Mo  Mo12  1  0.64320723  0.60003626  0.77030049  1
  Mo  Mo13  1  0.76838170  0.94690294  0.33294335  1
  P  P14  1  0.99200215  0.59715438  0.77809551  1
  P  P15  1  0.58217558  0.65356912  0.27882343  1
  P  P16  1  0.72972927  0.90075952  0.83074359  1
  P  P17  1  0.05460023  0.79379866  0.48782559  1
  P  P18  1  0.00799785  0.40284562  0.22190449  1
  P  P19  1  0.41782442  0.34643088  0.72117657  1
  P  P20  1  0.94539977  0.20620134  0.51217441  1
  P  P21  1  0.41923314  0.82631754  0.83603925  1
  P  P22  1  0.58076686  0.17368246  0.16396075  1
  P  P23  1  0.27027073  0.09924048  0.16925641  1
  O  O24  1  0.83124501  0.95161813  0.00987071  1
  O  O25  1  0.05276080  0.17212312  0.67707872  1
  O  O26  1  0.41009397  0.20557860  0.66733076  1
  O  O27  1  0.57752649  0.39952192  0.76314736  1
  O  O28  1  0.75796096  0.77453364  0.75249214  1
  O  O29  1  0.35508269  0.41997142  0.55077878  1
  O  O30  1  0.32620484  0.36878106  0.90898375  1
  O  O31  1  0.84511621  0.51537804  0.78117193  1
  O  O32  1  0.11929895  0.52612389  0.73652412  1
  O  O33  1  0.64491731  0.58002858  0.44922122  1
  O  O34  1  0.67379516  0.63121894  0.09101625  1
  O  O35  1  0.68263482  0.18175334  0.98857402  1
  O  O36  1  0.15488379  0.48462196  0.21882807  1
  O  O37  1  0.07660959  0.89336090  0.66168104  1
  O  O38  1  0.44688589  0.69891604  0.74173617  1
  O  O39  1  0.38353996  0.91574756  0.67151192  1
  O  O40  1  0.26439034  0.01136692  0.34547882  1
  O  O41  1  0.57347849  0.89204527  0.93088715  1
  O  O42  1  0.03135828  0.32404371  0.41903528  1
  O  O43  1  0.01605387  0.68330378  0.96720569  1
  O  O44  1  0.55311411  0.30108396  0.25826383  1
  O  O45  1  0.96864172  0.67595629  0.58096472  1
  O  O46  1  0.58990603  0.79442140  0.33266924  1
  O  O47  1  0.61646004  0.08425244  0.32848808  1
  O  O48  1  0.42247351  0.60047808  0.23685264  1
  O  O49  1  0.16875499  0.04838187  0.99012929  1
  O  O50  1  0.80841866  0.25022690  0.59817256  1
  O  O51  1  0.24203904  0.22546636  0.24750786  1
  O  O52  1  0.31736518  0.81824666  0.01142598  1
  O  O53  1  0.98394613  0.31669622  0.03279431  1
  O  O54  1  0.73560966  0.98863308  0.65452118  1
  O  O55  1  0.88070105  0.47387611  0.26347588  1
  O  O56  1  0.42652151  0.10795473  0.06911285  1
  O  O57  1  0.94723920  0.82787688  0.32292128  1
  O  O58  1  0.92339041  0.10663910  0.33831896  1
  O  O59  1  0.19158134  0.74977310  0.40182744  1
