# generated using pymatgen
data_TlIn5Se7
_symmetry_space_group_name_H-M   'P 1'
_cell_length_a   4.14039609
_cell_length_b   9.63180143
_cell_length_c   18.17619190
_cell_angle_alpha   100.98425027
_cell_angle_beta   90.00000000
_cell_angle_gamma   90.00000000
_symmetry_Int_Tables_number   1
_chemical_formula_structural   TlIn5Se7
_chemical_formula_sum   'Tl2 In10 Se14'
_cell_volume   711.57728202
_cell_formula_units_Z   2
loop_
 _symmetry_equiv_pos_site_id
 _symmetry_equiv_pos_as_xyz
  1  'x, y, z'
loop_
 _atom_site_type_symbol
 _atom_site_label
 _atom_site_symmetry_multiplicity
 _atom_site_fract_x
 _atom_site_fract_y
 _atom_site_fract_z
 _atom_site_occupancy
  Tl  Tl0  1  0.75000000  0.97731603  0.27206279  1
  Tl  Tl1  1  0.25000000  0.02268397  0.72793721  1
  In  In2  1  0.25000000  0.17102580  0.53411292  1
  In  In3  1  0.25000000  0.67911889  0.81338777  1
  In  In4  1  0.75000000  0.82897420  0.46588708  1
  In  In5  1  0.75000000  0.32088111  0.18661223  1
  In  In6  1  0.75000000  0.56777330  0.12250608  1
  In  In7  1  0.25000000  0.85239585  0.04663365  1
  In  In8  1  0.25000000  0.48425191  0.39773434  1
  In  In9  1  0.25000000  0.43222670  0.87749392  1
  In  In10  1  0.75000000  0.51574809  0.60226566  1
  In  In11  1  0.75000000  0.14760415  0.95336635  1
  Se  Se12  1  0.75000000  0.73628755  0.72768109  1
  Se  Se13  1  0.25000000  0.37938251  0.65639318  1
  Se  Se14  1  0.75000000  0.33063118  0.46717983  1
  Se  Se15  1  0.25000000  0.33552243  0.00639062  1
  Se  Se16  1  0.25000000  0.66936882  0.53282017  1
  Se  Se17  1  0.75000000  0.05669950  0.09112176  1
  Se  Se18  1  0.75000000  0.66447757  0.99360938  1
  Se  Se19  1  0.25000000  0.74279655  0.17706750  1
  Se  Se20  1  0.25000000  0.26371245  0.27231891  1
  Se  Se21  1  0.75000000  0.62061749  0.34360682  1
  Se  Se22  1  0.25000000  0.97028796  0.40913559  1
  Se  Se23  1  0.25000000  0.94330050  0.90887824  1
  Se  Se24  1  0.75000000  0.02971204  0.59086441  1
  Se  Se25  1  0.75000000  0.25720345  0.82293250  1
