# generated using pymatgen
data_YbGa5
_symmetry_space_group_name_H-M   'P 1'
_cell_length_a   4.32075481
_cell_length_b   4.32075467
_cell_length_c   13.40896155
_cell_angle_alpha   99.27159640
_cell_angle_beta   99.27159612
_cell_angle_gamma   89.99999861
_symmetry_Int_Tables_number   1
_chemical_formula_structural   YbGa5
_chemical_formula_sum   'Yb2 Ga10'
_cell_volume   243.74618520
_cell_formula_units_Z   2
loop_
 _symmetry_equiv_pos_site_id
 _symmetry_equiv_pos_as_xyz
  1  'x, y, z'
loop_
 _atom_site_type_symbol
 _atom_site_label
 _atom_site_symmetry_multiplicity
 _atom_site_fract_x
 _atom_site_fract_y
 _atom_site_fract_z
 _atom_site_occupancy
  Yb  Yb0  1  0.14995312  0.14995312  0.29990623  1
  Yb  Yb1  1  0.85004688  0.85004688  0.70009377  1
  Ga  Ga2  1  0.39912751  0.39912751  0.79825503  1
  Ga  Ga3  1  0.45243326  0.95243326  0.90486652  1
  Ga  Ga4  1  0.54756674  0.04756674  0.09513348  1
  Ga  Ga5  1  0.95243326  0.45243326  0.90486652  1
  Ga  Ga6  1  0.60087249  0.60087249  0.20174497  1
  Ga  Ga7  1  0.30534731  0.30534731  0.61069462  1
  Ga  Ga8  1  0.69465269  0.69465269  0.38930538  1
  Ga  Ga9  1  0.25000000  0.75000000  0.50000000  1
  Ga  Ga10  1  0.04756674  0.54756674  0.09513348  1
  Ga  Ga11  1  0.75000000  0.25000000  0.50000000  1
