# generated using pymatgen
data_TiHg6P4Cl7
_symmetry_space_group_name_H-M   'P 1'
_cell_length_a   12.04679377
_cell_length_b   12.04679377
_cell_length_c   12.04679377
_cell_angle_alpha   90.00000000
_cell_angle_beta   90.00000000
_cell_angle_gamma   90.00000000
_symmetry_Int_Tables_number   1
_chemical_formula_structural   TiHg6P4Cl7
_chemical_formula_sum   'Ti4 Hg24 P16 Cl28'
_cell_volume   1748.29383875
_cell_formula_units_Z   4
loop_
 _symmetry_equiv_pos_site_id
 _symmetry_equiv_pos_as_xyz
  1  'x, y, z'
loop_
 _atom_site_type_symbol
 _atom_site_label
 _atom_site_symmetry_multiplicity
 _atom_site_fract_x
 _atom_site_fract_y
 _atom_site_fract_z
 _atom_site_occupancy
  Ti  Ti0  1  0.00000000  0.00000000  0.50000000  1
  Ti  Ti1  1  0.50000000  0.00000000  0.00000000  1
  Ti  Ti2  1  0.50000000  0.50000000  0.50000000  1
  Ti  Ti3  1  0.00000000  0.50000000  0.00000000  1
  Hg  Hg4  1  0.04004851  0.69323096  0.30085429  1
  Hg  Hg5  1  0.19323096  0.30085429  0.45995149  1
  Hg  Hg6  1  0.80676904  0.69914571  0.54004851  1
  Hg  Hg7  1  0.45995149  0.19323096  0.30085429  1
  Hg  Hg8  1  0.04004851  0.80676904  0.80085429  1
  Hg  Hg9  1  0.30676904  0.69914571  0.95995149  1
  Hg  Hg10  1  0.69323096  0.30085429  0.04004851  1
  Hg  Hg11  1  0.95995149  0.19323096  0.19914571  1
  Hg  Hg12  1  0.80085429  0.45995149  0.30676904  1
  Hg  Hg13  1  0.95995149  0.30676904  0.69914571  1
  Hg  Hg14  1  0.54004851  0.69323096  0.19914571  1
  Hg  Hg15  1  0.54004851  0.80676904  0.69914571  1
  Hg  Hg16  1  0.80676904  0.80085429  0.04004851  1
  Hg  Hg17  1  0.69914571  0.54004851  0.80676904  1
  Hg  Hg18  1  0.69323096  0.19914571  0.54004851  1
  Hg  Hg19  1  0.30085429  0.45995149  0.19323096  1
  Hg  Hg20  1  0.19323096  0.19914571  0.95995149  1
  Hg  Hg21  1  0.30085429  0.04004851  0.69323096  1
  Hg  Hg22  1  0.80085429  0.04004851  0.80676904  1
  Hg  Hg23  1  0.30676904  0.80085429  0.45995149  1
  Hg  Hg24  1  0.69914571  0.95995149  0.30676904  1
  Hg  Hg25  1  0.19914571  0.54004851  0.69323096  1
  Hg  Hg26  1  0.19914571  0.95995149  0.19323096  1
  Hg  Hg27  1  0.45995149  0.30676904  0.80085429  1
  P  P28  1  0.23135044  0.76864956  0.26864956  1
  P  P29  1  0.66141898  0.16141898  0.33858102  1
  P  P30  1  0.33858102  0.66141898  0.16141898  1
  P  P31  1  0.73135044  0.73135044  0.73135044  1
  P  P32  1  0.23135044  0.73135044  0.76864956  1
  P  P33  1  0.33858102  0.83858102  0.66141898  1
  P  P34  1  0.76864956  0.23135044  0.73135044  1
  P  P35  1  0.83858102  0.66141898  0.33858102  1
  P  P36  1  0.26864956  0.26864956  0.26864956  1
  P  P37  1  0.73135044  0.76864956  0.23135044  1
  P  P38  1  0.66141898  0.33858102  0.83858102  1
  P  P39  1  0.16141898  0.33858102  0.66141898  1
  P  P40  1  0.76864956  0.26864956  0.23135044  1
  P  P41  1  0.83858102  0.83858102  0.83858102  1
  P  P42  1  0.26864956  0.23135044  0.76864956  1
  P  P43  1  0.16141898  0.16141898  0.16141898  1
  Cl  Cl44  1  0.54397287  0.69135802  0.46179804  1
  Cl  Cl45  1  0.30864198  0.96179804  0.95602713  1
  Cl  Cl46  1  0.45602713  0.30864198  0.53820196  1
  Cl  Cl47  1  0.50000000  0.00000000  0.50000000  1
  Cl  Cl48  1  0.53820196  0.45602713  0.30864198  1
  Cl  Cl49  1  0.69135802  0.46179804  0.54397287  1
  Cl  Cl50  1  0.80864198  0.96179804  0.54397287  1
  Cl  Cl51  1  0.95602713  0.19135802  0.46179804  1
  Cl  Cl52  1  0.80864198  0.53820196  0.04397287  1
  Cl  Cl53  1  0.00000000  0.00000000  0.00000000  1
  Cl  Cl54  1  0.45602713  0.19135802  0.03820196  1
  Cl  Cl55  1  0.54397287  0.80864198  0.96179804  1
  Cl  Cl56  1  0.46179804  0.95602713  0.19135802  1
  Cl  Cl57  1  0.96179804  0.54397287  0.80864198  1
  Cl  Cl58  1  0.04397287  0.69135802  0.03820196  1
  Cl  Cl59  1  0.03820196  0.45602713  0.19135802  1
  Cl  Cl60  1  0.53820196  0.04397287  0.80864198  1
  Cl  Cl61  1  0.00000000  0.50000000  0.50000000  1
  Cl  Cl62  1  0.95602713  0.30864198  0.96179804  1
  Cl  Cl63  1  0.30864198  0.53820196  0.45602713  1
  Cl  Cl64  1  0.96179804  0.95602713  0.30864198  1
  Cl  Cl65  1  0.46179804  0.54397287  0.69135802  1
  Cl  Cl66  1  0.50000000  0.50000000  0.00000000  1
  Cl  Cl67  1  0.03820196  0.04397287  0.69135802  1
  Cl  Cl68  1  0.19135802  0.46179804  0.95602713  1
  Cl  Cl69  1  0.04397287  0.80864198  0.53820196  1
  Cl  Cl70  1  0.19135802  0.03820196  0.45602713  1
  Cl  Cl71  1  0.69135802  0.03820196  0.04397287  1
