# generated using pymatgen
data_BiPd
_symmetry_space_group_name_H-M   'P 1'
_cell_length_a   5.76524502
_cell_length_b   5.76524517
_cell_length_c   10.79936834
_cell_angle_alpha   90.00000000
_cell_angle_beta   90.00000000
_cell_angle_gamma   101.54178445
_symmetry_Int_Tables_number   1
_chemical_formula_structural   BiPd
_chemical_formula_sum   'Bi8 Pd8'
_cell_volume   351.69164634
_cell_formula_units_Z   8
loop_
 _symmetry_equiv_pos_site_id
 _symmetry_equiv_pos_as_xyz
  1  'x, y, z'
loop_
 _atom_site_type_symbol
 _atom_site_label
 _atom_site_symmetry_multiplicity
 _atom_site_fract_x
 _atom_site_fract_y
 _atom_site_fract_z
 _atom_site_occupancy
  Bi  Bi0  1  0.85342973  0.39250820  0.27927037  1
  Bi  Bi1  1  0.12272535  0.12272535  0.99366285  1
  Bi  Bi2  1  0.39250820  0.85342973  0.27927037  1
  Bi  Bi3  1  0.60749180  0.14657027  0.77927037  1
  Bi  Bi4  1  0.36703318  0.36703318  0.49868242  1
  Bi  Bi5  1  0.63296682  0.63296682  0.99868242  1
  Bi  Bi6  1  0.14657027  0.60749180  0.77927037  1
  Bi  Bi7  1  0.87727465  0.87727465  0.49366285  1
  Pd  Pd8  1  0.09063185  0.09063185  0.72111963  1
  Pd  Pd9  1  0.33218288  0.33218288  0.22799976  1
  Pd  Pd10  1  0.62325352  0.13205970  0.05599730  1
  Pd  Pd11  1  0.66781712  0.66781712  0.72799976  1
  Pd  Pd12  1  0.86794030  0.37674648  0.55599730  1
  Pd  Pd13  1  0.37674648  0.86794030  0.55599730  1
  Pd  Pd14  1  0.13205970  0.62325352  0.05599730  1
  Pd  Pd15  1  0.90936815  0.90936815  0.22111963  1
