# generated using pymatgen
data_U2Al20Fe
_symmetry_space_group_name_H-M   'P 1'
_cell_length_a   10.25376565
_cell_length_b   10.25376613
_cell_length_c   10.25376546
_cell_angle_alpha   103.98832208
_cell_angle_beta   103.98832294
_cell_angle_gamma   121.10122687
_symmetry_Int_Tables_number   1
_chemical_formula_structural   U2Al20Fe
_chemical_formula_sum   'U4 Al40 Fe2'
_cell_volume   803.83597931
_cell_formula_units_Z   2
loop_
 _symmetry_equiv_pos_site_id
 _symmetry_equiv_pos_as_xyz
  1  'x, y, z'
loop_
 _atom_site_type_symbol
 _atom_site_label
 _atom_site_symmetry_multiplicity
 _atom_site_fract_x
 _atom_site_fract_y
 _atom_site_fract_z
 _atom_site_occupancy
  U  U0  1  0.58588484  0.58588484  0.67507126  1
  U  U1  1  0.08918641  0.41411516  0.00000000  1
  U  U2  1  0.41411516  0.08918641  0.00000000  1
  U  U3  1  0.91081359  0.91081359  0.32492874  1
  Al  Al4  1  0.22509776  0.75073983  1.00000000  1
  Al  Al5  1  0.34638249  0.49316525  0.32592302  1
  Al  Al6  1  0.44903339  0.04233596  0.26986511  1
  Al  Al7  1  0.65274315  0.50000000  0.15274315  1
  Al  Al8  1  0.50683475  0.83275777  0.85321724  1
  Al  Al9  1  0.32305446  0.73584412  0.26820059  1
  Al  Al10  1  0.74318711  0.74318711  0.00000000  1
  Al  Al11  1  0.49316525  0.34638249  0.32592302  1
  Al  Al12  1  0.53235646  0.26415588  0.58721034  1
  Al  Al13  1  1.00000000  0.84895530  0.84895530  1
  Al  Al14  1  0.55096661  0.82083173  0.59330257  1
  Al  Al15  1  0.73584412  0.32305446  0.26820059  1
  Al  Al16  1  0.17916827  0.77247084  0.73013489  1
  Al  Al17  1  0.24926017  0.24926017  0.47435794  1
  Al  Al18  1  0.65361751  0.97954053  0.14678276  1
  Al  Al19  1  0.25681289  0.25681289  0.00000000  1
  Al  Al20  1  0.00000000  0.15104470  0.15104470  1
  Al  Al21  1  0.16724223  0.02045947  0.67407698  1
  Al  Al22  1  0.75073983  0.22509776  1.00000000  1
  Al  Al23  1  0.77247084  0.17916827  0.73013489  1
  Al  Al24  1  0.50000000  0.34725685  0.84725685  1
  Al  Al25  1  0.84895530  1.00000000  0.84895530  1
  Al  Al26  1  0.95766404  0.22752916  0.40669743  1
  Al  Al27  1  0.82083173  0.55096661  0.59330257  1
  Al  Al28  1  0.94514613  0.67694554  0.41278966  1
  Al  Al29  1  0.83275777  0.50683475  0.85321724  1
  Al  Al30  1  0.26415588  0.53235646  0.58721034  1
  Al  Al31  1  0.25000000  0.75000000  0.50000000  1
  Al  Al32  1  0.67694554  0.94514613  0.41278966  1
  Al  Al33  1  0.02045947  0.16724223  0.67407698  1
  Al  Al34  1  0.50000000  0.65274315  0.15274315  1
  Al  Al35  1  0.15104470  0.00000000  0.15104470  1
  Al  Al36  1  0.77490224  0.77490224  0.52564206  1
  Al  Al37  1  0.05485387  0.46764354  0.73179941  1
  Al  Al38  1  0.34725685  0.50000000  0.84725685  1
  Al  Al39  1  0.97954053  0.65361751  0.14678276  1
  Al  Al40  1  0.46764354  0.05485387  0.73179941  1
  Al  Al41  1  0.22752916  0.95766404  0.40669743  1
  Al  Al42  1  0.04233596  0.44903339  0.26986511  1
  Al  Al43  1  0.75000000  0.25000000  0.50000000  1
  Fe  Fe44  1  0.50000000  0.00000000  0.50000000  1
  Fe  Fe45  1  0.00000000  0.50000000  0.50000000  1
