# generated using pymatgen
data_K4Zn(WO4)3
_symmetry_space_group_name_H-M   'P 1'
_cell_length_a   8.06523926
_cell_length_b   9.99924588
_cell_length_c   10.35824873
_cell_angle_alpha   95.58430999
_cell_angle_beta   106.53499153
_cell_angle_gamma   105.48435491
_symmetry_Int_Tables_number   1
_chemical_formula_structural   K4Zn(WO4)3
_chemical_formula_sum   'K8 Zn2 W6 O24'
_cell_volume   758.04441906
_cell_formula_units_Z   2
loop_
 _symmetry_equiv_pos_site_id
 _symmetry_equiv_pos_as_xyz
  1  'x, y, z'
loop_
 _atom_site_type_symbol
 _atom_site_label
 _atom_site_symmetry_multiplicity
 _atom_site_fract_x
 _atom_site_fract_y
 _atom_site_fract_z
 _atom_site_occupancy
  K  K0  1  0.78693409  0.77681899  0.24093602  1
  K  K1  1  0.74697209  0.47431863  0.52980804  1
  K  K2  1  0.00000000  0.00000000  0.00000000  1
  K  K3  1  0.35854531  0.11151698  0.43239940  1
  K  K4  1  0.64145469  0.88848302  0.56760060  1
  K  K5  1  0.50000000  0.00000000  0.00000000  1
  K  K6  1  0.25302791  0.52568137  0.47019196  1
  K  K7  1  0.21306591  0.22318101  0.75906398  1
  Zn  Zn8  1  0.83373948  0.43940315  0.14285710  1
  Zn  Zn9  1  0.16626052  0.56059685  0.85714290  1
  W  W10  1  0.77220005  0.27544620  0.82517068  1
  W  W11  1  0.22779995  0.72455380  0.17482932  1
  W  W12  1  0.87681049  0.18272734  0.36322318  1
  W  W13  1  0.38901591  0.39404763  0.15586248  1
  W  W14  1  0.61098409  0.60595237  0.84413752  1
  W  W15  1  0.12318951  0.81727266  0.63677682  1
  O  O16  1  0.76398228  0.27256019  0.00315055  1
  O  O17  1  0.61595484  0.49467259  0.15597432  1
  O  O18  1  0.77765067  0.51393031  0.90656230  1
  O  O19  1  0.02982602  0.61751415  0.21715515  1
  O  O20  1  0.70168026  0.12992369  0.44094508  1
  O  O21  1  0.88344156  0.35885483  0.32027952  1
  O  O22  1  0.90396761  0.79737498  0.51342064  1
  O  O23  1  0.68382673  0.77814581  0.95105041  1
  O  O24  1  0.29831974  0.87007631  0.55905492  1
  O  O25  1  0.97017398  0.38248585  0.78284485  1
  O  O26  1  0.40343995  0.37107045  0.32951427  1
  O  O27  1  0.16882602  0.94874465  0.78641147  1
  O  O28  1  0.23601772  0.72743981  0.99684945  1
  O  O29  1  0.44132312  0.73217210  0.29858342  1
  O  O30  1  0.38404516  0.50532741  0.84402568  1
  O  O31  1  0.31617327  0.22185419  0.04894959  1
  O  O32  1  0.11655844  0.64114517  0.67972048  1
  O  O33  1  0.83117398  0.05125535  0.21358853  1
  O  O34  1  0.09603239  0.20262502  0.48657936  1
  O  O35  1  0.22234933  0.48606969  0.09343770  1
  O  O36  1  0.20802736  0.89882922  0.20999318  1
  O  O37  1  0.55867688  0.26782790  0.70141658  1
  O  O38  1  0.59656005  0.62892955  0.67048573  1
  O  O39  1  0.79197264  0.10117078  0.79000682  1
