# generated using pymatgen
data_H5IO6
_symmetry_space_group_name_H-M   'P 1'
_cell_length_a   5.39558757
_cell_length_b   18.67853309
_cell_length_c   4.97986806
_cell_angle_alpha   90.00000000
_cell_angle_beta   109.59340057
_cell_angle_gamma   90.00000000
_symmetry_Int_Tables_number   1
_chemical_formula_structural   H5IO6
_chemical_formula_sum   'H20 I4 O24'
_cell_volume   472.81859396
_cell_formula_units_Z   4
loop_
 _symmetry_equiv_pos_site_id
 _symmetry_equiv_pos_as_xyz
  1  'x, y, z'
loop_
 _atom_site_type_symbol
 _atom_site_label
 _atom_site_symmetry_multiplicity
 _atom_site_fract_x
 _atom_site_fract_y
 _atom_site_fract_z
 _atom_site_occupancy
  H  H0  1  0.15886327  0.50117471  0.82550631  1
  H  H1  1  0.65886327  0.99882529  0.32550631  1
  H  H2  1  0.84113673  0.49882529  0.17449369  1
  H  H3  1  0.34113673  0.00117471  0.67449369  1
  H  H4  1  0.33696335  0.55870865  0.50367486  1
  H  H5  1  0.83696335  0.94129135  0.00367486  1
  H  H6  1  0.66303665  0.44129135  0.49632514  1
  H  H7  1  0.16303665  0.05870865  0.99632514  1
  H  H8  1  0.08533866  0.69282476  0.43267330  1
  H  H9  1  0.58533866  0.80717524  0.93267330  1
  H  H10  1  0.91466134  0.30717524  0.56732670  1
  H  H11  1  0.41466134  0.19282476  0.06732670  1
  H  H12  1  0.62017343  0.63161944  0.03722112  1
  H  H13  1  0.12017343  0.86838056  0.53722112  1
  H  H14  1  0.37982657  0.36838056  0.96277888  1
  H  H15  1  0.87982657  0.13161944  0.46277888  1
  H  H16  1  0.87821986  0.71941017  0.77683656  1
  H  H17  1  0.37821986  0.78058983  0.27683656  1
  H  H18  1  0.12178014  0.28058983  0.22316344  1
  H  H19  1  0.62178014  0.21941017  0.72316344  1
  I  I20  1  0.16794384  0.62136349  0.04371024  1
  I  I21  1  0.66794384  0.87863651  0.54371024  1
  I  I22  1  0.83205616  0.37863651  0.95628976  1
  I  I23  1  0.33205616  0.12136349  0.45628976  1
  O  O24  1  0.19049015  0.55152017  0.76603000  1
  O  O25  1  0.69049015  0.94847983  0.26603000  1
  O  O26  1  0.80950985  0.44847983  0.23397000  1
  O  O27  1  0.30950985  0.05152017  0.73397000  1
  O  O28  1  0.87295623  0.58216845  0.08804880  1
  O  O29  1  0.37295623  0.91783155  0.58804880  1
  O  O30  1  0.12704377  0.41783155  0.91195120  1
  O  O31  1  0.62704377  0.08216845  0.41195120  1
  O  O32  1  0.40739800  0.56544508  0.34315525  1
  O  O33  1  0.90739800  0.93455492  0.84315525  1
  O  O34  1  0.59260200  0.43455492  0.65684475  1
  O  O35  1  0.09260200  0.06544508  0.15684475  1
  O  O36  1  0.16761761  0.70363323  0.28404246  1
  O  O37  1  0.66761761  0.79636677  0.78404246  1
  O  O38  1  0.83238239  0.29636677  0.71595754  1
  O  O39  1  0.33238239  0.20363323  0.21595754  1
  O  O40  1  0.46530735  0.66655924  0.99488657  1
  O  O41  1  0.96530735  0.83344076  0.49488657  1
  O  O42  1  0.53469265  0.33344076  0.00511343  1
  O  O43  1  0.03469265  0.16655924  0.50511343  1
  O  O44  1  0.96061199  0.67747833  0.71527672  1
  O  O45  1  0.46061199  0.82252167  0.21527672  1
  O  O46  1  0.03938801  0.32252167  0.28472328  1
  O  O47  1  0.53938801  0.17747833  0.78472328  1
