# generated using pymatgen
data_BaY2ZnO5
_symmetry_space_group_name_H-M   'P 1'
_cell_length_a   5.77159879
_cell_length_b   7.17136172
_cell_length_c   12.46346369
_cell_angle_alpha   90.00000000
_cell_angle_beta   90.00000000
_cell_angle_gamma   90.00000000
_symmetry_Int_Tables_number   1
_chemical_formula_structural   BaY2ZnO5
_chemical_formula_sum   'Ba4 Y8 Zn4 O20'
_cell_volume   515.86553682
_cell_formula_units_Z   4
loop_
 _symmetry_equiv_pos_site_id
 _symmetry_equiv_pos_as_xyz
  1  'x, y, z'
loop_
 _atom_site_type_symbol
 _atom_site_label
 _atom_site_symmetry_multiplicity
 _atom_site_fract_x
 _atom_site_fract_y
 _atom_site_fract_z
 _atom_site_occupancy
  O  O0  1  0.25000000  0.42568009  0.60013797  1
  O  O1  1  0.75000000  0.57431991  0.39986203  1
  O  O2  1  0.75000000  0.92568009  0.89986203  1
  O  O3  1  0.25000000  0.07431991  0.10013797  1
  O  O4  1  0.00072790  0.85742658  0.27520593  1
  O  O5  1  0.50072790  0.14257342  0.72479407  1
  O  O6  1  0.99927210  0.35742658  0.22479407  1
  O  O7  1  0.49927210  0.64257342  0.77520593  1
  O  O8  1  0.99927210  0.14257342  0.72479407  1
  O  O9  1  0.49927210  0.85742658  0.27520593  1
  O  O10  1  0.00072790  0.64257342  0.77520593  1
  O  O11  1  0.50072790  0.35742658  0.22479407  1
  O  O12  1  0.49789292  0.66336734  0.06612538  1
  O  O13  1  0.99789292  0.33663266  0.93387462  1
  O  O14  1  0.50210708  0.16336734  0.43387462  1
  O  O15  1  0.00210708  0.83663266  0.56612538  1
  O  O16  1  0.99789292  0.16336734  0.43387462  1
  O  O17  1  0.49789292  0.83663266  0.56612538  1
  O  O18  1  0.00210708  0.66336734  0.06612538  1
  O  O19  1  0.50210708  0.33663266  0.93387462  1
  Zn  Zn20  1  0.25000000  0.80835710  0.14973198  1
  Zn  Zn21  1  0.75000000  0.19164290  0.85026802  1
  Zn  Zn22  1  0.75000000  0.30835710  0.35026802  1
  Zn  Zn23  1  0.25000000  0.69164290  0.64973198  1
  Y  Y24  1  0.25000000  0.10083468  0.57445017  1
  Y  Y25  1  0.75000000  0.89916532  0.42554983  1
  Y  Y26  1  0.75000000  0.60083468  0.92554983  1
  Y  Y27  1  0.25000000  0.39916532  0.07445017  1
  Y  Y28  1  0.25000000  0.38178241  0.79193370  1
  Y  Y29  1  0.75000000  0.61821759  0.20806630  1
  Y  Y30  1  0.75000000  0.88178241  0.70806630  1
  Y  Y31  1  0.25000000  0.11821759  0.29193370  1
  Ba  Ba32  1  0.25000000  0.57712916  0.39850913  1
  Ba  Ba33  1  0.75000000  0.42287084  0.60149087  1
  Ba  Ba34  1  0.75000000  0.07712916  0.10149087  1
  Ba  Ba35  1  0.25000000  0.92287084  0.89850913  1
