# generated using pymatgen
data_KSb(MoO4)2
_symmetry_space_group_name_H-M   'P 1'
_cell_length_a   5.10420938
_cell_length_b   7.55811437
_cell_length_c   10.43993531
_cell_angle_alpha   90.50679015
_cell_angle_beta   100.56288328
_cell_angle_gamma   107.64586896
_symmetry_Int_Tables_number   1
_chemical_formula_structural   KSb(MoO4)2
_chemical_formula_sum   'K2 Sb2 Mo4 O16'
_cell_volume   376.40685483
_cell_formula_units_Z   2
loop_
 _symmetry_equiv_pos_site_id
 _symmetry_equiv_pos_as_xyz
  1  'x, y, z'
loop_
 _atom_site_type_symbol
 _atom_site_label
 _atom_site_symmetry_multiplicity
 _atom_site_fract_x
 _atom_site_fract_y
 _atom_site_fract_z
 _atom_site_occupancy
  K  K0  1  0.59676852  0.96372626  0.68826147  1
  K  K1  1  0.40323148  0.03627374  0.31173853  1
  Sb  Sb2  1  0.94803295  0.52999424  0.80803336  1
  Sb  Sb3  1  0.05196705  0.47000576  0.19196664  1
  Mo  Mo4  1  0.64246166  0.75560087  0.07340842  1
  Mo  Mo5  1  0.78789707  0.63542159  0.45997755  1
  Mo  Mo6  1  0.35753834  0.24439913  0.92659158  1
  Mo  Mo7  1  0.21210293  0.36457841  0.54002245  1
  O  O8  1  0.13432542  0.37891439  0.71311093  1
  O  O9  1  0.89701297  0.95937562  0.14537790  1
  O  O10  1  0.86415024  0.32578123  0.44655765  1
  O  O11  1  0.50539153  0.80981741  0.91770421  1
  O  O12  1  0.49460847  0.19018259  0.08229579  1
  O  O13  1  0.19643824  0.42748714  0.96644499  1
  O  O14  1  0.35914084  0.70805059  0.17396668  1
  O  O15  1  0.73426689  0.85172867  0.46150476  1
  O  O16  1  0.26573311  0.14827133  0.53849524  1
  O  O17  1  0.37181139  0.46884591  0.38520871  1
  O  O18  1  0.80356176  0.57251286  0.03355501  1
  O  O19  1  0.10298703  0.04062438  0.85462210  1
  O  O20  1  0.64085916  0.29194941  0.82603332  1
  O  O21  1  0.86567458  0.62108561  0.28688907  1
  O  O22  1  0.13584976  0.67421877  0.55344235  1
  O  O23  1  0.62818861  0.53115409  0.61479129  1
