# generated using pymatgen
data_Gd4P6H16O23
_symmetry_space_group_name_H-M   'P 1'
_cell_length_a   6.98652542
_cell_length_b   13.24610509
_cell_length_c   13.75073202
_cell_angle_alpha   109.25291867
_cell_angle_beta   89.84846154
_cell_angle_gamma   104.40296782
_symmetry_Int_Tables_number   1
_chemical_formula_structural   Gd4P6H16O23
_chemical_formula_sum   'Gd8 P12 H32 O46'
_cell_volume   1159.22889683
_cell_formula_units_Z   2
loop_
 _symmetry_equiv_pos_site_id
 _symmetry_equiv_pos_as_xyz
  1  'x, y, z'
loop_
 _atom_site_type_symbol
 _atom_site_label
 _atom_site_symmetry_multiplicity
 _atom_site_fract_x
 _atom_site_fract_y
 _atom_site_fract_z
 _atom_site_occupancy
  Gd  Gd0  1  0.32595451  0.61805874  0.89855297  1
  Gd  Gd1  1  0.67404549  0.38194126  0.10144703  1
  Gd  Gd2  1  0.84281452  0.11773679  0.90049573  1
  Gd  Gd3  1  0.15718548  0.88226321  0.09950427  1
  Gd  Gd4  1  0.49221648  0.63787531  0.61987062  1
  Gd  Gd5  1  0.97674455  0.86645289  0.37192433  1
  Gd  Gd6  1  0.02325545  0.13354711  0.62807567  1
  Gd  Gd7  1  0.50778352  0.36212469  0.38012938  1
  P  P8  1  0.33892005  0.39967061  0.64139457  1
  P  P9  1  0.49306783  0.85360301  0.88149543  1
  P  P10  1  0.50693217  0.14639699  0.11850457  1
  P  P11  1  0.01874195  0.41162622  0.30788624  1
  P  P12  1  0.98125805  0.58837378  0.69211376  1
  P  P13  1  0.66107995  0.60032939  0.35860543  1
  P  P14  1  0.99363923  0.64996559  0.11921060  1
  P  P15  1  0.88115678  0.89627629  0.64831234  1
  P  P16  1  0.11884322  0.10372371  0.35168766  1
  P  P17  1  0.00636077  0.35003441  0.88078940  1
  P  P18  1  0.51794857  0.09373878  0.68485458  1
  P  P19  1  0.48205143  0.90626122  0.31514542  1
  H  H20  1  0.40638570  0.35690406  0.90460334  1
  H  H21  1  0.73316537  0.57598683  0.94348999  1
  H  H22  1  0.28145989  0.09635038  0.86098494  1
  H  H23  1  0.02664298  0.85609531  0.68314005  1
  H  H24  1  0.89284283  0.84595445  0.89943265  1
  H  H25  1  0.37174363  0.89740120  0.83394969  1
  H  H26  1  0.98635914  0.24693385  0.12479379  1
  H  H27  1  0.88266423  0.38599590  0.82622899  1
  H  H28  1  0.71854011  0.90364962  0.13901506  1
  H  H29  1  0.49360539  0.36012587  0.66737470  1
  H  H30  1  0.26799186  0.41142605  0.16662345  1
  H  H31  1  0.94336803  0.47214644  0.65526523  1
  H  H32  1  0.47716981  0.73842276  0.12605324  1
  H  H33  1  0.19500968  0.69706734  0.52658809  1
  H  H34  1  0.53217434  0.02310099  0.35105622  1
  H  H35  1  0.52283019  0.26157724  0.87394676  1
  H  H36  1  0.26683463  0.42401317  0.05651001  1
  H  H37  1  0.50639461  0.63987413  0.33262530  1
  H  H38  1  0.97335702  0.14390469  0.31685995  1
  H  H39  1  0.64299986  0.22778338  0.52016581  1
  H  H40  1  0.46782566  0.97689901  0.64894378  1
  H  H41  1  0.05663197  0.52785356  0.34473477  1
  H  H42  1  0.62825637  0.10259880  0.16605031  1
  H  H43  1  0.01364086  0.75306615  0.87520621  1
  H  H44  1  0.77156610  0.93219840  0.03854195  1
  H  H45  1  0.11733577  0.61400410  0.17377101  1
  H  H46  1  0.80499032  0.30293266  0.47341191  1
  H  H47  1  0.59361430  0.64309594  0.09539666  1
  H  H48  1  0.35700014  0.77221662  0.47983419  1
  H  H49  1  0.73200814  0.58857395  0.83337655  1
  H  H50  1  0.10715717  0.15404555  0.10056735  1
  H  H51  1  0.22843390  0.06780160  0.96145805  1
  O  O52  1  0.57366810  0.13048986  0.80368818  1
  O  O53  1  0.50468261  0.74028760  0.80555250  1
  O  O54  1  0.33178943  0.12807468  0.66612662  1
  O  O55  1  0.14648903  0.30915969  0.62677883  1
  O  O56  1  0.95242436  0.37345789  0.18958662  1
  O  O57  1  0.68399178  0.81029557  0.63049560  1
  O  O58  1  0.30895578  0.86646492  0.37451839  1
  O  O59  1  0.16957247  0.07614736  0.90029277  1
  O  O60  1  0.03298137  0.23714237  0.81021297  1
  O  O61  1  0.83042753  0.92385264  0.09970723  1
  O  O62  1  0.95426355  0.92461175  0.55118535  1
  O  O63  1  0.49531739  0.25971240  0.19444750  1
  O  O64  1  0.65493768  0.48936203  0.27219701  1
  O  O65  1  0.38935060  0.43216178  0.54404867  1
  O  O66  1  0.10032473  0.67547402  0.02809759  1
  O  O67  1  0.11629354  0.98968464  0.27021251  1
  O  O68  1  0.30377429  0.05950326  0.08569041  1
  O  O69  1  0.88370646  0.01031536  0.72978749  1
  O  O70  1  0.67526573  0.29498874  0.50186512  1
  O  O71  1  0.69104422  0.13353508  0.62548161  1
  O  O72  1  0.14764086  0.63492493  0.63348265  1
  O  O73  1  0.32473427  0.70501126  0.49813488  1
  O  O74  1  0.31600822  0.18970443  0.36950440  1
  O  O75  1  0.79794271  0.55862225  0.08334176  1
  O  O76  1  0.04573645  0.07538825  0.44881465  1
  O  O77  1  0.60633242  0.17114850  0.02534964  1
  O  O78  1  0.00871775  0.82818374  0.92277806  1
  O  O79  1  0.61064940  0.56783822  0.45595133  1
  O  O80  1  0.78320383  0.61516204  0.68049132  1
  O  O81  1  0.69622571  0.94049674  0.91430959  1
  O  O82  1  0.34506232  0.51063797  0.72780299  1
  O  O83  1  0.21679617  0.38483796  0.31950868  1
  O  O84  1  0.85235914  0.36507507  0.36651735  1
  O  O85  1  0.99128225  0.17181626  0.07722194  1
  O  O86  1  0.42633190  0.86951014  0.19631182  1
  O  O87  1  0.64716107  0.57655246  0.88772591  1
  O  O88  1  0.35283893  0.42344754  0.11227409  1
  O  O89  1  0.04757564  0.62654211  0.81041338  1
  O  O90  1  0.85351097  0.69084031  0.37322117  1
  O  O91  1  0.96701863  0.76285763  0.18978703  1
  O  O92  1  0.39366758  0.82885150  0.97465036  1
  O  O93  1  0.48598956  0.66806446  0.07293917  1
  O  O94  1  0.51401044  0.33193554  0.92706083  1
  O  O95  1  0.20205729  0.44137775  0.91665824  1
  O  O96  1  0.66821057  0.87192532  0.33387338  1
  O  O97  1  0.89967527  0.32452598  0.97190241  1
