# generated using pymatgen
data_PS
_symmetry_space_group_name_H-M   'P 1'
_cell_length_a   7.26882295
_cell_length_b   7.26882295
_cell_length_c   9.62003465
_cell_angle_alpha   80.47968108
_cell_angle_beta   80.47968104
_cell_angle_gamma   83.98574064
_symmetry_Int_Tables_number   1
_chemical_formula_structural   PS
_chemical_formula_sum   'P8 S8'
_cell_volume   492.80878643
_cell_formula_units_Z   8
loop_
 _symmetry_equiv_pos_site_id
 _symmetry_equiv_pos_as_xyz
  1  'x, y, z'
loop_
 _atom_site_type_symbol
 _atom_site_label
 _atom_site_symmetry_multiplicity
 _atom_site_fract_x
 _atom_site_fract_y
 _atom_site_fract_z
 _atom_site_occupancy
  P  P0  1  0.19576831  0.79192155  0.41928600  1
  P  P1  1  0.20807845  0.80423169  0.08071400  1
  P  P2  1  0.80423169  0.20807845  0.58071400  1
  P  P3  1  0.79192155  0.19576831  0.91928600  1
  P  P4  1  0.51544357  0.76376950  0.14513103  1
  P  P5  1  0.23623050  0.48455643  0.35486897  1
  P  P6  1  0.48455643  0.23623050  0.85486897  1
  P  P7  1  0.76376950  0.51544357  0.64513103  1
  S  S8  1  0.51717126  0.48282874  0.25000000  1
  S  S9  1  0.48282874  0.51717126  0.75000000  1
  S  S10  1  0.06082593  0.93917407  0.25000000  1
  S  S11  1  0.93917407  0.06082593  0.75000000  1
  S  S12  1  0.46404857  0.88557662  0.33467886  1
  S  S13  1  0.11442338  0.53595143  0.16532114  1
  S  S14  1  0.53595143  0.11442338  0.66532114  1
  S  S15  1  0.88557662  0.46404857  0.83467886  1
