# generated using pymatgen
data_ReH3O5
_symmetry_space_group_name_H-M   'P 1'
_cell_length_a   7.53603668
_cell_length_b   7.65247064
_cell_length_c   7.80493531
_cell_angle_alpha   133.49288917
_cell_angle_beta   133.61678752
_cell_angle_gamma   68.48308701
_symmetry_Int_Tables_number   1
_chemical_formula_structural   ReH3O5
_chemical_formula_sum   'Re2 H6 O10'
_cell_volume   231.34713632
_cell_formula_units_Z   2
loop_
 _symmetry_equiv_pos_site_id
 _symmetry_equiv_pos_as_xyz
  1  'x, y, z'
loop_
 _atom_site_type_symbol
 _atom_site_label
 _atom_site_symmetry_multiplicity
 _atom_site_fract_x
 _atom_site_fract_y
 _atom_site_fract_z
 _atom_site_occupancy
  Re  Re0  1  0.37548096  0.11692700  0.24152632  1
  Re  Re1  1  0.62638971  0.87878169  0.76006374  1
  H  H2  1  0.87694135  0.54684429  0.27891983  1
  H  H3  1  0.80965920  0.71303508  0.18318649  1
  H  H4  1  0.00550925  0.37210070  0.72303440  1
  H  H5  1  0.25718634  0.29685203  0.77760710  1
  H  H6  1  0.12985082  0.65230732  0.35127138  1
  H  H7  1  0.27373490  0.64329718  0.97245635  1
  O  O8  1  0.93317989  0.63560215  0.27083715  1
  O  O9  1  0.15070542  0.41726638  0.77350379  1
  O  O10  1  0.67262418  0.30822930  0.56468690  1
  O  O11  1  0.25221205  0.09398151  0.93803796  1
  O  O12  1  0.59074487  0.16924433  0.86176349  1
  O  O13  1  0.82201784  0.76209561  0.67294365  1
  O  O14  1  0.32854889  0.67152735  0.42008514  1
  O  O15  1  0.75080908  0.90229336  0.06592652  1
  O  O16  1  0.40567818  0.81667734  0.13935337  1
  O  O17  1  0.18369506  0.25053337  0.33349044  1
