# generated using pymatgen
data_H9BrO4
_symmetry_space_group_name_H-M   'P 1'
_cell_length_a   7.02225228
_cell_length_b   11.54712180
_cell_length_c   7.61045052
_cell_angle_alpha   89.11835341
_cell_angle_beta   112.53630740
_cell_angle_gamma   90.39816897
_symmetry_Int_Tables_number   1
_chemical_formula_structural   H9BrO4
_chemical_formula_sum   'H36 Br4 O16'
_cell_volume   569.91500468
_cell_formula_units_Z   4
loop_
 _symmetry_equiv_pos_site_id
 _symmetry_equiv_pos_as_xyz
  1  'x, y, z'
loop_
 _atom_site_type_symbol
 _atom_site_label
 _atom_site_symmetry_multiplicity
 _atom_site_fract_x
 _atom_site_fract_y
 _atom_site_fract_z
 _atom_site_occupancy
  H  H0  1  0.15535021  0.25571622  0.00633634  1
  H  H1  1  0.34863379  0.32142361  0.98841999  1
  H  H2  1  0.63873236  0.83096370  0.99266179  1
  H  H3  1  0.84989079  0.76489541  0.97614419  1
  H  H4  1  0.79341389  0.74616429  0.17096655  1
  H  H5  1  0.97218718  0.18008252  0.16013222  1
  H  H6  1  0.83415021  0.25837875  0.98215889  1
  H  H7  1  0.00641317  0.68975372  0.84256257  1
  H  H8  1  0.02809138  0.83209466  0.85582323  1
  H  H9  1  0.54079566  0.18730310  0.80558830  1
  H  H10  1  0.62892049  0.25063246  0.66993762  1
  H  H11  1  0.45669496  0.67657020  0.23291483  1
  H  H12  1  0.28055796  0.76376141  0.13397113  1
  H  H13  1  0.63278783  0.30790033  0.35514448  1
  H  H14  1  0.83056349  0.23268097  0.48462397  1
  H  H15  1  0.35170937  0.78429567  0.50636983  1
  H  H16  1  0.12155767  0.73319949  0.49931653  1
  H  H17  1  0.36472139  0.66213385  0.62657121  1
  H  H18  1  0.12850688  0.15634166  0.54837047  1
  H  H19  1  0.15524069  0.24052975  0.72998612  1
  H  H20  1  0.87652691  0.64797420  0.44079950  1
  H  H21  1  0.84107707  0.78621221  0.45878230  1
  H  H22  1  0.35220055  0.44198198  0.56023717  1
  H  H23  1  0.19189435  0.32613274  0.50768759  1
  H  H24  1  0.16937345  0.43576402  0.33798854  1
  H  H25  1  0.62621040  0.90433579  0.42920491  1
  H  H26  1  0.80663610  0.92909710  0.62782685  1
  H  H27  1  0.63054877  0.54349687  0.70256108  1
  H  H28  1  0.50333440  0.53332995  0.83585415  1
  H  H29  1  0.57658895  0.13735366  0.33984611  1
  H  H30  1  0.35931908  0.04459304  0.28974245  1
  H  H31  1  0.48967470  0.04002691  0.14578880  1
  H  H32  1  0.04365495  0.50151972  0.06862097  1
  H  H33  1  0.89519300  0.49394072  0.17939477  1
  H  H34  1  0.96212186  0.02908856  0.92754413  1
  H  H35  1  0.12677358  0.01596315  0.83457122  1
  Br  Br36  1  0.94597212  0.51986675  0.71180784  1
  Br  Br37  1  0.08511471  0.00536982  0.31883502  1
  Br  Br38  1  0.56427396  0.48032038  0.15929508  1
  Br  Br39  1  0.47578573  0.98745422  0.88114244  1
  O  O40  1  0.26132950  0.25143082  0.94710812  1
  O  O41  1  0.72791865  0.75834878  0.02742482  1
  O  O42  1  0.97101411  0.25329170  0.09128747  1
  O  O43  1  0.02534302  0.75962920  0.92566286  1
  O  O44  1  0.60650383  0.25987709  0.78872026  1
  O  O45  1  0.40795393  0.75473608  0.24716642  1
  O  O46  1  0.67424797  0.23504649  0.43142741  1
  O  O47  1  0.28834331  0.74084359  0.58257025  1
  O  O48  1  0.08729733  0.23183309  0.58299421  1
  O  O49  1  0.90998370  0.72541828  0.40095079  1
  O  O50  1  0.27069373  0.38632474  0.45717378  1
  O  O51  1  0.72865100  0.86638287  0.54101143  1
  O  O52  1  0.48687274  0.54958517  0.70188028  1
  O  O53  1  0.50268338  0.05336612  0.28307204  1
  O  O54  1  0.03891393  0.51355280  0.19511854  1
  O  O55  1  0.98231887  0.99903960  0.81613115  1
