# generated using pymatgen
data_Ba2(InP)5
_symmetry_space_group_name_H-M   'P 1'
_cell_length_a   4.23136095
_cell_length_b   17.49426301
_cell_length_c   17.71833272
_cell_angle_alpha   90.00000000
_cell_angle_beta   90.00000000
_cell_angle_gamma   90.00000000
_symmetry_Int_Tables_number   1
_chemical_formula_structural   Ba2(InP)5
_chemical_formula_sum   'Ba8 In20 P20'
_cell_volume   1311.59145308
_cell_formula_units_Z   4
loop_
 _symmetry_equiv_pos_site_id
 _symmetry_equiv_pos_as_xyz
  1  'x, y, z'
loop_
 _atom_site_type_symbol
 _atom_site_label
 _atom_site_symmetry_multiplicity
 _atom_site_fract_x
 _atom_site_fract_y
 _atom_site_fract_z
 _atom_site_occupancy
  Ba  Ba0  1  0.75000000  0.98034303  0.37904694  1
  Ba  Ba1  1  0.75000000  0.95758566  0.87038797  1
  Ba  Ba2  1  0.75000000  0.45758566  0.62961203  1
  Ba  Ba3  1  0.25000000  0.51965697  0.87904694  1
  Ba  Ba4  1  0.25000000  0.04241434  0.12961203  1
  Ba  Ba5  1  0.75000000  0.48034303  0.12095306  1
  Ba  Ba6  1  0.25000000  0.01965697  0.62095306  1
  Ba  Ba7  1  0.25000000  0.54241434  0.37038797  1
  In  In8  1  0.25000000  0.15664989  0.81020093  1
  In  In9  1  0.75000000  0.32862163  0.94100505  1
  In  In10  1  0.25000000  0.67137837  0.05899495  1
  In  In11  1  0.75000000  0.21054584  0.62609024  1
  In  In12  1  0.75000000  0.66931410  0.52744494  1
  In  In13  1  0.25000000  0.17137837  0.44100505  1
  In  In14  1  0.25000000  0.83068590  0.02744494  1
  In  In15  1  0.75000000  0.34335011  0.31020093  1
  In  In16  1  0.25000000  0.28945416  0.12609024  1
  In  In17  1  0.75000000  0.16931410  0.97255506  1
  In  In18  1  0.75000000  0.68616036  0.22354444  1
  In  In19  1  0.75000000  0.82862163  0.55899495  1
  In  In20  1  0.25000000  0.31383964  0.77645556  1
  In  In21  1  0.25000000  0.78945416  0.37390976  1
  In  In22  1  0.75000000  0.71054584  0.87390976  1
  In  In23  1  0.75000000  0.18616036  0.27645556  1
  In  In24  1  0.25000000  0.81383964  0.72354444  1
  In  In25  1  0.25000000  0.65664989  0.68979907  1
  In  In26  1  0.25000000  0.33068590  0.47255506  1
  In  In27  1  0.75000000  0.84335011  0.18979907  1
  P  P28  1  0.25000000  0.30257058  0.62479723  1
  P  P29  1  0.25000000  0.89207772  0.26492289  1
  P  P30  1  0.25000000  0.58308238  0.55872457  1
  P  P31  1  0.75000000  0.60792228  0.76492289  1
  P  P32  1  0.75000000  0.11518413  0.51161373  1
  P  P33  1  0.75000000  0.89623938  0.69140362  1
  P  P34  1  0.75000000  0.39623938  0.80859638  1
  P  P35  1  0.75000000  0.41691762  0.44127543  1
  P  P36  1  0.25000000  0.08308238  0.94127543  1
  P  P37  1  0.25000000  0.39207772  0.23507711  1
  P  P38  1  0.75000000  0.10792228  0.73507711  1
  P  P39  1  0.25000000  0.88481587  0.48838627  1
  P  P40  1  0.75000000  0.91691762  0.05872457  1
  P  P41  1  0.75000000  0.69742942  0.37520277  1
  P  P42  1  0.25000000  0.38481587  0.01161373  1
  P  P43  1  0.25000000  0.60376062  0.19140362  1
  P  P44  1  0.75000000  0.61518413  0.98838627  1
  P  P45  1  0.75000000  0.19742942  0.12479723  1
  P  P46  1  0.25000000  0.80257058  0.87520277  1
  P  P47  1  0.25000000  0.10376062  0.30859638  1
