# generated using pymatgen
data_Ca(H8O5)2
_symmetry_space_group_name_H-M   'P 1'
_cell_length_a   6.26318931
_cell_length_b   6.26432370
_cell_length_c   10.79101578
_cell_angle_alpha   89.90057333
_cell_angle_beta   90.30887296
_cell_angle_gamma   90.28114647
_symmetry_Int_Tables_number   1
_chemical_formula_structural   Ca(H8O5)2
_chemical_formula_sum   'Ca2 H32 O20'
_cell_volume   423.36980860
_cell_formula_units_Z   2
loop_
 _symmetry_equiv_pos_site_id
 _symmetry_equiv_pos_as_xyz
  1  'x, y, z'
loop_
 _atom_site_type_symbol
 _atom_site_label
 _atom_site_symmetry_multiplicity
 _atom_site_fract_x
 _atom_site_fract_y
 _atom_site_fract_z
 _atom_site_occupancy
  Ca  Ca0  1  0.98871232  0.00637728  0.23837622  1
  Ca  Ca1  1  0.98906605  0.00951364  0.74043398  1
  H  H2  1  0.26276031  0.34219873  0.36030516  1
  H  H3  1  0.03154074  0.43441355  0.36963654  1
  H  H4  1  0.75176972  0.61392347  0.34597804  1
  H  H5  1  0.88057058  0.69280838  0.46322717  1
  H  H6  1  0.62735758  0.24024195  0.35467690  1
  H  H7  1  0.68414086  0.10614177  0.49054411  1
  H  H8  1  0.29416998  0.86993914  0.45693382  1
  H  H9  1  0.46124348  0.96022634  0.36168771  1
  H  H10  1  0.75514481  0.36721614  0.85668448  1
  H  H11  1  0.89038470  0.31217822  0.99337809  1
  H  H12  1  0.13099760  0.69969412  0.95765418  1
  H  H13  1  0.03660110  0.53412339  0.86241822  1
  H  H14  1  0.38598281  0.25173507  0.84454988  1
  H  H15  1  0.31040550  0.12439846  0.96331141  1
  H  H16  1  0.56122246  0.96845829  0.86585217  1
  H  H17  1  0.64366364  0.73421537  0.84915660  1
  H  H18  1  0.95519143  0.55091674  0.63325322  1
  H  H19  1  0.71458492  0.62826570  0.63775285  1
  H  H20  1  0.26076189  0.39325837  0.64314117  1
  H  H21  1  0.10665367  0.29804046  0.53913454  1
  H  H22  1  0.44525584  0.98567026  0.61552172  1
  H  H23  1  0.36344144  0.74876406  0.63568004  1
  H  H24  1  0.62618131  0.25607080  0.62675948  1
  H  H25  1  0.01781838  0.55091808  0.11627747  1
  H  H26  1  0.25478373  0.63172160  0.13776472  1
  H  H27  1  0.74489836  0.37225831  0.13067822  1
  H  H28  1  0.60815509  0.72887525  0.14114404  1
  H  H29  1  0.69841272  0.87624322  0.03210658  1
  H  H30  1  0.37532701  0.27896618  0.14180225  1
  H  H31  1  0.44993890  0.03749080  0.13085091  1
  H  H32  1  0.41568085  0.65196512  0.33475608  1
  H  H33  1  0.34376855  0.58374632  0.83147549  1
  O  O34  1  0.11460891  0.29819262  0.38005526  1
  O  O35  1  0.89480147  0.66868631  0.37150408  1
  O  O36  1  0.67688979  0.09738831  0.37831199  1
  O  O37  1  0.32422873  0.86841872  0.36511266  1
  O  O38  1  0.89721250  0.31732426  0.88109986  1
  O  O39  1  0.12873739  0.67070094  0.86547734  1
  O  O40  1  0.33139720  0.10967799  0.87136508  1
  O  O41  1  0.69393844  0.87885404  0.87354248  1
  O  O42  1  0.86503683  0.68163383  0.62181930  1
  O  O43  1  0.11224971  0.32902327  0.62955669  1
  O  O44  1  0.30844186  0.89452082  0.61228722  1
  O  O45  1  0.67649335  0.11121449  0.60673997  1
  O  O46  1  0.11003378  0.68677717  0.11212338  1
  O  O47  1  0.88892673  0.32122281  0.10942361  1
  O  O48  1  0.67244147  0.87552424  0.12332148  1
  O  O49  1  0.32047397  0.12983287  0.12207718  1
  O  O50  1  0.49316352  0.50969710  0.31245944  1
  O  O51  1  0.48709547  0.50894024  0.80738511  1
  O  O52  1  0.48131039  0.51654569  0.66980568  1
  O  O53  1  0.48416515  0.51039471  0.17485973  1
