# generated using pymatgen
data_VAgTeO5
_symmetry_space_group_name_H-M   'P 1'
_cell_length_a   5.94779252
_cell_length_b   6.90056374
_cell_length_c   11.54341657
_cell_angle_alpha   90.00000000
_cell_angle_beta   90.00000000
_cell_angle_gamma   102.69380909
_symmetry_Int_Tables_number   1
_chemical_formula_structural   VAgTeO5
_chemical_formula_sum   'V4 Ag4 Te4 O20'
_cell_volume   462.19790830
_cell_formula_units_Z   4
loop_
 _symmetry_equiv_pos_site_id
 _symmetry_equiv_pos_as_xyz
  1  'x, y, z'
loop_
 _atom_site_type_symbol
 _atom_site_label
 _atom_site_symmetry_multiplicity
 _atom_site_fract_x
 _atom_site_fract_y
 _atom_site_fract_z
 _atom_site_occupancy
  V  V0  1  0.67929697  0.41175467  0.12069510  1
  V  V1  1  0.32070303  0.58824533  0.87930490  1
  V  V2  1  0.67929697  0.91175467  0.37930490  1
  V  V3  1  0.32070303  0.08824533  0.62069510  1
  Ag  Ag4  1  0.80177096  0.30950600  0.79149845  1
  Ag  Ag5  1  0.80177096  0.80950600  0.70850155  1
  Ag  Ag6  1  0.19822904  0.69049400  0.20850155  1
  Ag  Ag7  1  0.19822904  0.19049400  0.29149845  1
  Te  Te8  1  0.24051295  0.09721502  0.93945746  1
  Te  Te9  1  0.75948705  0.40278498  0.43945746  1
  Te  Te10  1  0.24051295  0.59721502  0.56054254  1
  Te  Te11  1  0.75948705  0.90278498  0.06054254  1
  O  O12  1  0.87630138  0.98730332  0.90790717  1
  O  O13  1  0.46860309  0.96802375  0.29726351  1
  O  O14  1  0.86406511  0.32545524  0.20763844  1
  O  O15  1  0.13593489  0.67454476  0.79236156  1
  O  O16  1  0.56147921  0.72005094  0.48378711  1
  O  O17  1  0.16534124  0.85827985  0.54759084  1
  O  O18  1  0.13593489  0.17454476  0.70763844  1
  O  O19  1  0.83465876  0.14172015  0.45240916  1
  O  O20  1  0.87630138  0.48730332  0.59209283  1
  O  O21  1  0.46860309  0.46802375  0.20273649  1
  O  O22  1  0.53139691  0.03197625  0.70273649  1
  O  O23  1  0.53139691  0.53197625  0.79726351  1
  O  O24  1  0.56147921  0.22005094  0.01621289  1
  O  O25  1  0.43852079  0.27994906  0.51621289  1
  O  O26  1  0.12369862  0.01269668  0.09209283  1
  O  O27  1  0.12369862  0.51269668  0.40790717  1
  O  O28  1  0.16534124  0.35827985  0.95240916  1
  O  O29  1  0.86406511  0.82545524  0.29236156  1
  O  O30  1  0.83465876  0.64172015  0.04759084  1
  O  O31  1  0.43852079  0.77994906  0.98378711  1
