# generated using pymatgen
data_Al(HO)3
_symmetry_space_group_name_H-M   'P 1'
_cell_length_a   6.75343153
_cell_length_b   7.53894805
_cell_length_c   8.14389436
_cell_angle_alpha   112.51635629
_cell_angle_beta   140.74565152
_cell_angle_gamma   88.08121138
_symmetry_Int_Tables_number   1
_chemical_formula_structural   Al(HO)3
_chemical_formula_sum   'Al4 H12 O12'
_cell_volume   216.43794004
_cell_formula_units_Z   4
loop_
 _symmetry_equiv_pos_site_id
 _symmetry_equiv_pos_as_xyz
  1  'x, y, z'
loop_
 _atom_site_type_symbol
 _atom_site_label
 _atom_site_symmetry_multiplicity
 _atom_site_fract_x
 _atom_site_fract_y
 _atom_site_fract_z
 _atom_site_occupancy
  Al  Al0  1  0.46229351  0.83476428  0.29552503  1
  Al  Al1  1  0.50481447  0.16916535  0.67752283  1
  Al  Al2  1  0.98060499  0.67203391  0.64939108  1
  Al  Al3  1  0.98530300  0.33076100  0.32273036  1
  H  H4  1  0.04415018  0.04895676  0.85681747  1
  H  H5  1  0.92236398  0.95120920  0.11762779  1
  H  H6  1  0.55679072  0.53373421  0.88355844  1
  H  H7  1  0.40237208  0.46840456  0.08535229  1
  H  H8  1  0.11537254  0.71116217  0.43501523  1
  H  H9  1  0.82397834  0.28975710  0.51641768  1
  H  H10  1  0.36166884  0.16650137  0.30151143  1
  H  H11  1  0.57964608  0.82895347  0.65794096  1
  H  H12  1  0.65757209  0.90803929  0.15174171  1
  H  H13  1  0.30900986  0.09722445  0.82153963  1
  H  H14  1  0.16723419  0.40122600  0.15530639  1
  H  H15  1  0.80325201  0.60092423  0.81905336  1
  O  O16  1  0.96593496  0.93946401  0.68184306  1
  O  O17  1  0.00047641  0.06400591  0.29128358  1
  O  O18  1  0.49504693  0.43622674  0.71531915  1
  O  O19  1  0.47071573  0.56709633  0.25775688  1
  O  O20  1  0.03058031  0.61210319  0.43912984  1
  O  O21  1  0.93749717  0.39114179  0.53512565  1
  O  O22  1  0.53912531  0.13127616  0.45179941  1
  O  O23  1  0.42003726  0.87253843  0.51433824  1
  O  O24  1  0.46364096  0.80621510  0.06029698  1
  O  O25  1  0.50460175  0.19670246  0.91300523  1
  O  O26  1  0.00241445  0.28458578  0.08104413  1
  O  O27  1  0.96541289  0.71784775  0.89156218  1
