# generated using pymatgen
data_Te3Au2
_symmetry_space_group_name_H-M   'P 1'
_cell_length_a   10.78371319
_cell_length_b   12.26366290
_cell_length_c   13.59401047
_cell_angle_alpha   109.47229349
_cell_angle_beta   104.25164408
_cell_angle_gamma   96.61139773
_symmetry_Int_Tables_number   1
_chemical_formula_structural   Te3Au2
_chemical_formula_sum   'Te36 Au24'
_cell_volume   1604.07665645
_cell_formula_units_Z   12
loop_
 _symmetry_equiv_pos_site_id
 _symmetry_equiv_pos_as_xyz
  1  'x, y, z'
loop_
 _atom_site_type_symbol
 _atom_site_label
 _atom_site_symmetry_multiplicity
 _atom_site_fract_x
 _atom_site_fract_y
 _atom_site_fract_z
 _atom_site_occupancy
  Te  Te0  1  0.24383080  0.18594284  0.11468845  1
  Te  Te1  1  0.11599960  0.22643720  0.40372172  1
  Te  Te2  1  0.08112039  0.08090608  0.57984462  1
  Te  Te3  1  0.47294708  0.40491573  0.28493223  1
  Te  Te4  1  0.49570124  0.24613964  0.45283757  1
  Te  Te5  1  0.27165129  0.63657682  0.23534460  1
  Te  Te6  1  0.24319271  0.51248943  0.39254401  1
  Te  Te7  1  0.37087467  0.31154096  0.73344887  1
  Te  Te8  1  0.03156536  0.75755520  0.32286243  1
  Te  Te9  1  0.13132206  0.56914475  0.66740160  1
  Te  Te10  1  0.15869160  0.40760249  0.83366717  1
  Te  Te11  1  0.41005026  0.94505491  0.22170567  1
  Te  Te12  1  0.31566409  0.97097098  0.48350103  1
  Te  Te13  1  0.29579582  0.85281404  0.63479981  1
  Te  Te14  1  0.40178263  0.64453345  0.00142095  1
  Te  Te15  1  0.20747178  0.88872000  0.89879861  1
  Te  Te16  1  0.00197572  0.58988692  0.92779370  1
  Te  Te17  1  0.56272030  0.91664864  0.95408146  1
  Te  Te18  1  0.80597094  0.81602270  0.85220418  1
  Te  Te19  1  0.90915927  0.76308982  0.58913682  1
  Te  Te20  1  0.50180030  0.59300825  0.70854372  1
  Te  Te21  1  0.53766453  0.72965882  0.53751303  1
  Te  Te22  1  0.74254531  0.32586394  0.76308929  1
  Te  Te23  1  0.71819377  0.46580725  0.59824547  1
  Te  Te24  1  0.66789974  0.72654998  0.28678601  1
  Te  Te25  1  0.95493818  0.09380381  0.80713760  1
  Te  Te26  1  0.88981242  0.32631433  0.51684536  1
  Te  Te27  1  0.85934781  0.48228091  0.34442364  1
  Te  Te28  1  0.78468460  0.67726490  0.01354116  1
  Te  Te29  1  0.56845381  0.07105467  0.79544857  1
  Te  Te30  1  0.69646263  0.01016490  0.51088208  1
  Te  Te31  1  0.63368321  0.24245248  0.19012741  1
  Te  Te32  1  0.60167405  0.40331792  0.03568304  1
  Te  Te33  1  0.83164231  0.99960306  0.25228877  1
  Te  Te34  1  0.84890818  0.13906867  0.09743320  1
  Te  Te35  1  0.99409657  0.41220858  0.07924404  1
  Au  Au36  1  0.41855092  0.06808858  0.03837252  1
  Au  Au37  1  0.25481426  0.07703570  0.30759930  1
  Au  Au38  1  0.04432645  0.32367929  0.24651692  1
  Au  Au39  1  0.42638547  0.50886013  0.13207738  1
  Au  Au40  1  0.20758049  0.76419974  0.07639858  1
  Au  Au41  1  0.30824439  0.40765957  0.55941211  1
  Au  Au42  1  0.37792902  0.18575635  0.88126358  1
  Au  Au43  1  0.03859761  0.88233332  0.17987898  1
  Au  Au44  1  0.08937291  0.65251207  0.49140225  1
  Au  Au45  1  0.19781109  0.30172925  0.97819915  1
  Au  Au46  1  0.47231951  0.83133363  0.37697021  1
  Au  Au47  1  0.35341001  0.74017195  0.80463421  1
  Au  Au48  1  0.14665299  0.98677003  0.73911140  1
  Au  Au49  1  0.73551268  0.91340669  0.68720883  1
  Au  Au50  1  0.95035243  0.67148049  0.75560581  1
  Au  Au51  1  0.88359956  0.89908937  0.42843249  1
  Au  Au52  1  0.57249710  0.49835825  0.87064680  1
  Au  Au53  1  0.78303610  0.24032407  0.93620256  1
  Au  Au54  1  0.68487241  0.58558999  0.43965542  1
  Au  Au55  1  0.62105190  0.82143898  0.11943414  1
  Au  Au56  1  0.92867955  0.22601189  0.67592930  1
  Au  Au57  1  0.82974606  0.57201589  0.17646397  1
  Au  Au58  1  0.52292314  0.15749351  0.62227680  1
  Au  Au59  1  0.67543992  0.13925121  0.35633942  1
