# generated using pymatgen
data_BaH4O3
_symmetry_space_group_name_H-M   'P 1'
_cell_length_a   3.98903036
_cell_length_b   6.38820043
_cell_length_c   7.00694638
_cell_angle_alpha   90.00000000
_cell_angle_beta   90.00000000
_cell_angle_gamma   89.19940428
_symmetry_Int_Tables_number   1
_chemical_formula_structural   BaH4O3
_chemical_formula_sum   'Ba2 H8 O6'
_cell_volume   178.53866029
_cell_formula_units_Z   2
loop_
 _symmetry_equiv_pos_site_id
 _symmetry_equiv_pos_as_xyz
  1  'x, y, z'
loop_
 _atom_site_type_symbol
 _atom_site_label
 _atom_site_symmetry_multiplicity
 _atom_site_fract_x
 _atom_site_fract_y
 _atom_site_fract_z
 _atom_site_occupancy
  Ba  Ba0  1  0.00422611  0.65577664  0.75924541  1
  Ba  Ba1  1  0.99577389  0.34422336  0.25924541  1
  H  H2  1  0.19556715  0.12731987  0.80238549  1
  H  H3  1  0.79350002  0.12736064  0.80120009  1
  H  H4  1  0.80443285  0.87268013  0.30238549  1
  H  H5  1  0.20649998  0.87263936  0.30120009  1
  H  H6  1  0.49668736  0.00924197  0.59241434  1
  H  H7  1  0.50331264  0.99075803  0.09241434  1
  H  H8  1  0.48006202  0.60424693  0.44812922  1
  H  H9  1  0.51993798  0.39575307  0.94812922  1
  O  O10  1  0.99163359  0.20938062  0.85192907  1
  O  O11  1  0.00836641  0.79061938  0.35192907  1
  O  O12  1  0.49834922  0.96869651  0.72760066  1
  O  O13  1  0.50165078  0.03130349  0.22760066  1
  O  O14  1  0.49472002  0.47351993  0.52046372  1
  O  O15  1  0.50527998  0.52648007  0.02046372  1
