# generated using pymatgen
data_K(MoO2)4
_symmetry_space_group_name_H-M   'P 1'
_cell_length_a   6.51987155
_cell_length_b   10.48521987
_cell_length_c   10.49018130
_cell_angle_alpha   89.98385409
_cell_angle_beta   90.00000000
_cell_angle_gamma   90.00000000
_symmetry_Int_Tables_number   1
_chemical_formula_structural   K(MoO2)4
_chemical_formula_sum   'K4 Mo16 O32'
_cell_volume   717.13275359
_cell_formula_units_Z   4
loop_
 _symmetry_equiv_pos_site_id
 _symmetry_equiv_pos_as_xyz
  1  'x, y, z'
loop_
 _atom_site_type_symbol
 _atom_site_label
 _atom_site_symmetry_multiplicity
 _atom_site_fract_x
 _atom_site_fract_y
 _atom_site_fract_z
 _atom_site_occupancy
  K  K0  1  0.86303257  0.25000000  0.25000000  1
  K  K1  1  0.13696743  0.75000000  0.75000000  1
  K  K2  1  0.36814867  0.25000000  0.25000000  1
  K  K3  1  0.63185133  0.75000000  0.75000000  1
  Mo  Mo4  1  0.37830561  0.91899585  0.40333999  1
  Mo  Mo5  1  0.37830561  0.58100415  0.09666001  1
  Mo  Mo6  1  0.62169439  0.08100415  0.59666001  1
  Mo  Mo7  1  0.62169439  0.41899585  0.90333999  1
  Mo  Mo8  1  0.12574200  0.08397358  0.60252044  1
  Mo  Mo9  1  0.12574200  0.41602642  0.89747956  1
  Mo  Mo10  1  0.87425800  0.91602642  0.39747956  1
  Mo  Mo11  1  0.87425800  0.58397358  0.10252044  1
  Mo  Mo12  1  0.62084706  0.59601619  0.41924984  1
  Mo  Mo13  1  0.62084706  0.90398381  0.08075016  1
  Mo  Mo14  1  0.37915294  0.40398381  0.58075016  1
  Mo  Mo15  1  0.37915294  0.09601619  0.91924984  1
  Mo  Mo16  1  0.12509689  0.60247724  0.41596224  1
  Mo  Mo17  1  0.12509689  0.89752276  0.08403776  1
  Mo  Mo18  1  0.87490311  0.39752276  0.58403776  1
  Mo  Mo19  1  0.87490311  0.10247724  0.91596224  1
  O  O20  1  0.12822078  0.79319001  0.41312723  1
  O  O21  1  0.12822078  0.70680999  0.08687277  1
  O  O22  1  0.87177922  0.20680999  0.58687277  1
  O  O23  1  0.87177922  0.29319001  0.91312723  1
  O  O24  1  0.36357613  0.20673109  0.58761078  1
  O  O25  1  0.36357613  0.29326891  0.91238922  1
  O  O26  1  0.63642387  0.79326891  0.41238922  1
  O  O27  1  0.63642387  0.70673109  0.08761078  1
  O  O28  1  0.12148238  0.04824581  0.40664707  1
  O  O29  1  0.12148238  0.45175519  0.09335293  1
  O  O30  1  0.87851762  0.95175519  0.59335293  1
  O  O31  1  0.87851762  0.54824481  0.90664707  1
  O  O32  1  0.37408822  0.94793529  0.60401001  1
  O  O33  1  0.37408822  0.55206471  0.89598999  1
  O  O34  1  0.62591178  0.05206471  0.39598999  1
  O  O35  1  0.62591178  0.44793529  0.10401001  1
  O  O36  1  0.12842051  0.08623887  0.79321117  1
  O  O37  1  0.12842051  0.41376113  0.70678883  1
  O  O38  1  0.87157949  0.91376113  0.20678883  1
  O  O39  1  0.87157949  0.58623887  0.29321117  1
  O  O40  1  0.62672729  0.10460281  0.05192847  1
  O  O41  1  0.62672729  0.39539719  0.44807153  1
  O  O42  1  0.37327271  0.89539719  0.94807153  1
  O  O43  1  0.37327271  0.60460281  0.55192847  1
  O  O44  1  0.12185343  0.09339548  0.04808890  1
  O  O45  1  0.12185343  0.40660452  0.45191110  1
  O  O46  1  0.87814657  0.90660452  0.95191110  1
  O  O47  1  0.87814657  0.59339548  0.54808890  1
  O  O48  1  0.63620267  0.08716921  0.79315664  1
  O  O49  1  0.63620267  0.41283079  0.70684336  1
  O  O50  1  0.36379733  0.91283079  0.20684336  1
  O  O51  1  0.36379733  0.58716921  0.29315664  1
