# generated using pymatgen
data_Tl3SiF7
_symmetry_space_group_name_H-M   'P 1'
_cell_length_a   8.22734845
_cell_length_b   8.31852760
_cell_length_c   6.93221261
_cell_angle_alpha   90.91417042
_cell_angle_beta   89.80774205
_cell_angle_gamma   120.87454703
_symmetry_Int_Tables_number   1
_chemical_formula_structural   Tl3SiF7
_chemical_formula_sum   'Tl6 Si2 F14'
_cell_volume   407.14734783
_cell_formula_units_Z   2
loop_
 _symmetry_equiv_pos_site_id
 _symmetry_equiv_pos_as_xyz
  1  'x, y, z'
loop_
 _atom_site_type_symbol
 _atom_site_label
 _atom_site_symmetry_multiplicity
 _atom_site_fract_x
 _atom_site_fract_y
 _atom_site_fract_z
 _atom_site_occupancy
  Tl  Tl0  1  0.14001692  0.83304395  0.23398706  1
  Tl  Tl1  1  0.16651345  0.35487351  0.24883402  1
  Tl  Tl2  1  0.33669981  0.16625442  0.73767471  1
  Tl  Tl3  1  0.68952608  0.85828353  0.24677918  1
  Tl  Tl4  1  0.83968569  0.68926017  0.74014690  1
  Tl  Tl5  1  0.84121689  0.15659535  0.74927343  1
  Si  Si6  1  0.29207088  0.64580403  0.75698893  1
  Si  Si7  1  0.62578523  0.28613414  0.25348199  1
  F  F8  1  0.99889463  0.97186210  0.49926393  1
  F  F9  1  0.30521867  0.84304482  0.85369277  1
  F  F10  1  0.26319833  0.44046724  0.66001105  1
  F  F11  1  0.97748360  0.02124699  0.00157490  1
  F  F12  1  0.47842449  0.77420650  0.60779767  1
  F  F13  1  0.44604802  0.65293047  0.92803252  1
  F  F14  1  0.42088519  0.25606684  0.14982196  1
  F  F15  1  0.48439698  0.08837362  0.38998457  1
  F  F16  1  0.75966570  0.47997499  0.12159792  1
  F  F17  1  0.61372700  0.42225265  0.43564489  1
  F  F18  1  0.63289755  0.14398150  0.07442656  1
  F  F19  1  0.82068417  0.29862791  0.35758404  1
  F  F20  1  0.10472677  0.51294731  0.91013574  1
  F  F21  1  0.13423495  0.63576695  0.58626425  1
