# generated using pymatgen
data_Ca2(Fe2O3)11
_symmetry_space_group_name_H-M   'P 1'
_cell_length_a   21.27992249
_cell_length_b   21.27992237
_cell_length_c   21.27992212
_cell_angle_alpha   16.22030298
_cell_angle_beta   16.22030406
_cell_angle_gamma   16.22030385
_symmetry_Int_Tables_number   1
_chemical_formula_structural   Ca2(Fe2O3)11
_chemical_formula_sum   'Ca2 Fe22 O33'
_cell_volume   655.49705635
_cell_formula_units_Z   1
loop_
 _symmetry_equiv_pos_site_id
 _symmetry_equiv_pos_as_xyz
  1  'x, y, z'
loop_
 _atom_site_type_symbol
 _atom_site_label
 _atom_site_symmetry_multiplicity
 _atom_site_fract_x
 _atom_site_fract_y
 _atom_site_fract_z
 _atom_site_occupancy
  Ca  Ca0  1  0.95135166  0.95135166  0.95135166  1
  Ca  Ca1  1  0.04864834  0.04864834  0.04864834  1
  Fe  Fe2  1  0.50000000  0.00032823  0.99967177  1
  Fe  Fe3  1  0.90939694  0.42367800  0.40621941  1
  Fe  Fe4  1  0.20586941  0.20586941  0.20586941  1
  Fe  Fe5  1  0.79413059  0.79413059  0.79413059  1
  Fe  Fe6  1  0.59378059  0.57632200  0.09060306  1
  Fe  Fe7  1  0.00032823  0.99967177  0.50000000  1
  Fe  Fe8  1  0.11727223  0.11727223  0.11727223  1
  Fe  Fe9  1  0.53013836  0.53013836  0.53013836  1
  Fe  Fe10  1  0.57632200  0.09060306  0.59378059  1
  Fe  Fe11  1  0.33467694  0.00000000  0.66532306  1
  Fe  Fe12  1  0.46986164  0.46986164  0.46986164  1
  Fe  Fe13  1  0.38026304  0.38026304  0.38026304  1
  Fe  Fe14  1  0.66532306  0.33467694  1.00000000  1
  Fe  Fe15  1  0.61973696  0.61973696  0.61973696  1
  Fe  Fe16  1  0.70361288  0.70361288  0.70361288  1
  Fe  Fe17  1  0.40621941  0.90939694  0.42367800  1
  Fe  Fe18  1  0.00000000  0.66532306  0.33467694  1
  Fe  Fe19  1  0.29638712  0.29638712  0.29638712  1
  Fe  Fe20  1  0.88272777  0.88272777  0.88272777  1
  Fe  Fe21  1  0.42367800  0.40621941  0.90939694  1
  Fe  Fe22  1  0.99967177  0.50000000  0.00032823  1
  Fe  Fe23  1  0.09060306  0.59378059  0.57632200  1
  O  O24  1  0.85348002  0.85348002  0.85348002  1
  O  O25  1  0.33012458  0.33012458  0.33012458  1
  O  O26  1  0.24012781  0.26683169  0.70116423  1
  O  O27  1  0.14651998  0.14651998  0.14651998  1
  O  O28  1  0.12884959  0.65394094  0.65461500  1
  O  O29  1  0.59332404  0.35457102  0.95583209  1
  O  O30  1  0.65461500  0.12884959  0.65394094  1
  O  O31  1  0.75987219  0.29883577  0.73316831  1
  O  O32  1  0.35457102  0.95583209  0.59332404  1
  O  O33  1  0.04416791  0.64542898  0.40667596  1
  O  O34  1  0.53683328  0.07069125  0.07334846  1
  O  O35  1  0.92930875  0.46316672  0.92665155  1
  O  O36  1  0.64542898  0.40667596  0.04416791  1
  O  O37  1  0.07334845  0.53683328  0.07069125  1
  O  O38  1  0.46316672  0.92665155  0.92930875  1
  O  O39  1  0.26683169  0.70116423  0.24012781  1
  O  O40  1  0.73316831  0.75987219  0.29883577  1
  O  O41  1  0.92665155  0.92930875  0.46316672  1
  O  O42  1  0.00000000  0.00000000  0.00000000  1
  O  O43  1  0.95583209  0.59332404  0.35457102  1
  O  O44  1  0.70116423  0.24012781  0.26683169  1
  O  O45  1  0.66987542  0.66987542  0.66987542  1
  O  O46  1  0.40667596  0.04416791  0.64542898  1
  O  O47  1  0.26380277  0.26380277  0.26380277  1
  O  O48  1  0.34538500  0.34605906  0.87115040  1
  O  O49  1  0.07069125  0.07334845  0.53683328  1
  O  O50  1  0.65394094  0.65461500  0.12884960  1
  O  O51  1  0.56080838  0.56080838  0.56080838  1
  O  O52  1  0.87115041  0.34538500  0.34605906  1
  O  O53  1  0.34605906  0.87115041  0.34538500  1
  O  O54  1  0.29883577  0.73316831  0.75987219  1
  O  O55  1  0.73619723  0.73619723  0.73619723  1
  O  O56  1  0.43919162  0.43919162  0.43919162  1
