# generated using pymatgen
data_GaFeO3
_symmetry_space_group_name_H-M   'P 1'
_cell_length_a   5.16703083
_cell_length_b   8.86343158
_cell_length_c   9.53587828
_cell_angle_alpha   90.00000000
_cell_angle_beta   90.00000000
_cell_angle_gamma   90.00000000
_symmetry_Int_Tables_number   1
_chemical_formula_structural   GaFeO3
_chemical_formula_sum   'Ga8 Fe8 O24'
_cell_volume   436.72057020
_cell_formula_units_Z   8
loop_
 _symmetry_equiv_pos_site_id
 _symmetry_equiv_pos_as_xyz
  1  'x, y, z'
loop_
 _atom_site_type_symbol
 _atom_site_label
 _atom_site_symmetry_multiplicity
 _atom_site_fract_x
 _atom_site_fract_y
 _atom_site_fract_z
 _atom_site_occupancy
  Ga  Ga0  1  0.82523695  0.84723989  0.50069871  1
  Ga  Ga1  1  0.18551952  0.83906148  0.80685761  1
  Ga  Ga2  1  0.32523695  0.65276011  0.50069871  1
  Ga  Ga3  1  0.31448048  0.33906148  0.30685761  1
  Ga  Ga4  1  0.81448048  0.16093852  0.30685761  1
  Ga  Ga5  1  0.67476305  0.34723989  0.00069871  1
  Ga  Ga6  1  0.17476305  0.15276011  0.00069871  1
  Ga  Ga7  1  0.68551952  0.66093852  0.80685761  1
  Fe  Fe8  1  0.32497209  0.96848605  0.29859831  1
  Fe  Fe9  1  0.19123809  0.15193079  0.58280873  1
  Fe  Fe10  1  0.69123809  0.34806921  0.58280873  1
  Fe  Fe11  1  0.80876191  0.84806921  0.08280873  1
  Fe  Fe12  1  0.82497209  0.53151395  0.29859831  1
  Fe  Fe13  1  0.17502791  0.46848605  0.79859831  1
  Fe  Fe14  1  0.67502791  0.03151395  0.79859831  1
  Fe  Fe15  1  0.30876191  0.65193079  0.08280873  1
  O  O16  1  0.51346247  0.16952453  0.94047907  1
  O  O17  1  0.15313839  0.16140844  0.19810544  1
  O  O18  1  0.52453950  0.82261955  0.92399454  1
  O  O19  1  0.48691278  0.51154168  0.93258322  1
  O  O20  1  0.51308722  0.48845832  0.43258322  1
  O  O21  1  0.65313839  0.33859156  0.19810544  1
  O  O22  1  0.15289846  0.83030263  0.17243443  1
  O  O23  1  0.84368087  0.50165805  0.70319993  1
  O  O24  1  0.34368087  0.99834195  0.70319993  1
  O  O25  1  0.15631913  0.49834195  0.20319993  1
  O  O26  1  0.34710154  0.33030263  0.67243443  1
  O  O27  1  0.34686161  0.66140844  0.69810544  1
  O  O28  1  0.65289846  0.66969737  0.17243443  1
  O  O29  1  0.98691278  0.98845832  0.93258322  1
  O  O30  1  0.84710154  0.16969737  0.67243443  1
  O  O31  1  0.48653753  0.83047547  0.44047907  1
  O  O32  1  0.47546050  0.17738045  0.42399454  1
  O  O33  1  0.84686161  0.83859156  0.69810544  1
  O  O34  1  0.65631913  0.00165805  0.20319993  1
  O  O35  1  0.97546050  0.32261955  0.42399454  1
  O  O36  1  0.01308722  0.01154168  0.43258322  1
  O  O37  1  0.98653753  0.66952453  0.44047907  1
  O  O38  1  0.01346247  0.33047547  0.94047907  1
  O  O39  1  0.02453950  0.67738045  0.92399454  1
