# generated using pymatgen
data_Ca4YFe5O13
_symmetry_space_group_name_H-M   'P 1'
_cell_length_a   5.58054636
_cell_length_b   5.60235242
_cell_length_c   37.43706380
_cell_angle_alpha   90.00000000
_cell_angle_beta   90.00000000
_cell_angle_gamma   90.00000000
_symmetry_Int_Tables_number   1
_chemical_formula_structural   Ca4YFe5O13
_chemical_formula_sum   'Ca16 Y4 Fe20 O52'
_cell_volume   1170.43937853
_cell_formula_units_Z   4
loop_
 _symmetry_equiv_pos_site_id
 _symmetry_equiv_pos_as_xyz
  1  'x, y, z'
loop_
 _atom_site_type_symbol
 _atom_site_label
 _atom_site_symmetry_multiplicity
 _atom_site_fract_x
 _atom_site_fract_y
 _atom_site_fract_z
 _atom_site_occupancy
  Ca  Ca0  1  0.47021129  0.01899971  0.04323458  1
  Ca  Ca1  1  0.53904907  0.97918848  0.84547372  1
  Ca  Ca2  1  0.02978871  0.51899971  0.95676542  1
  Ca  Ca3  1  0.96095093  0.47918848  0.15452628  1
  Ca  Ca4  1  0.96095093  0.47918848  0.34547372  1
  Ca  Ca5  1  0.03904907  0.52081152  0.65452628  1
  Ca  Ca6  1  0.02978871  0.51899971  0.54323458  1
  Ca  Ca7  1  0.97021129  0.48100029  0.04323458  1
  Ca  Ca8  1  0.52978871  0.98100029  0.54323458  1
  Ca  Ca9  1  0.53904907  0.97918848  0.65452628  1
  Ca  Ca10  1  0.03904907  0.52081152  0.84547372  1
  Ca  Ca11  1  0.97021129  0.48100029  0.45676542  1
  Ca  Ca12  1  0.52978871  0.98100029  0.95676542  1
  Ca  Ca13  1  0.46095093  0.02081152  0.34547372  1
  Ca  Ca14  1  0.47021129  0.01899971  0.45676542  1
  Ca  Ca15  1  0.46095093  0.02081152  0.15452628  1
  Y  Y16  1  0.06192317  0.47624339  0.25000000  1
  Y  Y17  1  0.43807683  0.97624339  0.75000000  1
  Y  Y18  1  0.93807683  0.52375661  0.75000000  1
  Y  Y19  1  0.56192317  0.02375661  0.25000000  1
  Fe  Fe20  1  0.50710992  0.51642573  0.30149615  1
  Fe  Fe21  1  0.99289008  0.01642573  0.69850385  1
  Fe  Fe22  1  0.45000658  0.56040096  0.40039289  1
  Fe  Fe23  1  0.50710992  0.51642573  0.19850385  1
  Fe  Fe24  1  0.54999342  0.43959904  0.59960711  1
  Fe  Fe25  1  0.99289008  0.01642573  0.80149615  1
  Fe  Fe26  1  0.50000000  0.50000000  0.00000000  1
  Fe  Fe27  1  0.00710992  0.98357427  0.19850385  1
  Fe  Fe28  1  0.54999342  0.43959904  0.90039289  1
  Fe  Fe29  1  0.49289008  0.48357427  0.80149615  1
  Fe  Fe30  1  0.00710992  0.98357427  0.30149615  1
  Fe  Fe31  1  0.00000000  0.00000000  0.00000000  1
  Fe  Fe32  1  0.45000658  0.56040096  0.09960711  1
  Fe  Fe33  1  0.04999342  0.06040096  0.90039289  1
  Fe  Fe34  1  0.95000658  0.93959904  0.09960711  1
  Fe  Fe35  1  0.00000000  0.00000000  0.50000000  1
  Fe  Fe36  1  0.50000000  0.50000000  0.50000000  1
  Fe  Fe37  1  0.95000658  0.93959904  0.40039289  1
  Fe  Fe38  1  0.49289008  0.48357427  0.69850385  1
  Fe  Fe39  1  0.04999342  0.06040096  0.59960711  1
  O  O40  1  0.78265432  0.29171499  0.68734614  1
  O  O41  1  0.71734568  0.79171499  0.31265386  1
  O  O42  1  0.95699788  0.91315374  0.64277557  1
  O  O43  1  0.28265432  0.20828501  0.81265386  1
  O  O44  1  0.20595214  0.71284592  0.78977183  1
  O  O45  1  0.29404786  0.21284592  0.28977183  1
  O  O46  1  0.45699788  0.58684626  0.64277557  1
  O  O47  1  0.03808405  0.12070288  0.75000000  1
  O  O48  1  0.03570041  0.08120612  0.05612169  1
  O  O49  1  0.79404786  0.28715408  0.21022817  1
  O  O50  1  0.03570041  0.08120612  0.44387831  1
  O  O51  1  0.72861775  0.77204275  0.49247597  1
  O  O52  1  0.54300212  0.41315374  0.14277557  1
  O  O53  1  0.54300212  0.41315374  0.35722443  1
  O  O54  1  0.96191595  0.87929712  0.25000000  1
  O  O55  1  0.45699788  0.58684626  0.85722443  1
  O  O56  1  0.46191595  0.62070288  0.25000000  1
  O  O57  1  0.78265432  0.29171499  0.81265386  1
  O  O58  1  0.71734568  0.79171499  0.18734614  1
  O  O59  1  0.46429959  0.58120612  0.55612169  1
  O  O60  1  0.95699788  0.91315374  0.85722443  1
  O  O61  1  0.29404786  0.21284592  0.21022817  1
  O  O62  1  0.22861775  0.72795725  0.49247597  1
  O  O63  1  0.79404786  0.28715408  0.28977183  1
  O  O64  1  0.60386661  0.87340302  0.40083972  1
  O  O65  1  0.77138225  0.27204275  0.50752403  1
  O  O66  1  0.53570041  0.41879388  0.05612169  1
  O  O67  1  0.60386661  0.87340302  0.09916028  1
  O  O68  1  0.10386661  0.62659698  0.09916028  1
  O  O69  1  0.70595214  0.78715408  0.71022817  1
  O  O70  1  0.96429959  0.91879388  0.94387831  1
  O  O71  1  0.53808405  0.37929712  0.75000000  1
  O  O72  1  0.77138225  0.27204275  0.99247597  1
  O  O73  1  0.46429959  0.58120612  0.94387831  1
  O  O74  1  0.72861775  0.77204275  0.00752403  1
  O  O75  1  0.89613339  0.37340302  0.90083972  1
  O  O76  1  0.21734568  0.70828501  0.31265386  1
  O  O77  1  0.22861775  0.72795725  0.00752403  1
  O  O78  1  0.89613339  0.37340302  0.59916028  1
  O  O79  1  0.10386661  0.62659698  0.40083972  1
  O  O80  1  0.28265432  0.20828501  0.68734614  1
  O  O81  1  0.04300212  0.08684626  0.14277557  1
  O  O82  1  0.70595214  0.78715408  0.78977183  1
  O  O83  1  0.04300212  0.08684626  0.35722443  1
  O  O84  1  0.53570041  0.41879388  0.44387831  1
  O  O85  1  0.96429959  0.91879388  0.55612169  1
  O  O86  1  0.27138225  0.22795725  0.99247597  1
  O  O87  1  0.39613339  0.12659698  0.90083972  1
  O  O88  1  0.39613339  0.12659698  0.59916028  1
  O  O89  1  0.20595214  0.71284592  0.71022817  1
  O  O90  1  0.21734568  0.70828501  0.18734614  1
  O  O91  1  0.27138225  0.22795725  0.50752403  1
