# generated using pymatgen
data_Ba2Ca2Tl2Cu3O10
_symmetry_space_group_name_H-M   'P 1'
_cell_length_a   3.89897222
_cell_length_b   3.88359683
_cell_length_c   18.76179850
_cell_angle_alpha   95.77023271
_cell_angle_beta   95.83643965
_cell_angle_gamma   89.93529610
_symmetry_Int_Tables_number   1
_chemical_formula_structural   Ba2Ca2Tl2Cu3O10
_chemical_formula_sum   'Ba2 Ca2 Tl2 Cu3 O10'
_cell_volume   281.17528677
_cell_formula_units_Z   1
loop_
 _symmetry_equiv_pos_site_id
 _symmetry_equiv_pos_as_xyz
  1  'x, y, z'
loop_
 _atom_site_type_symbol
 _atom_site_label
 _atom_site_symmetry_multiplicity
 _atom_site_fract_x
 _atom_site_fract_y
 _atom_site_fract_z
 _atom_site_occupancy
  Ba  Ba0  1  0.09777018  0.16909922  0.28163725  1
  Ba  Ba1  1  0.79483018  0.82546554  0.71728736  1
  Ca  Ca2  1  0.87377928  0.93032920  0.91017980  1
  Ca  Ca3  1  0.98536933  0.07034313  0.08843247  1
  Tl  Tl4  1  0.64614293  0.72327454  0.43726264  1
  Tl  Tl5  1  0.20438082  0.26952299  0.56197535  1
  Cu  Cu6  1  0.33954811  0.37947856  0.82748653  1
  Cu  Cu7  1  0.53507660  0.61849939  0.17131621  1
  Cu  Cu8  1  0.41981718  0.51286198  0.99993559  1
  O  O9  1  0.33815289  0.87665233  0.82253749  1
  O  O10  1  0.28618710  0.30607125  0.67313676  1
  O  O11  1  0.84108626  0.38289429  0.83034169  1
  O  O12  1  0.82661801  0.76543262  0.54910713  1
  O  O13  1  0.92214240  0.52350158  0.00658067  1
  O  O14  1  0.03800098  0.62189299  0.17679085  1
  O  O15  1  0.62787859  0.68649219  0.32618726  1
  O  O16  1  0.53121314  0.11715688  0.16788245  1
  O  O17  1  0.28075491  0.22868870  0.45035106  1
  O  O18  1  0.41234110  0.01030561  0.99253343  1
