# generated using pymatgen
data_Hf2Ni2Sn
_symmetry_space_group_name_H-M   'P 1'
_cell_length_a   3.38980072
_cell_length_b   7.06214523
_cell_length_c   7.06214523
_cell_angle_alpha   90.00000000
_cell_angle_beta   90.00000000
_cell_angle_gamma   90.00000000
_symmetry_Int_Tables_number   1
_chemical_formula_structural   Hf2Ni2Sn
_chemical_formula_sum   'Hf4 Ni4 Sn2'
_cell_volume   169.06256603
_cell_formula_units_Z   2
loop_
 _symmetry_equiv_pos_site_id
 _symmetry_equiv_pos_as_xyz
  1  'x, y, z'
loop_
 _atom_site_type_symbol
 _atom_site_label
 _atom_site_symmetry_multiplicity
 _atom_site_fract_x
 _atom_site_fract_y
 _atom_site_fract_z
 _atom_site_occupancy
  Hf  Hf0  1  0.50000000  0.16708858  0.66708858  1
  Hf  Hf1  1  0.50000000  0.83291142  0.33291142  1
  Hf  Hf2  1  0.50000000  0.66708858  0.83291142  1
  Hf  Hf3  1  0.50000000  0.33291142  0.16708858  1
  Ni  Ni4  1  0.00000000  0.87459599  0.62540401  1
  Ni  Ni5  1  0.00000000  0.62540401  0.12540401  1
  Ni  Ni6  1  0.00000000  0.37459599  0.87459599  1
  Ni  Ni7  1  0.00000000  0.12540401  0.37459599  1
  Sn  Sn8  1  0.00000000  0.50000000  0.50000000  1
  Sn  Sn9  1  0.00000000  0.00000000  0.00000000  1
