# generated using pymatgen
data_Ce2UTe4
_symmetry_space_group_name_H-M   'P 1'
_cell_length_a   8.20956560
_cell_length_b   8.20956550
_cell_length_c   8.20956545
_cell_angle_alpha   109.41607865
_cell_angle_beta   109.58156770
_cell_angle_gamma   109.41607795
_symmetry_Int_Tables_number   1
_chemical_formula_structural   Ce2UTe4
_chemical_formula_sum   'Ce4 U2 Te8'
_cell_volume   425.92917405
_cell_formula_units_Z   2
loop_
 _symmetry_equiv_pos_site_id
 _symmetry_equiv_pos_as_xyz
  1  'x, y, z'
loop_
 _atom_site_type_symbol
 _atom_site_label
 _atom_site_symmetry_multiplicity
 _atom_site_fract_x
 _atom_site_fract_y
 _atom_site_fract_z
 _atom_site_occupancy
  Ce  Ce0  1  0.25000000  0.62543622  0.37543622  1
  Ce  Ce1  1  0.75000000  0.87456378  0.12456378  1
  Ce  Ce2  1  0.62456378  0.37456378  0.25000000  1
  Ce  Ce3  1  0.87543622  0.12543622  0.75000000  1
  U  U4  1  0.12500000  0.75000000  0.87500000  1
  U  U5  1  0.37500000  0.25000000  0.62500000  1
  Te  Te6  1  0.15553822  0.15134042  0.15563388  1
  Te  Te7  1  0.34446177  0.50009566  0.99580219  1
  Te  Te8  1  0.65563388  0.65134042  0.65553822  1
  Te  Te9  1  0.49580219  0.00009566  0.84446177  1
  Te  Te10  1  0.49570653  0.99990434  0.34436612  1
  Te  Te11  1  0.00419781  0.84865958  0.50429347  1
  Te  Te12  1  0.84436612  0.49990434  0.99570653  1
  Te  Te13  1  0.00429347  0.34865958  0.50419781  1
