# generated using pymatgen
data_Ti10Bi(Pb3O10)3
_symmetry_space_group_name_H-M   'P 1'
_cell_length_a   19.61893584
_cell_length_b   8.77165220
_cell_length_c   9.42368742
_cell_angle_alpha   68.13812833
_cell_angle_beta   65.39925607
_cell_angle_gamma   26.56254938
_symmetry_Int_Tables_number   1
_chemical_formula_structural   Ti10Bi(Pb3O10)3
_chemical_formula_sum   'Ti10 Bi1 Pb9 O30'
_cell_volume   659.36954585
_cell_formula_units_Z   1
loop_
 _symmetry_equiv_pos_site_id
 _symmetry_equiv_pos_as_xyz
  1  'x, y, z'
loop_
 _atom_site_type_symbol
 _atom_site_label
 _atom_site_symmetry_multiplicity
 _atom_site_fract_x
 _atom_site_fract_y
 _atom_site_fract_z
 _atom_site_occupancy
  Ti  Ti0  1  0.05163485  0.49221390  0.26885365  1
  Ti  Ti1  1  0.24620139  0.50003955  0.26902046  1
  Ti  Ti2  1  0.14641314  0.49975834  0.76751288  1
  Ti  Ti3  1  0.34754944  0.49835053  0.76793003  1
  Ti  Ti4  1  0.44082510  0.50762486  0.26917467  1
  Ti  Ti5  1  0.64303896  0.51161914  0.26908881  1
  Ti  Ti6  1  0.54714706  0.49783446  0.76790084  1
  Ti  Ti7  1  0.84927257  0.48847899  0.26901099  1
  Ti  Ti8  1  0.74621689  0.50154369  0.76772763  1
  Ti  Ti9  1  0.94493368  0.50245444  0.76781741  1
  Bi  Bi10  1  0.70619014  0.99992215  0.46919441  1
  Pb  Pb11  1  0.00255083  0.99726020  -0.00576092  1
  Pb  Pb12  1  0.20072728  0.99990181  -0.00572810  1
  Pb  Pb13  1  0.09680860  0.00422721  0.50317375  1
  Pb  Pb14  1  0.40110308  0.00039549  -0.00570332  1
  Pb  Pb15  1  0.30173933  0.99612187  0.50336912  1
  Pb  Pb16  1  0.60016953  0.00148919  -0.00460874  1
  Pb  Pb17  1  0.49831314  0.00443299  0.50343192  1
  Pb  Pb18  1  0.80098539  0.00073323  -0.00508365  1
  Pb  Pb19  1  0.90037971  0.99535809  0.50301100  1
  O  O20  1  0.03905301  0.00184945  0.31132688  1
  O  O21  1  0.23779288  0.00009754  0.31081092  1
  O  O22  1  0.13812843  0.00007512  0.80886007  1
  O  O23  1  0.08684338  0.50185014  0.06137251  1
  O  O24  1  0.13334963  0.51011150  0.31144323  1
  O  O25  1  0.03772585  0.50091553  0.80882099  1
  O  O26  1  0.43640666  0.99826156  0.31131005  1
  O  O27  1  0.33812995  0.99952631  0.80929983  1
  O  O28  1  0.28764914  0.50042282  0.06077087  1
  O  O29  1  0.18819877  0.49965541  0.55975560  1
  O  O30  1  0.34205453  0.48976716  0.31156009  1
  O  O31  1  0.23882692  0.49844236  0.80937104  1
  O  O32  1  0.48855720  0.49838089  0.06179947  1
  O  O33  1  0.63991807  0.99817598  0.31917330  1
  O  O34  1  0.39166542  0.49312806  0.56035107  1
  O  O35  1  0.53768355  0.99978286  0.81183101  1
  O  O36  1  0.54205211  0.48454114  0.31927530  1
  O  O37  1  0.43727021  0.50092848  0.81184411  1
  O  O38  1  0.83246882  0.00165541  0.31907239  1
  O  O39  1  0.73772975  0.00026477  0.81126271  1
  O  O40  1  0.68750331  0.49903998  0.06208778  1
  O  O41  1  0.58834514  0.49561347  0.56016344  1
  O  O42  1  0.73779567  0.50012196  0.31073159  1
  O  O43  1  0.63830767  0.50012550  0.80843277  1
  O  O44  1  0.78741581  0.50499493  0.56005344  1
  O  O45  1  0.93831463  0.00027372  0.80882219  1
  O  O46  1  0.88785391  0.50040479  0.06200934  1
  O  O47  1  0.93029132  0.51543886  0.31919348  1
  O  O48  1  0.83783914  0.49951828  0.81179482  1
  O  O49  1  0.98422902  0.50687587  0.56006686  1
