# generated using pymatgen
data_Cr4Cu3Te8
_symmetry_space_group_name_H-M   'P 1'
_cell_length_a   8.01226566
_cell_length_b   8.01226565
_cell_length_c   8.02751487
_cell_angle_alpha   59.93701733
_cell_angle_beta   59.93701737
_cell_angle_gamma   59.95752680
_symmetry_Int_Tables_number   1
_chemical_formula_structural   Cr4Cu3Te8
_chemical_formula_sum   'Cr4 Cu3 Te8'
_cell_volume   363.93462043
_cell_formula_units_Z   1
loop_
 _symmetry_equiv_pos_site_id
 _symmetry_equiv_pos_as_xyz
  1  'x, y, z'
loop_
 _atom_site_type_symbol
 _atom_site_label
 _atom_site_symmetry_multiplicity
 _atom_site_fract_x
 _atom_site_fract_y
 _atom_site_fract_z
 _atom_site_occupancy
  Cr  Cr0  1  0.48837029  0.00158918  0.50502026  1
  Cr  Cr1  1  0.49622505  0.49622505  0.99665928  1
  Cr  Cr2  1  0.49622505  0.49622505  0.51089062  1
  Cr  Cr3  1  0.00158918  0.48837029  0.50502026  1
  Cu  Cu4  1  0.12487796  0.12487796  0.12512204  1
  Cu  Cu5  1  0.88925805  0.88925805  0.36074195  1
  Cu  Cu6  1  0.87564347  0.87564347  0.87435653  1
  Te  Te7  1  0.25681472  0.25681472  0.25773384  1
  Te  Te8  1  0.27478544  0.72238957  0.25141249  1
  Te  Te9  1  0.25681472  0.25681472  0.72863671  1
  Te  Te10  1  0.72238957  0.27478544  0.25141249  1
  Te  Te11  1  0.27105639  0.74211627  0.74341367  1
  Te  Te12  1  0.74211627  0.27105639  0.74341367  1
  Te  Te13  1  0.73801691  0.73801691  0.26856947  1
  Te  Te14  1  0.73801691  0.73801691  0.75539672  1
