# generated using pymatgen
data_SrLiEuTeO6
_symmetry_space_group_name_H-M   'P 1'
_cell_length_a   5.65758210
_cell_length_b   5.80837618
_cell_length_c   7.86183415
_cell_angle_alpha   90.00000000
_cell_angle_beta   90.45276302
_cell_angle_gamma   90.00000000
_symmetry_Int_Tables_number   1
_chemical_formula_structural   SrLiEuTeO6
_chemical_formula_sum   'Sr2 Li2 Eu2 Te2 O12'
_cell_volume   258.34253642
_cell_formula_units_Z   2
loop_
 _symmetry_equiv_pos_site_id
 _symmetry_equiv_pos_as_xyz
  1  'x, y, z'
loop_
 _atom_site_type_symbol
 _atom_site_label
 _atom_site_symmetry_multiplicity
 _atom_site_fract_x
 _atom_site_fract_y
 _atom_site_fract_z
 _atom_site_occupancy
  Sr  Sr0  1  0.00767307  0.04218492  0.75012615  1
  Sr  Sr1  1  0.50767307  0.45781508  0.25012615  1
  Li  Li2  1  0.49973499  0.00495406  0.00083777  1
  Li  Li3  1  0.99973499  0.49504594  0.50083777  1
  Eu  Eu4  1  0.49068514  0.55701331  0.75212098  1
  Eu  Eu5  1  0.99068514  0.94298669  0.25212098  1
  Te  Te6  1  0.99985957  0.49774147  0.99982782  1
  Te  Te7  1  0.49985957  0.00225853  0.49982782  1
  O  O8  1  0.07004864  0.53040347  0.24141502  1
  O  O9  1  0.19660850  0.76885814  0.95833121  1
  O  O10  1  0.22719357  0.80167507  0.53540716  1
  O  O11  1  0.28276411  0.31667944  0.95277515  1
  O  O12  1  0.32203553  0.28322961  0.54857146  1
  O  O13  1  0.40339687  0.02197277  0.26058829  1
  O  O14  1  0.57004864  0.96959653  0.74141502  1
  O  O15  1  0.69660850  0.73114186  0.45833121  1
  O  O16  1  0.72719357  0.69832493  0.03540716  1
  O  O17  1  0.78276411  0.18332056  0.45277515  1
  O  O18  1  0.82203553  0.21677039  0.04857146  1
  O  O19  1  0.90339687  0.47802723  0.76058829  1
