# generated using pymatgen
data_Zn8B4H3O15F
_symmetry_space_group_name_H-M   'P 1'
_cell_length_a   4.94907508
_cell_length_b   23.15620314
_cell_length_c   6.42372590
_cell_angle_alpha   95.70100318
_cell_angle_beta   90.00000000
_cell_angle_gamma   90.00000000
_symmetry_Int_Tables_number   1
_chemical_formula_structural   Zn8B4H3O15F
_chemical_formula_sum   'Zn16 B8 H6 O30 F2'
_cell_volume   732.52924988
_cell_formula_units_Z   2
loop_
 _symmetry_equiv_pos_site_id
 _symmetry_equiv_pos_as_xyz
  1  'x, y, z'
loop_
 _atom_site_type_symbol
 _atom_site_label
 _atom_site_symmetry_multiplicity
 _atom_site_fract_x
 _atom_site_fract_y
 _atom_site_fract_z
 _atom_site_occupancy
  Zn  Zn0  1  0.99289914  0.64446322  0.14053342  1
  Zn  Zn1  1  0.99280815  0.89400743  0.13969173  1
  Zn  Zn2  1  0.48040585  0.47867208  0.63724576  1
  Zn  Zn3  1  0.48044309  0.72867065  0.63716568  1
  Zn  Zn4  1  0.48134855  0.23120287  0.63583031  1
  Zn  Zn5  1  0.47989707  0.97945837  0.63686807  1
  Zn  Zn6  1  0.49738368  0.10624038  0.85713351  1
  Zn  Zn7  1  0.49280815  0.35599257  0.86030827  1
  Zn  Zn8  1  0.49289914  0.60553678  0.85946658  1
  Zn  Zn9  1  0.49290448  0.85555395  0.85847989  1
  Zn  Zn10  1  0.97989707  0.27054163  0.36313193  1
  Zn  Zn11  1  0.98134855  0.01879713  0.36416969  1
  Zn  Zn12  1  0.98044309  0.52132935  0.36283432  1
  Zn  Zn13  1  0.98040585  0.77132792  0.36275424  1
  Zn  Zn14  1  -0.00261632  0.14375962  0.14286649  1
  Zn  Zn15  1  0.99290448  0.39444605  0.14152011  1
  B  B16  1  0.49745031  0.20952611  0.19309759  1
  B  B17  1  0.49751537  0.46109677  0.19228458  1
  B  B18  1  0.49761868  0.71097941  0.19186856  1
  B  B19  1  0.49708748  0.96054517  0.19049806  1
  B  B20  1  0.99708748  0.28945483  0.80950194  1
  B  B21  1  0.99745031  0.04047389  0.80690241  1
  B  B22  1  0.99761868  0.53902059  0.80813144  1
  B  B23  1  0.99751537  0.78890323  0.80771542  1
  H  H24  1  0.32059300  0.37979677  0.51693973  1
  H  H25  1  0.32107172  0.62991538  0.51691164  1
  H  H26  1  0.32260210  0.88043819  0.51703905  1
  H  H27  1  0.82260210  0.36956181  0.48296095  1
  H  H28  1  0.82107172  0.62008462  0.48308836  1
  H  H29  1  0.82059300  0.87020323  0.48306027  1
  O  O30  1  0.27548627  0.03561799  0.82508583  1
  O  O31  1  0.27464793  0.28437731  0.83343076  1
  O  O32  1  0.27529864  0.53376161  0.83077287  1
  O  O33  1  0.27529181  0.78377315  0.83041855  1
  O  O34  1  0.36554293  0.49772985  0.34288094  1
  O  O35  1  0.36538391  0.74761731  0.34236156  1
  O  O36  1  0.36378908  0.24610914  0.34354566  1
  O  O37  1  0.36599420  -0.00311142  0.34176018  1
  O  O38  1  0.36321629  0.66667942  0.07237972  1
  O  O39  1  0.36134400  0.16702433  0.06726271  1
  O  O40  1  0.36253158  0.41693983  0.07271584  1
  O  O41  1  0.36157069  0.91654151  0.07017048  1
  O  O42  1  0.48525417  0.39340274  0.59584108  1
  O  O43  1  0.48610535  0.89403310  0.59632581  1
  O  O44  1  0.48530396  0.64344688  0.59602746  1
  O  O45  1  0.77548627  0.21438201  0.17491417  1
  O  O46  1  0.77529181  0.46622685  0.16958145  1
  O  O47  1  0.77529864  0.71623839  0.16922713  1
  O  O48  1  0.77464793  0.96562269  0.16656924  1
  O  O49  1  0.86599420  0.25311142  0.65823982  1
  O  O50  1  0.86378908  0.00389086  0.65645434  1
  O  O51  1  0.86538391  0.50238269  0.65763844  1
  O  O52  1  0.86554293  0.75227015  0.65711906  1
  O  O53  1  0.86157069  0.33345849  0.92982952  1
  O  O54  1  0.86134400  0.08297567  0.93273729  1
  O  O55  1  0.86253158  0.83306017  0.92728416  1
  O  O56  1  0.86321629  0.58332058  0.92762028  1
  O  O57  1  0.98610535  0.35596690  0.40367419  1
  O  O58  1  0.98530396  0.60655312  0.40397254  1
  O  O59  1  0.98525417  0.85659726  0.40415892  1
  F  F60  1  0.47821055  0.14719310  0.60614600  1
  F  F61  1  0.97821055  0.10280690  0.39385400  1
