# generated using pymatgen
data_Cr5AgS8
_symmetry_space_group_name_H-M   'P 1'
_cell_length_a   12.62066066
_cell_length_b   50.56264180
_cell_length_c   25.04165569
_cell_angle_alpha   7.89557820
_cell_angle_beta   13.83234808
_cell_angle_gamma   15.88888357
_symmetry_Int_Tables_number   1
_chemical_formula_structural   Cr5AgS8
_chemical_formula_sum   'Cr10 Ag2 S16'
_cell_volume   524.81607446
_cell_formula_units_Z   2
loop_
 _symmetry_equiv_pos_site_id
 _symmetry_equiv_pos_as_xyz
  1  'x, y, z'
loop_
 _atom_site_type_symbol
 _atom_site_label
 _atom_site_symmetry_multiplicity
 _atom_site_fract_x
 _atom_site_fract_y
 _atom_site_fract_z
 _atom_site_occupancy
  Cr  Cr0  1  0.09566818  0.00000000  0.06212559  1
  Cr  Cr1  1  0.00000000  0.25000000  0.00000000  1
  Cr  Cr2  1  0.05996774  0.24786004  0.09335886  1
  Cr  Cr3  1  0.09355161  0.50000000  0.06463741  1
  Cr  Cr4  1  0.00000000  0.75000000  0.00000000  1
  Cr  Cr5  1  0.05996774  0.75213996  0.08479903  1
  Cr  Cr6  1  0.94003226  0.25213996  0.90664114  1
  Cr  Cr7  1  0.90433182  0.50000000  0.93787441  1
  Cr  Cr8  1  0.94003226  0.74786004  0.91520097  1
  Cr  Cr9  1  0.90644839  0.00000000  0.93536259  1
  Ag  Ag10  1  0.14682607  0.00000000  0.16150456  1
  Ag  Ag11  1  0.85317393  0.50000000  0.83849544  1
  S  S12  1  0.22959367  0.00000000  0.21802402  1
  S  S13  1  0.35950873  0.00000000  0.37693772  1
  S  S14  1  0.21306352  0.25068844  0.22982744  1
  S  S15  1  0.40048508  0.25140431  0.35540437  1
  S  S16  1  0.22674958  0.50000000  0.21875293  1
  S  S17  1  0.59951492  0.24859569  0.64459563  1
  S  S18  1  0.36265837  0.50000000  0.37589089  1
  S  S19  1  0.78693648  0.24931156  0.77017256  1
  S  S20  1  0.21306352  0.74931156  0.23258121  1
  S  S21  1  0.64049127  0.50000000  0.62306228  1
  S  S22  1  0.40048508  0.74859569  0.36102160  1
  S  S23  1  0.77040633  0.50000000  0.78197598  1
  S  S24  1  0.59951492  0.75140431  0.63897840  1
  S  S25  1  0.78693648  0.75068844  0.76741879  1
  S  S26  1  0.63734163  0.00000000  0.62410911  1
  S  S27  1  0.77325042  0.00000000  0.78124707  1
