# generated using pymatgen
data_Ho4Zr3O12
_symmetry_space_group_name_H-M   'P 1'
_cell_length_a   6.45775810
_cell_length_b   6.40528061
_cell_length_c   12.87438040
_cell_angle_alpha   99.41934222
_cell_angle_beta   99.13771961
_cell_angle_gamma   99.29777109
_symmetry_Int_Tables_number   1
_chemical_formula_structural   Ho4Zr3O12
_chemical_formula_sum   'Ho8 Zr6 O24'
_cell_volume   508.97814009
_cell_formula_units_Z   2
loop_
 _symmetry_equiv_pos_site_id
 _symmetry_equiv_pos_as_xyz
  1  'x, y, z'
loop_
 _atom_site_type_symbol
 _atom_site_label
 _atom_site_symmetry_multiplicity
 _atom_site_fract_x
 _atom_site_fract_y
 _atom_site_fract_z
 _atom_site_occupancy
  Ho  Ho0  1  0.13666279  0.61051226  0.65332445  1
  Ho  Ho1  1  0.39049713  0.68841901  0.93090777  1
  Ho  Ho2  1  0.38983193  0.70069881  0.43092675  1
  Ho  Ho3  1  0.30784213  0.14026878  0.30326012  1
  Ho  Ho4  1  0.60950287  0.31158099  0.56909223  1
  Ho  Ho5  1  0.69215787  0.85973122  0.19673988  1
  Ho  Ho6  1  0.86333721  0.38948774  0.84667555  1
  Ho  Ho7  1  0.61016807  0.29930119  0.06907325  1
  Zr  Zr8  1  0.00659427  0.00790619  0.50283151  1
  Zr  Zr9  1  0.14405818  0.60842230  0.15700039  1
  Zr  Zr10  1  0.99340573  0.99209381  0.99716849  1
  Zr  Zr11  1  0.32315875  0.14497629  0.80377574  1
  Zr  Zr12  1  0.67684125  0.85502371  0.69622426  1
  Zr  Zr13  1  0.85594182  0.39157770  0.34299961  1
  O  O14  1  0.05605096  0.67969472  0.96149887  1
  O  O15  1  0.10597544  0.96321186  0.66097612  1
  O  O16  1  0.03896627  0.68228864  0.45293044  1
  O  O17  1  0.07968251  0.92440147  0.15570317  1
  O  O18  1  0.18145188  0.41071789  0.78671029  1
  O  O19  1  0.30715343  0.07696070  0.95856296  1
  O  O20  1  0.42491738  0.82619248  0.78438374  1
  O  O21  1  0.17019616  0.43199871  0.28665342  1
  O  O22  1  0.43368044  0.59270014  0.59194952  1
  O  O23  1  0.31835634  0.07676631  0.47207726  1
  O  O24  1  0.40769203  0.81482901  0.28078873  1
  O  O25  1  0.56631956  0.40729986  0.90805048  1
  O  O26  1  0.41646132  0.57376607  0.09141470  1
  O  O27  1  0.57508262  0.17380752  0.71561626  1
  O  O28  1  0.69284657  0.92303930  0.54143704  1
  O  O29  1  0.58353868  0.42623393  0.40858530  1
  O  O30  1  0.81854812  0.58928211  0.71328971  1
  O  O31  1  0.59230797  0.18517099  0.21921127  1
  O  O32  1  0.68164366  0.92323369  0.02792274  1
  O  O33  1  0.82980384  0.56800129  0.21334658  1
  O  O34  1  0.89402456  0.03678814  0.83902388  1
  O  O35  1  0.94394904  0.32030528  0.53850113  1
  O  O36  1  0.92031749  0.07559853  0.34429683  1
  O  O37  1  0.96103373  0.31771136  0.04706956  1
