# generated using pymatgen
data_Ta4Te9I4O
_symmetry_space_group_name_H-M   'P 1'
_cell_length_a   6.27988799
_cell_length_b   11.72668863
_cell_length_c   17.79932341
_cell_angle_alpha   86.30722910
_cell_angle_beta   79.83938828
_cell_angle_gamma   74.46895072
_symmetry_Int_Tables_number   1
_chemical_formula_structural   Ta4Te9I4O
_chemical_formula_sum   'Ta8 Te18 I8 O2'
_cell_volume   1242.91034352
_cell_formula_units_Z   2
loop_
 _symmetry_equiv_pos_site_id
 _symmetry_equiv_pos_as_xyz
  1  'x, y, z'
loop_
 _atom_site_type_symbol
 _atom_site_label
 _atom_site_symmetry_multiplicity
 _atom_site_fract_x
 _atom_site_fract_y
 _atom_site_fract_z
 _atom_site_occupancy
  Ta  Ta0  1  0.77464533  0.08808687  0.76291049  1
  Ta  Ta1  1  0.62564269  0.41191313  0.73708951  1
  Ta  Ta2  1  0.87331826  0.26762501  0.86146917  1
  Ta  Ta3  1  0.00241244  0.23237499  0.63853083  1
  Ta  Ta4  1  0.37435731  0.58808687  0.26291049  1
  Ta  Ta5  1  0.22535467  0.91191313  0.23708951  1
  Ta  Ta6  1  0.12668174  0.73237499  0.13853083  1
  Ta  Ta7  1  0.99758756  0.76762501  0.36146917  1
  Te  Te8  1  0.38353851  0.88584089  0.07289524  1
  Te  Te9  1  0.17820743  0.97760358  0.66655645  1
  Te  Te10  1  0.06025269  0.00990645  0.87279974  1
  Te  Te11  1  0.53507648  0.56240868  0.09892658  1
  Te  Te12  1  0.05704113  0.50990645  0.37279974  1
  Te  Te13  1  0.46492352  0.43759132  0.90107342  1
  Te  Te14  1  0.34105170  0.25000000  0.75000000  1
  Te  Te15  1  0.80358826  0.06240868  0.59892658  1
  Te  Te16  1  0.17763254  0.47760358  0.16655645  1
  Te  Te17  1  0.82236746  0.52239642  0.83344355  1
  Te  Te18  1  0.61646149  0.11415911  0.92710476  1
  Te  Te19  1  0.65894830  0.75000000  0.25000000  1
  Te  Te20  1  0.34227463  0.61415911  0.42710476  1
  Te  Te21  1  0.82179257  0.02239642  0.33344355  1
  Te  Te22  1  0.93974731  0.99009355  0.12720026  1
  Te  Te23  1  0.65772537  0.38584089  0.57289524  1
  Te  Te24  1  0.19641174  0.93759132  0.40107342  1
  Te  Te25  1  0.94295887  0.49009355  0.62720026  1
  I  I26  1  0.61805509  0.88122641  0.77887734  1
  I  I27  1  0.94199469  0.71349661  0.00824593  1
  I  I28  1  0.38194491  0.11877359  0.22112266  1
  I  I29  1  0.66373724  0.78650339  0.49175407  1
  I  I30  1  0.05800531  0.28650339  0.99175407  1
  I  I31  1  0.72184116  0.38122641  0.27887734  1
  I  I32  1  0.27815884  0.61877359  0.72112266  1
  I  I33  1  0.33626276  0.21349661  0.50824593  1
  O  O34  1  0.88573090  0.25000000  0.75000000  1
  O  O35  1  0.11426910  0.75000000  0.25000000  1
