# generated using pymatgen
data_Co2S3
_symmetry_space_group_name_H-M   'P 1'
_cell_length_a   6.57626037
_cell_length_b   19.70226848
_cell_length_c   17.37602024
_cell_angle_alpha   19.14882816
_cell_angle_beta   55.45463276
_cell_angle_gamma   60.02496850
_symmetry_Int_Tables_number   1
_chemical_formula_structural   Co2S3
_chemical_formula_sum   'Co16 S24'
_cell_volume   602.84292903
_cell_formula_units_Z   8
loop_
 _symmetry_equiv_pos_site_id
 _symmetry_equiv_pos_as_xyz
  1  'x, y, z'
loop_
 _atom_site_type_symbol
 _atom_site_label
 _atom_site_symmetry_multiplicity
 _atom_site_fract_x
 _atom_site_fract_y
 _atom_site_fract_z
 _atom_site_occupancy
  Co  Co0  1  -0.00007294  0.99881016  0.00177228  1
  Co  Co1  1  0.00015547  0.33615954  0.99741477  1
  Co  Co2  1  0.62679046  0.12366987  0.12631504  1
  Co  Co3  1  0.24854308  0.25138443  0.24748129  1
  Co  Co4  1  0.11885781  0.12487644  0.62624769  1
  Co  Co5  1  0.62218270  0.46310246  0.11953629  1
  Co  Co6  1  0.25068243  0.58256611  0.25151628  1
  Co  Co7  1  0.12908312  0.45966791  0.62288178  1
  Co  Co8  1  0.62496803  0.12412113  0.62537642  1
  Co  Co9  1  0.62437969  0.29126373  0.62542385  1
  Co  Co10  1  0.62726818  0.79273583  0.12410643  1
  Co  Co11  1  0.12292931  0.79231597  0.62384159  1
  Co  Co12  1  0.62005255  0.45946011  0.62306254  1
  Co  Co13  1  0.62221253  0.63098497  0.62059473  1
  Co  Co14  1  0.62272341  0.79468568  0.62241930  1
  Co  Co15  1  0.62340892  0.95611106  0.62710284  1
  S  S16  1  0.38034318  0.03035242  0.38087537  1
  S  S17  1  0.37829652  0.20746823  0.38056585  1
  S  S18  1  0.37970276  0.36350061  0.38178843  1
  S  S19  1  0.86803271  0.02799897  0.39320566  1
  S  S20  1  0.85204518  0.20783103  0.37904583  1
  S  S21  1  0.39655452  0.04143108  0.87003662  1
  S  S22  1  0.38444648  0.53980062  0.38173897  1
  S  S23  1  0.38536978  0.69110602  0.38472749  1
  S  S24  1  0.85938851  0.34575754  0.41232070  1
  S  S25  1  0.38452170  0.23535726  0.84004349  1
  S  S26  1  0.85445627  0.54053435  0.38094200  1
  S  S27  1  0.86835284  0.04641272  0.86588053  1
  S  S28  1  0.39722076  0.37730634  0.86739978  1
  S  S29  1  0.38652761  0.87403834  0.38328935  1
  S  S30  1  0.86824070  0.22251116  0.86465889  1
  S  S31  1  0.86609155  0.69102505  0.39846658  1
  S  S32  1  0.38054469  0.56040654  0.85171877  1
  S  S33  1  0.84183505  0.87402061  0.38356728  1
  S  S34  1  0.86757136  0.38169563  0.86379123  1
  S  S35  1  0.40578578  0.71427522  0.86213932  1
  S  S36  1  0.86328129  0.55607365  0.86560522  1
  S  S37  1  0.38054656  0.88964215  0.85586887  1
  S  S38  1  0.86110380  0.71295721  0.86204451  1
  S  S39  1  0.86142363  0.89523587  0.86264413  1
