# generated using pymatgen
data_V(FeO2)2
_symmetry_space_group_name_H-M   'P 1'
_cell_length_a   6.08083704
_cell_length_b   6.03563114
_cell_length_c   6.08083713
_cell_angle_alpha   60.24562113
_cell_angle_beta   60.43016525
_cell_angle_gamma   60.24562476
_symmetry_Int_Tables_number   1
_chemical_formula_structural   V(FeO2)2
_chemical_formula_sum   'V2 Fe4 O8'
_cell_volume   158.90564858
_cell_formula_units_Z   2
loop_
 _symmetry_equiv_pos_site_id
 _symmetry_equiv_pos_as_xyz
  1  'x, y, z'
loop_
 _atom_site_type_symbol
 _atom_site_label
 _atom_site_symmetry_multiplicity
 _atom_site_fract_x
 _atom_site_fract_y
 _atom_site_fract_z
 _atom_site_occupancy
  V  V0  1  0.12500000  0.62500000  0.62500000  1
  V  V1  1  0.62500000  0.62500000  0.12500000  1
  Fe  Fe2  1  0.00460526  0.99539474  0.00460526  1
  Fe  Fe3  1  0.24539474  0.25460526  0.24539474  1
  Fe  Fe4  1  0.62500000  0.12500000  0.62500000  1
  Fe  Fe5  1  0.62500000  0.62500000  0.62500000  1
  O  O6  1  0.37350380  0.39008910  0.37350380  1
  O  O7  1  0.37350380  0.86290329  0.37350380  1
  O  O8  1  0.36512662  0.38845011  0.85797316  1
  O  O9  1  0.85797316  0.38845011  0.36512662  1
  O  O10  1  0.39202684  0.86154989  0.88487338  1
  O  O11  1  0.87649620  0.38709671  0.87649620  1
  O  O12  1  0.88487338  0.86154989  0.39202684  1
  O  O13  1  0.87649620  0.85991090  0.87649620  1
