# generated using pymatgen
data_K3Cr4PO16
_symmetry_space_group_name_H-M   'P 1'
_cell_length_a   7.72572929
_cell_length_b   7.72572953
_cell_length_c   15.09081933
_cell_angle_alpha   99.92050079
_cell_angle_beta   99.92050110
_cell_angle_gamma   102.21114140
_symmetry_Int_Tables_number   1
_chemical_formula_structural   K3Cr4PO16
_chemical_formula_sum   'K6 Cr8 P2 O32'
_cell_volume   846.55787979
_cell_formula_units_Z   2
loop_
 _symmetry_equiv_pos_site_id
 _symmetry_equiv_pos_as_xyz
  1  'x, y, z'
loop_
 _atom_site_type_symbol
 _atom_site_label
 _atom_site_symmetry_multiplicity
 _atom_site_fract_x
 _atom_site_fract_y
 _atom_site_fract_z
 _atom_site_occupancy
  K  K0  1  0.32247377  0.25141369  0.82770172  1
  K  K1  1  0.25141369  0.32247377  0.32770172  1
  K  K2  1  0.82267787  0.80257681  0.33785301  1
  K  K3  1  0.80257681  0.82267787  0.83785301  1
  K  K4  1  0.58109382  0.13186246  0.10982353  1
  K  K5  1  0.13186246  0.58109382  0.60982353  1
  Cr  Cr6  1  0.31896230  0.79273747  0.85766205  1
  Cr  Cr7  1  0.72320019  0.60208352  0.06757220  1
  Cr  Cr8  1  0.82278227  0.27953336  0.73719572  1
  Cr  Cr9  1  0.10771737  0.23255144  0.04115767  1
  Cr  Cr10  1  0.60208352  0.72320019  0.56757220  1
  Cr  Cr11  1  0.27953336  0.82278227  0.23719572  1
  Cr  Cr12  1  0.79273747  0.31896230  0.35766205  1
  Cr  Cr13  1  0.23255144  0.10771737  0.54115767  1
  P  P14  1  0.11152462  0.64776878  0.01685409  1
  P  P15  1  0.64776878  0.11152462  0.51685409  1
  O  O16  1  0.95695626  0.48197351  0.76396440  1
  O  O17  1  0.95962382  0.49372516  0.40955155  1
  O  O18  1  0.09729984  0.15738482  0.45999140  1
  O  O19  1  0.62240228  0.39083591  0.31211951  1
  O  O20  1  0.64142062  0.28110405  0.77667874  1
  O  O21  1  0.39083591  0.62240228  0.81211951  1
  O  O22  1  0.24907062  0.25585401  0.13811411  1
  O  O23  1  0.72794571  0.17901446  0.43951882  1
  O  O24  1  0.15738482  0.09729984  0.95999140  1
  O  O25  1  0.49372516  0.95962382  0.90955155  1
  O  O26  1  0.25585401  0.24907062  0.63811411  1
  O  O27  1  0.13656435  0.92523138  0.27810097  1
  O  O28  1  0.78245017  0.64926482  0.59021754  1
  O  O29  1  0.85656372  0.19254665  0.27784927  1
  O  O30  1  0.28110405  0.64142062  0.27667874  1
  O  O31  1  0.54270412  0.79860661  0.66233022  1
  O  O32  1  0.12855906  0.45082209  0.00389907  1
  O  O33  1  0.64926482  0.78245017  0.09021754  1
  O  O34  1  0.43660063  0.56520769  0.49900325  1
  O  O35  1  0.22551961  0.76487224  0.10966532  1
  O  O36  1  0.15326614  0.90032390  0.54935107  1
  O  O37  1  0.45082209  0.12855906  0.50389907  1
  O  O38  1  0.65755783  0.91056818  0.50572474  1
  O  O39  1  0.17901446  0.72794571  0.93951882  1
  O  O40  1  0.79860661  0.54270412  0.16233022  1
  O  O41  1  0.90032390  0.15326614  0.04935107  1
  O  O42  1  0.76487224  0.22551961  0.60966532  1
  O  O43  1  0.48197351  0.95695626  0.26396440  1
  O  O44  1  0.19254665  0.85656372  0.77784927  1
  O  O45  1  0.92523138  0.13656435  0.77810097  1
  O  O46  1  0.56520769  0.43660063  0.99900325  1
  O  O47  1  0.91056818  0.65755783  0.00572474  1
