# generated using pymatgen
data_Ba19(InN)9
_symmetry_space_group_name_H-M   'P 1'
_cell_length_a   8.05968745
_cell_length_b   10.27859736
_cell_length_c   29.50974230
_cell_angle_alpha   96.88683606
_cell_angle_beta   97.91212260
_cell_angle_gamma   90.04129712
_symmetry_Int_Tables_number   1
_chemical_formula_structural   Ba19(InN)9
_chemical_formula_sum   'Ba38 In18 N18'
_cell_volume   2403.54278422
_cell_formula_units_Z   2
loop_
 _symmetry_equiv_pos_site_id
 _symmetry_equiv_pos_as_xyz
  1  'x, y, z'
loop_
 _atom_site_type_symbol
 _atom_site_label
 _atom_site_symmetry_multiplicity
 _atom_site_fract_x
 _atom_site_fract_y
 _atom_site_fract_z
 _atom_site_occupancy
  Ba  Ba0  1  0.05974267  0.87251958  0.11701295  1
  Ba  Ba1  1  0.16251265  0.81062691  0.87253071  1
  Ba  Ba2  1  0.24868095  0.00388886  0.49533404  1
  Ba  Ba3  1  0.21131693  0.63907146  0.42534320  1
  Ba  Ba4  1  0.14461394  0.69351748  0.28244153  1
  Ba  Ba5  1  0.57222657  0.05347922  0.61902985  1
  Ba  Ba6  1  0.93999412  0.12845032  0.88265282  1
  Ba  Ba7  1  0.10422890  0.04041148  0.76550505  1
  Ba  Ba8  1  0.78769551  0.36098348  0.57486089  1
  Ba  Ba9  1  0.42925100  0.94617437  0.38109832  1
  Ba  Ba10  1  0.52330809  0.67811573  0.53631037  1
  Ba  Ba11  1  0.83819838  0.18974886  0.12776449  1
  Ba  Ba12  1  0.89598933  0.95937701  0.23457386  1
  Ba  Ba13  1  0.17128802  0.20345654  0.34314834  1
  Ba  Ba14  1  0.04808555  0.05590715  0.61938327  1
  Ba  Ba15  1  0.29081624  0.19083678  0.12771842  1
  Ba  Ba16  1  0.22855088  0.00088702  0.99996045  1
  Ba  Ba17  1  0.84308699  0.58164407  0.16285337  1
  Ba  Ba18  1  0.95305658  0.94494945  0.38067790  1
  Ba  Ba19  1  0.71017871  0.80967089  0.87224512  1
  Ba  Ba20  1  0.77106259  0.00022261  0.99994885  1
  Ba  Ba21  1  0.15995254  0.41916612  0.83732802  1
  Ba  Ba22  1  0.11465636  0.32801526  0.22940377  1
  Ba  Ba23  1  0.34174578  0.96242779  0.23507962  1
  Ba  Ba24  1  0.67948623  0.41876083  0.83737850  1
  Ba  Ba25  1  0.97606701  0.62692045  0.95198075  1
  Ba  Ba26  1  0.28836588  0.34960336  0.57361778  1
  Ba  Ba27  1  0.98846614  0.32105579  0.46420206  1
  Ba  Ba28  1  0.47620138  0.32321184  0.46406052  1
  Ba  Ba29  1  0.71307072  0.65026546  0.42689523  1
  Ba  Ba30  1  0.83149649  0.79706111  0.65710151  1
  Ba  Ba31  1  0.32263778  0.58237510  0.16260272  1
  Ba  Ba32  1  0.01240433  0.67647288  0.53627027  1
  Ba  Ba33  1  0.88672330  0.67256613  0.77078067  1
  Ba  Ba34  1  0.75369625  0.99582640  0.50475717  1
  Ba  Ba35  1  0.02389512  0.37380491  0.04825696  1
  Ba  Ba36  1  0.65756896  0.03789590  0.76484313  1
  Ba  Ba37  1  0.85751410  0.30665531  0.71772700  1
  In  In38  1  0.36450198  0.34882302  0.72273544  1
  In  In39  1  0.28746580  0.33352499  0.95546323  1
  In  In40  1  0.33398531  0.77985541  0.66788366  1
  In  In41  1  0.66876767  0.22013025  0.33256241  1
  In  In42  1  0.33172867  0.66799852  0.04452609  1
  In  In43  1  0.66754140  0.33462919  0.95569973  1
  In  In44  1  0.86706157  0.46431860  0.32576142  1
  In  In45  1  0.71273178  0.66591710  0.04500091  1
  In  In46  1  0.46016363  0.46274511  0.32589578  1
  In  In47  1  0.54290362  0.53824407  0.67453845  1
  In  In48  1  0.38345093  0.66069849  0.76432211  1
  In  In49  1  0.61787776  0.33877446  0.23602591  1
  In  In50  1  0.52233864  0.40368719  0.04807097  1
  In  In51  1  0.13484061  0.53574516  0.67452805  1
  In  In52  1  0.63865820  0.65040274  0.27679844  1
  In  In53  1  0.55553836  0.86959464  0.10942117  1
  In  In54  1  0.44486526  0.13331079  0.88981282  1
  In  In55  1  0.47560683  0.59813853  0.95245130  1
  N  N56  1  0.90627044  0.91042890  0.81385082  1
  N  N57  1  0.01984656  0.19110525  0.54614467  1
  N  N58  1  0.09900976  0.74607694  0.19573116  1
  N  N59  1  0.92889863  0.60237230  0.85564347  1
  N  N60  1  0.47214412  0.80901990  0.45408438  1
  N  N61  1  0.98064295  0.81007340  0.45389969  1
  N  N62  1  0.24507826  0.48651812  0.49369828  1
  N  N63  1  0.97026056  0.89169668  0.94127424  1
  N  N64  1  0.52800439  0.19084114  0.54540284  1
  N  N65  1  0.84488782  0.05679805  0.69275383  1
  N  N66  1  0.09327549  0.09010964  0.18617756  1
  N  N67  1  0.75200994  0.51468341  0.50699582  1
  N  N68  1  0.15603391  0.94343936  0.30753482  1
  N  N69  1  0.07357665  0.39858308  0.14459737  1
  N  N70  1  0.90328787  0.25518543  0.80445369  1
  N  N71  1  0.02961807  0.10812192  0.05893187  1
  N  N72  1  0.79035596  0.88365392  0.58062803  1
  N  N73  1  0.21002461  0.11801738  0.41975108  1
