# generated using pymatgen
data_Ag8Ge3O10
_symmetry_space_group_name_H-M   'P 1'
_cell_length_a   10.93872807
_cell_length_b   12.35788381
_cell_length_c   18.86769407
_cell_angle_alpha   92.24431856
_cell_angle_beta   90.00000000
_cell_angle_gamma   90.00000000
_symmetry_Int_Tables_number   1
_chemical_formula_structural   Ag8Ge3O10
_chemical_formula_sum   'Ag64 Ge24 O80'
_cell_volume   2548.56957987
_cell_formula_units_Z   8
loop_
 _symmetry_equiv_pos_site_id
 _symmetry_equiv_pos_as_xyz
  1  'x, y, z'
loop_
 _atom_site_type_symbol
 _atom_site_label
 _atom_site_symmetry_multiplicity
 _atom_site_fract_x
 _atom_site_fract_y
 _atom_site_fract_z
 _atom_site_occupancy
  Ag  Ag0  1  0.63792300  0.77846677  0.94797001  1
  Ag  Ag1  1  0.61827541  0.65681266  0.38747972  1
  Ag  Ag2  1  0.63784279  0.52925089  0.03036672  1
  Ag  Ag3  1  0.60676413  0.43452685  0.47532267  1
  Ag  Ag4  1  0.11281057  0.66157181  0.18952672  1
  Ag  Ag5  1  0.89151501  0.29440874  0.43156118  1
  Ag  Ag6  1  0.13871847  0.19556618  0.37759990  1
  Ag  Ag7  1  0.36215721  0.52925089  0.53036672  1
  Ag  Ag8  1  0.61261450  0.06000816  0.21824038  1
  Ag  Ag9  1  0.39323587  0.43452685  0.97532267  1
  Ag  Ag10  1  0.65058422  0.35346870  0.30086838  1
  Ag  Ag11  1  0.38738550  0.06000816  0.71824038  1
  Ag  Ag12  1  0.88527724  0.15485083  0.67568913  1
  Ag  Ag13  1  0.88718943  0.66157181  0.68952672  1
  Ag  Ag14  1  0.14230033  0.70714588  0.37655101  1
  Ag  Ag15  1  0.62031341  0.23976187  0.75547947  1
  Ag  Ag16  1  0.39025888  0.24403891  0.43164247  1
  Ag  Ag17  1  0.39357739  0.56310480  0.72863500  1
  Ag  Ag18  1  0.85818621  0.56563185  0.52210711  1
  Ag  Ag19  1  0.36328772  0.87210488  0.82000937  1
  Ag  Ag20  1  0.86687505  0.00037688  0.15163717  1
  Ag  Ag21  1  0.38172459  0.65681266  0.88747972  1
  Ag  Ag22  1  0.35146232  0.15453326  0.88387638  1
  Ag  Ag23  1  0.36207700  0.77846677  0.44797001  1
  Ag  Ag24  1  0.13688624  0.85180979  0.08681697  1
  Ag  Ag25  1  0.62764350  0.94673239  0.48688112  1
  Ag  Ag26  1  0.88273992  0.48207944  0.14738911  1
  Ag  Ag27  1  0.34941578  0.35346870  0.80086838  1
  Ag  Ag28  1  0.63215146  0.72088445  0.75485390  1
  Ag  Ag29  1  0.64070735  0.01444651  0.03144933  1
  Ag  Ag30  1  0.10848499  0.29440874  0.93156118  1
  Ag  Ag31  1  0.87952304  0.06791335  0.51734451  1
  Ag  Ag32  1  0.87827816  0.77461074  0.42087679  1
  Ag  Ag33  1  0.37235650  0.94673239  0.98688112  1
  Ag  Ag34  1  0.63671228  0.87210488  0.32000937  1
  Ag  Ag35  1  0.12605721  0.22578148  0.73813661  1
  Ag  Ag36  1  0.37600679  0.49402461  0.17059166  1
  Ag  Ag37  1  0.35567607  0.95915122  0.14500380  1
  Ag  Ag38  1  0.36784854  0.72088445  0.25485390  1
  Ag  Ag39  1  0.15327961  0.36270515  0.10464175  1
  Ag  Ag40  1  0.11726008  0.48207944  0.64738911  1
  Ag  Ag41  1  0.60974112  0.24403891  0.93164247  1
  Ag  Ag42  1  0.13312495  0.00037688  0.65163717  1
  Ag  Ag43  1  0.64853768  0.15453326  0.38387638  1
  Ag  Ag44  1  0.86311376  0.85180979  0.58681697  1
  Ag  Ag45  1  0.88683322  0.47710461  0.97434644  1
  Ag  Ag46  1  0.14181379  0.56563185  0.02210711  1
  Ag  Ag47  1  0.87394279  0.22578148  0.23813661  1
  Ag  Ag48  1  0.60642261  0.56310480  0.22863500  1
  Ag  Ag49  1  0.11472276  0.15485083  0.17568913  1
  Ag  Ag50  1  0.64432393  0.95915122  0.64500380  1
  Ag  Ag51  1  0.35929265  0.01444651  0.53144933  1
  Ag  Ag52  1  0.84672039  0.36270515  0.60464175  1
  Ag  Ag53  1  0.12047696  0.06791335  0.01734451  1
  Ag  Ag54  1  0.62399321  0.49402461  0.67059166  1
  Ag  Ag55  1  0.86185159  0.76085436  0.26114206  1
  Ag  Ag56  1  0.12172184  0.77461074  0.92087679  1
  Ag  Ag57  1  0.37968659  0.23976187  0.25547947  1
  Ag  Ag58  1  0.85769967  0.70714588  0.87655101  1
  Ag  Ag59  1  0.86128153  0.19556618  0.87759990  1
  Ag  Ag60  1  0.86023671  0.94319034  0.96034890  1
  Ag  Ag61  1  0.13976329  0.94319034  0.46034890  1
  Ag  Ag62  1  0.11316678  0.47710461  0.47434644  1
  Ag  Ag63  1  0.13814841  0.76085436  0.76114206  1
  Ge  Ge64  1  0.61874755  0.00259096  0.85478687  1
  Ge  Ge65  1  0.38125245  0.00259096  0.35478687  1
  Ge  Ge66  1  0.11676011  0.01354540  0.83931044  1
  Ge  Ge67  1  0.37142546  0.49361418  0.34838439  1
  Ge  Ge68  1  0.87155608  0.92409230  0.76808007  1
  Ge  Ge69  1  0.37758976  0.79479825  0.64096813  1
  Ge  Ge70  1  0.12048059  0.41528630  0.27498141  1
  Ge  Ge71  1  0.13454277  0.51995884  0.84942345  1
  Ge  Ge72  1  0.62857454  0.49361418  0.84838439  1
  Ge  Ge73  1  0.87335441  0.22861876  0.05973085  1
  Ge  Ge74  1  0.86545723  0.51995884  0.34942345  1
  Ge  Ge75  1  0.88323989  0.01354540  0.33931044  1
  Ge  Ge76  1  0.37942742  0.70595509  0.06736911  1
  Ge  Ge77  1  0.12844392  0.92409230  0.26808007  1
  Ge  Ge78  1  0.87850539  0.71960777  0.05611208  1
  Ge  Ge79  1  0.37200387  0.19735588  0.06420112  1
  Ge  Ge80  1  0.62799613  0.19735588  0.56420112  1
  Ge  Ge81  1  0.12664559  0.22861876  0.55973085  1
  Ge  Ge82  1  0.38202372  0.31004007  0.62560551  1
  Ge  Ge83  1  0.87951941  0.41528630  0.77498141  1
  Ge  Ge84  1  0.62057258  0.70595509  0.56736911  1
  Ge  Ge85  1  0.62241024  0.79479825  0.14096813  1
  Ge  Ge86  1  0.61797628  0.31004007  0.12560551  1
  Ge  Ge87  1  0.12149461  0.71960777  0.55611208  1
  O  O88  1  0.83859561  0.27744175  0.77205864  1
  O  O89  1  0.58524751  0.75209385  0.22527534  1
  O  O90  1  0.91077677  0.97089994  0.68517862  1
  O  O91  1  0.13806383  0.47785136  0.19314483  1
  O  O92  1  0.84664060  0.15405101  0.34115602  1
  O  O93  1  0.66107237  0.56679711  0.56752479  1
  O  O94  1  0.05009629  0.00411611  0.33707086  1
  O  O95  1  0.45379705  0.71055918  0.57268392  1
  O  O96  1  0.61417978  0.24570574  0.20708910  1
  O  O97  1  0.91934672  0.09133150  0.05451479  1
  O  O98  1  0.83638517  0.95418330  0.41858730  1
  O  O99  1  0.18412044  0.94647252  0.76379941  1
  O  O100  1  0.21632343  0.77174553  0.62828321  1
  O  O101  1  0.28442240  0.06383955  0.42156665  1
  O  O102  1  0.66664737  0.76456085  0.48787326  1
  O  O103  1  0.53160247  0.31562377  0.58349226  1
  O  O104  1  0.70987137  0.93841376  0.78430057  1
  O  O105  1  0.41617652  0.63148912  0.35428070  1
  O  O106  1  0.91541926  0.29693846  0.98221599  1
  O  O107  1  0.78837615  0.65812918  0.98639716  1
  O  O108  1  0.92913703  0.29493740  0.13859934  1
  O  O109  1  0.97453926  0.62243200  0.09373339  1
  O  O110  1  0.29376699  0.23018347  0.56133795  1
  O  O111  1  0.78279114  0.60540742  0.29479365  1
  O  O112  1  0.47143422  0.89948387  0.39115794  1
  O  O113  1  0.04936611  0.59797900  0.91341721  1
  O  O114  1  0.78367657  0.77174553  0.12828321  1
  O  O115  1  0.08458074  0.29693846  0.48221599  1
  O  O116  1  0.54620295  0.71055918  0.07268392  1
  O  O117  1  0.58650005  0.93169208  0.12770010  1
  O  O118  1  0.46839753  0.31562377  0.08349226  1
  O  O119  1  0.03553564  0.82790102  0.52336703  1
  O  O120  1  0.86193617  0.47785136  0.69314483  1
  O  O121  1  0.44556839  0.12003105  0.99504152  1
  O  O122  1  0.96446436  0.82790102  0.02336703  1
  O  O123  1  0.59193618  0.42548970  0.92656365  1
  O  O124  1  0.24079521  0.42859136  0.88819636  1
  O  O125  1  0.21720886  0.60540742  0.79479365  1
  O  O126  1  0.21162385  0.65812918  0.48639716  1
  O  O127  1  0.40806382  0.42548970  0.42656365  1
  O  O128  1  0.66910414  0.44512761  0.13456162  1
  O  O129  1  0.08955347  0.78625368  0.27820737  1
  O  O130  1  0.52856578  0.89948387  0.89115794  1
  O  O131  1  0.03756078  0.42561308  0.80005274  1
  O  O132  1  0.91044653  0.78625368  0.77820737  1
  O  O133  1  0.52571757  0.10160471  0.81741691  1
  O  O134  1  0.08922323  0.97089994  0.18517862  1
  O  O135  1  0.16361483  0.95418330  0.91858730  1
  O  O136  1  0.76874800  0.24688374  0.53011321  1
  O  O137  1  0.58382348  0.63148912  0.85428070  1
  O  O138  1  0.20420821  0.49191595  0.34271357  1
  O  O139  1  0.08065328  0.09133150  0.55451479  1
  O  O140  1  0.02546074  0.62243200  0.59373339  1
  O  O141  1  0.95063389  0.59797900  0.41341721  1
  O  O142  1  0.75920479  0.42859136  0.38819636  1
  O  O143  1  0.43511463  0.42726021  0.27183392  1
  O  O144  1  0.65825365  0.13432678  0.64444375  1
  O  O145  1  0.68307499  0.77906015  0.64251615  1
  O  O146  1  0.70623301  0.23018347  0.06133795  1
  O  O147  1  0.71557760  0.06383955  0.92156665  1
  O  O148  1  0.23125200  0.24688374  0.03011321  1
  O  O149  1  0.31692501  0.77906015  0.14251615  1
  O  O150  1  0.15335940  0.15405101  0.84115602  1
  O  O151  1  0.55443161  0.12003105  0.49504152  1
  O  O152  1  0.34174635  0.13432678  0.14444375  1
  O  O153  1  0.56488537  0.42726021  0.77183392  1
  O  O154  1  0.79579179  0.49191595  0.84271357  1
  O  O155  1  0.47428243  0.10160471  0.31741691  1
  O  O156  1  0.96243922  0.42561308  0.30005274  1
  O  O157  1  0.07086297  0.29493740  0.63859934  1
  O  O158  1  0.81587956  0.94647252  0.26379941  1
  O  O159  1  0.94990371  0.00411611  0.83707086  1
  O  O160  1  0.33089586  0.44512761  0.63456162  1
  O  O161  1  0.16140439  0.27744175  0.27205864  1
  O  O162  1  0.33892763  0.56679711  0.06752479  1
  O  O163  1  0.41475249  0.75209385  0.72527534  1
  O  O164  1  0.38582022  0.24570574  0.70708910  1
  O  O165  1  0.33335263  0.76456085  0.98787326  1
  O  O166  1  0.29012863  0.93841376  0.28430057  1
  O  O167  1  0.41349995  0.93169208  0.62770010  1
