# generated using pymatgen
data_W6CCl16
_symmetry_space_group_name_H-M   'P 1'
_cell_length_a   10.10145503
_cell_length_b   13.17703680
_cell_length_c   17.15814563
_cell_angle_alpha   90.00000000
_cell_angle_beta   90.00000000
_cell_angle_gamma   90.00000000
_symmetry_Int_Tables_number   1
_chemical_formula_structural   W6CCl16
_chemical_formula_sum   'W24 C4 Cl64'
_cell_volume   2283.87348835
_cell_formula_units_Z   4
loop_
 _symmetry_equiv_pos_site_id
 _symmetry_equiv_pos_as_xyz
  1  'x, y, z'
loop_
 _atom_site_type_symbol
 _atom_site_label
 _atom_site_symmetry_multiplicity
 _atom_site_fract_x
 _atom_site_fract_y
 _atom_site_fract_z
 _atom_site_occupancy
  W  W0  1  0.88213747  0.15025305  0.27193504  1
  W  W1  1  0.38213747  0.65025305  0.22806496  1
  W  W2  1  0.15726026  0.34977584  0.34499031  1
  W  W3  1  0.34273974  0.15022416  0.84499031  1
  W  W4  1  0.34273974  0.34977584  0.84499031  1
  W  W5  1  0.38213747  0.84974695  0.22806496  1
  W  W6  1  0.28648631  0.75000000  0.10508637  1
  W  W7  1  0.65726026  0.65022416  0.15500969  1
  W  W8  1  0.15726026  0.15022416  0.34499031  1
  W  W9  1  0.11786253  0.84974695  0.72806496  1
  W  W10  1  0.61786253  0.15025305  0.77193504  1
  W  W11  1  0.84273974  0.84977584  0.65500969  1
  W  W12  1  0.21351369  0.75000000  0.60508637  1
  W  W13  1  0.61786253  0.34974695  0.77193504  1
  W  W14  1  0.84273974  0.65022416  0.65500969  1
  W  W15  1  0.56447275  0.75000000  0.03105961  1
  W  W16  1  0.43552725  0.25000000  0.96894039  1
  W  W17  1  0.71351369  0.25000000  0.89491363  1
  W  W18  1  0.93552725  0.75000000  0.53105961  1
  W  W19  1  0.78648631  0.25000000  0.39491363  1
  W  W20  1  0.11786253  0.65025305  0.72806496  1
  W  W21  1  0.06447275  0.25000000  0.46894039  1
  W  W22  1  0.65726026  0.84977584  0.15500969  1
  W  W23  1  0.88213747  0.34974695  0.27193504  1
  C  C24  1  0.98945819  0.25000000  0.34849301  1
  C  C25  1  0.01054181  0.75000000  0.65150699  1
  C  C26  1  0.48945819  0.75000000  0.15150699  1
  C  C27  1  0.51054181  0.25000000  0.84849301  1
  Cl  Cl28  1  0.90021230  0.86494196  0.79424992  1
  Cl  Cl29  1  0.88004065  0.13080198  0.49082153  1
  Cl  Cl30  1  0.61995935  0.36919802  0.99082153  1
  Cl  Cl31  1  0.11995935  0.86919802  0.50917847  1
  Cl  Cl32  1  0.74172613  0.62663380  0.02480332  1
  Cl  Cl33  1  0.92115482  0.75000000  0.39082193  1
  Cl  Cl34  1  0.77745678  0.25000000  0.17244102  1
  Cl  Cl35  1  0.09978770  0.36494196  0.20575008  1
  Cl  Cl36  1  0.57884518  0.75000000  0.89082193  1
  Cl  Cl37  1  0.24172613  0.12663380  0.47519668  1
  Cl  Cl38  1  0.67606271  0.00110252  0.67759027  1
  Cl  Cl39  1  0.59978770  0.86494196  0.29424992  1
  Cl  Cl40  1  0.48807606  0.51525202  0.14953394  1
  Cl  Cl41  1  0.66288056  0.37516642  0.32138764  1
  Cl  Cl42  1  0.85224585  0.75000000  0.17736787  1
  Cl  Cl43  1  0.33711944  0.87516642  0.67861236  1
  Cl  Cl44  1  0.16288056  0.87516642  0.17861236  1
  Cl  Cl45  1  0.59886122  0.25000000  0.48043957  1
  Cl  Cl46  1  0.88004065  0.36919802  0.49082153  1
  Cl  Cl47  1  0.33711944  0.62483358  0.67861236  1
  Cl  Cl48  1  0.01192394  0.98474798  0.64953394  1
  Cl  Cl49  1  0.83711944  0.12483358  0.82138764  1
  Cl  Cl50  1  0.25827387  0.37336620  0.97519668  1
  Cl  Cl51  1  0.40021230  0.13505804  0.70575008  1
  Cl  Cl52  1  0.17606271  0.99889748  0.82240973  1
  Cl  Cl53  1  0.61995935  0.13080198  0.99082153  1
  Cl  Cl54  1  0.38004065  0.86919802  0.00917847  1
  Cl  Cl55  1  0.75827387  0.87336620  0.52480332  1
  Cl  Cl56  1  0.24172613  0.37336620  0.47519668  1
  Cl  Cl57  1  0.51192394  0.48474798  0.85046606  1
  Cl  Cl58  1  0.98807606  0.48474798  0.35046606  1
  Cl  Cl59  1  0.74172613  0.87336620  0.02480332  1
  Cl  Cl60  1  0.42115482  0.25000000  0.10917807  1
  Cl  Cl61  1  0.90113878  0.25000000  0.98043957  1
  Cl  Cl62  1  0.25827387  0.12663380  0.97519668  1
  Cl  Cl63  1  0.14775415  0.25000000  0.82263213  1
  Cl  Cl64  1  0.82393729  0.00110252  0.17759027  1
  Cl  Cl65  1  0.16288056  0.62483358  0.17861236  1
  Cl  Cl66  1  0.75827387  0.62663380  0.52480332  1
  Cl  Cl67  1  0.40113878  0.75000000  0.51956043  1
  Cl  Cl68  1  0.51192394  0.01525202  0.85046606  1
  Cl  Cl69  1  0.83711944  0.37516642  0.82138764  1
  Cl  Cl70  1  0.48807606  0.98474798  0.14953394  1
  Cl  Cl71  1  0.22254322  0.75000000  0.82755898  1
  Cl  Cl72  1  0.66288056  0.12483358  0.32138764  1
  Cl  Cl73  1  0.40021230  0.36494196  0.70575008  1
  Cl  Cl74  1  0.59978770  0.63505804  0.29424992  1
  Cl  Cl75  1  0.09978770  0.13505804  0.20575008  1
  Cl  Cl76  1  0.64775415  0.75000000  0.67736787  1
  Cl  Cl77  1  0.07884518  0.25000000  0.60917807  1
  Cl  Cl78  1  0.82393729  0.49889748  0.17759027  1
  Cl  Cl79  1  0.27745678  0.75000000  0.32755898  1
  Cl  Cl80  1  0.35224585  0.25000000  0.32263213  1
  Cl  Cl81  1  0.38004065  0.63080198  0.00917847  1
  Cl  Cl82  1  0.32393729  0.99889748  0.32240973  1
  Cl  Cl83  1  0.17606271  0.50110252  0.82240973  1
  Cl  Cl84  1  0.11995935  0.63080198  0.50917847  1
  Cl  Cl85  1  0.01192394  0.51525202  0.64953394  1
  Cl  Cl86  1  0.09886122  0.75000000  0.01956043  1
  Cl  Cl87  1  0.72254322  0.25000000  0.67244102  1
  Cl  Cl88  1  0.67606271  0.49889748  0.67759027  1
  Cl  Cl89  1  0.90021230  0.63505804  0.79424992  1
  Cl  Cl90  1  0.32393729  0.50110252  0.32240973  1
  Cl  Cl91  1  0.98807606  0.01525202  0.35046606  1
