# generated using pymatgen
data_NaCaScZn(SiO3)4
_symmetry_space_group_name_H-M   'P 1'
_cell_length_a   5.34892323
_cell_length_b   13.44802407
_cell_length_c   9.96220348
_cell_angle_alpha   42.20098034
_cell_angle_beta   73.96856379
_cell_angle_gamma   78.19503217
_symmetry_Int_Tables_number   1
_chemical_formula_structural   NaCaScZn(SiO3)4
_chemical_formula_sum   'Na2 Ca2 Sc2 Zn2 Si8 O24'
_cell_volume   462.64763389
_cell_formula_units_Z   2
loop_
 _symmetry_equiv_pos_site_id
 _symmetry_equiv_pos_as_xyz
  1  'x, y, z'
loop_
 _atom_site_type_symbol
 _atom_site_label
 _atom_site_symmetry_multiplicity
 _atom_site_fract_x
 _atom_site_fract_y
 _atom_site_fract_z
 _atom_site_occupancy
  Na  Na0  1  0.25000000  0.69713396  0.30286604  1
  Na  Na1  1  0.75000000  0.80286604  0.69713396  1
  Ca  Ca2  1  0.25000000  0.19645666  0.30354334  1
  Ca  Ca3  1  0.75000000  0.30354334  0.69645666  1
  Sc  Sc4  1  0.25000000  0.60062308  0.89937692  1
  Sc  Sc5  1  0.75000000  0.89937692  0.10062308  1
  Zn  Zn6  1  0.25000000  0.09809753  0.90190247  1
  Zn  Zn7  1  0.75000000  0.40190247  0.09809753  1
  Si  Si8  1  0.26105201  0.41029793  0.37987675  1
  Si  Si9  1  0.23894799  0.41029793  0.79952739  1
  Si  Si10  1  0.26103842  0.90824804  0.37866235  1
  Si  Si11  1  0.76105201  0.08970207  0.20047261  1
  Si  Si12  1  0.23896158  0.90824804  0.80484158  1
  Si  Si13  1  0.73894799  0.08970207  0.62012325  1
  Si  Si14  1  0.76103842  0.59175196  0.19515842  1
  Si  Si15  1  0.73896158  0.59175196  0.62133765  1
  O  O16  1  0.00150490  0.48336388  0.66893058  1
  O  O17  1  0.17316975  0.25350572  0.61062427  1
  O  O18  1  0.34672910  0.41251981  0.20695923  1
  O  O19  1  0.00918832  0.98529224  0.66458484  1
  O  O20  1  0.15327090  0.41251981  0.96800115  1
  O  O21  1  0.18488744  0.74911900  0.60961336  1
  O  O22  1  0.50150490  0.01663612  0.63565833  1
  O  O23  1  0.32683025  0.25350572  0.88236429  1
  O  O24  1  0.35660222  0.91510496  0.20249396  1
  O  O25  1  0.67316975  0.24649428  0.11763571  1
  O  O26  1  0.49849510  0.48336388  0.36434167  1
  O  O27  1  0.84672910  0.08748019  0.03199885  1
  O  O28  1  0.14339778  0.91510496  0.96729612  1
  O  O29  1  0.50918832  0.51470776  0.63516933  1
  O  O30  1  0.31511256  0.74911900  0.89214863  1
  O  O31  1  0.65327090  0.08748019  0.79304077  1
  O  O32  1  0.68488744  0.75088100  0.10785137  1
  O  O33  1  0.49081168  0.98529224  0.36483067  1
  O  O34  1  0.82683025  0.24649428  0.38937573  1
  O  O35  1  0.85660222  0.58489504  0.03270388  1
  O  O36  1  0.99849510  0.01663612  0.33106942  1
  O  O37  1  0.64339778  0.58489504  0.79750604  1
  O  O38  1  0.81511256  0.75088100  0.39038664  1
  O  O39  1  0.99081168  0.51470776  0.33541516  1
