# generated using pymatgen
data_HfGe2Rh
_symmetry_space_group_name_H-M   'P 1'
_cell_length_a   8.08297045
_cell_length_b   9.31442038
_cell_length_c   10.56671910
_cell_angle_alpha   90.00000000
_cell_angle_beta   90.00000000
_cell_angle_gamma   90.00000000
_symmetry_Int_Tables_number   1
_chemical_formula_structural   HfGe2Rh
_chemical_formula_sum   'Hf12 Ge24 Rh12'
_cell_volume   795.54909917
_cell_formula_units_Z   12
loop_
 _symmetry_equiv_pos_site_id
 _symmetry_equiv_pos_as_xyz
  1  'x, y, z'
loop_
 _atom_site_type_symbol
 _atom_site_label
 _atom_site_symmetry_multiplicity
 _atom_site_fract_x
 _atom_site_fract_y
 _atom_site_fract_z
 _atom_site_occupancy
  Hf  Hf0  1  0.24402602  0.82991099  0.45356798  1
  Hf  Hf1  1  0.24402602  0.17008901  0.54643202  1
  Hf  Hf2  1  0.75597398  0.32991099  0.04643202  1
  Hf  Hf3  1  0.75597398  0.67008901  0.95356798  1
  Hf  Hf4  1  0.75597398  0.17008901  0.54643202  1
  Hf  Hf5  1  0.75597398  0.82991099  0.45356798  1
  Hf  Hf6  1  0.24402602  0.67008901  0.95356798  1
  Hf  Hf7  1  0.24402602  0.32991099  0.04643202  1
  Hf  Hf8  1  -0.00000000  0.83456306  0.18240850  1
  Hf  Hf9  1  -0.00000000  0.16543694  0.81759150  1
  Hf  Hf10  1  -0.00000000  0.33456306  0.31759150  1
  Hf  Hf11  1  -0.00000000  0.66543694  0.68240850  1
  Ge  Ge12  1  0.34838358  0.84510447  0.18311321  1
  Ge  Ge13  1  0.34838358  0.15489553  0.81688679  1
  Ge  Ge14  1  0.65161642  0.34510447  0.31688679  1
  Ge  Ge15  1  0.65161642  0.65489553  0.68311321  1
  Ge  Ge16  1  0.65161642  0.15489553  0.81688679  1
  Ge  Ge17  1  0.65161642  0.84510447  0.18311321  1
  Ge  Ge18  1  0.34838358  0.65489553  0.68311321  1
  Ge  Ge19  1  0.34838358  0.34510447  0.31688679  1
  Ge  Ge20  1  0.50000000  0.54730142  0.11219807  1
  Ge  Ge21  1  0.50000000  0.45269858  0.88780193  1
  Ge  Ge22  1  0.50000000  0.04730142  0.38780193  1
  Ge  Ge23  1  0.50000000  0.95269858  0.61219807  1
  Ge  Ge24  1  0.00000000  0.53788874  0.11548151  1
  Ge  Ge25  1  0.00000000  0.46211126  0.88451849  1
  Ge  Ge26  1  -0.00000000  0.03788874  0.38451849  1
  Ge  Ge27  1  -0.00000000  0.96211126  0.61548151  1
  Ge  Ge28  1  0.50000000  0.63871622  0.40548049  1
  Ge  Ge29  1  0.50000000  0.36128378  0.59451951  1
  Ge  Ge30  1  0.50000000  0.13871622  0.09451951  1
  Ge  Ge31  1  0.50000000  0.86128378  0.90548049  1
  Ge  Ge32  1  0.00000000  0.63292664  0.40096818  1
  Ge  Ge33  1  -0.00000000  0.36707336  0.59903182  1
  Ge  Ge34  1  -0.00000000  0.13292664  0.09903182  1
  Ge  Ge35  1  -0.00000000  0.86707336  0.90096818  1
  Rh  Rh36  1  0.24968866  0.59930464  0.24528256  1
  Rh  Rh37  1  0.24968866  0.40069536  0.75471744  1
  Rh  Rh38  1  0.75031134  0.09930464  0.25471744  1
  Rh  Rh39  1  0.75031134  0.90069536  0.74528256  1
  Rh  Rh40  1  0.75031134  0.40069536  0.75471744  1
  Rh  Rh41  1  0.75031134  0.59930464  0.24528256  1
  Rh  Rh42  1  0.24968866  0.90069536  0.74528256  1
  Rh  Rh43  1  0.24968866  0.09930464  0.25471744  1
  Rh  Rh44  1  0.24807530  0.50000000  0.50000000  1
  Rh  Rh45  1  0.75192470  0.00000000  0.00000000  1
  Rh  Rh46  1  0.75192470  0.50000000  0.50000000  1
  Rh  Rh47  1  0.24807530  0.00000000  0.00000000  1
