# generated using pymatgen
data_Gd2S3
_symmetry_space_group_name_H-M   'P 1'
_cell_length_a   21.85207912
_cell_length_b   8.41486549
_cell_length_c   8.41486529
_cell_angle_alpha   90.00000000
_cell_angle_beta   54.71635919
_cell_angle_gamma   54.71635826
_symmetry_Int_Tables_number   1
_chemical_formula_structural   Gd2S3
_chemical_formula_sum   'Gd16 S24'
_cell_volume   892.51043876
_cell_formula_units_Z   8
loop_
 _symmetry_equiv_pos_site_id
 _symmetry_equiv_pos_as_xyz
  1  'x, y, z'
loop_
 _atom_site_type_symbol
 _atom_site_label
 _atom_site_symmetry_multiplicity
 _atom_site_fract_x
 _atom_site_fract_y
 _atom_site_fract_z
 _atom_site_occupancy
  Gd  Gd0  1  0.08504042  0.62243887  0.37243887  1
  Gd  Gd1  1  0.16666700  0.25000000  0.63053136  1
  Gd  Gd2  1  0.24829258  0.87756113  0.12756113  1
  Gd  Gd3  1  0.33848367  0.38037488  0.25100458  1
  Gd  Gd4  1  0.33848367  0.10417310  0.73354340  1
  Gd  Gd5  1  0.16666700  0.75000000  0.86946864  1
  Gd  Gd6  1  0.49484933  0.26645660  0.61962512  1
  Gd  Gd7  1  0.58504042  0.87243887  0.12243887  1
  Gd  Gd8  1  0.66666700  0.36946864  0.25000000  1
  Gd  Gd9  1  0.49484933  0.74899542  0.89582690  1
  Gd  Gd10  1  0.66666700  0.13053136  0.75000000  1
  Gd  Gd11  1  0.74829258  0.62756113  0.37756113  1
  Gd  Gd12  1  0.83848367  0.23354340  0.60417310  1
  Gd  Gd13  1  0.99484933  0.39582690  0.24899542  1
  Gd  Gd14  1  0.99484933  0.11962512  0.76645660  1
  Gd  Gd15  1  0.83848367  0.75100458  0.88037488  1
  S  S16  1  0.12715254  0.48801696  0.99233874  1
  S  S17  1  0.04888424  0.35502318  0.49497947  1
  S  S18  1  0.04888424  0.99832309  0.35836679  1
  S  S19  1  0.28444876  0.14497682  0.14163321  1
  S  S20  1  0.28444876  0.50167691  0.00502053  1
  S  S21  1  0.12715254  0.63052443  0.62620264  1
  S  S22  1  0.20618046  0.86947557  0.50766126  1
  S  S23  1  0.45075873  0.49479861  0.99586358  1
  S  S24  1  0.38257527  0.34813876  0.50520139  1
  S  S25  1  0.20618046  0.01198304  0.87379736  1
  S  S26  1  0.38257527  0.00413642  0.34707380  1
  S  S27  1  0.62715254  0.12620264  0.13052443  1
  S  S28  1  0.62715254  0.49233874  0.98801696  1
  S  S29  1  0.45075873  0.65292620  0.65186124  1
  S  S30  1  0.54888424  0.85836679  0.49832309  1
  S  S31  1  0.78444876  0.50502053  0.00167691  1
  S  S32  1  0.70618046  0.37379736  0.51198304  1
  S  S33  1  0.54888424  0.99497947  0.85502318  1
  S  S34  1  0.95075873  0.15186124  0.15292620  1
  S  S35  1  0.70618046  0.00766126  0.36947557  1
  S  S36  1  0.95075873  0.49586358  0.99479861  1
  S  S37  1  0.78444876  0.64163321  0.64497682  1
  S  S38  1  0.88257527  0.84707380  0.50413642  1
  S  S39  1  0.88257527  0.00520139  0.84813876  1
