# generated using pymatgen
data_Al2Si2H4O9
_symmetry_space_group_name_H-M   'P 1'
_cell_length_a   5.20670873
_cell_length_b   5.20670873
_cell_length_c   14.48656921
_cell_angle_alpha   90.46750806
_cell_angle_beta   89.53249194
_cell_angle_gamma   60.16726050
_symmetry_Int_Tables_number   1
_chemical_formula_structural   Al2Si2H4O9
_chemical_formula_sum   'Al4 Si4 H8 O18'
_cell_volume   340.63926468
_cell_formula_units_Z   2
loop_
 _symmetry_equiv_pos_site_id
 _symmetry_equiv_pos_as_xyz
  1  'x, y, z'
loop_
 _atom_site_type_symbol
 _atom_site_label
 _atom_site_symmetry_multiplicity
 _atom_site_fract_x
 _atom_site_fract_y
 _atom_site_fract_z
 _atom_site_occupancy
  Al  Al0  1  0.55163451  0.78596402  0.73179566  1
  Al  Al1  1  0.21403598  0.44836549  0.23179566  1
  Al  Al2  1  0.89217706  0.11450883  0.73236413  1
  Al  Al3  1  0.88549117  0.10782294  0.23236413  1
  Si  Si4  1  0.56372021  0.46562203  0.54146722  1
  Si  Si5  1  0.53437797  0.43627979  0.04146722  1
  Si  Si6  1  0.87666538  0.81104929  0.54064756  1
  Si  Si7  1  0.18895071  0.12333462  0.04064756  1
  H  H8  1  0.22121166  0.24864005  0.64933698  1
  H  H9  1  0.75135995  0.77878834  0.14933698  1
  H  H10  1  0.95315478  0.45440845  0.84489051  1
  H  H11  1  0.54559155  0.04684522  0.34489051  1
  H  H12  1  0.22066642  0.74453316  0.85674770  1
  H  H13  1  0.25546684  0.77933358  0.35674770  1
  H  H14  1  0.55989044  0.11359930  0.86292639  1
  H  H15  1  0.88640070  0.44010956  0.36292639  1
  O  O16  1  0.68190291  0.67412881  0.49254122  1
  O  O17  1  0.32587119  0.31809709  0.99254122  1
  O  O18  1  0.76153327  0.13491766  0.49425432  1
  O  O19  1  0.86508234  0.23846673  0.99425432  1
  O  O20  1  0.22150190  0.58514550  0.51057215  1
  O  O21  1  0.41485450  0.77849810  0.01057215  1
  O  O22  1  0.60609657  0.45311200  0.65250348  1
  O  O23  1  0.54688800  0.39390343  0.15250348  1
  O  O24  1  0.83136756  0.84213380  0.65204996  1
  O  O25  1  0.15786620  0.16863244  0.15204996  1
  O  O26  1  0.22376336  0.06229676  0.65806928  1
  O  O27  1  0.93770324  0.77623664  0.15806928  1
  O  O28  1  0.83084060  0.45554040  0.79499656  1
  O  O29  1  0.54445960  0.16915940  0.29499656  1
  O  O30  1  0.21991719  0.84024415  0.79950067  1
  O  O31  1  0.15975585  0.78008281  0.29950067  1
  O  O32  1  0.61171065  0.06191024  0.79833620  1
  O  O33  1  0.93808976  0.38828935  0.29833620  1
