# generated using pymatgen
data_Zn2P2H12O11
_symmetry_space_group_name_H-M   'P 1'
_cell_length_a   7.79236024
_cell_length_b   9.54094421
_cell_length_c   7.64805739
_cell_angle_alpha   90.74742745
_cell_angle_beta   92.93277878
_cell_angle_gamma   88.14198325
_symmetry_Int_Tables_number   1
_chemical_formula_structural   Zn2P2H12O11
_chemical_formula_sum   'Zn4 P4 H24 O22'
_cell_volume   567.52588769
_cell_formula_units_Z   2
loop_
 _symmetry_equiv_pos_site_id
 _symmetry_equiv_pos_as_xyz
  1  'x, y, z'
loop_
 _atom_site_type_symbol
 _atom_site_label
 _atom_site_symmetry_multiplicity
 _atom_site_fract_x
 _atom_site_fract_y
 _atom_site_fract_z
 _atom_site_occupancy
  Zn  Zn0  1  0.00000000  0.00000000  0.00000000  1
  Zn  Zn1  1  0.99695070  0.75005100  0.49877532  1
  Zn  Zn2  1  0.00304930  0.24994900  0.50122468  1
  Zn  Zn3  1  0.50000000  0.50000000  0.50000000  1
  P  P4  1  0.77912440  0.99145848  0.37181816  1
  P  P5  1  0.22087560  0.00854152  0.62818184  1
  P  P6  1  0.88851819  0.51396593  0.72505222  1
  P  P7  1  0.11148181  0.48603407  0.27494778  1
  H  H8  1  0.83027633  0.52648012  0.89701005  1
  H  H9  1  0.16972367  0.47351988  0.10298995  1
  H  H10  1  0.61310753  0.99334860  0.28760135  1
  H  H11  1  0.38689247  0.00665140  0.71239865  1
  H  H12  1  0.75728040  0.90665318  0.75158563  1
  H  H13  1  0.24271960  0.09334682  0.24841437  1
  H  H14  1  0.68533793  0.86489012  0.93467480  1
  H  H15  1  0.31466207  0.13510988  0.06532520  1
  H  H16  1  0.08273221  0.74871633  0.10427140  1
  H  H17  1  0.91726779  0.25128367  0.89572860  1
  H  H18  1  0.08084447  0.73839300  0.89560527  1
  H  H19  1  0.91915553  0.26160700  0.10439473  1
  H  H20  1  0.43664866  0.61617334  0.82769079  1
  H  H21  1  0.56335134  0.38382666  0.17230921  1
  H  H22  1  0.26878410  0.55420512  0.73445699  1
  H  H23  1  0.73121590  0.44579488  0.26554301  1
  H  H24  1  0.58538342  0.75817465  0.46270330  1
  H  H25  1  0.41461658  0.24182535  0.53729670  1
  H  H26  1  0.37902700  0.76901916  0.46070772  1
  H  H27  1  0.62097300  0.23098084  0.53929228  1
  H  H28  1  0.53308387  0.67443472  0.09779972  1
  H  H29  1  0.46691613  0.32556528  0.90220028  1
  H  H30  1  0.41503998  0.79857543  0.03146463  1
  H  H31  1  0.58496002  0.20142457  0.96853537  1
  O  O32  1  0.75868047  0.93062678  0.87719854  1
  O  O33  1  0.24131953  0.06937322  0.12280146  1
  O  O34  1  0.91497643  0.95849834  0.24093690  1
  O  O35  1  0.08502357  0.04150166  0.75906310  1
  O  O36  1  0.11992101  0.79628034  0.99805567  1
  O  O37  1  0.88007899  0.20371966  0.00194433  1
  O  O38  1  0.02964824  0.62589308  0.71298295  1
  O  O39  1  0.97035176  0.37410692  0.28701705  1
  O  O40  1  0.77983427  0.86923983  0.50723381  1
  O  O41  1  0.22016573  0.13076017  0.49276619  1
  O  O42  1  0.03453034  0.63711528  0.28455412  1
  O  O43  1  0.96546966  0.36288472  0.71544588  1
  O  O44  1  0.79247608  0.13671394  0.46166688  1
  O  O45  1  0.20752392  0.86328606  0.53833312  1
  O  O46  1  0.39415163  0.53583106  0.75707841  1
  O  O47  1  0.60584837  0.46416894  0.24292159  1
  O  O48  1  0.47937339  0.71256495  0.41905562  1
  O  O49  1  0.52062661  0.28743505  0.58094438  1
  O  O50  1  0.74187246  0.54749218  0.59247375  1
  O  O51  1  0.25812754  0.45250782  0.40752625  1
  O  O52  1  0.51574125  0.73973737  0.00068969  1
  O  O53  1  0.48425875  0.26026263  0.99931031  1
