# generated using pymatgen
data_Ca2H2S2O9
_symmetry_space_group_name_H-M   'P 1'
_cell_length_a   9.55317381
_cell_length_b   9.46767554
_cell_length_c   9.55317381
_cell_angle_alpha   100.20577840
_cell_angle_beta   136.74401488
_cell_angle_gamma   95.56472849
_symmetry_Int_Tables_number   1
_chemical_formula_structural   Ca2H2S2O9
_chemical_formula_sum   'Ca6 H6 S6 O27'
_cell_volume   549.03267548
_cell_formula_units_Z   3
loop_
 _symmetry_equiv_pos_site_id
 _symmetry_equiv_pos_as_xyz
  1  'x, y, z'
loop_
 _atom_site_type_symbol
 _atom_site_label
 _atom_site_symmetry_multiplicity
 _atom_site_fract_x
 _atom_site_fract_y
 _atom_site_fract_z
 _atom_site_occupancy
  Ca  Ca0  1  0.51604342  0.50000000  0.01604342  1
  Ca  Ca1  1  0.01767299  0.11800371  0.46141761  1
  Ca  Ca2  1  0.34341390  0.88199629  0.89966929  1
  Ca  Ca3  1  0.88155259  0.40325434  0.95604787  1
  Ca  Ca4  1  0.55279354  0.59674566  0.47829825  1
  Ca  Ca5  1  0.01573686  0.00000000  0.01573686  1
  H  H6  1  0.39817747  0.01431953  0.48569003  1
  H  H7  1  0.47137051  0.98568047  0.38385794  1
  H  H8  1  0.90621602  0.36735180  0.58021427  1
  H  H9  1  0.21286247  0.63264820  0.53886422  1
  H  H10  1  0.69056442  0.25300139  0.34712441  1
  H  H11  1  0.09412302  0.74699861  0.43756303  1
  S  S12  1  0.76652736  0.74921310  0.01845195  1
  S  S13  1  0.26923885  0.25078690  0.01731425  1
  S  S14  1  0.76535968  0.85657428  0.45948447  1
  S  S15  1  0.60291019  0.14342572  0.90878540  1
  S  S16  1  0.11755519  0.63844845  0.92957126  1
  S  S17  1  0.29112281  0.36155155  0.47910674  1
  O  O18  1  0.82785556  0.61203650  0.07067379  1
  O  O19  1  0.45863729  0.38796350  0.21581906  1
  O  O20  1  0.71446080  0.75546807  0.82989722  1
  O  O21  1  0.07442915  0.24453193  0.95899273  1
  O  O22  1  0.94922593  0.89054307  0.20952705  1
  O  O23  1  0.31898398  0.10945693  0.05868286  1
  O  O24  1  0.57448955  0.73444531  0.96512811  1
  O  O25  1  0.23068280  0.26555469  0.84004424  1
  O  O26  1  0.99440373  0.92591247  0.59050925  1
  O  O27  1  0.66459678  0.07408753  0.06849125  1
  O  O28  1  0.74436614  0.88053541  0.60164180  1
  O  O29  1  0.72110639  0.11946459  0.86383073  1
  O  O30  1  0.68928026  0.68764291  0.35304012  1
  O  O31  1  0.66539721  0.31235709  0.00163735  1
  O  O32  1  0.63374129  0.93026039  0.29607886  1
  O  O33  1  0.36581847  0.06973961  0.70348090  1
  O  O34  1  0.21812425  0.61979827  0.13494118  1
  O  O35  1  0.51514291  0.38020173  0.59832598  1
  O  O36  1  0.23312282  0.60129516  0.88616431  1
  O  O37  1  0.28486915  0.39870484  0.63182766  1
  O  O38  1  0.11705411  0.79610814  0.93477320  1
  O  O39  1  0.13866506  0.20389186  0.32094597  1
  O  O40  1  0.88715585  0.53029731  0.74850738  1
  O  O41  1  0.21821008  0.46970269  0.35685854  1
  O  O42  1  0.84673751  0.28729979  0.45321074  1
  O  O43  1  0.16591096  0.71270021  0.55943772  1
  O  O44  1  0.35229070  0.00000000  0.35229070  1
