# generated using pymatgen
data_CsUV3O11
_symmetry_space_group_name_H-M   'P 1'
_cell_length_a   6.90933358
_cell_length_b   12.06167851
_cell_length_c   12.64290793
_cell_angle_alpha   106.64439119
_cell_angle_beta   90.00000000
_cell_angle_gamma   90.00000000
_symmetry_Int_Tables_number   1
_chemical_formula_structural   CsUV3O11
_chemical_formula_sum   'Cs4 U4 V12 O44'
_cell_volume   1009.49030461
_cell_formula_units_Z   4
loop_
 _symmetry_equiv_pos_site_id
 _symmetry_equiv_pos_as_xyz
  1  'x, y, z'
loop_
 _atom_site_type_symbol
 _atom_site_label
 _atom_site_symmetry_multiplicity
 _atom_site_fract_x
 _atom_site_fract_y
 _atom_site_fract_z
 _atom_site_occupancy
  Cs  Cs0  1  0.73406124  0.88243116  0.55175774  1
  Cs  Cs1  1  0.76593876  0.38243116  0.55175774  1
  Cs  Cs2  1  0.26593876  0.11756884  0.44824226  1
  Cs  Cs3  1  0.23406124  0.61756884  0.44824226  1
  U  U4  1  0.49773629  0.19564474  0.81525242  1
  U  U5  1  0.50226371  0.80435526  0.18474758  1
  U  U6  1  0.00226371  0.69564474  0.81525242  1
  U  U7  1  0.99773629  0.30435526  0.18474758  1
  V  V8  1  0.25055943  0.93166088  0.76926956  1
  V  V9  1  0.74944057  0.06833912  0.23073044  1
  V  V10  1  0.24944057  0.43166088  0.76926956  1
  V  V11  1  0.49503426  0.31721646  0.22867827  1
  V  V12  1  0.75072420  0.95871444  0.85924961  1
  V  V13  1  0.99503426  0.18278354  0.77132173  1
  V  V14  1  0.25072420  0.54128556  0.14075039  1
  V  V15  1  0.00496574  0.81721646  0.22867827  1
  V  V16  1  0.74927580  0.45871444  0.85924961  1
  V  V17  1  0.50496574  0.68278354  0.77132173  1
  V  V18  1  0.24927580  0.04128556  0.14075039  1
  V  V19  1  0.75055943  0.56833912  0.23073044  1
  O  O20  1  0.00545892  0.73985032  0.96366613  1
  O  O21  1  0.49454108  0.23985032  0.96366613  1
  O  O22  1  0.80810505  0.70555928  0.19435008  1
  O  O23  1  0.00742370  0.35000122  0.33569877  1
  O  O24  1  0.01876849  0.85629580  0.36421471  1
  O  O25  1  0.25202326  0.50079104  0.00735562  1
  O  O26  1  0.74667484  0.11049617  0.36640363  1
  O  O27  1  0.19171084  0.09031805  0.80377837  1
  O  O28  1  0.80743129  0.29922858  0.81588388  1
  O  O29  1  0.49756639  0.59984234  0.19252971  1
  O  O30  1  0.30743129  0.20077142  0.18411612  1
  O  O31  1  0.49257630  0.85000122  0.33569877  1
  O  O32  1  0.00251645  0.51316730  0.19122055  1
  O  O33  1  0.50251645  0.98683270  0.80877945  1
  O  O34  1  0.69269593  0.59138860  0.81339418  1
  O  O35  1  0.69256871  0.79922858  0.81588388  1
  O  O36  1  0.00243361  0.09984234  0.19252971  1
  O  O37  1  0.30730407  0.40861140  0.18660582  1
  O  O38  1  0.19189495  0.29444072  0.80564992  1
  O  O39  1  0.49748355  0.01316730  0.19122055  1
  O  O40  1  0.24667484  0.38950383  0.63359637  1
  O  O41  1  0.50243361  0.40015766  0.80747029  1
  O  O42  1  0.19269593  0.90861140  0.18660582  1
  O  O43  1  0.99748355  0.48683270  0.80877945  1
  O  O44  1  0.50742370  0.14999878  0.66430123  1
  O  O45  1  0.75202326  0.99920896  0.99264438  1
  O  O46  1  0.75332516  0.61049617  0.36640363  1
  O  O47  1  0.19256871  0.70077142  0.18411612  1
  O  O48  1  0.50545892  0.76014968  0.03633387  1
  O  O49  1  0.99454108  0.26014968  0.03633387  1
  O  O50  1  0.25332516  0.88950383  0.63359637  1
  O  O51  1  0.24797674  0.00079104  0.00735562  1
  O  O52  1  0.80828916  0.90968195  0.19622163  1
  O  O53  1  0.98123151  0.14370420  0.63578529  1
  O  O54  1  0.80730407  0.09138860  0.81339418  1
  O  O55  1  0.30828916  0.59031805  0.80377837  1
  O  O56  1  0.69171084  0.40968195  0.19622163  1
  O  O57  1  0.99257630  0.64999878  0.66430123  1
  O  O58  1  0.69189495  0.20555928  0.19435008  1
  O  O59  1  0.74797674  0.49920896  0.99264438  1
  O  O60  1  0.30810505  0.79444072  0.80564992  1
  O  O61  1  0.51876849  0.64370420  0.63578529  1
  O  O62  1  0.99756639  0.90015766  0.80747029  1
  O  O63  1  0.48123151  0.35629580  0.36421471  1
