# generated using pymatgen
data_Li7Zr3Nb(TeO6)4
_symmetry_space_group_name_H-M   'P 1'
_cell_length_a   5.53868646
_cell_length_b   5.53573160
_cell_length_c   44.28366736
_cell_angle_alpha   56.82066647
_cell_angle_beta   56.81590668
_cell_angle_gamma   56.78633815
_symmetry_Int_Tables_number   1
_chemical_formula_structural   Li7Zr3Nb(TeO6)4
_chemical_formula_sum   'Li14 Zr6 Nb2 Te8 O48'
_cell_volume   889.34902912
_cell_formula_units_Z   2
loop_
 _symmetry_equiv_pos_site_id
 _symmetry_equiv_pos_as_xyz
  1  'x, y, z'
loop_
 _atom_site_type_symbol
 _atom_site_label
 _atom_site_symmetry_multiplicity
 _atom_site_fract_x
 _atom_site_fract_y
 _atom_site_fract_z
 _atom_site_occupancy
  Li  Li0  1  0.28667416  0.28836146  0.03429666  1
  Li  Li1  1  0.28421307  0.28396352  0.15998191  1
  Li  Li2  1  0.77895955  0.77889607  0.09419368  1
  Li  Li3  1  0.28248102  0.28296368  0.28565434  1
  Li  Li4  1  0.77323174  0.77365863  0.22154154  1
  Li  Li5  1  0.28225747  0.28275359  0.41074981  1
  Li  Li6  1  0.77313161  0.77255717  0.34682555  1
  Li  Li7  1  0.28207690  0.28258553  0.53580765  1
  Li  Li8  1  0.77295370  0.77236290  0.47187621  1
  Li  Li9  1  0.27993459  0.27989257  0.66152075  1
  Li  Li10  1  0.77203434  0.77224840  0.59698195  1
  Li  Li11  1  0.28672604  0.27919793  0.78591244  1
  Li  Li12  1  0.76649975  0.77092659  0.72286788  1
  Li  Li13  1  0.28722551  0.29220396  0.90941179  1
  Zr  Zr14  1  0.00396187  0.00179771  0.12491499  1
  Zr  Zr15  1  0.00207774  0.00144420  0.25029192  1
  Zr  Zr16  1  0.00173621  0.00071614  0.37551613  1
  Zr  Zr17  1  0.00165014  0.00061394  0.50056352  1
  Zr  Zr18  1  0.00078478  0.00068182  0.62574385  1
  Zr  Zr19  1  0.99661862  0.00116544  0.75189436  1
  Nb  Nb20  1  0.00284715  0.00735208  0.87480553  1
  Nb  Nb21  1  0.01211080  0.00613055  0.99763568  1
  Te  Te22  1  0.50305428  0.50888823  0.06088563  1
  Te  Te23  1  0.50101307  0.50166129  0.18707936  1
  Te  Te24  1  0.49972584  0.50060607  0.31255243  1
  Te  Te25  1  0.49936842  0.50033051  0.43768209  1
  Te  Te26  1  0.49919853  0.50035138  0.56272660  1
  Te  Te27  1  0.49806230  0.50027108  0.68803203  1
  Te  Te28  1  0.50643142  0.49137882  0.81386857  1
  Te  Te29  1  0.50897366  0.50076252  0.93701709  1
  O  O30  1  0.14430198  0.38370611  0.08937066  1
  O  O31  1  0.34638470  0.73402568  0.01818204  1
  O  O32  1  0.72718481  0.14985653  0.04434014  1
  O  O33  1  0.25290484  0.86899953  0.07527533  1
  O  O34  1  0.62053858  0.25220990  0.10587564  1
  O  O35  1  0.13405929  0.39076491  0.21429435  1
  O  O36  1  0.86244706  0.62820210  0.03092111  1
  O  O37  1  0.39439905  0.71790044  0.14066189  1
  O  O38  1  0.71989524  0.13354520  0.17309962  1
  O  O39  1  0.25238831  0.86646448  0.20079617  1
  O  O40  1  0.61194690  0.25276881  0.23262172  1
  O  O41  1  0.13293724  0.39020268  0.33956806  1
  O  O42  1  0.86569165  0.61232963  0.15597018  1
  O  O43  1  0.39049081  0.71875243  0.26636759  1
  O  O44  1  0.71949151  0.13256094  0.29859666  1
  O  O45  1  0.25201029  0.86553140  0.32616543  1
  O  O46  1  0.61066021  0.25264845  0.35800138  1
  O  O47  1  0.13276790  0.39024132  0.46459042  1
  O  O48  1  0.86456497  0.61145132  0.28123077  1
  O  O49  1  0.39053950  0.71852805  0.39145672  1
  O  O50  1  0.71927894  0.13218934  0.42373566  1
  O  O51  1  0.25192186  0.86543917  0.45121118  1
  O  O52  1  0.61047273  0.25265078  0.48305415  1
  O  O53  1  0.13219476  0.39001069  0.58968433  1
  O  O54  1  0.86455638  0.61101388  0.40628524  1
  O  O55  1  0.39032423  0.71845457  0.51654577  1
  O  O56  1  0.71901178  0.13228412  0.54880769  1
  O  O57  1  0.25134764  0.86524398  0.57639443  1
  O  O58  1  0.60989215  0.25254208  0.60824088  1
  O  O59  1  0.13148902  0.38886481  0.71499150  1
  O  O60  1  0.86407293  0.61097840  0.53134876  1
  O  O61  1  0.38900696  0.71948027  0.64191300  1
  O  O62  1  0.71855818  0.13204352  0.67416181  1
  O  O63  1  0.25198925  0.86202616  0.70235838  1
  O  O64  1  0.60881444  0.25007013  0.73375400  1
  O  O65  1  0.15375598  0.34441874  0.84292565  1
  O  O66  1  0.86270129  0.61067379  0.65674758  1
  O  O67  1  0.37716192  0.72265162  0.76959147  1
  O  O68  1  0.71755871  0.14649118  0.79761654  1
  O  O69  1  0.25275321  0.85232845  0.82974273  1
  O  O70  1  0.61935684  0.24868739  0.85958812  1
  O  O71  1  0.16379976  0.34225729  0.96709781  1
  O  O72  1  0.86593847  0.60586860  0.78261751  1
  O  O73  1  0.33337543  0.73107162  0.89665718  1
  O  O74  1  0.72572320  0.16164123  0.91851601  1
  O  O75  1  0.25202671  0.86233632  0.95269237  1
  O  O76  1  0.62450608  0.25587093  0.98241745  1
  O  O77  1  0.86279202  0.62099726  0.90708494  1
