# generated using pymatgen
data_La7Mn8O24
_symmetry_space_group_name_H-M   'P 1'
_cell_length_a   22.03853176
_cell_length_b   14.55707751
_cell_length_c   9.51544483
_cell_angle_alpha   29.62347253
_cell_angle_beta   55.41358794
_cell_angle_gamma   41.28621673
_symmetry_Int_Tables_number   1
_chemical_formula_structural   La7Mn8O24
_chemical_formula_sum   'La14 Mn16 O48'
_cell_volume   960.76834572
_cell_formula_units_Z   2
loop_
 _symmetry_equiv_pos_site_id
 _symmetry_equiv_pos_as_xyz
  1  'x, y, z'
loop_
 _atom_site_type_symbol
 _atom_site_label
 _atom_site_symmetry_multiplicity
 _atom_site_fract_x
 _atom_site_fract_y
 _atom_site_fract_z
 _atom_site_occupancy
  La  La0  1  0.06301291  0.00354311  0.24972846  1
  La  La1  1  0.31106732  0.00109333  0.26618816  1
  La  La2  1  0.06368378  0.49857437  0.76059571  1
  La  La3  1  0.19073150  0.49831278  0.25678774  1
  La  La4  1  0.56566778  0.00315470  0.25155278  1
  La  La5  1  0.31298563  0.49689591  0.76322579  1
  La  La6  1  0.43837491  0.49922068  0.25670343  1
  La  La7  1  0.81500617  0.00145743  0.25420301  1
  La  La8  1  0.56769637  0.49860665  0.74886693  1
  La  La9  1  0.44036738  0.00066081  0.75807455  1
  La  La10  1  0.81569771  0.49644703  0.76501206  1
  La  La11  1  0.94329227  0.48962063  0.27086178  1
  La  La12  1  0.68795388  0.00150699  0.75819099  1
  La  La13  1  0.93544180  0.01035326  0.74388890  1
  Mn  Mn14  1  0.00414872  0.99788589  0.00525424  1
  Mn  Mn15  1  0.12694307  0.99915862  0.51118584  1
  Mn  Mn16  1  0.25140417  0.99860341  0.00665162  1
  Mn  Mn17  1  0.12678656  0.49589026  0.01416981  1
  Mn  Mn18  1  0.37581722  0.99804093  0.51236774  1
  Mn  Mn19  1  0.50348231  0.99603474  0.00935704  1
  Mn  Mn20  1  0.25111126  0.50470172  0.50034979  1
  Mn  Mn21  1  0.37520918  0.50399708  0.00547154  1
  Mn  Mn22  1  0.62764445  0.99522270  0.51449868  1
  Mn  Mn23  1  0.75192777  0.00413480  0.00056096  1
  Mn  Mn24  1  0.50287127  0.50199907  0.50246527  1
  Mn  Mn25  1  0.62729952  0.50137868  0.00817418  1
  Mn  Mn26  1  0.87429186  0.00512049  0.50523915  1
  Mn  Mn27  1  0.75175056  0.50085436  0.50360164  1
  Mn  Mn28  1  0.87455490  0.50208496  0.00961453  1
  Mn  Mn29  1  0.00438524  0.49487376  0.50958666  1
  O  O30  1  0.17312402  0.05820689  0.19961395  1
  O  O31  1  0.10298182  0.29067016  0.23058845  1
  O  O32  1  0.01038007  0.23546607  0.76587491  1
  O  O33  1  0.04606391  0.56908503  0.18770416  1
  O  O34  1  0.24820296  0.24446387  0.27517960  1
  O  O35  1  0.13126661  0.29920147  0.68961440  1
  O  O36  1  0.42528962  0.05241329  0.20609701  1
  O  O37  1  0.11863170  0.71717967  0.32203207  1
  O  O38  1  0.35903583  0.27262864  0.25977635  1
  O  O39  1  0.00751770  0.78361621  0.69327201  1
  O  O40  1  0.27390329  0.21645518  0.76940224  1
  O  O41  1  0.20086729  0.44411795  0.81487202  1
  O  O42  1  0.30987869  0.51492467  0.24225191  1
  O  O43  1  0.23317047  0.76401530  0.28738364  1
  O  O44  1  0.49682356  0.21981475  0.30882117  1
  O  O45  1  0.14457771  0.72900424  0.74725494  1
  O  O46  1  0.38197952  0.28011803  0.70592369  1
  O  O47  1  0.07144939  0.93903138  0.81765310  1
  O  O48  1  0.67805203  0.05537442  0.20040182  1
  O  O49  1  0.36615292  0.72698432  0.31632729  1
  O  O50  1  0.60479463  0.28377272  0.24480900  1
  O  O51  1  0.26237835  0.76047441  0.70401456  1
  O  O52  1  0.51972986  0.22712987  0.75562645  1
  O  O53  1  0.45331992  0.44774167  0.80868271  1
  O  O54  1  0.54041034  0.55835920  0.19977777  1
  O  O55  1  0.47690594  0.78396973  0.25637755  1
  O  O56  1  0.74740770  0.20072069  0.32532486  1
  O  O57  1  0.40175325  0.71624083  0.75807979  1
  O  O58  1  0.63038718  0.25613380  0.73946499  1
  O  O59  1  0.33833171  0.94135747  0.81536047  1
  O  O60  1  0.92352873  0.05076948  0.20723392  1
  O  O61  1  0.61627518  0.73936855  0.31101854  1
  O  O62  1  0.86837125  0.26439754  0.24910654  1
  O  O63  1  0.51249323  0.77323336  0.69846442  1
  O  O64  1  0.77582454  0.20913066  0.78441592  1
  O  O65  1  0.70556743  0.44192696  0.81501087  1
  O  O66  1  0.80725751  0.56085650  0.19729034  1
  O  O67  1  0.73395752  0.77146342  0.26687334  1
  O  O68  1  0.99417175  0.22461146  0.31182217  1
  O  O69  1  0.64557648  0.73582961  0.72770236  1
  O  O70  1  0.88448585  0.27560324  0.70287387  1
  O  O71  1  0.56891695  0.98535738  0.77225274  1
  O  O72  1  0.87122061  0.71618533  0.32153806  1
  O  O73  1  0.76004614  0.78295377  0.69290186  1
  O  O74  1  0.95506491  0.44935120  0.80752402  1
  O  O75  1  0.97964080  0.78065239  0.25334841  1
  O  O76  1  0.89908037  0.71924921  0.76163555  1
  O  O77  1  0.83264534  0.93095888  0.82699519  1
