# generated using pymatgen
data_CaH12(IO7)2
_symmetry_space_group_name_H-M   'P 1'
_cell_length_a   10.45320129
_cell_length_b   10.45320129
_cell_length_c   11.69710389
_cell_angle_alpha   60.23022577
_cell_angle_beta   119.76977423
_cell_angle_gamma   147.93310243
_symmetry_Int_Tables_number   1
_chemical_formula_structural   CaH12(IO7)2
_chemical_formula_sum   'Ca2 H24 I4 O28'
_cell_volume   581.00824375
_cell_formula_units_Z   2
loop_
 _symmetry_equiv_pos_site_id
 _symmetry_equiv_pos_as_xyz
  1  'x, y, z'
loop_
 _atom_site_type_symbol
 _atom_site_label
 _atom_site_symmetry_multiplicity
 _atom_site_fract_x
 _atom_site_fract_y
 _atom_site_fract_z
 _atom_site_occupancy
  Ca  Ca0  1  0.58736902  0.58736902  0.75000000  1
  Ca  Ca1  1  0.41263098  0.41263098  0.25000000  1
  H  H2  1  0.36691269  0.85168330  0.18245428  1
  H  H3  1  0.85168330  0.36691269  0.31754572  1
  H  H4  1  0.63308731  0.14831670  0.81754572  1
  H  H5  1  0.14831670  0.63308731  0.68245428  1
  H  H6  1  0.51276945  0.17581917  0.98222942  1
  H  H7  1  0.17581917  0.51276945  0.51777058  1
  H  H8  1  0.48723055  0.82418083  0.01777058  1
  H  H9  1  0.82418083  0.48723055  0.48222942  1
  H  H10  1  0.78506455  0.69364490  0.55107860  1
  H  H11  1  0.69364490  0.78506455  0.94892140  1
  H  H12  1  0.21493545  0.30635510  0.44892140  1
  H  H13  1  0.30635510  0.21493545  0.05107860  1
  H  H14  1  0.90480451  0.66184721  0.69463760  1
  H  H15  1  0.66184721  0.90480451  0.80536240  1
  H  H16  1  0.09519549  0.33815279  0.30536240  1
  H  H17  1  0.33815279  0.09519549  0.19463760  1
  H  H18  1  0.20151283  0.35327469  0.85088312  1
  H  H19  1  0.35327469  0.20151283  0.64911688  1
  H  H20  1  0.79848717  0.64672531  0.14911688  1
  H  H21  1  0.64672531  0.79848717  0.35088312  1
  H  H22  1  0.09691748  0.12353353  0.85552277  1
  H  H23  1  0.12353353  0.09691748  0.64447723  1
  H  H24  1  0.90308252  0.87646647  0.14447723  1
  H  H25  1  0.87646647  0.90308252  0.35552277  1
  I  I26  1  0.95696419  0.59865013  0.02366566  1
  I  I27  1  0.59865013  0.95696419  0.47633434  1
  I  I28  1  0.04303581  0.40134987  0.97633434  1
  I  I29  1  0.40134987  0.04303581  0.52366566  1
  O  O30  1  0.97291646  0.80498863  0.90501801  1
  O  O31  1  0.80498863  0.97291646  0.59498199  1
  O  O32  1  0.02708354  0.19501137  0.09498199  1
  O  O33  1  0.19501137  0.02708354  0.40501801  1
  O  O34  1  0.86069817  0.51948488  0.16553861  1
  O  O35  1  0.51948488  0.86069817  0.33446139  1
  O  O36  1  0.13930183  0.48051512  0.83446139  1
  O  O37  1  0.48051512  0.13930183  0.66553861  1
  O  O38  1  0.30669185  0.88098807  0.08684695  1
  O  O39  1  0.88098807  0.30669185  0.41315305  1
  O  O40  1  0.69330815  0.11901193  0.91315305  1
  O  O41  1  0.11901193  0.69330815  0.58684695  1
  O  O42  1  0.62118362  0.34191735  0.92763422  1
  O  O43  1  0.34191735  0.62118362  0.57236578  1
  O  O44  1  0.37881638  0.65808265  0.07236578  1
  O  O45  1  0.65808265  0.37881638  0.42763422  1
  O  O46  1  0.05318140  0.62733170  0.88671086  1
  O  O47  1  0.62733170  0.05318140  0.61328914  1
  O  O48  1  0.94681860  0.37266830  0.11328914  1
  O  O49  1  0.37266830  0.94681860  0.38671086  1
  O  O50  1  0.83555295  0.70570014  0.64637127  1
  O  O51  1  0.70570014  0.83555295  0.85362873  1
  O  O52  1  0.16444705  0.29429986  0.35362873  1
  O  O53  1  0.29429986  0.16444705  0.14637127  1
  O  O54  1  0.25188632  0.29609611  0.86725347  1
  O  O55  1  0.29609611  0.25188632  0.63274653  1
  O  O56  1  0.74811368  0.70390389  0.13274653  1
  O  O57  1  0.70390389  0.74811368  0.36725347  1
