# generated using pymatgen
data_Tb2C3
_symmetry_space_group_name_H-M   'P 1'
_cell_length_a   7.17817844
_cell_length_b   7.17817844
_cell_length_c   7.17817844
_cell_angle_alpha   109.47122066
_cell_angle_beta   109.47122067
_cell_angle_gamma   109.47122063
_symmetry_Int_Tables_number   1
_chemical_formula_structural   Tb2C3
_chemical_formula_sum   'Tb8 C12'
_cell_volume   284.72189073
_cell_formula_units_Z   4
loop_
 _symmetry_equiv_pos_site_id
 _symmetry_equiv_pos_as_xyz
  1  'x, y, z'
loop_
 _atom_site_type_symbol
 _atom_site_label
 _atom_site_symmetry_multiplicity
 _atom_site_fract_x
 _atom_site_fract_y
 _atom_site_fract_z
 _atom_site_occupancy
  C  C0  1  0.75000000  0.79428802  0.04428802  1
  C  C1  1  0.75000000  0.95571198  0.20571198  1
  C  C2  1  0.29428802  0.25000000  0.54428802  1
  C  C3  1  0.54428802  0.29428802  0.25000000  1
  C  C4  1  0.20571198  0.75000000  0.95571198  1
  C  C5  1  0.95571198  0.20571198  0.75000000  1
  C  C6  1  0.25000000  0.70571198  0.45571198  1
  C  C7  1  0.70571198  0.45571198  0.25000000  1
  C  C8  1  0.25000000  0.54428802  0.29428802  1
  C  C9  1  0.45571198  0.25000000  0.70571198  1
  C  C10  1  0.04428802  0.75000000  0.79428802  1
  C  C11  1  0.79428802  0.04428802  0.75000000  1
  Tb  Tb12  1  0.60138807  0.60138807  0.60138807  1
  Tb  Tb13  1  0.39861193  0.50000000  0.00000000  1
  Tb  Tb14  1  0.50000000  0.00000000  0.39861193  1
  Tb  Tb15  1  0.00000000  0.39861193  0.50000000  1
  Tb  Tb16  1  0.50000000  0.00000000  0.89861193  1
  Tb  Tb17  1  0.00000000  0.89861193  0.50000000  1
  Tb  Tb18  1  0.89861193  0.50000000  0.00000000  1
  Tb  Tb19  1  0.10138807  0.10138807  0.10138807  1
