# generated using pymatgen
data_B5H9
_symmetry_space_group_name_H-M   'P 1'
_cell_length_a   5.81015178
_cell_length_b   5.81015178
_cell_length_c   5.81015178
_cell_angle_alpha   102.15931496
_cell_angle_beta   102.15931496
_cell_angle_gamma   125.36187241
_symmetry_Int_Tables_number   1
_chemical_formula_structural   B5H9
_chemical_formula_sum   'B5 H9'
_cell_volume   142.11289655
_cell_formula_units_Z   1
loop_
 _symmetry_equiv_pos_site_id
 _symmetry_equiv_pos_as_xyz
  1  'x, y, z'
loop_
 _atom_site_type_symbol
 _atom_site_label
 _atom_site_symmetry_multiplicity
 _atom_site_fract_x
 _atom_site_fract_y
 _atom_site_fract_z
 _atom_site_occupancy
  B  B0  1  0.22993355  0.22993355  0.00000000  1
  B  B1  1  0.19086218  0.01779805  0.17306413  1
  B  B2  1  0.84473392  0.01779805  0.82693587  1
  B  B3  1  0.01779805  0.19086218  0.17306413  1
  B  B4  1  0.01779805  0.84473392  0.82693587  1
  H  H5  1  0.45256820  0.45256820  0.00000000  1
  H  H6  1  0.37982456  0.04536417  0.33446039  1
  H  H7  1  0.71090379  0.04536417  0.66553961  1
  H  H8  1  0.04536417  0.37982456  0.33446039  1
  H  H9  1  0.04536417  0.71090379  0.66553961  1
  H  H10  1  0.98400093  0.71692374  0.00000000  1
  H  H11  1  0.71692374  0.98400093  0.00000000  1
  H  H12  1  0.71692374  0.71692374  0.73292282  1
  H  H13  1  0.98400093  0.98400093  0.26707718  1
