# generated using pymatgen
data_Li14Mn22Cr3Cu3O56
_symmetry_space_group_name_H-M   'P 1'
_cell_length_a   5.92424754
_cell_length_b   5.92424781
_cell_length_c   41.41459925
_cell_angle_alpha   59.69909268
_cell_angle_beta   59.69909119
_cell_angle_gamma   59.96462227
_symmetry_Int_Tables_number   1
_chemical_formula_structural   Li14Mn22Cr3Cu3O56
_chemical_formula_sum   'Li14 Mn22 Cr3 Cu3 O56'
_cell_volume   1022.82040135
_cell_formula_units_Z   1
loop_
 _symmetry_equiv_pos_site_id
 _symmetry_equiv_pos_as_xyz
  1  'x, y, z'
loop_
 _atom_site_type_symbol
 _atom_site_label
 _atom_site_symmetry_multiplicity
 _atom_site_fract_x
 _atom_site_fract_y
 _atom_site_fract_z
 _atom_site_occupancy
  Li  Li0  1  0.12164801  0.12164801  0.01900318  1
  Li  Li1  1  0.12046836  0.12046836  0.16224901  1
  Li  Li2  1  0.12184313  0.12184313  0.30503630  1
  Li  Li3  1  0.87918116  0.87918116  0.12339928  1
  Li  Li4  1  0.11763814  0.11763814  0.44718444  1
  Li  Li5  1  0.87900897  0.87900897  0.26635186  1
  Li  Li6  1  0.12370211  0.12370211  0.58810290  1
  Li  Li7  1  0.87379272  0.87379272  0.41117393  1
  Li  Li8  1  0.12266525  0.12266525  0.73133604  1
  Li  Li9  1  0.12067215  0.12067215  0.87480879  1
  Li  Li10  1  0.88087761  0.88087761  0.55423037  1
  Li  Li11  1  0.87733784  0.87733784  0.69726353  1
  Li  Li12  1  0.87965553  0.87965553  0.83923855  1
  Li  Li13  1  0.88202989  0.88202989  0.98096162  1
  Mn  Mn14  1  0.00194643  0.49731479  0.07161245  1
  Mn  Mn15  1  0.49731479  0.00194643  0.07161245  1
  Mn  Mn16  1  0.49810663  0.49810663  0.07168230  1
  Mn  Mn17  1  0.99789137  0.50145229  0.21400477  1
  Mn  Mn18  1  0.50001469  0.50001469  0.14282760  1
  Mn  Mn19  1  0.50084124  0.50084124  0.21419050  1
  Mn  Mn20  1  0.00125167  0.49769969  0.35755016  1
  Mn  Mn21  1  0.50145229  0.99789137  0.21400477  1
  Mn  Mn22  1  0.49760740  0.49760740  0.35742156  1
  Mn  Mn23  1  -0.00046373  0.50006414  0.50002267  1
  Mn  Mn24  1  0.50006414  -0.00046373  0.50002267  1
  Mn  Mn25  1  0.49621253  0.49621253  0.42884389  1
  Mn  Mn26  1  0.49769969  0.00125167  0.35755016  1
  Mn  Mn27  1  0.00071583  0.50102682  0.64275081  1
  Mn  Mn28  1  0.50137865  0.50137865  0.57109592  1
  Mn  Mn29  1  0.00001070  0.49959185  0.78572346  1
  Mn  Mn30  1  0.50102682  0.00071583  0.64275081  1
  Mn  Mn31  1  0.50017576  0.50017576  0.71424221  1
  Mn  Mn32  1  0.50143018  -0.00154391  0.92832864  1
  Mn  Mn33  1  0.50081292  0.50081292  0.85716526  1
  Mn  Mn34  1  0.49959185  0.00001070  0.78572346  1
  Mn  Mn35  1  -0.00154391  0.50143018  0.92832864  1
  Cr  Cr36  1  0.50038290  0.50038290  0.64283819  1
  Cr  Cr37  1  0.49984137  0.49984137  0.78573977  1
  Cr  Cr38  1  0.50140266  0.50140266  0.92845130  1
  Cu  Cu39  1  0.50106090  0.50106090  0.99990862  1
  Cu  Cu40  1  0.49981857  0.49981857  0.28578615  1
  Cu  Cu41  1  0.50021680  0.50021680  0.49976225  1
  O  O42  1  0.25100293  0.25100293  0.04120595  1
  O  O43  1  0.26433462  0.26433462  0.10367549  1
  O  O44  1  0.25591628  0.70827227  0.04084079  1
  O  O45  1  0.70827227  0.25591628  0.04084079  1
  O  O46  1  0.29204934  0.73308763  0.10510649  1
  O  O47  1  0.26570235  0.26570235  0.18013738  1
  O  O48  1  0.73223557  0.73223557  0.04074936  1
  O  O49  1  0.24751793  0.24751793  0.24504082  1
  O  O50  1  0.26154761  0.70734961  0.18055307  1
  O  O51  1  0.73308763  0.29204934  0.10510649  1
  O  O52  1  0.70734961  0.26154761  0.18055307  1
  O  O53  1  0.73393189  0.73393189  0.10547979  1
  O  O54  1  0.25321731  0.25321731  0.32680390  1
  O  O55  1  0.29144935  0.75146953  0.24461687  1
  O  O56  1  0.75548482  0.75548482  0.18209677  1
  O  O57  1  0.75146953  0.29144935  0.24461687  1
  O  O58  1  0.25527494  0.70928243  0.32674803  1
  O  O59  1  0.26550212  0.26550212  0.38917151  1
  O  O60  1  0.70928243  0.25527494  0.32674803  1
  O  O61  1  0.74661197  0.74661197  0.24484002  1
  O  O62  1  0.29076873  0.72968247  0.39147876  1
  O  O63  1  0.25948144  0.25948144  0.46645338  1
  O  O64  1  0.72968247  0.29076873  0.39147876  1
  O  O65  1  0.73145387  0.73145387  0.32638901  1
  O  O66  1  0.25383748  0.70903222  0.46377565  1
  O  O67  1  0.25990806  0.25990806  0.52908444  1
  O  O68  1  0.73132640  0.73132640  0.39170486  1
  O  O69  1  0.70903222  0.25383748  0.46377565  1
  O  O70  1  0.29127397  0.74654980  0.53570065  1
  O  O71  1  0.26943874  0.26943874  0.60611308  1
  O  O72  1  0.74080926  0.74080926  0.47057332  1
  O  O73  1  0.74654980  0.29127397  0.53570065  1
  O  O74  1  0.25968507  0.25968507  0.67232695  1
  O  O75  1  0.26497547  0.70979551  0.60811053  1
  O  O76  1  0.73951435  0.73951435  0.53387653  1
  O  O77  1  0.70979551  0.26497547  0.60811053  1
  O  O78  1  0.29178055  0.73711251  0.67760928  1
  O  O79  1  0.26742671  0.26742671  0.74916752  1
  O  O80  1  0.74118351  0.74118351  0.61320715  1
  O  O81  1  0.73711251  0.29178055  0.67760928  1
  O  O82  1  0.25893721  0.25893721  0.81540782  1
  O  O83  1  0.26344357  0.70833033  0.75097239  1
  O  O84  1  0.73317947  0.73317947  0.67918381  1
  O  O85  1  0.70833033  0.26344357  0.75097239  1
  O  O86  1  0.29126810  0.73581905  0.82049517  1
  O  O87  1  0.26468418  0.26468418  0.89421453  1
  O  O88  1  0.73581905  0.29126810  0.82049517  1
  O  O89  1  0.74047781  0.74047781  0.75621676  1
  O  O90  1  0.26206904  0.70736240  0.89370402  1
  O  O91  1  0.25912861  0.25912861  0.95822784  1
  O  O92  1  0.73267735  0.73267735  0.82226317  1
  O  O93  1  0.70736240  0.26206904  0.89370402  1
  O  O94  1  0.29105530  0.75374677  0.96007057  1
  O  O95  1  0.74251359  0.74251359  0.89812049  1
  O  O96  1  0.75374677  0.29105530  0.96007057  1
  O  O97  1  0.75224854  0.75224854  0.95842253  1
