# generated using pymatgen
data_B5H12C2NO10
_symmetry_space_group_name_H-M   'P 1'
_cell_length_a   8.93216046
_cell_length_b   8.93216046
_cell_length_c   17.36892778
_cell_angle_alpha   73.15340657
_cell_angle_beta   106.84659343
_cell_angle_gamma   98.29505854
_symmetry_Int_Tables_number   1
_chemical_formula_structural   B5H12C2NO10
_chemical_formula_sum   'B20 H48 C8 N4 O40'
_cell_volume   1266.61269070
_cell_formula_units_Z   4
loop_
 _symmetry_equiv_pos_site_id
 _symmetry_equiv_pos_as_xyz
  1  'x, y, z'
loop_
 _atom_site_type_symbol
 _atom_site_label
 _atom_site_symmetry_multiplicity
 _atom_site_fract_x
 _atom_site_fract_y
 _atom_site_fract_z
 _atom_site_occupancy
  B  B0  1  0.90996319  0.27304095  0.81540399  1
  B  B1  1  0.27304095  0.90996319  0.68459601  1
  B  B2  1  0.09003681  0.72695905  0.18459601  1
  B  B3  1  0.72695905  0.09003681  0.31540399  1
  B  B4  1  0.05472141  0.19939981  0.96637450  1
  B  B5  1  0.19939981  0.05472141  0.53362550  1
  B  B6  1  0.94527859  0.80060019  0.03362550  1
  B  B7  1  0.80060019  0.94527859  0.46637450  1
  B  B8  1  0.11939412  0.08293309  0.87284339  1
  B  B9  1  0.08293309  0.11939412  0.62715661  1
  B  B10  1  0.88060588  0.91706691  0.12715661  1
  B  B11  1  0.91706691  0.88060588  0.37284339  1
  B  B12  1  0.86272994  0.52517846  0.70372627  1
  B  B13  1  0.52517846  0.86272994  0.79627373  1
  B  B14  1  0.13727006  0.47482154  0.29627373  1
  B  B15  1  0.47482154  0.13727006  0.20372627  1
  B  B16  1  0.64764193  0.33189709  0.71412761  1
  B  B17  1  0.33189709  0.64764193  0.78587239  1
  B  B18  1  0.35235807  0.66810291  0.28587239  1
  B  B19  1  0.66810291  0.35235807  0.21412761  1
  H  H20  1  0.17013462  0.17316286  0.08572220  1
  H  H21  1  0.17316286  0.17013462  0.41427780  1
  H  H22  1  0.82986538  0.82683714  0.91427780  1
  H  H23  1  0.82683714  0.82986538  0.58572220  1
  H  H24  1  0.18810633  0.98001803  0.80372185  1
  H  H25  1  0.98001803  0.18810633  0.69627815  1
  H  H26  1  0.81189367  0.01998197  0.19627815  1
  H  H27  1  0.01998197  0.81189367  0.30372185  1
  H  H28  1  0.02901197  0.69501329  0.68349220  1
  H  H29  1  0.69501329  0.02901197  0.81650780  1
  H  H30  1  0.97098803  0.30498671  0.31650780  1
  H  H31  1  0.30498671  0.97098803  0.18349220  1
  H  H32  1  0.46647984  0.17709185  0.70379953  1
  H  H33  1  0.17709185  0.46647984  0.79620047  1
  H  H34  1  0.53352016  0.82290815  0.29620047  1
  H  H35  1  0.82290815  0.53352016  0.20379953  1
  H  H36  1  0.26297382  0.78163799  0.54886705  1
  H  H37  1  0.78163799  0.26297382  0.95113295  1
  H  H38  1  0.73702618  0.21836201  0.45113295  1
  H  H39  1  0.21836201  0.73702618  0.04886705  1
  H  H40  1  0.18232423  0.73914856  0.45679956  1
  H  H41  1  0.73914856  0.18232423  0.04320044  1
  H  H42  1  0.81767577  0.26085144  0.54320044  1
  H  H43  1  0.26085144  0.81767577  0.95679956  1
  H  H44  1  0.10231106  0.54386593  0.56949446  1
  H  H45  1  0.54386593  0.10231106  0.93050554  1
  H  H46  1  0.89768894  0.45613407  0.43050554  1
  H  H47  1  0.45613407  0.89768894  0.06949446  1
  H  H48  1  0.20425586  0.46270762  0.51756727  1
  H  H49  1  0.46270762  0.20425586  0.98243273  1
  H  H50  1  0.79574414  0.53729238  0.48243273  1
  H  H51  1  0.53729238  0.79574414  0.01756727  1
  H  H52  1  0.30369234  0.50008730  0.61589931  1
  H  H53  1  0.50008730  0.30369234  0.88410069  1
  H  H54  1  0.69630766  0.49991270  0.38410069  1
  H  H55  1  0.49991270  0.69630766  0.11589931  1
  H  H56  1  0.44981649  0.84151342  0.46962904  1
  H  H57  1  0.84151342  0.44981649  0.03037096  1
  H  H58  1  0.55018351  0.15848658  0.53037096  1
  H  H59  1  0.15848658  0.55018351  0.96962904  1
  H  H60  1  0.51031941  0.68446989  0.56088016  1
  H  H61  1  0.68446989  0.51031941  0.93911984  1
  H  H62  1  0.48968059  0.31553011  0.43911984  1
  H  H63  1  0.31553011  0.48968059  0.06088016  1
  H  H64  1  0.42690270  0.64371944  0.46119141  1
  H  H65  1  0.64371944  0.42690270  0.03880859  1
  H  H66  1  0.57309730  0.35628056  0.53880859  1
  H  H67  1  0.35628056  0.57309730  0.96119141  1
  C  C68  1  0.21525571  0.54173332  0.55722086  1
  C  C69  1  0.54173332  0.21525571  0.94277914  1
  C  C70  1  0.78474429  0.45826668  0.44277914  1
  C  C71  1  0.45826668  0.78474429  0.05722086  1
  C  C72  1  0.42398090  0.71909463  0.50052821  1
  C  C73  1  0.71909463  0.42398090  0.99947179  1
  C  C74  1  0.57601910  0.28090537  0.49947179  1
  C  C75  1  0.28090537  0.57601910  0.00052821  1
  N  N76  1  0.26465030  0.70304912  0.51411307  1
  N  N77  1  0.70304912  0.26465030  0.98588693  1
  N  N78  1  0.73534970  0.29695088  0.48588693  1
  N  N79  1  0.29695088  0.73534970  0.01411307  1
  O  O80  1  0.93300164  0.27008684  0.90327284  1
  O  O81  1  0.27008684  0.93300164  0.59672716  1
  O  O82  1  0.06699836  0.72991316  0.09672716  1
  O  O83  1  0.72991316  0.06699836  0.40327284  1
  O  O84  1  0.07669985  0.22125910  0.04347704  1
  O  O85  1  0.22125910  0.07669985  0.45652296  1
  O  O86  1  0.92330015  0.77874090  0.95652296  1
  O  O87  1  0.77874090  0.92330015  0.54347704  1
  O  O88  1  0.15083326  0.10564216  0.95196744  1
  O  O89  1  0.10564216  0.15083326  0.54803256  1
  O  O90  1  0.84916674  0.89435784  0.04803256  1
  O  O91  1  0.89435784  0.84916674  0.45196744  1
  O  O92  1  0.21228885  0.98296858  0.86290685  1
  O  O93  1  0.98296858  0.21228885  0.63709315  1
  O  O94  1  0.78771115  0.01703142  0.13709315  1
  O  O95  1  0.01703142  0.78771115  0.36290685  1
  O  O96  1  0.00381100  0.15701484  0.80760195  1
  O  O97  1  0.15701484  0.00381100  0.69239805  1
  O  O98  1  0.99618900  0.84298516  0.19239805  1
  O  O99  1  0.84298516  0.99618900  0.30760195  1
  O  O100  1  0.96155356  0.42990925  0.76924302  1
  O  O101  1  0.42990925  0.96155356  0.73075698  1
  O  O102  1  0.03844644  0.57009075  0.23075698  1
  O  O103  1  0.57009075  0.03844644  0.26924302  1
  O  O104  1  0.91569310  0.66838249  0.66092526  1
  O  O105  1  0.66838249  0.91569310  0.83907474  1
  O  O106  1  0.08430690  0.33161751  0.33907474  1
  O  O107  1  0.33161751  0.08430690  0.16092526  1
  O  O108  1  0.70501518  0.48009937  0.67610235  1
  O  O109  1  0.48009937  0.70501518  0.82389765  1
  O  O110  1  0.29498482  0.51990063  0.32389765  1
  O  O111  1  0.51990063  0.29498482  0.17610235  1
  O  O112  1  0.49439339  0.28932787  0.68120593  1
  O  O113  1  0.28932787  0.49439339  0.81879407  1
  O  O114  1  0.50560661  0.71067213  0.31879407  1
  O  O115  1  0.71067213  0.50560661  0.18120593  1
  O  O116  1  0.74252044  0.23299390  0.78047203  1
  O  O117  1  0.23299390  0.74252044  0.71952797  1
  O  O118  1  0.25747956  0.76700610  0.21952797  1
  O  O119  1  0.76700610  0.25747956  0.28047203  1
