# generated using pymatgen
data_CaMgUH24C3O23
_symmetry_space_group_name_H-M   'P 1'
_cell_length_a   11.22040371
_cell_length_b   14.79046329
_cell_length_c   6.49048188
_cell_angle_alpha   90.00000000
_cell_angle_beta   99.68704797
_cell_angle_gamma   90.00000000
_symmetry_Int_Tables_number   1
_chemical_formula_structural   CaMgUH24C3O23
_chemical_formula_sum   'Ca2 Mg2 U2 H48 C6 O46'
_cell_volume   1061.76953000
_cell_formula_units_Z   2
loop_
 _symmetry_equiv_pos_site_id
 _symmetry_equiv_pos_as_xyz
  1  'x, y, z'
loop_
 _atom_site_type_symbol
 _atom_site_label
 _atom_site_symmetry_multiplicity
 _atom_site_fract_x
 _atom_site_fract_y
 _atom_site_fract_z
 _atom_site_occupancy
  Ca  Ca0  1  0.58643866  0.25000000  0.77958449  1
  Ca  Ca1  1  0.41356134  0.75000000  0.22041551  1
  Mg  Mg2  1  0.00000000  0.50000000  0.00000000  1
  Mg  Mg3  1  0.00000000  0.00000000  0.00000000  1
  U  U4  1  0.22030320  0.25000000  0.55088748  1
  U  U5  1  0.77969680  0.75000000  0.44911252  1
  H  H6  1  0.40482580  0.25000000  0.09853247  1
  H  H7  1  0.59517420  0.75000000  0.90146753  1
  H  H8  1  0.53331825  0.25000000  0.23863036  1
  H  H9  1  0.46668175  0.75000000  0.76136964  1
  H  H10  1  0.80824690  0.25000000  0.10473123  1
  H  H11  1  0.19175310  0.75000000  0.89526877  1
  H  H12  1  0.86695862  0.25000000  0.90890710  1
  H  H13  1  0.13304138  0.75000000  0.09109290  1
  H  H14  1  0.55725474  0.44939797  0.83342455  1
  H  H15  1  0.44274526  0.94939797  0.16657545  1
  H  H16  1  0.44274526  0.55060203  0.16657545  1
  H  H17  1  0.55725474  0.05060203  0.83342455  1
  H  H18  1  0.62108360  0.44105576  0.06408158  1
  H  H19  1  0.37891640  0.94105576  0.93591842  1
  H  H20  1  0.37891640  0.55894424  0.93591842  1
  H  H21  1  0.62108360  0.05894424  0.06408158  1
  H  H22  1  0.73091568  0.33061031  0.47168547  1
  H  H23  1  0.26908432  0.83061031  0.52831453  1
  H  H24  1  0.26908432  0.66938969  0.52831453  1
  H  H25  1  0.73091568  0.16938969  0.47168547  1
  H  H26  1  0.62785614  0.40541935  0.44670036  1
  H  H27  1  0.37214386  0.90541935  0.55329964  1
  H  H28  1  0.37214386  0.59458065  0.55329964  1
  H  H29  1  0.62785614  0.09458065  0.44670036  1
  H  H30  1  0.94662005  0.41635331  0.34637201  1
  H  H31  1  0.05337995  0.91635331  0.65362799  1
  H  H32  1  0.05337995  0.58364669  0.65362799  1
  H  H33  1  0.94662005  0.08364669  0.34637201  1
  H  H34  1  0.86310473  0.50675749  0.32347402  1
  H  H35  1  0.13689527  0.00675749  0.67652598  1
  H  H36  1  0.13689527  0.49324251  0.67652598  1
  H  H37  1  0.86310473  0.99324251  0.32347402  1
  H  H38  1  0.19555895  0.47850927  0.32393299  1
  H  H39  1  0.80444105  0.97850927  0.67606701  1
  H  H40  1  0.80444105  0.52149073  0.67606701  1
  H  H41  1  0.19555895  0.02149073  0.32393299  1
  H  H42  1  0.24034805  0.53450270  0.13750901  1
  H  H43  1  0.75965195  0.03450270  0.86249099  1
  H  H44  1  0.75965195  0.46549730  0.86249099  1
  H  H45  1  0.24034805  0.96549730  0.13750901  1
  H  H46  1  0.10002453  0.33498682  0.99955461  1
  H  H47  1  0.89997547  0.83498682  0.00044539  1
  H  H48  1  0.89997547  0.66501318  0.00044539  1
  H  H49  1  0.10002453  0.16501318  0.99955461  1
  H  H50  1  0.00756639  0.35074446  0.79744299  1
  H  H51  1  0.99243361  0.85074446  0.20255701  1
  H  H52  1  0.99243361  0.64925554  0.20255701  1
  H  H53  1  0.00756639  0.14925554  0.79744299  1
  C  C54  1  0.95508523  0.25000000  0.45285682  1
  C  C55  1  0.04491477  0.75000000  0.54714318  1
  C  C56  1  0.35448808  0.41886986  0.63578438  1
  C  C57  1  0.64551192  0.91886986  0.36421562  1
  C  C58  1  0.64551192  0.58113014  0.36421562  1
  C  C59  1  0.35448808  0.08113014  0.63578438  1
  O  O60  1  0.22845741  0.25000000  0.27305575  1
  O  O61  1  0.77154259  0.75000000  0.72694425  1
  O  O62  1  0.20966410  0.25000000  0.82888748  1
  O  O63  1  0.79033590  0.75000000  0.17111252  1
  O  O64  1  0.01833508  0.32464019  0.49007970  1
  O  O65  1  0.98166492  0.82464019  0.50992030  1
  O  O66  1  0.98166492  0.67535981  0.50992030  1
  O  O67  1  0.01833508  0.17535981  0.49007970  1
  O  O68  1  0.84186918  0.25000000  0.38762141  1
  O  O69  1  0.15813082  0.75000000  0.61237859  1
  O  O70  1  0.23706691  0.41861890  0.56703138  1
  O  O71  1  0.76293309  0.91861890  0.43296862  1
  O  O72  1  0.76293309  0.58138110  0.43296862  1
  O  O73  1  0.23706691  0.08138110  0.56703138  1
  O  O74  1  0.40407420  0.33882925  0.63920678  1
  O  O75  1  0.59592580  0.83882925  0.36079322  1
  O  O76  1  0.59592580  0.66117075  0.36079322  1
  O  O77  1  0.40407420  0.16117075  0.63920678  1
  O  O78  1  0.41418234  0.48991382  0.69505360  1
  O  O79  1  0.58581766  0.98991382  0.30494640  1
  O  O80  1  0.58581766  0.51008618  0.30494640  1
  O  O81  1  0.41418234  0.01008618  0.69505360  1
  O  O82  1  0.49132962  0.25000000  0.09364462  1
  O  O83  1  0.50867038  0.75000000  0.90635538  1
  O  O84  1  0.78815067  0.25000000  0.95047476  1
  O  O85  1  0.21184933  0.75000000  0.04952524  1
  O  O86  1  0.62802668  0.42057742  0.92293457  1
  O  O87  1  0.37197332  0.92057742  0.07706543  1
  O  O88  1  0.37197332  0.57942258  0.07706543  1
  O  O89  1  0.62802668  0.07942258  0.92293457  1
  O  O90  1  0.65151880  0.34536426  0.50744505  1
  O  O91  1  0.34848120  0.84536426  0.49255495  1
  O  O92  1  0.34848120  0.65463574  0.49255495  1
  O  O93  1  0.65151880  0.15463574  0.50744505  1
  O  O94  1  0.91621388  0.46782544  0.25415324  1
  O  O95  1  0.08378612  0.96782544  0.74584676  1
  O  O96  1  0.08378612  0.53217456  0.74584676  1
  O  O97  1  0.91621388  0.03217456  0.25415324  1
  O  O98  1  0.16951193  0.50425250  0.18302433  1
  O  O99  1  0.83048807  0.00425250  0.81697567  1
  O  O100  1  0.83048807  0.49574750  0.81697567  1
  O  O101  1  0.16951193  0.99574750  0.18302433  1
  O  O102  1  0.01928417  0.35972999  0.94949806  1
  O  O103  1  0.98071583  0.85972999  0.05050194  1
  O  O104  1  0.98071583  0.64027001  0.05050194  1
  O  O105  1  0.01928417  0.14027001  0.94949806  1
