# generated using pymatgen
data_Ni5Te4(BrO6)2
_symmetry_space_group_name_H-M   'P 1'
_cell_length_a   5.31238510
_cell_length_b   10.57147166
_cell_length_c   13.78124497
_cell_angle_alpha   83.93125025
_cell_angle_beta   78.88729280
_cell_angle_gamma   75.44789124
_symmetry_Int_Tables_number   1
_chemical_formula_structural   Ni5Te4(BrO6)2
_chemical_formula_sum   'Ni10 Te8 Br4 O24'
_cell_volume   733.73749618
_cell_formula_units_Z   2
loop_
 _symmetry_equiv_pos_site_id
 _symmetry_equiv_pos_as_xyz
  1  'x, y, z'
loop_
 _atom_site_type_symbol
 _atom_site_label
 _atom_site_symmetry_multiplicity
 _atom_site_fract_x
 _atom_site_fract_y
 _atom_site_fract_z
 _atom_site_occupancy
  Ni  Ni0  1  0.20803160  0.39741410  0.62222332  1
  Ni  Ni1  1  0.77233098  0.89741410  0.12222332  1
  Ni  Ni2  1  0.86995951  0.29888047  0.52886166  1
  Ni  Ni3  1  0.69770164  0.20111953  0.97113834  1
  Ni  Ni4  1  0.22766902  0.10258590  0.87777668  1
  Ni  Ni5  1  0.30229836  0.79888047  0.02886166  1
  Ni  Ni6  1  0.13004049  0.70111953  0.47113834  1
  Ni  Ni7  1  0.79196840  0.60258590  0.37777668  1
  Ni  Ni8  1  0.24702382  0.75000000  0.25000000  1
  Ni  Ni9  1  0.75297618  0.25000000  0.75000000  1
  Te  Te10  1  0.56153056  0.60738334  0.63621927  1
  Te  Te11  1  0.42724233  0.09297737  0.62004292  1
  Te  Te12  1  0.57275767  0.90702263  0.37995708  1
  Te  Te13  1  0.85973738  0.59297737  0.12004292  1
  Te  Te14  1  0.14026262  0.40702263  0.87995708  1
  Te  Te15  1  0.43846944  0.39261666  0.36378073  1
  Te  Te16  1  0.19486684  0.10738334  0.13621927  1
  Te  Te17  1  0.80513316  0.89261666  0.86378073  1
  Br  Br18  1  0.45851713  0.37605423  0.09854067  1
  Br  Br19  1  0.93311202  0.12394577  0.40145933  1
  Br  Br20  1  0.54148287  0.62394577  0.90145933  1
  Br  Br21  1  0.06688798  0.87605423  0.59854067  1
  O  O22  1  0.23622856  0.33438047  0.48231796  1
  O  O23  1  0.94707301  0.83438047  0.98231796  1
  O  O24  1  0.55102682  0.06913337  0.06989821  1
  O  O25  1  0.08011140  0.20500759  0.64535270  1
  O  O26  1  0.22327563  0.47451953  0.75070085  1
  O  O27  1  0.44849601  0.02548047  0.74929915  1
  O  O28  1  0.06952831  0.70500759  0.14535270  1
  O  O29  1  0.76377144  0.66561953  0.51768204  1
  O  O30  1  0.05292699  0.16561953  0.01768204  1
  O  O31  1  0.55918776  0.74402486  0.13069443  1
  O  O32  1  0.30994161  0.56913337  0.56989821  1
  O  O33  1  0.79412121  0.43545784  0.64345168  1
  O  O34  1  0.93047169  0.29499241  0.85464730  1
  O  O35  1  0.56609295  0.24402486  0.63069443  1
  O  O36  1  0.44081224  0.25597514  0.86930557  1
  O  O37  1  0.12696927  0.93545784  0.14345168  1
  O  O38  1  0.20587879  0.56454216  0.35654832  1
  O  O39  1  0.55150399  0.97451953  0.25070085  1
  O  O40  1  0.87303073  0.06454216  0.85654832  1
  O  O41  1  0.43390705  0.75597514  0.36930557  1
  O  O42  1  0.69005839  0.43086663  0.43010179  1
  O  O43  1  0.77672437  0.52548047  0.24929915  1
  O  O44  1  0.44897318  0.93086663  0.93010179  1
  O  O45  1  0.91988860  0.79499241  0.35464730  1
