# generated using pymatgen
data_KLi7(H2N)8
_symmetry_space_group_name_H-M   'P 1'
_cell_length_a   23.19346648
_cell_length_b   23.19346648
_cell_length_c   23.19346648
_cell_angle_alpha   161.91411872
_cell_angle_beta   161.91411872
_cell_angle_gamma   25.68579367
_symmetry_Int_Tables_number   1
_chemical_formula_structural   KLi7(H2N)8
_chemical_formula_sum   'K4 Li28 H64 N32'
_cell_volume   1202.04054775
_cell_formula_units_Z   4
loop_
 _symmetry_equiv_pos_site_id
 _symmetry_equiv_pos_as_xyz
  1  'x, y, z'
loop_
 _atom_site_type_symbol
 _atom_site_label
 _atom_site_symmetry_multiplicity
 _atom_site_fract_x
 _atom_site_fract_y
 _atom_site_fract_z
 _atom_site_occupancy
  K  K0  1  0.50000000  0.50000000  0.50000000  1
  K  K1  1  0.50000000  0.00000000  0.00000000  1
  K  K2  1  0.50000000  0.00000000  0.50000000  1
  K  K3  1  0.00000000  0.00000000  0.00000000  1
  Li  Li4  1  0.12667963  0.87667963  0.25000000  1
  Li  Li5  1  0.37667963  0.62667963  0.75000000  1
  Li  Li6  1  0.87332037  0.12332037  0.75000000  1
  Li  Li7  1  0.62332037  0.37332037  0.25000000  1
  Li  Li8  1  0.43144067  0.18144067  0.25000000  1
  Li  Li9  1  0.68144067  0.93144067  0.75000000  1
  Li  Li10  1  0.56855933  0.81855933  0.75000000  1
  Li  Li11  1  0.31855933  0.06855933  0.25000000  1
  Li  Li12  1  0.18377825  0.93377825  0.25000000  1
  Li  Li13  1  0.43377825  0.68377825  0.75000000  1
  Li  Li14  1  0.81622175  0.06622175  0.75000000  1
  Li  Li15  1  0.56622175  0.31622175  0.25000000  1
  Li  Li16  1  0.07038578  0.82038578  0.25000000  1
  Li  Li17  1  0.32038578  0.57038578  0.75000000  1
  Li  Li18  1  0.92961422  0.17961422  0.75000000  1
  Li  Li19  1  0.67961422  0.42961422  0.25000000  1
  Li  Li20  1  0.93039907  0.68039907  0.25000000  1
  Li  Li21  1  0.18039907  0.43039907  0.75000000  1
  Li  Li22  1  0.06960093  0.31960093  0.75000000  1
  Li  Li23  1  0.81960093  0.56960093  0.25000000  1
  Li  Li24  1  0.58148395  0.33139270  0.77172580  1
  Li  Li25  1  0.05966691  0.80975815  0.72827420  1
  Li  Li26  1  0.30975815  0.08148395  0.75009125  1
  Li  Li27  1  0.83139270  0.55966691  0.74990875  1
  Li  Li28  1  0.41851605  0.66860730  0.22827420  1
  Li  Li29  1  0.94033309  0.19024185  0.27172580  1
  Li  Li30  1  0.69024185  0.91851605  0.24990875  1
  Li  Li31  1  0.16860730  0.44033309  0.25009125  1
  H  H32  1  0.32418355  0.33905711  0.38741084  1
  H  H33  1  0.45164628  0.93677271  0.11258916  1
  H  H34  1  0.43677271  0.82418355  0.48512644  1
  H  H35  1  0.83905711  0.95164628  0.01487356  1
  H  H36  1  0.67581645  0.66094289  0.61258916  1
  H  H37  1  0.54835372  0.06322729  0.88741084  1
  H  H38  1  0.56322729  0.17581645  0.51487356  1
  H  H39  1  0.16094289  0.04835372  0.98512644  1
  H  H40  1  0.52650775  0.38385331  0.59546248  1
  H  H41  1  0.28839083  0.93104527  0.90453752  1
  H  H42  1  0.43104527  0.02650775  0.64265444  1
  H  H43  1  0.88385331  0.78839083  0.85734556  1
  H  H44  1  0.47349225  0.61614669  0.40453752  1
  H  H45  1  0.71160917  0.06895473  0.09546248  1
  H  H46  1  0.56895473  0.97349225  0.35734556  1
  H  H47  1  0.11614669  0.21160917  0.14265444  1
  H  H48  1  0.19512534  0.29456757  0.53780962  1
  H  H49  1  0.25675795  0.65731573  0.96219038  1
  H  H50  1  0.15731573  0.69512534  0.40055777  1
  H  H51  1  0.79456757  0.75675795  0.09944223  1
  H  H52  1  0.80487466  0.70543243  0.46219038  1
  H  H53  1  0.74324205  0.34268427  0.03780962  1
  H  H54  1  0.84268427  0.30487466  0.59944223  1
  H  H55  1  0.20543243  0.24324205  0.90055777  1
  H  H56  1  0.33968601  0.21055360  0.64032285  1
  H  H57  1  0.07023075  0.69936317  0.85967715  1
  H  H58  1  0.19936317  0.83968601  0.62913241  1
  H  H59  1  0.71055360  0.57023075  0.87086759  1
  H  H60  1  0.66031399  0.78944640  0.35967715  1
  H  H61  1  0.92976925  0.30063683  0.14032285  1
  H  H62  1  0.80063683  0.16031399  0.37086759  1
  H  H63  1  0.28944640  0.42976925  0.12913241  1
  H  H64  1  0.01856370  0.87508478  0.59149725  1
  H  H65  1  0.78358753  0.42706645  0.90850275  1
  H  H66  1  0.92706645  0.51856370  0.64347892  1
  H  H67  1  0.37508478  0.28358753  0.85652108  1
  H  H68  1  0.98143630  0.12491522  0.40850275  1
  H  H69  1  0.21641247  0.57293355  0.09149725  1
  H  H70  1  0.07293355  0.48143630  0.35652108  1
  H  H71  1  0.62491522  0.71641247  0.14347892  1
  H  H72  1  0.80638435  0.83814927  0.37425940  1
  H  H73  1  0.96388986  0.43212495  0.12574060  1
  H  H74  1  0.93212495  0.30638435  0.46823508  1
  H  H75  1  0.33814927  0.46388986  0.03176492  1
  H  H76  1  0.19361565  0.16185073  0.62574060  1
  H  H77  1  0.03611014  0.56787505  0.87425940  1
  H  H78  1  0.06787505  0.69361565  0.53176492  1
  H  H79  1  0.66185073  0.53611014  0.96823508  1
  H  H80  1  0.75840098  0.65154738  0.46334638  1
  H  H81  1  0.68820100  0.29505459  0.03665362  1
  H  H82  1  0.79505459  0.25840098  0.60685359  1
  H  H83  1  0.15154738  0.18820100  0.89314641  1
  H  H84  1  0.24159902  0.34845262  0.53665362  1
  H  H85  1  0.31179900  0.70494541  0.96334638  1
  H  H86  1  0.20494541  0.74159902  0.39314641  1
  H  H87  1  0.84845262  0.81179900  0.10685359  1
  H  H88  1  0.58259195  0.77303649  0.42641690  1
  H  H89  1  0.84661959  0.15617505  0.07358310  1
  H  H90  1  0.65617505  0.08259195  0.30955546  1
  H  H91  1  0.27303649  0.34661959  0.19044454  1
  H  H92  1  0.41740805  0.22696351  0.57358310  1
  H  H93  1  0.15338041  0.84382495  0.92641690  1
  H  H94  1  0.34382495  0.91740805  0.69044454  1
  H  H95  1  0.72696351  0.65338041  0.80955546  1
  N  N96  1  0.38963748  0.41860159  0.49412281  1
  N  N97  1  0.42447878  0.89551467  0.00587719  1
  N  N98  1  0.39551467  0.88963748  0.47103589  1
  N  N99  1  0.91860159  0.92447878  0.02896411  1
  N  N100  1  0.61036252  0.58139841  0.50587719  1
  N  N101  1  0.57552122  0.10448533  0.99412281  1
  N  N102  1  0.60448533  0.11036252  0.52896411  1
  N  N103  1  0.08139841  0.07552122  0.97103589  1
  N  N104  1  0.19962755  0.20774863  0.49477047  1
  N  N105  1  0.21297816  0.70485708  0.00522953  1
  N  N106  1  0.20485708  0.69962755  0.49187892  1
  N  N107  1  0.70774863  0.71297816  0.00812108  1
  N  N108  1  0.80037245  0.79225137  0.50522953  1
  N  N109  1  0.78702184  0.29514292  0.99477047  1
  N  N110  1  0.79514292  0.30037245  0.50812108  1
  N  N111  1  0.29225137  0.28702184  0.99187892  1
  N  N112  1  0.88590197  0.91490778  0.49419905  1
  N  N113  1  0.92070873  0.39170292  0.00580095  1
  N  N114  1  0.89170292  0.38590197  0.47099419  1
  N  N115  1  0.41490778  0.42070873  0.02900581  1
  N  N116  1  0.11409803  0.08509222  0.50580095  1
  N  N117  1  0.07929127  0.60829708  0.99419905  1
  N  N118  1  0.10829708  0.61409803  0.52900581  1
  N  N119  1  0.58509222  0.57929127  0.97099419  1
  N  N120  1  0.69181980  0.70935203  0.48958872  1
  N  N121  1  0.71976331  0.20223107  0.01041128  1
  N  N122  1  0.70223107  0.19181980  0.48246776  1
  N  N123  1  0.20935203  0.21976331  0.01753224  1
  N  N124  1  0.30818020  0.29064797  0.51041128  1
  N  N125  1  0.28023669  0.79776893  -0.01041128  1
  N  N126  1  0.29776893  0.80818020  0.51753224  1
  N  N127  1  0.79064797  0.78023669  0.98246776  1
