# generated using pymatgen
data_P5H5N6(Cl4O)2
_symmetry_space_group_name_H-M   'P 1'
_cell_length_a   7.99416871
_cell_length_b   11.30877515
_cell_length_c   11.77782245
_cell_angle_alpha   99.59469901
_cell_angle_beta   100.56222234
_cell_angle_gamma   100.69758455
_symmetry_Int_Tables_number   1
_chemical_formula_structural   P5H5N6(Cl4O)2
_chemical_formula_sum   'P10 H10 N12 Cl16 O4'
_cell_volume   1006.08723495
_cell_formula_units_Z   2
loop_
 _symmetry_equiv_pos_site_id
 _symmetry_equiv_pos_as_xyz
  1  'x, y, z'
loop_
 _atom_site_type_symbol
 _atom_site_label
 _atom_site_symmetry_multiplicity
 _atom_site_fract_x
 _atom_site_fract_y
 _atom_site_fract_z
 _atom_site_occupancy
  P  P0  1  0.95496715  0.76103543  0.65891569  1
  P  P1  1  0.04503285  0.23896457  0.34108431  1
  P  P2  1  0.24733516  0.65349831  0.77251262  1
  P  P3  1  0.75266484  0.34650169  0.22748738  1
  P  P4  1  0.07009601  0.78723518  0.90913642  1
  P  P5  1  0.92990399  0.21276482  0.09086358  1
  P  P6  1  0.31512636  0.67671239  0.36474873  1
  P  P7  1  0.68487364  0.32328761  0.63525127  1
  P  P8  1  0.61184541  0.84065328  0.31298798  1
  P  P9  1  0.38815459  0.15934672  0.68701202  1
  H  H10  1  0.15975428  0.66314426  0.57875331  1
  H  H11  1  0.84024572  0.33685574  0.42124669  1
  H  H12  1  0.05194014  0.96469067  0.64474524  1
  H  H13  1  0.94805986  0.03530933  0.35525476  1
  H  H14  1  0.94021346  0.87001837  0.51034466  1
  H  H15  1  0.05978654  0.12998163  0.48965534  1
  H  H16  1  0.77257267  0.57006379  0.56053318  1
  H  H17  1  0.22742733  0.42993621  0.43946682  1
  H  H18  1  0.69928515  0.69472299  0.51561545  1
  H  H19  1  0.30071485  0.30527701  0.48438455  1
  N  N20  1  0.12514238  0.68722665  0.65934023  1
  N  N21  1  0.87485762  0.31277335  0.34065977  1
  N  N22  1  0.20089272  0.69685797  0.89426130  1
  N  N23  1  0.79910728  0.30314203  0.10573870  1
  N  N24  1  0.94597812  0.80174605  0.79407681  1
  N  N25  1  0.05402188  0.19825395  0.20592319  1
  N  N26  1  0.97660618  0.88001828  0.60025619  1
  N  N27  1  0.02339382  0.11998172  0.39974381  1
  N  N28  1  0.79288588  0.66344748  0.56667626  1
  N  N29  1  0.20711412  0.33655252  0.43332374  1
  N  N30  1  0.51142125  0.74823312  0.37967573  1
  N  N31  1  0.48857875  0.25176688  0.62032427  1
  Cl  Cl32  1  0.23267480  0.47205961  0.73976816  1
  Cl  Cl33  1  0.76732520  0.52794039  0.26023184  1
  Cl  Cl34  1  0.49876184  0.71982763  0.77385948  1
  Cl  Cl35  1  0.50123816  0.28017237  0.22614052  1
  Cl  Cl36  1  0.92604110  0.73183655  0.02068126  1
  Cl  Cl37  1  0.07395890  0.26816345  0.97931874  1
  Cl  Cl38  1  0.21245172  0.95314361  0.00159757  1
  Cl  Cl39  1  0.78754828  0.04685639  0.99840243  1
  Cl  Cl40  1  0.14900791  0.78891686  0.33443739  1
  Cl  Cl41  1  0.85099209  0.21108314  0.66556261  1
  Cl  Cl42  1  0.24306350  0.54666063  0.21154894  1
  Cl  Cl43  1  0.75693650  0.45333937  0.78845106  1
  Cl  Cl44  1  0.53441890  0.77858008  0.13510234  1
  Cl  Cl45  1  0.46558110  0.22141992  0.86489766  1
  Cl  Cl46  1  0.53077191  0.00215302  0.33416911  1
  Cl  Cl47  1  0.46922809  0.99784698  0.66583089  1
  O  O48  1  0.27683526  0.61510347  0.46316058  1
  O  O49  1  0.72316474  0.38489653  0.53683942  1
  O  O50  1  0.80589641  0.86771322  0.34870707  1
  O  O51  1  0.19410359  0.13228678  0.65129293  1
