# generated using pymatgen
data_Na3CuB8H17O23
_symmetry_space_group_name_H-M   'P 1'
_cell_length_a   9.20692464
_cell_length_b   10.82686442
_cell_length_c   11.86295395
_cell_angle_alpha   103.25713080
_cell_angle_beta   110.02430135
_cell_angle_gamma   109.72916226
_symmetry_Int_Tables_number   1
_chemical_formula_structural   Na3CuB8H17O23
_chemical_formula_sum   'Na6 Cu2 B16 H34 O46'
_cell_volume   963.00572298
_cell_formula_units_Z   2
loop_
 _symmetry_equiv_pos_site_id
 _symmetry_equiv_pos_as_xyz
  1  'x, y, z'
loop_
 _atom_site_type_symbol
 _atom_site_label
 _atom_site_symmetry_multiplicity
 _atom_site_fract_x
 _atom_site_fract_y
 _atom_site_fract_z
 _atom_site_occupancy
  Na  Na0  1  0.14756583  0.91529090  0.12353898  1
  Na  Na1  1  0.85243417  0.08470910  0.87646102  1
  Na  Na2  1  0.15034312  0.95422747  0.63282518  1
  Na  Na3  1  0.84965688  0.04577253  0.36717482  1
  Na  Na4  1  0.42621348  0.77713003  0.13053726  1
  Na  Na5  1  0.57378652  0.22286997  0.86946274  1
  Cu  Cu6  1  0.46095955  0.51300598  0.61725335  1
  Cu  Cu7  1  0.53904045  0.48699402  0.38274665  1
  B  B8  1  0.76549006  0.77922930  0.41575996  1
  B  B9  1  0.23450994  0.22077070  0.58424004  1
  B  B10  1  0.77866428  0.55346729  0.27769153  1
  B  B11  1  0.22133572  0.44653271  0.72230847  1
  B  B12  1  0.46879609  0.68998651  0.85317654  1
  B  B13  1  0.53120391  0.31001349  0.14682346  1
  B  B14  1  0.76448703  0.75288501  0.83612067  1
  B  B15  1  0.23551297  0.24711499  0.16387933  1
  B  B16  1  0.74138943  0.75752701  0.62070791  1
  B  B17  1  0.25861057  0.24247299  0.37929209  1
  B  B18  1  0.74972079  0.87586667  0.03745930  1
  B  B19  1  0.25027921  0.12413333  0.96254070  1
  B  B20  1  0.20068005  0.65824289  0.67555065  1
  B  B21  1  0.79931995  0.34175711  0.32444935  1
  B  B22  1  0.98287941  0.79986068  0.32822433  1
  B  B23  1  0.01712059  0.20013932  0.67177567  1
  H  H24  1  0.08133603  0.73070943  0.90930544  1
  H  H25  1  0.91866397  0.26929057  0.09069456  1
  H  H26  1  0.34035859  0.52091205  0.98526173  1
  H  H27  1  0.65964141  0.47908795  0.01473827  1
  H  H28  1  0.65101498  0.25777101  0.55456018  1
  H  H29  1  0.34898502  0.74222899  0.44543982  1
  H  H30  1  0.99540200  0.36155946  0.47566116  1
  H  H31  1  0.00459800  0.63844054  0.52433884  1
  H  H32  1  0.45585637  0.51660164  0.11499723  1
  H  H33  1  0.54414363  0.48339836  0.88500277  1
  H  H34  1  0.89968473  0.45213095  0.62044733  1
  H  H35  1  0.10031527  0.54786905  0.37955267  1
  H  H36  1  0.56309468  0.82879426  0.39407193  1
  H  H37  1  0.43690532  0.17120574  0.60592807  1
  H  H38  1  0.15260328  0.99256866  0.37020480  1
  H  H39  1  0.84739672  0.00743134  0.62979520  1
  H  H40  1  0.50040250  0.05348157  0.34637591  1
  H  H41  1  0.49959750  0.94651843  0.65362409  1
  H  H42  1  0.79820945  0.51223783  0.68097630  1
  H  H43  1  0.20179055  0.48776217  0.31902370  1
  H  H44  1  0.95701545  0.04820776  0.18581173  1
  H  H45  1  0.04298455  0.95179224  0.81418827  1
  H  H46  1  0.51980598  0.08616323  0.22953320  1
  H  H47  1  0.48019402  0.91383677  0.77046680  1
  H  H48  1  0.02465945  0.63876299  0.16601368  1
  H  H49  1  0.97534055  0.36123701  0.83398632  1
  H  H50  1  0.65586890  0.12186304  0.57603768  1
  H  H51  1  0.34413110  0.87813696  0.42396232  1
  H  H52  1  0.25571622  0.80472342  0.90047313  1
  H  H53  1  0.74428378  0.19527658  0.09952687  1
  H  H54  1  0.80173227  0.59662469  0.88589418  1
  H  H55  1  0.19826773  0.40337531  0.11410582  1
  H  H56  1  0.15713982  0.59323026  0.14236593  1
  H  H57  1  0.84286018  0.40676974  0.85763407  1
  O  O58  1  0.53593777  0.99339634  0.74748333  1
  O  O59  1  0.46406223  0.00660366  0.25251667  1
  O  O60  1  0.21757578  0.56728642  0.39046310  1
  O  O61  1  0.78242422  0.43271358  0.60953690  1
  O  O62  1  0.10479016  0.65611866  0.12661352  1
  O  O63  1  0.89520984  0.34388134  0.87338648  1
  O  O64  1  0.42339733  0.84691480  0.47477674  1
  O  O65  1  0.57660267  0.15308520  0.52522326  1
  O  O66  1  0.20771807  0.79490755  0.96210568  1
  O  O67  1  0.79228193  0.20509245  0.03789432  1
  O  O68  1  0.35402052  0.53204064  0.07452422  1
  O  O69  1  0.64597948  0.46795936  0.92547578  1
  O  O70  1  0.84293882  0.65320010  0.83834815  1
  O  O71  1  0.15706118  0.34679990  0.16165185  1
  O  O72  1  0.11030643  0.71523223  0.60259095  1
  O  O73  1  0.88969357  0.28476777  0.39740905  1
  O  O74  1  0.12747789  0.89286339  0.32396011  1
  O  O75  1  0.87252211  0.10713661  0.67603989  1
  O  O76  1  0.83688581  0.98030673  0.16254286  1
  O  O77  1  0.16311419  0.01969327  0.83745714  1
  O  O78  1  0.63599571  0.82237781  0.35010945  1
  O  O79  1  0.36400429  0.17762219  0.64989055  1
  O  O80  1  0.81040661  0.82869657  0.75411649  1
  O  O81  1  0.18959339  0.17130343  0.24588351  1
  O  O82  1  0.12973887  0.51290186  0.64232679  1
  O  O83  1  0.87026113  0.48709814  0.35767321  1
  O  O84  1  0.81693082  0.83024858  0.55840676  1
  O  O85  1  0.18306918  0.16975142  0.44159324  1
  O  O86  1  0.60617106  0.62249939  0.55395190  1
  O  O87  1  0.39382894  0.37750061  0.44604810  1
  O  O88  1  0.71200237  0.62444579  0.35811468  1
  O  O89  1  0.28799763  0.37555421  0.64188532  1
  O  O90  1  0.90932275  0.65744702  0.25752670  1
  O  O91  1  0.09067725  0.34255298  0.74247330  1
  O  O92  1  0.57439967  0.67337898  0.78438256  1
  O  O93  1  0.42560033  0.32662102  0.21561744  1
  O  O94  1  0.57630343  0.79017685  0.98964366  1
  O  O95  1  0.42369657  0.20982315  0.01035634  1
  O  O96  1  0.84111215  0.86263820  0.96856090  1
  O  O97  1  0.15888785  0.13736180  0.03143910  1
  O  O98  1  0.35711805  0.75124818  0.78314823  1
  O  O99  1  0.64288195  0.24875182  0.21685177  1
  O  O100  1  0.92428999  0.85820583  0.40674179  1
  O  O101  1  0.07571001  0.14179417  0.59325821  1
  O  O102  1  0.36193295  0.55190933  0.84672739  1
  O  O103  1  0.63806705  0.44809067  0.15327261  1
