# generated using pymatgen
data_YbFeGe2O7
_symmetry_space_group_name_H-M   'P 1'
_cell_length_a   6.76979317
_cell_length_b   8.49334470
_cell_length_c   9.82105128
_cell_angle_alpha   90.00000000
_cell_angle_beta   100.11043499
_cell_angle_gamma   90.00000000
_symmetry_Int_Tables_number   1
_chemical_formula_structural   YbFeGe2O7
_chemical_formula_sum   'Yb4 Fe4 Ge8 O28'
_cell_volume   555.92365697
_cell_formula_units_Z   4
loop_
 _symmetry_equiv_pos_site_id
 _symmetry_equiv_pos_as_xyz
  1  'x, y, z'
loop_
 _atom_site_type_symbol
 _atom_site_label
 _atom_site_symmetry_multiplicity
 _atom_site_fract_x
 _atom_site_fract_y
 _atom_site_fract_z
 _atom_site_occupancy
  O  O0  1  0.94465203  0.08389006  0.36661529  1
  O  O1  1  0.05534797  0.58389006  0.63338471  1
  O  O2  1  0.05534797  0.91610994  0.63338471  1
  O  O3  1  0.94465203  0.41610994  0.36661529  1
  O  O4  1  0.14300477  0.25000000  0.62175851  1
  O  O5  1  0.85699523  0.75000000  0.37824149  1
  O  O6  1  0.34180472  0.25000000  0.38262336  1
  O  O7  1  0.65819528  0.75000000  0.61737664  1
  O  O8  1  0.44420648  0.58399287  0.86621616  1
  O  O9  1  0.55579352  0.08399287  0.13378384  1
  O  O10  1  0.55579352  0.41600713  0.13378384  1
  O  O11  1  0.44420648  0.91600713  0.86621616  1
  O  O12  1  0.15872581  0.25000000  0.11752233  1
  O  O13  1  0.84127419  0.75000000  0.88247767  1
  O  O14  1  0.95315826  0.56897179  0.14094117  1
  O  O15  1  0.04684174  0.06897179  0.85905883  1
  O  O16  1  0.54651047  0.56901340  0.35913035  1
  O  O17  1  0.45348953  0.06901340  0.64086965  1
  O  O18  1  0.45348953  0.43098660  0.64086965  1
  O  O19  1  0.54651047  0.93098660  0.35913035  1
  O  O20  1  0.64254165  0.75000000  0.12128666  1
  O  O21  1  0.35745835  0.25000000  0.87871334  1
  O  O22  1  0.23996269  0.75000000  0.07413241  1
  O  O23  1  0.76003731  0.25000000  0.92586759  1
  O  O24  1  0.25924075  0.75000000  0.42548759  1
  O  O25  1  0.74075925  0.25000000  0.57451241  1
  O  O26  1  0.95315826  0.93102821  0.14094117  1
  O  O27  1  0.04684174  0.43102821  0.85905883  1
  Fe  Fe28  1  0.74985727  0.94646769  0.25005381  1
  Fe  Fe29  1  0.25014273  0.44646769  0.74994619  1
  Fe  Fe30  1  0.25014273  0.05353231  0.74994619  1
  Fe  Fe31  1  0.74985727  0.55353231  0.25005381  1
  Ge  Ge32  1  0.56214614  0.25000000  0.02552866  1
  Ge  Ge33  1  0.43785386  0.75000000  0.97447134  1
  Ge  Ge34  1  0.03394232  0.25000000  0.95062090  1
  Ge  Ge35  1  0.96605768  0.75000000  0.04937910  1
  Ge  Ge36  1  0.46694466  0.25000000  0.54938434  1
  Ge  Ge37  1  0.53305534  0.75000000  0.45061566  1
  Ge  Ge38  1  0.06147532  0.75000000  0.52529531  1
  Ge  Ge39  1  0.93852468  0.25000000  0.47470469  1
  Yb  Yb40  1  0.24981365  0.04014427  0.25017679  1
  Yb  Yb41  1  0.75018635  0.54014427  0.74982321  1
  Yb  Yb42  1  0.75018635  0.95985573  0.74982321  1
  Yb  Yb43  1  0.24981365  0.45985573  0.25017679  1
