# generated using pymatgen
data_Zn(AgO2)2
_symmetry_space_group_name_H-M   'P 1'
_cell_length_a   3.26025273
_cell_length_b   8.10813860
_cell_length_c   7.87131902
_cell_angle_alpha   81.01016211
_cell_angle_beta   78.44478635
_cell_angle_gamma   98.33006155
_symmetry_Int_Tables_number   1
_chemical_formula_structural   Zn(AgO2)2
_chemical_formula_sum   'Zn2 Ag4 O8'
_cell_volume   197.98858377
_cell_formula_units_Z   2
loop_
 _symmetry_equiv_pos_site_id
 _symmetry_equiv_pos_as_xyz
  1  'x, y, z'
loop_
 _atom_site_type_symbol
 _atom_site_label
 _atom_site_symmetry_multiplicity
 _atom_site_fract_x
 _atom_site_fract_y
 _atom_site_fract_z
 _atom_site_occupancy
  Zn  Zn0  1  0.30224563  0.18218975  0.21161071  1
  Zn  Zn1  1  0.69984119  0.79589946  0.82146123  1
  Ag  Ag2  1  0.66895991  0.16774346  0.55846854  1
  Ag  Ag3  1  0.07533413  0.52243153  0.20069875  1
  Ag  Ag4  1  0.92714121  0.45572778  0.83246485  1
  Ag  Ag5  1  0.33334466  0.81028586  0.47455467  1
  O  O6  1  0.84025939  0.63244686  0.63263581  1
  O  O7  1  0.56991960  0.25860840  0.77889558  1
  O  O8  1  0.43270813  0.71971957  0.25393840  1
  O  O9  1  0.16227890  0.34560190  0.40045152  1
  O  O10  1  0.30357382  0.93210017  0.69479402  1
  O  O11  1  0.88408953  0.31475462  0.08421408  1
  O  O12  1  0.69862384  0.04597966  0.33829614  1
  O  O13  1  0.11799106  0.66331099  0.94895670  1
