# generated using pymatgen
data_LiSiBiO4
_symmetry_space_group_name_H-M   'P 1'
_cell_length_a   4.95600577
_cell_length_b   10.92207595
_cell_length_c   6.74430722
_cell_angle_alpha   90.00000000
_cell_angle_beta   90.00000000
_cell_angle_gamma   90.00000000
_symmetry_Int_Tables_number   1
_chemical_formula_structural   LiSiBiO4
_chemical_formula_sum   'Li4 Si4 Bi4 O16'
_cell_volume   365.06848269
_cell_formula_units_Z   4
loop_
 _symmetry_equiv_pos_site_id
 _symmetry_equiv_pos_as_xyz
  1  'x, y, z'
loop_
 _atom_site_type_symbol
 _atom_site_label
 _atom_site_symmetry_multiplicity
 _atom_site_fract_x
 _atom_site_fract_y
 _atom_site_fract_z
 _atom_site_occupancy
  Li  Li0  1  0.00000000  0.00000000  0.00000000  1
  Li  Li1  1  0.00000000  0.00000000  0.50000000  1
  Li  Li2  1  0.50000000  0.50000000  0.50000000  1
  Li  Li3  1  0.50000000  0.50000000  0.00000000  1
  Si  Si4  1  0.09646810  0.57991979  0.25000000  1
  Si  Si5  1  0.40353190  0.07991979  0.25000000  1
  Si  Si6  1  0.59646710  0.92008021  0.75000000  1
  Si  Si7  1  0.90353290  0.42008021  0.75000000  1
  Bi  Bi8  1  0.03878582  0.72275497  0.75000000  1
  Bi  Bi9  1  0.46121418  0.22275497  0.75000000  1
  Bi  Bi10  1  0.53878582  0.77724503  0.25000000  1
  Bi  Bi11  1  0.96121418  0.27724503  0.25000000  1
  O  O12  1  0.24168179  0.44390372  0.25000000  1
  O  O13  1  0.23580690  0.65663362  0.06011917  1
  O  O14  1  0.23580690  0.65663362  0.43988083  1
  O  O15  1  0.27027951  0.92249155  0.75000000  1
  O  O16  1  0.22972049  0.42249155  0.75000000  1
  O  O17  1  0.26419310  0.15663362  0.43988083  1
  O  O18  1  0.26419310  0.15663362  0.06011917  1
  O  O19  1  0.25831821  0.94390372  0.25000000  1
  O  O20  1  0.74168179  0.05609628  0.75000000  1
  O  O21  1  0.73580690  0.84336638  0.56011917  1
  O  O22  1  0.73580690  0.84336638  0.93988083  1
  O  O23  1  0.77027951  0.57750845  0.25000000  1
  O  O24  1  0.72972049  0.07750845  0.25000000  1
  O  O25  1  0.76419310  0.34336638  0.93988083  1
  O  O26  1  0.76419310  0.34336638  0.56011917  1
  O  O27  1  0.75831821  0.55609628  0.75000000  1
