# generated using pymatgen
data_Rb3YO3
_symmetry_space_group_name_H-M   'P 1'
_cell_length_a   7.35998801
_cell_length_b   7.35998801
_cell_length_c   7.30328931
_cell_angle_alpha   85.21899776
_cell_angle_beta   94.78100224
_cell_angle_gamma   63.81600802
_symmetry_Int_Tables_number   1
_chemical_formula_structural   Rb3YO3
_chemical_formula_sum   'Rb6 Y2 O6'
_cell_volume   350.57596323
_cell_formula_units_Z   2
loop_
 _symmetry_equiv_pos_site_id
 _symmetry_equiv_pos_as_xyz
  1  'x, y, z'
loop_
 _atom_site_type_symbol
 _atom_site_label
 _atom_site_symmetry_multiplicity
 _atom_site_fract_x
 _atom_site_fract_y
 _atom_site_fract_z
 _atom_site_occupancy
  Rb  Rb0  1  0.36311991  0.63688009  0.64289664  1
  Rb  Rb1  1  0.79501458  0.79501458  0.50000000  1
  Rb  Rb2  1  0.20498542  0.20498542  0.50000000  1
  Rb  Rb3  1  0.26050278  0.26050278  0.00000000  1
  Rb  Rb4  1  0.73949722  0.73949722  0.00000000  1
  Rb  Rb5  1  0.63688009  0.36311991  0.35710336  1
  Y  Y6  1  0.17831070  0.82168930  0.14984838  1
  Y  Y7  1  0.82168930  0.17831070  0.85015162  1
  O  O8  1  0.10286926  0.89713074  0.84368020  1
  O  O9  1  0.16952827  0.55169159  0.26934590  1
  O  O10  1  0.44830841  0.83047173  0.26934590  1
  O  O11  1  0.83047173  0.44830841  0.73065410  1
  O  O12  1  0.55169159  0.16952827  0.73065410  1
  O  O13  1  0.89713074  0.10286926  0.15631980  1
