# generated using pymatgen
data_Ca8La2Ti5Cr5O30
_symmetry_space_group_name_H-M   'P 1'
_cell_length_a   5.44406533
_cell_length_b   5.50157685
_cell_length_c   38.43539267
_cell_angle_alpha   89.96212016
_cell_angle_beta   89.95843053
_cell_angle_gamma   89.75838438
_symmetry_Int_Tables_number   1
_chemical_formula_structural   Ca8La2Ti5Cr5O30
_chemical_formula_sum   'Ca16 La4 Ti10 Cr10 O60'
_cell_volume   1151.16549675
_cell_formula_units_Z   2
loop_
 _symmetry_equiv_pos_site_id
 _symmetry_equiv_pos_as_xyz
  1  'x, y, z'
loop_
 _atom_site_type_symbol
 _atom_site_label
 _atom_site_symmetry_multiplicity
 _atom_site_fract_x
 _atom_site_fract_y
 _atom_site_fract_z
 _atom_site_occupancy
  Ca  Ca0  1  0.01251314  0.96552720  0.15068067  1
  Ca  Ca1  1  0.01258451  0.96523322  0.35089526  1
  Ca  Ca2  1  0.01120169  0.96687862  0.54909724  1
  Ca  Ca3  1  0.01139135  0.96445725  0.94861533  1
  Ca  Ca4  1  0.49147782  0.45812764  0.35162682  1
  Ca  Ca5  1  0.49149511  0.46139127  0.14899711  1
  Ca  Ca6  1  0.48947622  0.46234967  0.75015079  1
  Ca  Ca7  1  0.49135085  0.46154255  0.94902147  1
  Ca  Ca8  1  0.51052378  0.53765033  0.04984921  1
  Ca  Ca9  1  0.50850489  0.53860873  0.65100289  1
  Ca  Ca10  1  0.50852218  0.54187236  0.44837318  1
  Ca  Ca11  1  0.50864915  0.53845745  0.85097853  1
  Ca  Ca12  1  0.98879831  0.03312138  0.25090276  1
  Ca  Ca13  1  0.98741549  0.03476678  0.44910474  1
  Ca  Ca14  1  0.98748686  0.03447280  0.64931933  1
  Ca  Ca15  1  0.98860865  0.03554275  0.85138467  1
  La  La16  1  0.00692461  0.97327980  0.74991552  1
  La  La17  1  0.49327443  0.46909559  0.54939641  1
  La  La18  1  0.50672557  0.53090441  0.25060359  1
  La  La19  1  0.99307539  0.02672020  0.05008448  1
  Ti  Ti20  1  0.00156365  0.50024204  0.99843644  1
  Ti  Ti21  1  0.00173987  0.50107533  0.10084877  1
  Ti  Ti22  1  0.00272599  0.49749096  0.19913829  1
  Ti  Ti23  1  0.00165033  0.49881556  0.30214850  1
  Ti  Ti24  1  0.00000000  0.50000000  0.40000000  1
  Ti  Ti25  1  0.99834967  0.50118444  0.49785150  1
  Ti  Ti26  1  0.99727401  0.50250904  0.60086171  1
  Ti  Ti27  1  0.99826013  0.49892467  0.69915123  1
  Ti  Ti28  1  0.99843635  0.49975796  0.80156356  1
  Ti  Ti29  1  0.00000000  0.50000000  0.90000000  1
  Cr  Cr30  1  0.49888678  0.00027526  0.10083618  1
  Cr  Cr31  1  0.50127414  0.99917052  0.30126525  1
  Cr  Cr32  1  0.49872586  0.00082948  0.49873475  1
  Cr  Cr33  1  0.49954099  0.99954044  0.99877909  1
  Cr  Cr34  1  0.50111322  0.99972474  0.69916382  1
  Cr  Cr35  1  0.50000000  0.00000000  0.90000000  1
  Cr  Cr36  1  0.50280109  0.00030379  0.19920444  1
  Cr  Cr37  1  0.50000000  0.00000000  0.40000000  1
  Cr  Cr38  1  0.49719891  0.99969621  0.60079556  1
  Cr  Cr39  1  0.50045901  0.00045956  0.80122091  1
  O  O40  1  0.07596099  0.49027377  0.04972450  1
  O  O41  1  0.06703443  0.48251267  0.24978980  1
  O  O42  1  0.08027595  0.47802981  0.44975497  1
  O  O43  1  0.08076754  0.47889036  0.64952027  1
  O  O44  1  0.08005125  0.48232615  0.85035319  1
  O  O45  1  0.22231696  0.22081254  0.19147520  1
  O  O46  1  0.21715098  0.21679042  0.39122085  1
  O  O47  1  0.21974679  0.21740134  0.59096590  1
  O  O48  1  0.20996311  0.21762043  0.10837041  1
  O  O49  1  0.22136380  0.22096406  0.79264815  1
  O  O50  1  0.21792216  0.22071789  0.30856042  1
  O  O51  1  0.21425647  0.21572306  0.99141711  1
  O  O52  1  0.21635728  0.22121154  0.50862130  1
  O  O53  1  0.21916617  0.22107257  0.70771865  1
  O  O54  1  0.21830715  0.21675442  0.90838066  1
  O  O55  1  0.27576011  0.71764683  0.10832164  1
  O  O56  1  0.28677821  0.71423109  0.19210797  1
  O  O57  1  0.28485566  0.71211181  0.30783462  1
  O  O58  1  0.28320014  0.71469161  0.39184297  1
  O  O59  1  0.27892357  0.71882975  0.59222025  1
  O  O60  1  0.27838749  0.71849387  0.50710779  1
  O  O61  1  0.28062209  0.71903370  0.79195850  1
  O  O62  1  0.28129418  0.71532221  0.70819242  1
  O  O63  1  0.27770530  0.71817616  0.99136831  1
  O  O64  1  0.28250690  0.71565033  0.90831836  1
  O  O65  1  0.42663942  0.98076475  0.04930122  1
  O  O66  1  0.41614893  0.98153385  0.64850473  1
  O  O67  1  0.41943794  0.98995402  0.24878527  1
  O  O68  1  0.41567566  0.98319821  0.44826740  1
  O  O69  1  0.41731510  0.98030305  0.85121129  1
  O  O70  1  0.58432434  0.01680179  0.35173260  1
  O  O71  1  0.58385107  0.01846615  0.15149527  1
  O  O72  1  0.58056206  0.01004598  0.55121473  1
  O  O73  1  0.57336058  0.01923525  0.75069878  1
  O  O74  1  0.58268490  0.01969695  0.94878871  1
  O  O75  1  0.71937791  0.28096630  0.00804150  1
  O  O76  1  0.72161251  0.28150613  0.29289221  1
  O  O77  1  0.71870582  0.28467779  0.09180758  1
  O  O78  1  0.71514434  0.28788819  0.49216538  1
  O  O79  1  0.71679986  0.28530839  0.40815703  1
  O  O80  1  0.72107643  0.28117025  0.20777975  1
  O  O81  1  0.72423989  0.28235317  0.69167836  1
  O  O82  1  0.71749310  0.28434967  0.89168164  1
  O  O83  1  0.71322179  0.28576891  0.60789203  1
  O  O84  1  0.72229470  0.28182384  0.80863169  1
  O  O85  1  0.78083383  0.77892743  0.09228135  1
  O  O86  1  0.77863620  0.77903594  0.00735185  1
  O  O87  1  0.78025321  0.78259866  0.20903410  1
  O  O88  1  0.78364272  0.77878846  0.29137870  1
  O  O89  1  0.78207784  0.77928211  0.49143958  1
  O  O90  1  0.79003689  0.78237957  0.69162959  1
  O  O91  1  0.78284902  0.78320958  0.40877915  1
  O  O92  1  0.77768304  0.77918746  0.60852480  1
  O  O93  1  0.78574353  0.78427694  0.80858289  1
  O  O94  1  0.78169285  0.78324558  0.89161934  1
  O  O95  1  0.91923246  0.52110964  0.15047973  1
  O  O96  1  0.91972405  0.52197019  0.35024503  1
  O  O97  1  0.93296557  0.51748733  0.55021020  1
  O  O98  1  0.92403901  0.50972623  0.75027550  1
  O  O99  1  0.91994875  0.51767385  0.94964681  1
