# generated using pymatgen
data_Li2CuF4
_symmetry_space_group_name_H-M   'P 1'
_cell_length_a   5.15100148
_cell_length_b   5.15100106
_cell_length_c   5.87196031
_cell_angle_alpha   90.00000000
_cell_angle_beta   90.00000000
_cell_angle_gamma   110.48758669
_symmetry_Int_Tables_number   1
_chemical_formula_structural   Li2CuF4
_chemical_formula_sum   'Li4 Cu2 F8'
_cell_volume   145.94499925
_cell_formula_units_Z   2
loop_
 _symmetry_equiv_pos_site_id
 _symmetry_equiv_pos_as_xyz
  1  'x, y, z'
loop_
 _atom_site_type_symbol
 _atom_site_label
 _atom_site_symmetry_multiplicity
 _atom_site_fract_x
 _atom_site_fract_y
 _atom_site_fract_z
 _atom_site_occupancy
  Li  Li0  1  0.00228561  0.50228561  0.25000000  1
  Li  Li1  1  0.49771439  0.99771439  0.75000000  1
  Li  Li2  1  0.50228561  0.00228561  0.25000000  1
  Li  Li3  1  0.99771439  0.49771439  0.75000000  1
  Cu  Cu4  1  0.00000000  0.00000000  0.00000000  1
  Cu  Cu5  1  0.50000000  0.50000000  0.50000000  1
  F  F6  1  0.23198618  0.76801382  0.00000000  1
  F  F7  1  0.26801382  0.73198618  0.50000000  1
  F  F8  1  0.23404880  0.23404880  0.76701548  1
  F  F9  1  0.26595120  0.26595120  0.26701548  1
  F  F10  1  0.73404880  0.73404880  0.73298452  1
  F  F11  1  0.76595120  0.76595120  0.23298452  1
  F  F12  1  0.73198618  0.26801382  0.50000000  1
  F  F13  1  0.76801382  0.23198618  0.00000000  1
