# generated using pymatgen
data_CoH18C4N8(ClO)4
_symmetry_space_group_name_H-M   'P 1'
_cell_length_a   6.50136937
_cell_length_b   11.41147637
_cell_length_c   11.65928747
_cell_angle_alpha   90.00000000
_cell_angle_beta   103.59076508
_cell_angle_gamma   90.00000000
_symmetry_Int_Tables_number   1
_chemical_formula_structural   CoH18C4N8(ClO)4
_chemical_formula_sum   'Co2 H36 C8 N16 Cl8 O8'
_cell_volume   840.78403039
_cell_formula_units_Z   2
loop_
 _symmetry_equiv_pos_site_id
 _symmetry_equiv_pos_as_xyz
  1  'x, y, z'
loop_
 _atom_site_type_symbol
 _atom_site_label
 _atom_site_symmetry_multiplicity
 _atom_site_fract_x
 _atom_site_fract_y
 _atom_site_fract_z
 _atom_site_occupancy
  Co  Co0  1  0.50000000  0.00000000  0.50000000  1
  Co  Co1  1  0.00000000  0.50000000  0.00000000  1
  H  H2  1  0.28849478  0.78860984  0.50552366  1
  H  H3  1  0.78849478  0.71139016  0.00552366  1
  H  H4  1  0.71150522  0.21139016  0.49447634  1
  H  H5  1  0.21150522  0.28860984  0.99447634  1
  H  H6  1  0.13366190  0.89538352  0.49679675  1
  H  H7  1  0.63366190  0.60461648  0.99679675  1
  H  H8  1  0.86633810  0.10461648  0.50320325  1
  H  H9  1  0.36633810  0.39538352  0.00320325  1
  H  H10  1  0.00633784  0.70959325  0.21150241  1
  H  H11  1  0.50633784  0.79040675  0.71150241  1
  H  H12  1  0.99366216  0.29040675  0.78849759  1
  H  H13  1  0.49366216  0.20959325  0.28849759  1
  H  H14  1  0.12464024  0.82390035  0.30747098  1
  H  H15  1  0.62464024  0.67609965  0.80747098  1
  H  H16  1  0.87535976  0.17609965  0.69252902  1
  H  H17  1  0.37535976  0.32390035  0.19252902  1
  H  H18  1  0.08960461  0.00671805  0.25788671  1
  H  H19  1  0.58960461  0.49328195  0.75788671  1
  H  H20  1  0.91039539  0.99328195  0.74211329  1
  H  H21  1  0.41039539  0.50671805  0.24211329  1
  H  H22  1  0.87483685  0.26793993  0.13837217  1
  H  H23  1  0.37483685  0.23206007  0.63837217  1
  H  H24  1  0.12516315  0.73206007  0.86162783  1
  H  H25  1  0.62516315  0.76793993  0.36162783  1
  H  H26  1  0.03576923  0.19317492  0.26075839  1
  H  H27  1  0.53576923  0.30682508  0.76075839  1
  H  H28  1  0.96423077  0.80682508  0.73924161  1
  H  H29  1  0.46423077  0.69317492  0.23924161  1
  H  H30  1  0.67024035  0.15733251  0.98555739  1
  H  H31  1  0.17024035  0.34266749  0.48555739  1
  H  H32  1  0.32975965  0.84266749  0.01444261  1
  H  H33  1  0.82975965  0.65733251  0.51444261  1
  H  H34  1  0.69639749  0.00033208  0.99092798  1
  H  H35  1  0.19639749  0.49966792  0.49092798  1
  H  H36  1  0.30360251  0.99966792  0.00907202  1
  H  H37  1  0.80360251  0.50033208  0.50907202  1
  C  C38  1  0.92374301  0.87522871  0.15117478  1
  C  C39  1  0.42374301  0.62477129  0.65117478  1
  C  C40  1  0.07625699  0.12477129  0.84882522  1
  C  C41  1  0.57625699  0.37522871  0.34882522  1
  C  C42  1  0.87596563  0.08921142  0.12791534  1
  C  C43  1  0.37596563  0.41078858  0.62791534  1
  C  C44  1  0.12403437  0.91078858  0.87208466  1
  C  C45  1  0.62403437  0.58921142  0.37208466  1
  N  N46  1  0.02750708  0.79735461  0.22889148  1
  N  N47  1  0.52750708  0.70264539  0.72889148  1
  N  N48  1  0.97249292  0.20264539  0.77110852  1
  N  N49  1  0.47249292  0.29735461  0.27110852  1
  N  N50  1  0.96930636  0.99162583  0.18465963  1
  N  N51  1  0.46930636  0.50837417  0.68465963  1
  N  N52  1  0.03069364  0.00837417  0.81534037  1
  N  N53  1  0.53069364  0.49162583  0.31534037  1
  N  N54  1  0.93880693  0.19186634  0.17770193  1
  N  N55  1  0.43880693  0.30813366  0.67770193  1
  N  N56  1  0.06119307  0.80813366  0.82229807  1
  N  N57  1  0.56119307  0.69186634  0.32229807  1
  N  N58  1  0.73051188  0.08146783  0.02690269  1
  N  N59  1  0.23051188  0.41853217  0.52690269  1
  N  N60  1  0.26948812  0.91853217  0.97309731  1
  N  N61  1  0.76948812  0.58146783  0.47309731  1
  Cl  Cl62  1  0.49888594  0.99933328  0.29532444  1
  Cl  Cl63  1  0.99888594  0.50066672  0.79532444  1
  Cl  Cl64  1  0.50111406  0.00066672  0.70467556  1
  Cl  Cl65  1  0.00111406  0.49933328  0.20467556  1
  Cl  Cl66  1  0.18441200  0.13804907  0.45506975  1
  Cl  Cl67  1  0.68441200  0.36195093  0.95506975  1
  Cl  Cl68  1  0.81558800  0.86195093  0.54493025  1
  Cl  Cl69  1  0.31558800  0.63804907  0.04493025  1
  O  O70  1  0.25692379  0.86803711  0.46807830  1
  O  O71  1  0.75692379  0.63196289  0.96807830  1
  O  O72  1  0.74307621  0.13196289  0.53192170  1
  O  O73  1  0.24307621  0.36803711  0.03192170  1
  O  O74  1  0.79690220  0.84965724  0.05504489  1
  O  O75  1  0.29690220  0.65034276  0.55504489  1
  O  O76  1  0.20309780  0.15034276  0.94495511  1
  O  O77  1  0.70309780  0.34965724  0.44495511  1
