# generated using pymatgen
data_Ba2YBr7
_symmetry_space_group_name_H-M   'P 1'
_cell_length_a   11.26403866
_cell_length_b   16.60444347
_cell_length_c   7.32186325
_cell_angle_alpha   90.00000000
_cell_angle_beta   90.68051672
_cell_angle_gamma   90.00000000
_symmetry_Int_Tables_number   1
_chemical_formula_structural   Ba2YBr7
_chemical_formula_sum   'Ba8 Y4 Br28'
_cell_volume   1369.33413946
_cell_formula_units_Z   4
loop_
 _symmetry_equiv_pos_site_id
 _symmetry_equiv_pos_as_xyz
  1  'x, y, z'
loop_
 _atom_site_type_symbol
 _atom_site_label
 _atom_site_symmetry_multiplicity
 _atom_site_fract_x
 _atom_site_fract_y
 _atom_site_fract_z
 _atom_site_occupancy
  Ba  Ba0  1  0.04818302  0.22040687  0.26712745  1
  Ba  Ba1  1  0.17590613  0.56010008  0.26813787  1
  Ba  Ba2  1  0.32409387  0.06010008  0.73186213  1
  Ba  Ba3  1  0.45181698  0.72040687  0.73287255  1
  Ba  Ba4  1  0.54818302  0.27959313  0.26712745  1
  Ba  Ba5  1  0.67590613  0.93989992  0.26813787  1
  Ba  Ba6  1  0.82409387  0.43989992  0.73186213  1
  Ba  Ba7  1  0.95181698  0.77959313  0.73287255  1
  Y  Y8  1  0.21822676  0.87282663  0.21635696  1
  Y  Y9  1  0.28177324  0.37282663  0.78364304  1
  Y  Y10  1  0.71822676  0.62717337  0.21635696  1
  Y  Y11  1  0.78177324  0.12717337  0.78364304  1
  Br  Br12  1  0.02863020  0.13957139  0.70630677  1
  Br  Br13  1  0.06983599  0.39602931  0.00134884  1
  Br  Br14  1  0.08402792  0.39487841  0.51152409  1
  Br  Br15  1  0.12226856  0.93000846  0.86927949  1
  Br  Br16  1  0.19870657  0.74163985  0.49063572  1
  Br  Br17  1  0.20624713  0.72617343  0.00042040  1
  Br  Br18  1  0.21291548  0.04063424  0.29779140  1
  Br  Br19  1  0.28708452  0.54063424  0.70220860  1
  Br  Br20  1  0.29375287  0.22617343  0.99957960  1
  Br  Br21  1  0.30129343  0.24163985  0.50936428  1
  Br  Br22  1  0.37773144  0.43000846  0.13072051  1
  Br  Br23  1  0.41597208  0.89487841  0.48847591  1
  Br  Br24  1  0.43016401  0.89602931  0.99865116  1
  Br  Br25  1  0.47136980  0.63957139  0.29369323  1
  Br  Br26  1  0.52863020  0.36042861  0.70630677  1
  Br  Br27  1  0.56983599  0.10397069  0.00134884  1
  Br  Br28  1  0.58402792  0.10512159  0.51152409  1
  Br  Br29  1  0.62226856  0.56999154  0.86927949  1
  Br  Br30  1  0.69870657  0.75836015  0.49063572  1
  Br  Br31  1  0.70624713  0.77382657  0.00042040  1
  Br  Br32  1  0.71291548  0.45936576  0.29779140  1
  Br  Br33  1  0.78708452  0.95936576  0.70220860  1
  Br  Br34  1  0.79375287  0.27382657  0.99957960  1
  Br  Br35  1  0.80129343  0.25836015  0.50936428  1
  Br  Br36  1  0.87773144  0.06999154  0.13072051  1
  Br  Br37  1  0.91597208  0.60512159  0.48847591  1
  Br  Br38  1  0.93016401  0.60397069  0.99865116  1
  Br  Br39  1  0.97136980  0.86042861  0.29369323  1
