# generated using pymatgen
data_Tm2Pb2O7
_symmetry_space_group_name_H-M   'P 1'
_cell_length_a   7.55587392
_cell_length_b   7.55587392
_cell_length_c   7.55587392
_cell_angle_alpha   60.00000000
_cell_angle_beta   90.00000000
_cell_angle_gamma   120.00000000
_symmetry_Int_Tables_number   1
_chemical_formula_structural   Tm2Pb2O7
_chemical_formula_sum   'Tm4 Pb4 O14'
_cell_volume   305.02758096
_cell_formula_units_Z   2
loop_
 _symmetry_equiv_pos_site_id
 _symmetry_equiv_pos_as_xyz
  1  'x, y, z'
loop_
 _atom_site_type_symbol
 _atom_site_label
 _atom_site_symmetry_multiplicity
 _atom_site_fract_x
 _atom_site_fract_y
 _atom_site_fract_z
 _atom_site_occupancy
  Tm  Tm0  1  0.50000000  0.00000000  0.00000000  1
  Tm  Tm1  1  0.50000000  0.00000000  0.50000000  1
  Tm  Tm2  1  0.50000000  0.50000000  0.50000000  1
  Tm  Tm3  1  0.00000000  0.50000000  0.50000000  1
  Pb  Pb4  1  0.00000000  0.00000000  0.00000000  1
  Pb  Pb5  1  0.50000000  0.50000000  0.00000000  1
  Pb  Pb6  1  0.00000000  0.50000000  0.00000000  1
  Pb  Pb7  1  0.00000000  0.00000000  0.50000000  1
  O  O8  1  0.89725991  0.25000000  0.35274009  1
  O  O9  1  0.64725991  0.29451882  0.10274009  1
  O  O10  1  0.64725991  0.75000000  0.10274009  1
  O  O11  1  0.35274009  0.25000000  0.35274009  1
  O  O12  1  0.89725991  0.79451882  0.35274009  1
  O  O13  1  0.89725991  0.25000000  0.89725991  1
  O  O14  1  0.62500000  0.25000000  0.62500000  1
  O  O15  1  0.37500000  0.75000000  0.37500000  1
  O  O16  1  0.64725991  0.75000000  0.64725991  1
  O  O17  1  0.10274009  0.75000000  0.10274009  1
  O  O18  1  0.10274009  0.20548118  0.64725991  1
  O  O19  1  0.35274009  0.25000000  0.89725991  1
  O  O20  1  0.35274009  0.70548118  0.89725991  1
  O  O21  1  0.10274009  0.75000000  0.64725991  1
