# generated using pymatgen
data_Ca5Y3Ti5Mn3O24
_symmetry_space_group_name_H-M   'P 1'
_cell_length_a   5.38879442
_cell_length_b   5.61958061
_cell_length_c   15.28738044
_cell_angle_alpha   90.09851502
_cell_angle_beta   89.83788442
_cell_angle_gamma   89.51335657
_symmetry_Int_Tables_number   1
_chemical_formula_structural   Ca5Y3Ti5Mn3O24
_chemical_formula_sum   'Ca5 Y3 Ti5 Mn3 O24'
_cell_volume   462.92488931
_cell_formula_units_Z   1
loop_
 _symmetry_equiv_pos_site_id
 _symmetry_equiv_pos_as_xyz
  1  'x, y, z'
loop_
 _atom_site_type_symbol
 _atom_site_label
 _atom_site_symmetry_multiplicity
 _atom_site_fract_x
 _atom_site_fract_y
 _atom_site_fract_z
 _atom_site_occupancy
  Ca  Ca0  1  0.01288674  0.94900734  0.37614275  1
  Ca  Ca1  1  0.01279462  0.94271689  0.87199706  1
  Ca  Ca2  1  0.49082209  0.44710194  0.37630098  1
  Ca  Ca3  1  0.51066199  0.54647836  0.12746307  1
  Ca  Ca4  1  0.99116239  0.04618352  0.12762234  1
  Y  Y5  1  0.48524259  0.43165895  0.87119381  1
  Y  Y6  1  0.51670051  0.56966735  0.62584608  1
  Y  Y7  1  0.97995828  0.06994410  0.62547470  1
  Ti  Ti8  1  0.01261649  0.49707833  0.25181720  1
  Ti  Ti9  1  0.00756769  0.50343417  0.49894710  1
  Ti  Ti10  1  0.51401316  0.00305257  0.25074757  1
  Ti  Ti11  1  0.50515731  0.97781475  0.99901574  1
  Ti  Ti12  1  0.99169967  0.48355137  0.99927944  1
  Mn  Mn13  1  0.00238735  0.50391244  0.75010042  1
  Mn  Mn14  1  0.49685419  0.99944878  0.74967023  1
  Mn  Mn15  1  0.49348168  0.00494084  0.49991603  1
  O  O16  1  0.07848194  0.47912807  0.12399613  1
  O  O17  1  0.10807384  0.46795451  0.62512943  1
  O  O18  1  0.20269710  0.21206312  0.27113233  1
  O  O19  1  0.18730057  0.20055766  0.47902602  1
  O  O20  1  0.21229083  0.19300522  0.77476416  1
  O  O21  1  0.21002991  0.21887466  0.97394127  1
  O  O22  1  0.30172032  0.68221133  0.77318875  1
  O  O23  1  0.28505540  0.70719967  0.27078320  1
  O  O24  1  0.29402532  0.68322881  0.47949979  1
  O  O25  1  0.30431305  0.70573883  0.97282685  1
  O  O26  1  0.41590394  0.97823438  0.12348696  1
  O  O27  1  0.39139549  0.96981966  0.62194486  1
  O  O28  1  0.58037555  0.02556795  0.37508850  1
  O  O29  1  0.59209129  0.03374036  0.87774505  1
  O  O30  1  0.70729831  0.29956877  0.01986541  1
  O  O31  1  0.70484170  0.28537897  0.22820742  1
  O  O32  1  0.71248477  0.31171262  0.53228077  1
  O  O33  1  0.70876000  0.31504269  0.72463697  1
  O  O34  1  0.79596915  0.79789410  0.02220401  1
  O  O35  1  0.78388118  0.79019210  0.22825748  1
  O  O36  1  0.80022552  0.79768533  0.52904927  1
  O  O37  1  0.78945490  0.81315792  0.72011871  1
  O  O38  1  0.91243634  0.52634843  0.37480891  1
  O  O39  1  0.89688684  0.52970316  0.87648322  1
