# generated using pymatgen
data_K2ErPCO7
_symmetry_space_group_name_H-M   'P 1'
_cell_length_a   9.85425701
_cell_length_b   7.12188906
_cell_length_c   5.77402450
_cell_angle_alpha   90.00000000
_cell_angle_beta   92.00239678
_cell_angle_gamma   90.00000000
_symmetry_Int_Tables_number   1
_chemical_formula_structural   K2ErPCO7
_chemical_formula_sum   'K4 Er2 P2 C2 O14'
_cell_volume   404.97893637
_cell_formula_units_Z   2
loop_
 _symmetry_equiv_pos_site_id
 _symmetry_equiv_pos_as_xyz
  1  'x, y, z'
loop_
 _atom_site_type_symbol
 _atom_site_label
 _atom_site_symmetry_multiplicity
 _atom_site_fract_x
 _atom_site_fract_y
 _atom_site_fract_z
 _atom_site_occupancy
  K  K0  1  0.22697685  0.48826381  0.24400793  1
  K  K1  1  0.22697685  0.01173619  0.24400793  1
  K  K2  1  0.77302315  0.51173619  0.75599207  1
  K  K3  1  0.77302315  0.98826381  0.75599207  1
  Er  Er4  1  0.36351433  0.75000000  0.77758573  1
  Er  Er5  1  0.63648567  0.25000000  0.22241427  1
  P  P6  1  0.42851427  0.25000000  0.71148336  1
  P  P7  1  0.57148573  0.75000000  0.28851664  1
  C  C8  1  0.08697351  0.75000000  0.72910625  1
  C  C9  1  0.91302649  0.25000000  0.27089375  1
  O  O10  1  0.03967333  0.25000000  0.29851692  1
  O  O11  1  0.15042450  0.75000000  0.93477966  1
  O  O12  1  0.17033712  0.75000000  0.55219600  1
  O  O13  1  0.34926115  0.06894415  0.77033209  1
  O  O14  1  0.34926115  0.43105585  0.77033209  1
  O  O15  1  0.43276256  0.75000000  0.14659110  1
  O  O16  1  0.45783294  0.25000000  0.44606855  1
  O  O17  1  0.54216706  0.75000000  0.55393145  1
  O  O18  1  0.56723744  0.25000000  0.85340890  1
  O  O19  1  0.65073885  0.56894415  0.22966791  1
  O  O20  1  0.65073885  0.93105585  0.22966791  1
  O  O21  1  0.82966288  0.25000000  0.44780400  1
  O  O22  1  0.84957550  0.25000000  0.06522034  1
  O  O23  1  0.96032667  0.75000000  0.70148308  1
