# generated using pymatgen
data_Na2Ti2O5
_symmetry_space_group_name_H-M   'P 1'
_cell_length_a   3.66570445
_cell_length_b   6.23413012
_cell_length_c   5.82317308
_cell_angle_alpha   81.42989250
_cell_angle_beta   90.00000000
_cell_angle_gamma   72.90224938
_symmetry_Int_Tables_number   1
_chemical_formula_structural   Na2Ti2O5
_chemical_formula_sum   'Na2 Ti2 O5'
_cell_volume   125.63727109
_cell_formula_units_Z   1
loop_
 _symmetry_equiv_pos_site_id
 _symmetry_equiv_pos_as_xyz
  1  'x, y, z'
loop_
 _atom_site_type_symbol
 _atom_site_label
 _atom_site_symmetry_multiplicity
 _atom_site_fract_x
 _atom_site_fract_y
 _atom_site_fract_z
 _atom_site_occupancy
  Na  Na0  1  0.59993264  0.80013372  0.35452893  1
  Na  Na1  1  0.40006736  0.19986628  0.64547107  1
  Ti  Ti2  1  0.14519910  0.70960180  0.90051258  1
  Ti  Ti3  1  0.85480090  0.29039820  0.09948742  1
  O  O4  1  0.12455933  0.75088135  0.60067722  1
  O  O5  1  0.67908616  0.64182768  0.01295258  1
  O  O6  1  0.32091384  0.35817232  0.98704742  1
  O  O7  1  0.87544067  0.24911865  0.39932278  1
  O  O8  1  0.00000000  0.00000000  0.00000000  1
