# generated using pymatgen
data_SrSm2O4
_symmetry_space_group_name_H-M   'P 1'
_cell_length_a   7.10186778
_cell_length_b   7.13726912
_cell_length_c   7.10186778
_cell_angle_alpha   60.16393797
_cell_angle_beta   90.00000000
_cell_angle_gamma   119.83606203
_symmetry_Int_Tables_number   1
_chemical_formula_structural   SrSm2O4
_chemical_formula_sum   'Sr2 Sm4 O8'
_cell_volume   255.79992133
_cell_formula_units_Z   2
loop_
 _symmetry_equiv_pos_site_id
 _symmetry_equiv_pos_as_xyz
  1  'x, y, z'
loop_
 _atom_site_type_symbol
 _atom_site_label
 _atom_site_symmetry_multiplicity
 _atom_site_fract_x
 _atom_site_fract_y
 _atom_site_fract_z
 _atom_site_occupancy
  Sr  Sr0  1  0.62500000  0.75000000  0.12500000  1
  Sr  Sr1  1  0.37500000  0.25000000  0.87500000  1
  Sm  Sm2  1  0.00000000  0.50000000  0.00000000  1
  Sm  Sm3  1  0.50000000  0.00000000  0.50000000  1
  Sm  Sm4  1  0.00000000  0.00000000  0.50000000  1
  Sm  Sm5  1  0.00000000  0.50000000  0.50000000  1
  O  O6  1  0.76697618  0.03392000  0.26222511  1
  O  O7  1  0.76222511  0.46608000  0.26694482  1
  O  O8  1  0.20385388  0.46608000  0.26697618  1
  O  O9  1  0.23305518  0.96608000  0.29614612  1
  O  O10  1  0.76694482  0.03392000  0.70385388  1
  O  O11  1  0.79614612  0.53392000  0.73302382  1
  O  O12  1  0.23777489  0.53392000  0.73305518  1
  O  O13  1  0.23302382  0.96608000  0.73777489  1
