# generated using pymatgen
data_TeO3
_symmetry_space_group_name_H-M   'P 1'
_cell_length_a   5.21889768
_cell_length_b   4.92603774
_cell_length_c   8.46529654
_cell_angle_alpha   90.00000000
_cell_angle_beta   90.00000000
_cell_angle_gamma   90.00000000
_symmetry_Int_Tables_number   1
_chemical_formula_structural   TeO3
_chemical_formula_sum   'Te4 O12'
_cell_volume   217.62996548
_cell_formula_units_Z   4
loop_
 _symmetry_equiv_pos_site_id
 _symmetry_equiv_pos_as_xyz
  1  'x, y, z'
loop_
 _atom_site_type_symbol
 _atom_site_label
 _atom_site_symmetry_multiplicity
 _atom_site_fract_x
 _atom_site_fract_y
 _atom_site_fract_z
 _atom_site_occupancy
  Te  Te0  1  0.00000000  0.00000000  0.09956507  1
  Te  Te1  1  0.00000000  0.50000000  0.41450418  1
  Te  Te2  1  0.50000000  0.00000000  0.91450418  1
  Te  Te3  1  0.50000000  0.50000000  0.59956507  1
  O  O4  1  0.13857832  0.24988682  0.25708332  1
  O  O5  1  0.18525155  0.28732806  0.58085395  1
  O  O6  1  0.18517894  0.21253216  0.93314811  1
  O  O7  1  0.31482106  0.71253216  0.43314811  1
  O  O8  1  0.31474845  0.78732806  0.08085395  1
  O  O9  1  0.36142168  0.74988682  0.75708332  1
  O  O10  1  0.63857832  0.25011318  0.75708332  1
  O  O11  1  0.68525155  0.21267194  0.08085395  1
  O  O12  1  0.68517894  0.28746784  0.43314811  1
  O  O13  1  0.81482106  0.78746784  0.93314811  1
  O  O14  1  0.81474845  0.71267194  0.58085395  1
  O  O15  1  0.86142168  0.75011318  0.25708332  1
