# generated using pymatgen
data_La5Ta22O62
_symmetry_space_group_name_H-M   'P 1'
_cell_length_a   12.37672797
_cell_length_b   12.97897473
_cell_length_c   7.81341525
_cell_angle_alpha   72.48215924
_cell_angle_beta   90.00000000
_cell_angle_gamma   91.75669789
_symmetry_Int_Tables_number   1
_chemical_formula_structural   La5Ta22O62
_chemical_formula_sum   'La5 Ta22 O62'
_cell_volume   1196.29825070
_cell_formula_units_Z   1
loop_
 _symmetry_equiv_pos_site_id
 _symmetry_equiv_pos_as_xyz
  1  'x, y, z'
loop_
 _atom_site_type_symbol
 _atom_site_label
 _atom_site_symmetry_multiplicity
 _atom_site_fract_x
 _atom_site_fract_y
 _atom_site_fract_z
 _atom_site_occupancy
  La  La0  1  0.83015528  0.83022545  0.83488678  1
  La  La1  1  0.50966204  0.50971225  0.49514387  1
  La  La2  1  0.50862317  0.50862927  0.99568486  1
  La  La3  1  0.16419377  0.16412891  0.16793504  1
  La  La4  1  0.16471270  0.16472981  0.66763459  1
  Ta  Ta5  1  0.78702720  0.58013148  0.21247916  1
  Ta  Ta6  1  0.78702720  0.58013148  0.70738936  1
  Ta  Ta7  1  0.58014247  0.78709166  0.10899733  1
  Ta  Ta8  1  0.58014247  0.78709166  0.60391001  1
  Ta  Ta9  1  0.93213484  0.29986267  0.84993768  1
  Ta  Ta10  1  0.29982530  0.93207403  0.53418804  1
  Ta  Ta11  1  0.29982530  0.93207403  0.03373793  1
  Ta  Ta12  1  0.93213484  0.29986267  0.35019965  1
  Ta  Ta13  1  0.66834995  0.33298913  0.83360966  1
  Ta  Ta14  1  0.33302873  0.66834561  0.66607335  1
  Ta  Ta15  1  0.33302873  0.66834561  0.16558104  1
  Ta  Ta16  1  0.66834995  0.33298913  0.33340120  1
  Ta  Ta17  1  0.70203953  0.06778374  0.46492755  1
  Ta  Ta18  1  0.70203953  0.06778374  0.96728871  1
  Ta  Ta19  1  0.06773116  0.70202201  0.15017370  1
  Ta  Ta20  1  0.06773116  0.70202201  0.64780429  1
  Ta  Ta21  1  0.42471452  0.21491619  0.39261158  1
  Ta  Ta22  1  0.42471452  0.21491619  0.89247323  1
  Ta  Ta23  1  0.21494609  0.42477954  0.78766657  1
  Ta  Ta24  1  0.21494609  0.42477954  0.28755489  1
  Ta  Ta25  1  0.99707967  0.99708779  0.00341487  1
  Ta  Ta26  1  0.99707967  0.99708779  0.49949634  1
  O  O27  1  0.84058617  0.99035267  0.99195165  1
  O  O28  1  0.99034833  0.84054524  0.59240092  1
  O  O29  1  0.84058617  0.99035267  0.51769567  1
  O  O30  1  0.99034833  0.84054524  0.06705384  1
  O  O31  1  0.93919392  0.61132369  0.19507085  1
  O  O32  1  0.61136438  0.93922962  0.03115188  1
  O  O33  1  0.93919392  0.61132369  0.69360545  1
  O  O34  1  0.61136438  0.93922962  0.52961850  1
  O  O35  1  0.73218399  0.73217119  0.64412835  1
  O  O36  1  0.73218399  0.73217119  0.12369946  1
  O  O37  1  0.77207819  0.58436895  0.45781552  1
  O  O38  1  0.59145789  0.78104380  0.85947860  1
  O  O39  1  0.58444903  0.77207949  0.36395976  1
  O  O40  1  0.78096270  0.59131322  0.95434339  1
  O  O41  1  0.82096312  0.41570521  0.29164076  1
  O  O42  1  0.41572720  0.82103864  0.08905573  1
  O  O43  1  0.82096312  0.41570521  0.79265403  1
  O  O44  1  0.41572720  0.82103864  0.58990563  1
  O  O45  1  0.28992161  0.93748399  0.28125850  1
  O  O46  1  0.93728303  0.29065501  0.60467200  1
  O  O47  1  0.93753368  0.28977832  0.10511084  1
  O  O48  1  0.29055639  0.93738554  0.78130773  1
  O  O49  1  0.64284366  0.49889362  0.75319627  1
  O  O50  1  0.64284366  0.49889362  0.24791011  1
  O  O51  1  0.49886951  0.64291998  0.68117052  1
  O  O52  1  0.49886951  0.64291998  0.17590951  1
  O  O53  1  0.21730185  0.78352871  0.10745652  1
  O  O54  1  0.78350355  0.21729195  0.39218847  1
  O  O55  1  0.78350355  0.21729195  0.89051958  1
  O  O56  1  0.65726329  0.34385758  0.07807121  1
  O  O57  1  0.34467117  0.65720842  0.42139629  1
  O  O58  1  0.21730185  0.78352871  0.60901477  1
  O  O59  1  0.65724543  0.34488472  0.57755814  1
  O  O60  1  0.34398029  0.65721555  0.92139223  1
  O  O61  1  0.50173322  0.35777816  0.32144707  1
  O  O62  1  0.50173322  0.35777816  0.82077577  1
  O  O63  1  0.35784601  0.50166975  0.24944356  1
  O  O64  1  0.35784601  0.50166975  0.74888669  1
  O  O65  1  0.06459503  0.70461152  0.89769424  1
  O  O66  1  0.06990130  0.70705580  0.39647260  1
  O  O67  1  0.70463893  0.06455167  0.71772366  1
  O  O68  1  0.70722361  0.06982922  0.21508489  1
  O  O69  1  0.17991985  0.58367139  0.20756976  1
  O  O70  1  0.58366429  0.17984229  0.90945805  1
  O  O71  1  0.58366429  0.17984229  0.41069967  1
  O  O72  1  0.17991985  0.58367139  0.70875785  1
  O  O73  1  0.21959221  0.40293044  0.04853478  1
  O  O74  1  0.40301079  0.21965922  0.14017089  1
  O  O75  1  0.40270220  0.21955169  0.64022365  1
  O  O76  1  0.21943614  0.40290308  0.54854896  1
  O  O77  1  0.26016701  0.26018425  0.37001045  1
  O  O78  1  0.26016701  0.26018425  0.86980530  1
  O  O79  1  0.38857607  0.06200220  0.46890972  1
  O  O80  1  0.06195441  0.38865077  0.80563016  1
  O  O81  1  0.38857607  0.06200220  0.96908807  1
  O  O82  1  0.06195441  0.38865077  0.30571907  1
  O  O83  1  0.02116482  0.16407834  0.41928010  1
  O  O84  1  0.16405466  0.02116515  0.98809654  1
  O  O85  1  0.02116482  0.16407834  0.91664056  1
  O  O86  1  0.16405466  0.02116515  0.49073831  1
  O  O87  1  0.00920419  0.00911998  0.24544001  1
  O  O88  1  0.00429702  0.00414474  0.74792763  1
