# generated using pymatgen
data_MgAl10O16
_symmetry_space_group_name_H-M   'P 1'
_cell_length_a   5.71896394
_cell_length_b   5.71895559
_cell_length_c   9.70634762
_cell_angle_alpha   107.13302309
_cell_angle_beta   107.13258934
_cell_angle_gamma   60.00259703
_symmetry_Int_Tables_number   1
_chemical_formula_structural   MgAl10O16
_chemical_formula_sum   'Mg1 Al10 O16'
_cell_volume   258.54060186
_cell_formula_units_Z   1
loop_
 _symmetry_equiv_pos_site_id
 _symmetry_equiv_pos_as_xyz
  1  'x, y, z'
loop_
 _atom_site_type_symbol
 _atom_site_label
 _atom_site_symmetry_multiplicity
 _atom_site_fract_x
 _atom_site_fract_y
 _atom_site_fract_z
 _atom_site_occupancy
  Mg  Mg0  1  0.80998070  0.30998093  0.42997433  1
  Al  Al1  1  0.30984280  0.80984855  0.92940876  1
  Al  Al2  1  0.75955588  0.74340057  0.76244453  1
  Al  Al3  1  0.18923969  0.68923497  0.56780135  1
  Al  Al4  1  0.24339892  0.25955753  0.76244650  1
  Al  Al5  1  0.24558882  0.74558858  0.24050125  1
  Al  Al6  1  0.75956416  0.25956635  0.76247952  1
  Al  Al7  1  0.74931589  0.74556912  0.24046849  1
  Al  Al8  1  0.24557190  0.24931607  0.24046995  1
  Al  Al9  1  0.49778056  0.99777866  0.49338471  1
  Al  Al10  1  0.69177990  0.19177537  0.07536247  1
  O  O11  1  0.38834583  0.88833633  0.62751700  1
  O  O12  1  0.85072274  0.88839948  0.62750937  1
  O  O13  1  0.12048900  0.62049649  0.85935753  1
  O  O14  1  0.61854568  0.62048793  0.85940994  1
  O  O15  1  0.12048213  0.11854559  0.85940872  1
  O  O16  1  0.37538908  0.87539156  0.12627534  1
  O  O17  1  0.60137500  0.66253208  0.36532911  1
  O  O18  1  0.88273007  0.38272272  0.64815191  1
  O  O19  1  0.62299995  0.12301024  0.86897734  1
  O  O20  1  0.38840487  0.35071700  0.62750813  1
  O  O21  1  0.88230485  0.87784415  0.14242621  1
  O  O22  1  0.12258767  0.62259120  0.36791938  1
  O  O23  1  0.88227358  0.38226766  0.14243938  1
  O  O24  1  0.37784543  0.38230203  0.14242217  1
  O  O25  1  0.16252971  0.10138177  0.36533400  1
  O  O26  1  0.60135717  0.10135607  0.36527261  1
