# generated using pymatgen
data_K2DyPCO7
_symmetry_space_group_name_H-M   'P 1'
_cell_length_a   9.99244508
_cell_length_b   7.14589668
_cell_length_c   5.84144108
_cell_angle_alpha   90.00000000
_cell_angle_beta   91.93476471
_cell_angle_gamma   90.00000000
_symmetry_Int_Tables_number   1
_chemical_formula_structural   K2DyPCO7
_chemical_formula_sum   'K4 Dy2 P2 C2 O14'
_cell_volume   416.87019706
_cell_formula_units_Z   2
loop_
 _symmetry_equiv_pos_site_id
 _symmetry_equiv_pos_as_xyz
  1  'x, y, z'
loop_
 _atom_site_type_symbol
 _atom_site_label
 _atom_site_symmetry_multiplicity
 _atom_site_fract_x
 _atom_site_fract_y
 _atom_site_fract_z
 _atom_site_occupancy
  K  K0  1  0.22124671  0.48860314  0.24706468  1
  K  K1  1  0.22124671  0.01139686  0.24706468  1
  K  K2  1  0.77875329  0.51139686  0.75293532  1
  K  K3  1  0.77875329  0.98860314  0.75293532  1
  Dy  Dy4  1  0.36800558  0.75000000  0.78055067  1
  Dy  Dy5  1  0.63199442  0.25000000  0.21944933  1
  P  P6  1  0.43092010  0.25000000  0.71077259  1
  P  P7  1  0.56907990  0.75000000  0.28922741  1
  C  C8  1  0.09328776  0.75000000  0.72896921  1
  C  C9  1  0.90671224  0.25000000  0.27103079  1
  O  O10  1  0.03155812  0.25000000  0.30161148  1
  O  O11  1  0.15396561  0.75000000  0.93330621  1
  O  O12  1  0.17656112  0.75000000  0.55564596  1
  O  O13  1  0.35237749  0.07028331  0.77013434  1
  O  O14  1  0.35237749  0.42971669  0.77013434  1
  O  O15  1  0.43133318  0.75000000  0.15207171  1
  O  O16  1  0.45842504  0.25000000  0.44835264  1
  O  O17  1  0.54157496  0.75000000  0.55164736  1
  O  O18  1  0.56866682  0.25000000  0.84792829  1
  O  O19  1  0.64762251  0.57028331  0.22986566  1
  O  O20  1  0.64762251  0.92971669  0.22986566  1
  O  O21  1  0.82343888  0.25000000  0.44435404  1
  O  O22  1  0.84603439  0.25000000  0.06669379  1
  O  O23  1  0.96844188  0.75000000  0.69838852  1
