# generated using pymatgen
data_Bi12PO20
_symmetry_space_group_name_H-M   'P 1'
_cell_length_a   8.94256640
_cell_length_b   8.94256640
_cell_length_c   8.94256640
_cell_angle_alpha   109.47122063
_cell_angle_beta   109.47122063
_cell_angle_gamma   109.47122063
_symmetry_Int_Tables_number   1
_chemical_formula_structural   Bi12PO20
_chemical_formula_sum   'Bi12 P1 O20'
_cell_volume   550.50926222
_cell_formula_units_Z   1
loop_
 _symmetry_equiv_pos_site_id
 _symmetry_equiv_pos_as_xyz
  1  'x, y, z'
loop_
 _atom_site_type_symbol
 _atom_site_label
 _atom_site_symmetry_multiplicity
 _atom_site_fract_x
 _atom_site_fract_y
 _atom_site_fract_z
 _atom_site_occupancy
  Bi  Bi0  1  0.80159448  0.14767554  0.30090815  1
  Bi  Bi1  1  0.85232446  0.65391894  0.15323261  1
  Bi  Bi2  1  0.49931367  0.34608106  0.19840552  1
  Bi  Bi3  1  0.34608106  0.19840552  0.49931367  1
  Bi  Bi4  1  0.65391894  0.15323261  0.85232446  1
  Bi  Bi5  1  0.84676739  0.50068633  0.69909185  1
  Bi  Bi6  1  0.19840552  0.49931367  0.34608106  1
  Bi  Bi7  1  0.69909185  0.84676739  0.50068633  1
  Bi  Bi8  1  0.30090815  0.80159448  0.14767554  1
  Bi  Bi9  1  0.14767554  0.30090815  0.80159448  1
  Bi  Bi10  1  0.50068633  0.69909185  0.84676739  1
  Bi  Bi11  1  0.15323261  0.85232446  0.65391894  1
  P  P12  1  0.00000000  0.00000000  0.00000000  1
  O  O13  1  0.59851582  0.00000000  0.00000000  1
  O  O14  1  0.75823263  0.37592187  0.11828949  1
  O  O15  1  0.17574792  0.00000000  0.00000000  1
  O  O16  1  0.61768923  0.24176737  0.36005686  1
  O  O17  1  0.88171051  0.25763238  0.63994314  1
  O  O18  1  0.00000000  0.17574792  0.00000000  1
  O  O19  1  0.00000000  0.00000000  0.17574792  1
  O  O20  1  0.74236762  0.62407813  0.38231077  1
  O  O21  1  0.40148418  0.40148418  0.40148418  1
  O  O22  1  0.37592187  0.11828949  0.75823263  1
  O  O23  1  0.62407813  0.38231077  0.74236762  1
  O  O24  1  0.36005686  0.61768923  0.24176737  1
  O  O25  1  0.63994314  0.88171051  0.25763238  1
  O  O26  1  0.00000000  0.59851582  0.00000000  1
  O  O27  1  0.00000000  0.00000000  0.59851582  1
  O  O28  1  0.24176737  0.36005686  0.61768923  1
  O  O29  1  0.82425208  0.82425208  0.82425208  1
  O  O30  1  0.38231077  0.74236762  0.62407813  1
  O  O31  1  0.11828949  0.75823263  0.37592187  1
  O  O32  1  0.25763238  0.63994314  0.88171051  1
