# generated using pymatgen
data_Rb3DyO3
_symmetry_space_group_name_H-M   'P 1'
_cell_length_a   7.36247263
_cell_length_b   7.36247263
_cell_length_c   7.30353909
_cell_angle_alpha   85.26483191
_cell_angle_beta   94.73516809
_cell_angle_gamma   63.65582770
_symmetry_Int_Tables_number   1
_chemical_formula_structural   Rb3DyO3
_chemical_formula_sum   'Rb6 Dy2 O6'
_cell_volume   350.40634382
_cell_formula_units_Z   2
loop_
 _symmetry_equiv_pos_site_id
 _symmetry_equiv_pos_as_xyz
  1  'x, y, z'
loop_
 _atom_site_type_symbol
 _atom_site_label
 _atom_site_symmetry_multiplicity
 _atom_site_fract_x
 _atom_site_fract_y
 _atom_site_fract_z
 _atom_site_occupancy
  Rb  Rb0  1  0.36337699  0.63662301  0.64315780  1
  Rb  Rb1  1  0.79405610  0.79405610  0.50000000  1
  Rb  Rb2  1  0.20594390  0.20594390  0.50000000  1
  Rb  Rb3  1  0.25998687  0.25998687  0.00000000  1
  Rb  Rb4  1  0.74001313  0.74001313  0.00000000  1
  Rb  Rb5  1  0.63662301  0.36337699  0.35684220  1
  Dy  Dy6  1  0.17778140  0.82221860  0.14959631  1
  Dy  Dy7  1  0.82221860  0.17778140  0.85040369  1
  O  O8  1  0.10293501  0.89706499  0.84442977  1
  O  O9  1  0.16890909  0.55323707  0.26907005  1
  O  O10  1  0.44676293  0.83109091  0.26907005  1
  O  O11  1  0.83109091  0.44676293  0.73092995  1
  O  O12  1  0.55323707  0.16890909  0.73092995  1
  O  O13  1  0.89706499  0.10293501  0.15557023  1
