# generated using pymatgen
data_Ca2CeO4
_symmetry_space_group_name_H-M   'P 1'
_cell_length_a   5.84851022
_cell_length_b   10.02701566
_cell_length_c   3.53302438
_cell_angle_alpha   90.00000000
_cell_angle_beta   90.00000000
_cell_angle_gamma   90.00000000
_symmetry_Int_Tables_number   1
_chemical_formula_structural   Ca2CeO4
_chemical_formula_sum   'Ca4 Ce2 O8'
_cell_volume   207.18751461
_cell_formula_units_Z   2
loop_
 _symmetry_equiv_pos_site_id
 _symmetry_equiv_pos_as_xyz
  1  'x, y, z'
loop_
 _atom_site_type_symbol
 _atom_site_label
 _atom_site_symmetry_multiplicity
 _atom_site_fract_x
 _atom_site_fract_y
 _atom_site_fract_z
 _atom_site_occupancy
  Ca  Ca0  1  0.06141721  0.67850904  0.50000000  1
  Ca  Ca1  1  0.43858279  0.17850904  0.50000000  1
  Ca  Ca2  1  0.56141721  0.82149096  0.50000000  1
  Ca  Ca3  1  0.93858279  0.32149096  0.50000000  1
  Ce  Ce4  1  0.00000000  0.00000000  0.00000000  1
  Ce  Ce5  1  0.50000000  0.50000000  0.00000000  1
  O  O6  1  0.15250243  0.20165274  0.00000000  1
  O  O7  1  0.24032039  0.95927038  0.50000000  1
  O  O8  1  0.25967961  0.45927038  0.50000000  1
  O  O9  1  0.34749757  0.70165274  0.00000000  1
  O  O10  1  0.65250243  0.29834726  0.00000000  1
  O  O11  1  0.74032039  0.54072962  0.50000000  1
  O  O12  1  0.75967961  0.04072962  0.50000000  1
  O  O13  1  0.84749757  0.79834726  0.00000000  1
