# generated using pymatgen
data_Ba2SrI6
_symmetry_space_group_name_H-M   'P 1'
_cell_length_a   7.79405308
_cell_length_b   28.69450969
_cell_length_c   8.67870091
_cell_angle_alpha   90.00000000
_cell_angle_beta   90.00000000
_cell_angle_gamma   90.00000000
_symmetry_Int_Tables_number   1
_chemical_formula_structural   Ba2SrI6
_chemical_formula_sum   'Ba8 Sr4 I24'
_cell_volume   1940.96135756
_cell_formula_units_Z   4
loop_
 _symmetry_equiv_pos_site_id
 _symmetry_equiv_pos_as_xyz
  1  'x, y, z'
loop_
 _atom_site_type_symbol
 _atom_site_label
 _atom_site_symmetry_multiplicity
 _atom_site_fract_x
 _atom_site_fract_y
 _atom_site_fract_z
 _atom_site_occupancy
  Ba  Ba0  1  0.00000000  0.04951272  0.25000000  1
  Ba  Ba1  1  0.00000000  0.28385353  0.75000000  1
  Ba  Ba2  1  0.00000000  0.71614647  0.25000000  1
  Ba  Ba3  1  0.00000000  0.95048728  0.75000000  1
  Ba  Ba4  1  0.50000000  0.21614647  0.25000000  1
  Ba  Ba5  1  0.50000000  0.54951272  0.25000000  1
  Ba  Ba6  1  0.50000000  0.78385353  0.75000000  1
  Ba  Ba7  1  0.50000000  0.45048728  0.75000000  1
  Sr  Sr8  1  0.00000000  0.38344167  0.25000000  1
  Sr  Sr9  1  0.00000000  0.61655833  0.75000000  1
  Sr  Sr10  1  0.50000000  0.88344167  0.25000000  1
  Sr  Sr11  1  0.50000000  0.11655833  0.75000000  1
  I  I12  1  0.24391912  0.03894888  0.58378946  1
  I  I13  1  0.24391912  0.96105112  0.08378946  1
  I  I14  1  0.26430349  0.19966135  0.58506589  1
  I  I15  1  0.26430349  0.80033865  0.08506589  1
  I  I16  1  0.23240062  0.37155376  0.56532982  1
  I  I17  1  0.23240062  0.62844624  0.06532982  1
  I  I18  1  0.26759938  0.87155376  0.56532982  1
  I  I19  1  0.26759938  0.12844624  0.06532982  1
  I  I20  1  0.23569651  0.30033865  0.08506589  1
  I  I21  1  0.23569651  0.69966135  0.58506589  1
  I  I22  1  0.25608088  0.46105112  0.08378946  1
  I  I23  1  0.25608088  0.53894888  0.58378946  1
  I  I24  1  0.74391912  0.46105112  0.41621054  1
  I  I25  1  0.74391912  0.53894888  0.91621054  1
  I  I26  1  0.76430349  0.30033865  0.41493411  1
  I  I27  1  0.76430349  0.69966135  0.91493411  1
  I  I28  1  0.73240062  0.12844624  0.43467018  1
  I  I29  1  0.73240062  0.87155376  0.93467018  1
  I  I30  1  0.76759938  0.62844624  0.43467018  1
  I  I31  1  0.76759938  0.37155376  0.93467018  1
  I  I32  1  0.73569651  0.19966135  0.91493411  1
  I  I33  1  0.73569651  0.80033865  0.41493411  1
  I  I34  1  0.75608088  0.03894888  0.91621054  1
  I  I35  1  0.75608088  0.96105112  0.41621054  1
