# generated using pymatgen
data_Li5Ti8O16
_symmetry_space_group_name_H-M   'P 1'
_cell_length_a   5.32074856
_cell_length_b   7.66095744
_cell_length_c   7.87470272
_cell_angle_alpha   86.39831864
_cell_angle_beta   105.75671648
_cell_angle_gamma   71.17032218
_symmetry_Int_Tables_number   1
_chemical_formula_structural   Li5Ti8O16
_chemical_formula_sum   'Li5 Ti8 O16'
_cell_volume   288.37759547
_cell_formula_units_Z   1
loop_
 _symmetry_equiv_pos_site_id
 _symmetry_equiv_pos_as_xyz
  1  'x, y, z'
loop_
 _atom_site_type_symbol
 _atom_site_label
 _atom_site_symmetry_multiplicity
 _atom_site_fract_x
 _atom_site_fract_y
 _atom_site_fract_z
 _atom_site_occupancy
  Li  Li0  1  0.53952933  0.33148001  0.54070352  1
  Li  Li1  1  0.45283003  0.17891589  0.95831100  1
  Li  Li2  1  0.97910835  0.65961629  0.95748730  1
  Li  Li3  1  0.52596354  0.82478531  0.05189068  1
  Li  Li4  1  0.03326853  0.83164876  0.54178387  1
  Ti  Ti5  1  0.98009458  0.05815844  0.82095431  1
  Ti  Ti6  1  0.47629326  0.05806348  0.32040735  1
  Ti  Ti7  1  0.53024461  0.44252800  0.19183526  1
  Ti  Ti8  1  0.98846139  0.55052192  0.31978151  1
  Ti  Ti9  1  0.00362751  0.44352737  0.66829767  1
  Ti  Ti10  1  0.49431490  0.55355834  0.81711892  1
  Ti  Ti11  1  0.49774685  0.94447839  0.66957931  1
  Ti  Ti12  1  0.02128509  0.94628062  0.19277102  1
  O  O13  1  0.71482006  0.17438932  0.19401310  1
  O  O14  1  0.73272936  0.05186426  0.57395155  1
  O  O15  1  0.23618252  0.05034726  0.06780759  1
  O  O16  1  0.23142390  0.17513038  0.70844610  1
  O  O17  1  0.76280296  0.44089439  0.43264991  1
  O  O18  1  0.73082811  0.56080055  0.06618574  1
  O  O19  1  0.28439348  0.32543847  0.30830509  1
  O  O20  1  0.76557303  0.32370387  0.79112511  1
  O  O21  1  0.22330431  0.67645236  0.19141563  1
  O  O22  1  0.73556970  0.67541656  0.70708588  1
  O  O23  1  0.23538228  0.55531405  0.57247889  1
  O  O24  1  0.27846136  0.44950666  0.92450157  1
  O  O25  1  0.77461601  0.82451852  0.30074628  1
  O  O26  1  0.76305132  0.94625519  0.93007615  1
  O  O27  1  0.25592495  0.94344281  0.43388348  1
  O  O28  1  0.27026967  0.82451253  0.79985524  1
