# generated using pymatgen
data_BiOF
_symmetry_space_group_name_H-M   'P 1'
_cell_length_a   4.00126673
_cell_length_b   7.20520860
_cell_length_c   4.00126706
_cell_angle_alpha   106.12088593
_cell_angle_beta   120.00000606
_cell_angle_gamma   90.00000846
_symmetry_Int_Tables_number   1
_chemical_formula_structural   BiOF
_chemical_formula_sum   'Bi2 O2 F2'
_cell_volume   94.62753755
_cell_formula_units_Z   2
loop_
 _symmetry_equiv_pos_site_id
 _symmetry_equiv_pos_as_xyz
  1  'x, y, z'
loop_
 _atom_site_type_symbol
 _atom_site_label
 _atom_site_symmetry_multiplicity
 _atom_site_fract_x
 _atom_site_fract_y
 _atom_site_fract_z
 _atom_site_occupancy
  Bi  Bi0  1  0.76093616  0.28280748  0.52187132  1
  Bi  Bi1  1  0.23906384  0.71719252  0.47812868  1
  O  O2  1  0.12805624  0.38416873  0.25611249  1
  O  O3  1  0.87194376  0.61583127  0.74388751  1
  F  F4  1  0.37757474  0.13272421  0.75514947  1
  F  F5  1  0.62242526  0.86727579  0.24485053  1
