# generated using pymatgen
data_Zr6Al2FeH10
_symmetry_space_group_name_H-M   'P 1'
_cell_length_a   7.16744090
_cell_length_b   8.12780001
_cell_length_c   8.12780001
_cell_angle_alpha   119.99999700
_cell_angle_beta   90.00000000
_cell_angle_gamma   90.00000000
_symmetry_Int_Tables_number   1
_chemical_formula_structural   Zr6Al2FeH10
_chemical_formula_sum   'Zr12 Al4 Fe2 H20'
_cell_volume   410.05374580
_cell_formula_units_Z   2
loop_
 _symmetry_equiv_pos_site_id
 _symmetry_equiv_pos_as_xyz
  1  'x, y, z'
loop_
 _atom_site_type_symbol
 _atom_site_label
 _atom_site_symmetry_multiplicity
 _atom_site_fract_x
 _atom_site_fract_y
 _atom_site_fract_z
 _atom_site_occupancy
  Zr  Zr0  1  0.00000000  0.25913394  0.25913394  1
  Zr  Zr1  1  0.00000000  1.00000000  0.74086606  1
  Zr  Zr2  1  0.50000000  0.25913394  0.25913394  1
  Zr  Zr3  1  0.00000000  0.74086606  1.00000000  1
  Zr  Zr4  1  0.50000000  1.00000000  0.74086606  1
  Zr  Zr5  1  0.50000000  0.74086606  1.00000000  1
  Zr  Zr6  1  0.75000000  0.57367634  0.62251539  1
  Zr  Zr7  1  0.75000000  0.04883905  0.42632366  1
  Zr  Zr8  1  0.25000000  0.95116095  0.37748461  1
  Zr  Zr9  1  0.75000000  0.37748461  0.95116095  1
  Zr  Zr10  1  0.25000000  0.62251539  0.57367634  1
  Zr  Zr11  1  0.25000000  0.42632366  0.04883905  1
  Al  Al12  1  0.94731877  0.66666700  0.33333300  1
  Al  Al13  1  0.55268123  0.66666700  0.33333300  1
  Al  Al14  1  0.05268123  0.33333300  0.66666700  1
  Al  Al15  1  0.44731877  0.33333300  0.66666700  1
  Fe  Fe16  1  0.75000000  0.00000000  -0.00000000  1
  Fe  Fe17  1  0.25000000  0.00000000  -0.00000000  1
  H  H18  1  0.00000000  0.71729888  0.71729888  1
  H  H19  1  0.00000000  1.00000000  0.28270112  1
  H  H20  1  0.50000000  0.71729888  0.71729888  1
  H  H21  1  0.00000000  0.28270112  1.00000000  1
  H  H22  1  0.50000000  1.00000000  0.28270112  1
  H  H23  1  0.50000000  0.28270112  1.00000000  1
  H  H24  1  0.75000000  0.59134268  0.88282108  1
  H  H25  1  0.75000000  0.29147841  0.40865732  1
  H  H26  1  0.25000000  0.70852159  0.11717892  1
  H  H27  1  0.75000000  0.11717892  0.70852159  1
  H  H28  1  0.25000000  0.88282108  0.59134268  1
  H  H29  1  0.25000000  0.40865732  0.29147841  1
  H  H30  1  0.75000000  0.88371786  0.11970491  1
  H  H31  1  0.75000000  0.23598705  0.11628214  1
  H  H32  1  0.25000000  0.76401295  0.88029509  1
  H  H33  1  0.75000000  0.88029509  0.76401295  1
  H  H34  1  0.25000000  0.11970491  0.88371786  1
  H  H35  1  0.25000000  0.11628214  0.23598705  1
  H  H36  1  0.00000000  0.00000000  -0.00000000  1
  H  H37  1  0.50000000  0.00000000  -0.00000000  1
