# generated using pymatgen
data_Sr16(Ru5O16)3
_symmetry_space_group_name_H-M   'P 1'
_cell_length_a   7.89497333
_cell_length_b   7.89952015
_cell_length_c   16.14290431
_cell_angle_alpha   90.05159119
_cell_angle_beta   90.03805310
_cell_angle_gamma   90.02618392
_symmetry_Int_Tables_number   1
_chemical_formula_structural   Sr16(Ru5O16)3
_chemical_formula_sum   'Sr16 Ru15 O48'
_cell_volume   1006.77571987
_cell_formula_units_Z   1
loop_
 _symmetry_equiv_pos_site_id
 _symmetry_equiv_pos_as_xyz
  1  'x, y, z'
loop_
 _atom_site_type_symbol
 _atom_site_label
 _atom_site_symmetry_multiplicity
 _atom_site_fract_x
 _atom_site_fract_y
 _atom_site_fract_z
 _atom_site_occupancy
  Sr  Sr0  1  0.49923891  0.99830596  0.62630305  1
  Sr  Sr1  1  0.52085236  0.01261305  0.11581224  1
  Sr  Sr2  1  0.97914605  0.48738782  0.88418736  1
  Sr  Sr3  1  0.00076167  0.50169444  0.37369595  1
  Sr  Sr4  1  0.51437683  0.47809498  0.88373086  1
  Sr  Sr5  1  0.49901416  0.49986850  0.37403262  1
  Sr  Sr6  1  0.00001831  0.00081673  0.37413152  1
  Sr  Sr7  1  0.98715717  0.01790331  0.88310528  1
  Sr  Sr8  1  0.51284218  0.48209705  0.11689686  1
  Sr  Sr9  1  0.98562303  0.02190601  0.11626857  1
  Sr  Sr10  1  0.49998233  0.49918278  0.62586798  1
  Sr  Sr11  1  0.00098581  0.00013013  0.62596690  1
  Sr  Sr12  1  0.00041687  0.49941386  0.62561729  1
  Sr  Sr13  1  0.97492051  0.48593751  0.11665299  1
  Sr  Sr14  1  0.52508088  0.01406328  0.88334846  1
  Sr  Sr15  1  0.49958210  0.00058577  0.37438298  1
  Ru  Ru16  1  0.25000012  0.24999999  0.49999983  1
  Ru  Ru17  1  0.25000007  0.25000022  0.00000016  1
  Ru  Ru18  1  0.24998696  0.24996941  0.24835600  1
  Ru  Ru19  1  0.25001314  0.25002994  0.75164392  1
  Ru  Ru20  1  0.75000037  0.25000017  0.49999976  1
  Ru  Ru21  1  0.74965295  0.25008608  0.25023196  1
  Ru  Ru22  1  0.25007065  0.75012808  0.24616626  1
  Ru  Ru23  1  0.24999966  0.74999983  0.00000032  1
  Ru  Ru24  1  0.24992959  0.74987197  0.75383360  1
  Ru  Ru25  1  0.75034736  0.24991394  0.74976807  1
  Ru  Ru26  1  0.25000017  0.74999997  0.50000005  1
  Ru  Ru27  1  0.74993618  0.74949543  0.75074176  1
  Ru  Ru28  1  0.75000020  0.75000039  0.49999971  1
  Ru  Ru29  1  0.74999980  0.74999929  0.00000026  1
  Ru  Ru30  1  0.75006403  0.75050418  0.24925829  1
  O  O31  1  0.21242329  0.99822973  0.99975622  1
  O  O32  1  0.20281292  0.00041294  0.25021386  1
  O  O33  1  0.20294985  0.00079635  0.74991338  1
  O  O34  1  0.20434774  0.99976802  0.49974984  1
  O  O35  1  0.25006424  0.24932119  0.62527064  1
  O  O36  1  0.25420972  0.24733067  0.12430804  1
  O  O37  1  0.24993582  0.25067964  0.37472895  1
  O  O38  1  0.24579021  0.25266909  0.87569192  1
  O  O39  1  0.50029596  0.20459140  0.74935868  1
  O  O40  1  0.49993509  0.20351166  0.50008734  1
  O  O41  1  0.50073627  0.20470446  0.25223852  1
  O  O42  1  0.00020206  0.70235555  0.24605221  1
  O  O43  1  0.48976359  0.22627521  0.99850235  1
  O  O44  1  0.00180756  0.70960473  0.00478617  1
  O  O45  1  0.99936085  0.70354964  0.74682999  1
  O  O46  1  -0.00001570  0.70418369  0.50251546  1
  O  O47  1  0.29704976  0.49920297  0.25008618  1
  O  O48  1  0.28757755  0.50177069  0.00024412  1
  O  O49  1  0.29718748  0.49958714  0.74978597  1
  O  O50  1  0.29565273  0.50023206  0.50025063  1
  O  O51  1  0.75087578  0.24821523  0.37794281  1
  O  O52  1  0.24278565  0.74836905  0.37454663  1
  O  O53  1  0.75197882  0.24877977  0.86630263  1
  O  O54  1  0.23357029  0.74914563  0.87623671  1
  O  O55  1  0.74912334  0.25178475  0.62205691  1
  O  O56  1  0.26642921  0.75085403  0.12376307  1
  O  O57  1  0.74802236  0.25122139  0.13369738  1
  O  O58  1  0.25721383  0.75163029  0.62545331  1
  O  O59  1  0.70425599  0.49978777  0.74986153  1
  O  O60  1  0.70360214  0.50018866  0.49896303  1
  O  O61  1  0.72410427  0.50973881  0.99901407  1
  O  O62  1  0.70547466  0.50001843  0.25278891  1
  O  O63  1  0.99926379  0.29529479  0.74776201  1
  O  O64  1  0.00006535  0.29648778  0.49991217  1
  O  O65  1  0.99970357  0.29540798  0.25064153  1
  O  O66  1  0.01023625  0.27372748  0.00149843  1
  O  O67  1  0.49819222  0.79039396  0.99521454  1
  O  O68  1  0.50063951  0.79644940  0.25316962  1
  O  O69  1  0.50001596  0.79581518  0.49748441  1
  O  O70  1  0.49979789  0.79764464  0.75394762  1
  O  O71  1  0.74047032  0.74564874  0.12525712  1
  O  O72  1  0.74247152  0.74707794  0.62479958  1
  O  O73  1  0.75752941  0.75292245  0.37520025  1
  O  O74  1  0.75952912  0.75435225  0.87474319  1
  O  O75  1  0.79452553  -0.00001847  0.74721188  1
  O  O76  1  0.79574325  0.00021211  0.25013799  1
  O  O77  1  0.79639820  0.99981156  0.50103577  1
  O  O78  1  0.77589537  0.99026052  0.00098657  1
