# generated using pymatgen
data_LiNb(TeO4)3
_symmetry_space_group_name_H-M   'P 1'
_cell_length_a   5.29165293
_cell_length_b   5.00424010
_cell_length_c   8.53425497
_cell_angle_alpha   90.00000000
_cell_angle_beta   90.00000000
_cell_angle_gamma   91.02102354
_symmetry_Int_Tables_number   1
_chemical_formula_structural   LiNb(TeO4)3
_chemical_formula_sum   'Li1 Nb1 Te3 O12'
_cell_volume   225.95717848
_cell_formula_units_Z   1
loop_
 _symmetry_equiv_pos_site_id
 _symmetry_equiv_pos_as_xyz
  1  'x, y, z'
loop_
 _atom_site_type_symbol
 _atom_site_label
 _atom_site_symmetry_multiplicity
 _atom_site_fract_x
 _atom_site_fract_y
 _atom_site_fract_z
 _atom_site_occupancy
  Li  Li0  1  0.50000000  0.50000000  0.19857025  1
  Nb  Nb1  1  0.00000000  0.00000000  0.10182020  1
  Te  Te2  1  0.00000000  0.50000000  0.42256158  1
  Te  Te3  1  0.50000000  0.50000000  0.60497903  1
  Te  Te4  1  0.50000000  0.00000000  0.91302334  1
  O  O5  1  0.12230754  0.26742468  0.25977048  1
  O  O6  1  0.18346852  0.29034360  0.58405160  1
  O  O7  1  0.19563610  0.19831580  0.93280161  1
  O  O8  1  0.32309284  0.70210736  0.43172080  1
  O  O9  1  0.32346838  0.78533336  0.07550314  1
  O  O10  1  0.36189287  0.75099810  0.75281668  1
  O  O11  1  0.63810713  0.24900190  0.75281668  1
  O  O12  1  0.67653162  0.21466664  0.07550314  1
  O  O13  1  0.67690716  0.29789264  0.43172080  1
  O  O14  1  0.80436390  0.80168420  0.93280161  1
  O  O15  1  0.81653148  0.70965640  0.58405160  1
  O  O16  1  0.87769246  0.73257532  0.25977048  1
