# generated using pymatgen
data_Nb8Tl8O25
_symmetry_space_group_name_H-M   'P 1'
_cell_length_a   7.64763075
_cell_length_b   7.64763075
_cell_length_c   13.23486096
_cell_angle_alpha   89.99777877
_cell_angle_beta   73.19807412
_cell_angle_gamma   119.97906744
_symmetry_Int_Tables_number   1
_chemical_formula_structural   Nb8Tl8O25
_chemical_formula_sum   'Nb8 Tl8 O25'
_cell_volume   632.05342204
_cell_formula_units_Z   1
loop_
 _symmetry_equiv_pos_site_id
 _symmetry_equiv_pos_as_xyz
  1  'x, y, z'
loop_
 _atom_site_type_symbol
 _atom_site_label
 _atom_site_symmetry_multiplicity
 _atom_site_fract_x
 _atom_site_fract_y
 _atom_site_fract_z
 _atom_site_occupancy
  Nb  Nb0  1  0.00006009  0.00059714  0.99986419  1
  Nb  Nb1  1  0.49946536  0.00016654  0.49990420  1
  Nb  Nb2  1  0.49953967  0.50007572  0.99986419  1
  Nb  Nb3  1  0.99984337  0.00034001  0.49981662  1
  Nb  Nb4  1  0.99994488  0.50036047  0.99969465  1
  Nb  Nb5  1  0.99974637  0.25014403  0.25010960  1
  Nb  Nb6  1  0.99992926  0.50063044  0.49990420  1
  Nb  Nb7  1  0.00048922  0.75042260  0.74908818  1
  Tl  Tl8  1  0.49423288  0.22869451  0.24485068  1
  Tl  Tl9  1  0.00762641  0.25378377  0.74931179  1
  Tl  Tl10  1  0.49674219  0.25374027  0.74951754  1
  Tl  Tl11  1  0.49886121  0.99844671  0.00269208  1
  Tl  Tl12  1  0.51085575  0.73462457  0.25451967  1
  Tl  Tl13  1  0.49182491  0.49534102  0.51283507  1
  Tl  Tl14  1  0.02645581  0.76091743  0.24485068  1
  Tl  Tl15  1  0.49690444  0.74306179  0.74931179  1
  O  O16  1  0.94039378  0.03395685  0.15517257  1
  O  O17  1  0.93802638  0.40615529  0.15581833  1
  O  O18  1  0.68955754  0.40907517  0.02992496  1
  O  O19  1  0.68870820  0.09333428  0.34441542  1
  O  O20  1  0.68887598  0.27980250  0.53132052  1
  O  O21  1  0.68836183  0.78070410  0.03093407  1
  O  O22  1  0.93826520  0.21922696  0.96883109  1
  O  O23  1  0.31087059  0.40443365  0.15517257  1
  O  O24  1  0.31091312  0.09127274  0.46944905  1
  O  O25  1  0.62463678  0.06228535  0.81307687  1
  O  O26  1  0.93787085  0.53220711  0.65640170  1
  O  O27  1  0.93927721  0.71963783  0.46944905  1
  O  O28  1  0.05994500  0.09500353  0.34505147  1
  O  O29  1  0.93795020  0.90566029  0.65638951  1
  O  O30  1  0.68860168  0.59441306  0.84438023  1
  O  O31  1  0.06099987  0.78051750  0.02992496  1
  O  O32  1  0.06225030  0.46687638  0.34441542  1
  O  O33  1  0.68876392  0.90904407  0.53145165  1
  O  O34  1  0.05950328  0.27978443  0.53145165  1
  O  O35  1  0.31211773  0.21907784  0.96880543  1
  O  O36  1  0.31000235  0.71968360  0.47031404  1
  O  O37  1  0.31139119  0.90572745  0.65640170  1
  O  O38  1  0.31194196  0.59290371  0.96883109  1
  O  O39  1  0.06148755  0.59419320  0.84431925  1
  O  O40  1  0.06120571  0.96701709  0.84438023  1
