# generated using pymatgen
data_Cu3OF5
_symmetry_space_group_name_H-M   'P 1'
_cell_length_a   6.97849714
_cell_length_b   5.53355353
_cell_length_c   5.87940608
_cell_angle_alpha   72.54600900
_cell_angle_beta   103.68969931
_cell_angle_gamma   106.81165764
_symmetry_Int_Tables_number   1
_chemical_formula_structural   Cu3OF5
_chemical_formula_sum   'Cu6 O2 F10'
_cell_volume   204.51566318
_cell_formula_units_Z   2
loop_
 _symmetry_equiv_pos_site_id
 _symmetry_equiv_pos_as_xyz
  1  'x, y, z'
loop_
 _atom_site_type_symbol
 _atom_site_label
 _atom_site_symmetry_multiplicity
 _atom_site_fract_x
 _atom_site_fract_y
 _atom_site_fract_z
 _atom_site_occupancy
  Cu  Cu0  1  0.99673147  0.00427945  0.00023976  1
  Cu  Cu1  1  0.49932730  0.01773016  0.01958765  1
  Cu  Cu2  1  0.34128285  0.32430863  0.32713452  1
  Cu  Cu3  1  0.82101781  0.34603015  0.34739905  1
  Cu  Cu4  1  0.15487816  0.66360217  0.66255772  1
  Cu  Cu5  1  0.67667997  0.66054879  0.66312964  1
  O  O6  1  0.53956144  0.23615843  0.24258703  1
  O  O7  1  0.87363842  0.56846573  0.56592799  1
  F  F8  1  0.79932637  0.10472647  0.10602438  1
  F  F9  1  0.12784827  0.41517060  0.41402157  1
  F  F10  1  0.84513516  0.64724805  0.05007197  1
  F  F11  1  0.48432863  0.68357787  0.27448216  1
  F  F12  1  0.82256107  0.01679499  0.61994305  1
  F  F13  1  0.18091562  0.96912737  0.38399475  1
  F  F14  1  0.51922630  0.30934876  0.71991159  1
  F  F15  1  0.15116081  0.36354954  0.94099984  1
  F  F16  1  0.45830411  0.75717696  0.75247684  1
  F  F17  1  0.20807623  0.91215588  0.90951049  1
