# generated using pymatgen
data_Li2SnP2O7
_symmetry_space_group_name_H-M   'P 1'
_cell_length_a   8.69417323
_cell_length_b   5.09438061
_cell_length_c   15.08748635
_cell_angle_alpha   90.00000000
_cell_angle_beta   111.36120190
_cell_angle_gamma   90.00000000
_symmetry_Int_Tables_number   1
_chemical_formula_structural   Li2SnP2O7
_chemical_formula_sum   'Li8 Sn4 P8 O28'
_cell_volume   622.33957843
_cell_formula_units_Z   4
loop_
 _symmetry_equiv_pos_site_id
 _symmetry_equiv_pos_as_xyz
  1  'x, y, z'
loop_
 _atom_site_type_symbol
 _atom_site_label
 _atom_site_symmetry_multiplicity
 _atom_site_fract_x
 _atom_site_fract_y
 _atom_site_fract_z
 _atom_site_occupancy
  Li  Li0  1  0.00477538  0.74925159  0.67883333  1
  Li  Li1  1  0.00477538  0.75074841  0.17883333  1
  Li  Li2  1  0.58755687  0.26782788  0.82543597  1
  Li  Li3  1  0.41244313  0.76782788  0.67456403  1
  Li  Li4  1  0.58755687  0.23217212  0.32543597  1
  Li  Li5  1  0.41244313  0.73217212  0.17456403  1
  Li  Li6  1  0.99522462  0.24925159  0.82116667  1
  Li  Li7  1  0.99522462  0.25074841  0.32116667  1
  Sn  Sn8  1  0.28527600  0.72456712  0.88489276  1
  Sn  Sn9  1  0.28527600  0.77543288  0.38489276  1
  Sn  Sn10  1  0.71472400  0.22456712  0.61510724  1
  Sn  Sn11  1  0.71472400  0.27543288  0.11510724  1
  P  P12  1  0.21273437  0.24139072  0.70166282  1
  P  P13  1  0.29934039  0.27823338  0.53449061  1
  P  P14  1  0.21273437  0.25860928  0.20166282  1
  P  P15  1  0.70065961  0.77823338  0.96550939  1
  P  P16  1  0.29934039  0.22176662  0.03449061  1
  P  P17  1  0.78726563  0.74139072  0.79833718  1
  P  P18  1  0.70065961  0.72176662  0.46550939  1
  P  P19  1  0.78726563  0.75860928  0.29833718  1
  O  O20  1  0.93666281  0.61774899  0.78392433  1
  O  O21  1  0.93666281  0.88225101  0.28392433  1
  O  O22  1  0.20993727  0.30473048  0.92968345  1
  O  O23  1  0.17110333  0.20421950  0.58669012  1
  O  O24  1  0.22363558  0.54120514  0.71954039  1
  O  O25  1  0.37405052  0.09561429  0.75390305  1
  O  O26  1  0.33502039  0.57217962  0.54627753  1
  O  O27  1  0.20993727  0.19526952  0.42968345  1
  O  O28  1  0.17110333  0.29578050  0.08669012  1
  O  O29  1  0.54668370  0.60489463  0.91757261  1
  O  O30  1  0.22363558  0.95879486  0.21954039  1
  O  O31  1  0.37405052  0.40438571  0.25390305  1
  O  O32  1  0.45331630  0.10489463  0.58242739  1
  O  O33  1  0.33502039  0.92782038  0.04627753  1
  O  O34  1  0.66497961  0.07217962  0.95372247  1
  O  O35  1  0.54668370  0.89510537  0.41757261  1
  O  O36  1  0.62594948  0.59561429  0.74609695  1
  O  O37  1  0.77636442  0.04120514  0.78045961  1
  O  O38  1  0.45331630  0.39510537  0.08242739  1
  O  O39  1  0.82889667  0.70421950  0.91330988  1
  O  O40  1  0.79006273  0.80473048  0.57031655  1
  O  O41  1  0.66497961  0.42782038  0.45372247  1
  O  O42  1  0.62594948  0.90438571  0.24609695  1
  O  O43  1  0.77636442  0.45879486  0.28045961  1
  O  O44  1  0.82889667  0.79578050  0.41330988  1
  O  O45  1  0.79006273  0.69526952  0.07031655  1
  O  O46  1  0.06333719  0.11774899  0.71607567  1
  O  O47  1  0.06333719  0.38225101  0.21607567  1
