# generated using pymatgen
data_Al10ZnO16
_symmetry_space_group_name_H-M   'P 1'
_cell_length_a   5.71554867
_cell_length_b   5.71554867
_cell_length_c   9.70320883
_cell_angle_alpha   90.00000000
_cell_angle_beta   72.87133431
_cell_angle_gamma   120.00000000
_symmetry_Int_Tables_number   1
_chemical_formula_structural   Al10ZnO16
_chemical_formula_sum   'Al10 Zn1 O16'
_cell_volume   258.15037687
_cell_formula_units_Z   1
loop_
 _symmetry_equiv_pos_site_id
 _symmetry_equiv_pos_as_xyz
  1  'x, y, z'
loop_
 _atom_site_type_symbol
 _atom_site_label
 _atom_site_symmetry_multiplicity
 _atom_site_fract_x
 _atom_site_fract_y
 _atom_site_fract_z
 _atom_site_occupancy
  Al  Al0  1  0.49670683  0.99835342  0.00493975  1
  Al  Al1  1  0.88450864  0.19225382  0.42323753  1
  Al  Al2  1  0.49491999  0.25026237  0.26042239  1
  Al  Al3  1  0.49491999  0.74465762  0.26042239  1
  Al  Al4  1  0.50354601  0.25943086  0.73702314  1
  Al  Al5  1  0.87778414  0.68889207  0.93332380  1
  Al  Al6  1  0.01886171  0.25943086  0.73702314  1
  Al  Al7  1  0.98931524  0.74465762  0.26042239  1
  Al  Al8  1  0.50354601  0.74411515  0.73702314  1
  Al  Al9  1  0.11942086  0.80971093  0.57086821  1
  Zn  Zn10  1  0.12039077  0.31019589  0.06941334  1
  O  O11  1  0.70071046  0.10035473  0.13531644  1
  O  O12  1  0.26432883  0.10035473  0.13531644  1
  O  O13  1  0.74648649  0.12324274  0.63027077  1
  O  O14  1  0.75940602  0.38240521  0.35818877  1
  O  O15  1  0.74457089  0.62228544  0.13314367  1
  O  O16  1  0.26481042  0.38240521  0.35818877  1
  O  O17  1  0.73925786  0.35076343  0.87224870  1
  O  O18  1  0.75940602  0.87700081  0.35818877  1
  O  O19  1  0.26432883  0.66397310  0.13531644  1
  O  O20  1  0.74102826  0.62051463  0.64039863  1
  O  O21  1  0.23908774  0.11857311  0.64039863  1
  O  O22  1  0.23908774  0.62051463  0.64039863  1
  O  O23  1  0.25081050  0.87540525  0.37378425  1
  O  O24  1  0.26651703  0.38325852  0.85022445  1
  O  O25  1  0.73925786  0.88849343  0.87224870  1
  O  O26  1  0.27698687  0.88849343  0.87224870  1
