# generated using pymatgen
data_Li4Fe2Si3O10
_symmetry_space_group_name_H-M   'P 1'
_cell_length_a   5.36645051
_cell_length_b   5.36645051
_cell_length_c   17.25766386
_cell_angle_alpha   81.92896054
_cell_angle_beta   98.07103946
_cell_angle_gamma   119.22944212
_symmetry_Int_Tables_number   1
_chemical_formula_structural   Li4Fe2Si3O10
_chemical_formula_sum   'Li8 Fe4 Si6 O20'
_cell_volume   427.93442645
_cell_formula_units_Z   2
loop_
 _symmetry_equiv_pos_site_id
 _symmetry_equiv_pos_as_xyz
  1  'x, y, z'
loop_
 _atom_site_type_symbol
 _atom_site_label
 _atom_site_symmetry_multiplicity
 _atom_site_fract_x
 _atom_site_fract_y
 _atom_site_fract_z
 _atom_site_occupancy
  Li  Li0  1  0.17337389  0.68241912  0.94845074  1
  Li  Li1  1  0.42028021  0.78851147  0.76878409  1
  Li  Li2  1  0.31758088  0.82662611  0.44845074  1
  Li  Li3  1  0.21148853  0.57971979  0.26878409  1
  Li  Li4  1  0.78851147  0.42028021  0.73121591  1
  Li  Li5  1  0.68241912  0.17337389  0.55154926  1
  Li  Li6  1  0.57971979  0.21148853  0.23121591  1
  Li  Li7  1  0.82662611  0.31758088  0.05154926  1
  Fe  Fe8  1  0.80184122  0.00998093  0.91569618  1
  Fe  Fe9  1  0.99001907  0.19815878  0.41569618  1
  Fe  Fe10  1  0.00998093  0.80184122  0.58430382  1
  Fe  Fe11  1  0.19815878  0.99001907  0.08430382  1
  Si  Si12  1  0.33815498  0.46665917  0.59893664  1
  Si  Si13  1  0.11547090  0.11547090  0.75000000  1
  Si  Si14  1  0.46665917  0.33815498  0.90106336  1
  Si  Si15  1  0.53334083  0.66184502  0.09893664  1
  Si  Si16  1  0.88452910  0.88452910  0.25000000  1
  Si  Si17  1  0.66184502  0.53334083  0.40106336  1
  O  O18  1  0.08082751  0.83661831  0.71323843  1
  O  O19  1  0.16338169  0.91917249  0.21323843  1
  O  O20  1  0.37867337  0.78345246  0.56560572  1
  O  O21  1  0.44354627  0.63601036  0.89082248  1
  O  O22  1  0.22209981  0.41130352  0.68807863  1
  O  O23  1  0.21436604  0.07856096  0.95224312  1
  O  O24  1  0.07856096  0.21436604  0.54775688  1
  O  O25  1  0.21654754  0.62132663  0.06560572  1
  O  O26  1  0.36398964  0.55645373  0.39082248  1
  O  O27  1  0.41130352  0.22209981  0.81192137  1
  O  O28  1  0.58869648  0.77790019  0.18807863  1
  O  O29  1  0.63601036  0.44354627  0.60917752  1
  O  O30  1  0.78345246  0.37867337  0.93439428  1
  O  O31  1  0.92143904  0.78563396  0.45224312  1
  O  O32  1  0.78563396  0.92143904  0.04775688  1
  O  O33  1  0.77790019  0.58869648  0.31192137  1
  O  O34  1  0.55645373  0.36398964  0.10917752  1
  O  O35  1  0.62132663  0.21654754  0.43439428  1
  O  O36  1  0.83661831  0.08082751  0.78676157  1
  O  O37  1  0.91917249  0.16338169  0.28676157  1
