# generated using pymatgen
data_Li3CuF6
_symmetry_space_group_name_H-M   'P 1'
_cell_length_a   5.03640825
_cell_length_b   5.20453817
_cell_length_c   7.55647858
_cell_angle_alpha   90.00000000
_cell_angle_beta   90.49950322
_cell_angle_gamma   90.00000000
_symmetry_Int_Tables_number   1
_chemical_formula_structural   Li3CuF6
_chemical_formula_sum   'Li6 Cu2 F12'
_cell_volume   198.06424194
_cell_formula_units_Z   2
loop_
 _symmetry_equiv_pos_site_id
 _symmetry_equiv_pos_as_xyz
  1  'x, y, z'
loop_
 _atom_site_type_symbol
 _atom_site_label
 _atom_site_symmetry_multiplicity
 _atom_site_fract_x
 _atom_site_fract_y
 _atom_site_fract_z
 _atom_site_occupancy
  Li  Li0  1  0.24156686  0.94144262  0.50740173  1
  Li  Li1  1  0.24973501  0.48797575  0.75028513  1
  Li  Li2  1  0.26072893  0.03694694  0.99267530  1
  Li  Li3  1  0.73927007  0.53694694  0.00732470  1
  Li  Li4  1  0.75026499  0.98797575  0.24971487  1
  Li  Li5  1  0.75843314  0.44144262  0.49259827  1
  Cu  Cu6  1  0.24872618  0.48786390  0.24955690  1
  Cu  Cu7  1  0.75127382  0.98786390  0.75044310  1
  F  F8  1  0.06840708  0.16687081  0.68735832  1
  F  F9  1  0.07927486  0.17840459  0.32914762  1
  F  F10  1  0.11220638  0.41431360  0.01416850  1
  F  F11  1  0.38544881  0.56267524  0.48483914  1
  F  F12  1  0.41987595  0.79642831  0.17041642  1
  F  F13  1  0.43611190  0.80657823  0.81434394  1
  F  F14  1  0.56388810  0.30657823  0.18565606  1
  F  F15  1  0.58012405  0.29642831  0.82958358  1
  F  F16  1  0.61455119  0.06267524  0.51516086  1
  F  F17  1  0.88779362  0.91431360  0.98583150  1
  F  F18  1  0.92072514  0.67840459  0.67085238  1
  F  F19  1  0.93159292  0.66687081  0.31264168  1
