# generated using pymatgen
data_Li2CoSiO4
_symmetry_space_group_name_H-M   'P 1'
_cell_length_a   6.40105086
_cell_length_b   5.10910631
_cell_length_c   10.76099354
_cell_angle_alpha   90.00000000
_cell_angle_beta   89.37924529
_cell_angle_gamma   90.00000000
_symmetry_Int_Tables_number   1
_chemical_formula_structural   Li2CoSiO4
_chemical_formula_sum   'Li8 Co4 Si4 O16'
_cell_volume   351.90310512
_cell_formula_units_Z   4
loop_
 _symmetry_equiv_pos_site_id
 _symmetry_equiv_pos_as_xyz
  1  'x, y, z'
loop_
 _atom_site_type_symbol
 _atom_site_label
 _atom_site_symmetry_multiplicity
 _atom_site_fract_x
 _atom_site_fract_y
 _atom_site_fract_z
 _atom_site_occupancy
  Li  Li0  1  0.00266523  0.20293850  0.82940953  1
  Li  Li1  1  0.00266523  0.29706150  0.32940953  1
  Li  Li2  1  0.22332176  0.30707542  0.57154676  1
  Li  Li3  1  0.22332176  0.19292458  0.07154676  1
  Li  Li4  1  0.77667824  0.80707542  0.92845324  1
  Li  Li5  1  0.77667824  0.69292458  0.42845324  1
  Li  Li6  1  0.99733477  0.70293850  0.67059047  1
  Li  Li7  1  0.99733477  0.79706150  0.17059047  1
  Co  Co8  1  0.49896101  0.19874346  0.83781702  1
  Co  Co9  1  0.50103899  0.69874346  0.66218298  1
  Co  Co10  1  0.49896101  0.30125654  0.33781702  1
  Co  Co11  1  0.50103899  0.80125654  0.16218298  1
  Si  Si12  1  0.24700230  0.69512247  0.91274909  1
  Si  Si13  1  0.24700230  0.80487753  0.41274909  1
  Si  Si14  1  0.75299770  0.19512247  0.58725091  1
  Si  Si15  1  0.75299770  0.30487753  0.08725091  1
  O  O16  1  0.04495729  0.81040679  0.84183843  1
  O  O17  1  0.04495729  0.68959321  0.34183843  1
  O  O18  1  0.25074593  0.37033929  0.90813504  1
  O  O19  1  0.25261488  0.70513637  0.55818935  1
  O  O20  1  0.25074593  0.12966071  0.40813504  1
  O  O21  1  0.46937112  0.79836580  0.84139901  1
  O  O22  1  0.25261488  0.79486363  0.05818935  1
  O  O23  1  0.46937112  0.70163420  0.34139901  1
  O  O24  1  0.53062888  0.29836580  0.65860099  1
  O  O25  1  0.74738512  0.20513637  0.94181065  1
  O  O26  1  0.53062888  0.20163420  0.15860099  1
  O  O27  1  0.74925407  0.87033929  0.59186496  1
  O  O28  1  0.74738512  0.29486363  0.44181065  1
  O  O29  1  0.74925407  0.62966071  0.09186496  1
  O  O30  1  0.95504271  0.31040679  0.65816157  1
  O  O31  1  0.95504271  0.18959321  0.15816157  1
