# generated using pymatgen
data_Li4Co3Ni3(TeO8)2
_symmetry_space_group_name_H-M   'P 1'
_cell_length_a   5.89386989
_cell_length_b   5.83843149
_cell_length_c   9.59038669
_cell_angle_alpha   90.02289686
_cell_angle_beta   91.41902158
_cell_angle_gamma   119.68677116
_symmetry_Int_Tables_number   1
_chemical_formula_structural   Li4Co3Ni3(TeO8)2
_chemical_formula_sum   'Li4 Co3 Ni3 Te2 O16'
_cell_volume   286.58022912
_cell_formula_units_Z   1
loop_
 _symmetry_equiv_pos_site_id
 _symmetry_equiv_pos_as_xyz
  1  'x, y, z'
loop_
 _atom_site_type_symbol
 _atom_site_label
 _atom_site_symmetry_multiplicity
 _atom_site_fract_x
 _atom_site_fract_y
 _atom_site_fract_z
 _atom_site_occupancy
  Li  Li0  1  0.31979205  0.65977008  0.90598786  1
  Li  Li1  1  0.00201578  0.00103789  0.98756514  1
  Li  Li2  1  0.01073435  0.00555118  0.48690055  1
  Li  Li3  1  0.66370351  0.33184175  0.41467060  1
  Co  Co4  1  0.16942218  0.82934887  0.21209046  1
  Co  Co5  1  0.16964238  0.34002987  0.21206183  1
  Co  Co6  1  0.34698646  0.17354524  0.71507589  1
  Ni  Ni7  1  0.65777816  0.82883331  0.21316978  1
  Ni  Ni8  1  0.83624922  0.66308169  0.71167802  1
  Ni  Ni9  1  0.83619532  0.17326904  0.71156984  1
  Te  Te10  1  0.33934819  0.66971623  0.48507227  1
  Te  Te11  1  0.66438958  0.33213116  0.98194101  1
  O  O12  1  0.18186370  0.84122249  0.59471870  1
  O  O13  1  0.02970187  0.51460977  0.35757322  1
  O  O14  1  0.30914243  0.65441403  0.11753760  1
  O  O15  1  0.01982052  0.01001463  0.29356144  1
  O  O16  1  0.02118611  0.01092466  0.79778781  1
  O  O17  1  0.18193515  0.34094740  0.59480111  1
  O  O18  1  0.47430394  0.96520298  0.35038556  1
  O  O19  1  0.47482166  0.50950885  0.35058691  1
  O  O20  1  0.34219239  0.17128652  0.08928152  1
  O  O21  1  0.67396966  0.83719597  0.58711550  1
  O  O22  1  0.50247847  0.47082049  0.84494546  1
  O  O23  1  0.50232186  0.03156614  0.84492638  1
  O  O24  1  0.65124837  0.32542634  0.61627557  1
  O  O25  1  0.83057746  0.66333145  0.08890080  1
  O  O26  1  0.95800511  0.47872968  0.85282689  1
  O  O27  1  0.83017513  0.16694431  0.08883227  1
