# generated using pymatgen
data_Li8(NiO2)11
_symmetry_space_group_name_H-M   'P 1'
_cell_length_a   7.47880063
_cell_length_b   7.66748486
_cell_length_c   14.01238448
_cell_angle_alpha   84.04039327
_cell_angle_beta   84.38809558
_cell_angle_gamma   68.80664241
_symmetry_Int_Tables_number   1
_chemical_formula_structural   Li8(NiO2)11
_chemical_formula_sum   'Li16 Ni22 O44'
_cell_volume   743.55127366
_cell_formula_units_Z   2
loop_
 _symmetry_equiv_pos_site_id
 _symmetry_equiv_pos_as_xyz
  1  'x, y, z'
loop_
 _atom_site_type_symbol
 _atom_site_label
 _atom_site_symmetry_multiplicity
 _atom_site_fract_x
 _atom_site_fract_y
 _atom_site_fract_z
 _atom_site_occupancy
  Li  Li0  1  0.86878542  0.80653989  0.40718725  1
  Li  Li1  1  0.68683938  0.90004524  0.94792282  1
  Li  Li2  1  0.90212532  0.55355177  0.27737361  1
  Li  Li3  1  0.96391863  0.27146529  0.13052122  1
  Li  Li4  1  0.78261803  0.36680549  0.68278442  1
  Li  Li5  1  0.49077228  0.99596845  0.50195939  1
  Li  Li6  1  0.82804865  0.09000294  0.54710574  1
  Li  Li7  1  0.37136680  0.81405531  0.90627514  1
  Li  Li8  1  0.57367048  0.47051210  0.23561677  1
  Li  Li9  1  0.40105098  0.55159333  0.77687164  1
  Li  Li10  1  0.63010071  0.18144375  0.08588600  1
  Li  Li11  1  0.44242585  0.27740580  0.63597935  1
  Li  Li12  1  0.19575269  0.89811395  0.44920559  1
  Li  Li13  1  0.00773630  0.00083290  0.99701746  1
  Li  Li14  1  0.27265339  0.36785759  0.18219978  1
  Li  Li15  1  0.07886231  0.46666357  0.73443097  1
  Ni  Ni16  1  0.93399281  0.90842101  0.20500735  1
  Ni  Ni17  1  0.75192529  0.99575294  0.75088226  1
  Ni  Ni18  1  0.97572497  0.64043323  0.07010312  1
  Ni  Ni19  1  0.79589749  0.72807134  0.61018624  1
  Ni  Ni20  1  0.84156847  0.45076803  0.47769871  1
  Ni  Ni21  1  0.88529148  0.18136095  0.33825501  1
  Ni  Ni22  1  0.70531581  0.27250523  0.88466710  1
  Ni  Ni23  1  0.61142888  0.82099374  0.15764061  1
  Ni  Ni24  1  0.43319139  0.91138935  0.70275316  1
  Ni  Ni25  1  0.65856116  0.54298765  0.02489016  1
  Ni  Ni26  1  0.48063934  0.63330506  0.56999877  1
  Ni  Ni27  1  0.52138346  0.36970585  0.43073335  1
  Ni  Ni28  1  0.33781779  0.45163914  0.97623867  1
  Ni  Ni29  1  0.25142849  0.99918079  0.24913475  1
  Ni  Ni30  1  0.57135975  0.08959665  0.29851573  1
  Ni  Ni31  1  0.38786123  0.17895513  0.84044299  1
  Ni  Ni32  1  0.29238918  0.72771589  0.11166130  1
  Ni  Ni33  1  0.11382222  0.81854053  0.66029978  1
  Ni  Ni34  1  0.15912619  0.54803429  0.52645567  1
  Ni  Ni35  1  0.20266848  0.27263850  0.38797762  1
  Ni  Ni36  1  0.01938701  0.36842172  0.93120359  1
  Ni  Ni37  1  0.07215801  0.09070581  0.79560724  1
  O  O38  1  0.98391442  0.80367359  0.53698626  1
  O  O39  1  0.91161932  0.74644316  0.72124484  1
  O  O40  1  0.85059331  0.63196559  0.96426429  1
  O  O41  1  0.96151961  0.48156326  0.59666093  1
  O  O42  1  0.90238887  0.33641292  0.80986782  1
  O  O43  1  0.80631300  0.89191745  0.08823349  1
  O  O44  1  0.62588955  0.97743859  0.62518025  1
  O  O45  1  0.95009083  0.07157605  0.68473510  1
  O  O46  1  0.74399827  0.84418180  0.27965604  1
  O  O47  1  0.54956158  0.93131313  0.81944530  1
  O  O48  1  0.87987677  0.02602728  0.87088467  1
  O  O49  1  0.78963661  0.56777968  0.14673812  1
  O  O50  1  0.69004102  0.71492000  0.49827402  1
  O  O51  1  0.60782081  0.64218624  0.67613205  1
  O  O52  1  0.72043588  0.42693704  0.35575753  1
  O  O53  1  0.81600079  0.28857196  0.01495982  1
  O  O54  1  0.52732491  0.51971809  0.90375581  1
  O  O55  1  0.65469375  0.37278683  0.54947944  1
  O  O56  1  0.76131438  0.17370052  0.22858140  1
  O  O57  1  0.57559330  0.24830839  0.76369691  1
  O  O58  1  0.69712152  0.10187631  0.40688724  1
  O  O59  1  0.48662095  0.79066559  0.03807939  1
  O  O60  1  0.51619336  0.18232139  0.94979972  1
  O  O61  1  0.31114599  0.88905080  0.59018724  1
  O  O62  1  0.41268014  0.74894282  0.22030459  1
  O  O63  1  0.24624861  0.84497937  0.77860892  1
  O  O64  1  0.35304469  0.62556559  0.46327119  1
  O  O65  1  0.45617514  0.47662351  0.09655008  1
  O  O66  1  0.27256909  0.56447469  0.65115682  1
  O  O67  1  0.16856564  0.72005166  0.00446617  1
  O  O68  1  0.40632467  0.33607839  0.31215768  1
  O  O69  1  0.23704540  0.42727910  0.85794261  1
  O  O70  1  0.33610681  0.29833572  0.50466986  1
  O  O71  1  0.12237668  0.97318986  0.12870294  1
  O  O72  1  0.45348331  0.07762942  0.18674907  1
  O  O73  1  0.26047805  0.17964960  0.73209026  1
  O  O74  1  0.05379382  0.93494527  0.32079890  1
  O  O75  1  0.37565514  0.02680413  0.37273646  1
  O  O76  1  0.19456501  0.09720976  0.90417014  1
  O  O77  1  0.10066058  0.64773110  0.17925777  1
  O  O78  1  0.02809668  0.51808078  0.40314086  1
  O  O79  1  0.14029092  0.39567029  0.05481836  1
  O  O80  1  0.07592584  0.24953073  0.26455361  1
  O  O81  1  0.99938386  0.18643235  0.44873075  1
