# generated using pymatgen
data_Li2Mn2Si5O13
_symmetry_space_group_name_H-M   'P 1'
_cell_length_a   7.54249630
_cell_length_b   7.72286603
_cell_length_c   9.99816430
_cell_angle_alpha   83.89200852
_cell_angle_beta   68.39333036
_cell_angle_gamma   74.25240974
_symmetry_Int_Tables_number   1
_chemical_formula_structural   Li2Mn2Si5O13
_chemical_formula_sum   'Li4 Mn4 Si10 O26'
_cell_volume   521.13083771
_cell_formula_units_Z   2
loop_
 _symmetry_equiv_pos_site_id
 _symmetry_equiv_pos_as_xyz
  1  'x, y, z'
loop_
 _atom_site_type_symbol
 _atom_site_label
 _atom_site_symmetry_multiplicity
 _atom_site_fract_x
 _atom_site_fract_y
 _atom_site_fract_z
 _atom_site_occupancy
  Li  Li0  1  0.18593688  0.07787746  0.86649594  1
  Li  Li1  1  0.15949077  0.40634533  0.74562069  1
  Li  Li2  1  0.84050923  0.59365467  0.25437931  1
  Li  Li3  1  0.81406312  0.92212254  0.13350406  1
  Mn  Mn4  1  0.02990203  0.15985713  0.60223235  1
  Mn  Mn5  1  0.43763713  0.84042369  0.39869961  1
  Mn  Mn6  1  0.56236287  0.15957631  0.60130039  1
  Mn  Mn7  1  0.97009797  0.84014287  0.39776765  1
  Si  Si8  1  0.15087426  0.22333248  0.26369200  1
  Si  Si9  1  0.21456557  0.69260632  0.04226463  1
  Si  Si10  1  0.30950332  0.45449493  0.40838889  1
  Si  Si11  1  0.26323529  0.76616057  0.73058923  1
  Si  Si12  1  0.63036525  0.70358693  0.04428368  1
  Si  Si13  1  0.36963475  0.29641307  0.95571632  1
  Si  Si14  1  0.73676471  0.23383943  0.26941077  1
  Si  Si15  1  0.69049668  0.54550507  0.59161111  1
  Si  Si16  1  0.78543443  0.30739368  0.95773537  1
  Si  Si17  1  0.84912574  0.77666752  0.73630800  1
  O  O18  1  0.02334898  0.77082127  0.17973296  1
  O  O19  1  0.16305258  0.05401169  0.37456222  1
  O  O20  1  0.29653879  0.16539606  0.09697504  1
  O  O21  1  0.19864029  0.39792877  0.30970268  1
  O  O22  1  0.07326104  0.69232657  0.74190443  1
  O  O23  1  0.41379818  0.68149050  0.07019785  1
  O  O24  1  0.23822311  0.67207417  0.42589767  1
  O  O25  1  0.27772018  0.32516596  0.55066444  1
  O  O26  1  0.54995197  0.40877082  0.31141481  1
  O  O27  1  0.36461056  0.21829239  0.81446624  1
  O  O28  1  0.21256575  0.49622616  0.99464363  1
  O  O29  1  0.29587172  0.93820234  0.62490157  1
  O  O30  1  0.21472415  0.82779414  0.89889292  1
  O  O31  1  0.78527585  0.17220586  0.10110708  1
  O  O32  1  0.70412828  0.06179766  0.37509843  1
  O  O33  1  0.78743425  0.50377384  0.00535637  1
  O  O34  1  0.63538944  0.78170761  0.18553376  1
  O  O35  1  0.45004803  0.59122918  0.68858519  1
  O  O36  1  0.72227982  0.67483404  0.44933556  1
  O  O37  1  0.76177689  0.32792583  0.57410233  1
  O  O38  1  0.58620182  0.31850950  0.92980215  1
  O  O39  1  0.92673896  0.30767343  0.25809557  1
  O  O40  1  0.80135971  0.60207123  0.69029732  1
  O  O41  1  0.70346121  0.83460394  0.90302496  1
  O  O42  1  0.83694742  0.94598831  0.62543778  1
  O  O43  1  0.97665102  0.22917873  0.82026704  1
