# generated using pymatgen
data_Li4Mn3(PO4)4
_symmetry_space_group_name_H-M   'P 1'
_cell_length_a   7.67925587
_cell_length_b   11.44077889
_cell_length_c   7.59220670
_cell_angle_alpha   74.92782325
_cell_angle_beta   101.83924354
_cell_angle_gamma   74.56184525
_symmetry_Int_Tables_number   1
_chemical_formula_structural   Li4Mn3(PO4)4
_chemical_formula_sum   'Li8 Mn6 P8 O32'
_cell_volume   593.24945122
_cell_formula_units_Z   2
loop_
 _symmetry_equiv_pos_site_id
 _symmetry_equiv_pos_as_xyz
  1  'x, y, z'
loop_
 _atom_site_type_symbol
 _atom_site_label
 _atom_site_symmetry_multiplicity
 _atom_site_fract_x
 _atom_site_fract_y
 _atom_site_fract_z
 _atom_site_occupancy
  Li  Li0  1  0.22654433  0.27107958  0.47385504  1
  Li  Li1  1  0.73791681  0.01752117  0.25136793  1
  Li  Li2  1  0.25560251  0.01139951  0.73132250  1
  Li  Li3  1  0.49920707  0.49658354  0.48628363  1
  Li  Li4  1  0.24719927  0.49347861  0.74316307  1
  Li  Li5  1  0.98627332  0.48772108  0.01863662  1
  Li  Li6  1  0.72608999  0.27876552  0.97709337  1
  Li  Li7  1  0.98967839  0.01593316  0.99721873  1
  Mn  Mn8  1  0.26599918  0.22334878  0.00762773  1
  Mn  Mn9  1  0.27239831  0.72243308  0.01972894  1
  Mn  Mn10  1  0.76189299  0.22848874  0.51237032  1
  Mn  Mn11  1  0.24454360  0.78440984  0.49344272  1
  Mn  Mn12  1  0.76462974  0.72532078  0.51771838  1
  Mn  Mn13  1  0.74277338  0.78065569  0.99325438  1
  P  P14  1  0.04124157  0.09733842  0.29569879  1
  P  P15  1  0.37488080  0.40170900  0.12607293  1
  P  P16  1  0.11615177  0.59650421  0.36366713  1
  P  P17  1  0.55177857  0.09325266  0.79587914  1
  P  P18  1  0.46234573  0.90882017  0.21507435  1
  P  P19  1  0.87822028  0.40395215  0.62489784  1
  P  P20  1  0.61366475  0.59475710  0.86492580  1
  P  P21  1  0.96682464  0.90629754  0.71551969  1
  O  O22  1  0.04620273  0.16231073  0.08786439  1
  O  O23  1  0.45673362  0.04511784  0.20182756  1
  O  O24  1  0.19132255  0.10100270  0.45450107  1
  O  O25  1  0.23510222  0.32748348  0.18342205  1
  O  O26  1  0.23471233  0.45754578  0.48653648  1
  O  O27  1  0.04607670  0.66957648  0.50083416  1
  O  O28  1  0.54220010  0.67330503  0.99409940  1
  O  O29  1  0.25855483  0.66582597  0.29982154  1
  O  O30  1  0.52785789  0.39272706  0.29456231  1
  O  O31  1  0.04180159  0.39471180  0.78915284  1
  O  O32  1  0.30853160  0.90119780  0.05975300  1
  O  O33  1  0.05274975  0.95526106  0.30333432  1
  O  O34  1  0.83256137  0.16158088  0.29959874  1
  O  O35  1  0.34277492  0.16121883  0.80069071  1
  O  O36  1  0.55732958  0.16566309  0.59417943  1
  O  O37  1  0.96058282  0.04236929  0.71290787  1
  O  O38  1  0.17750372  0.83254757  0.72352546  1
  O  O39  1  0.67219372  0.83160353  0.22255675  1
  O  O40  1  0.46929789  0.82830928  0.42140130  1
  O  O41  1  0.70650457  0.09364447  0.95886502  1
  O  O42  1  0.44587998  0.60996929  0.69643493  1
  O  O43  1  0.95589265  0.61229284  0.19243140  1
  O  O44  1  0.73892644  0.33159379  0.69007737  1
  O  O45  1  0.44302664  0.33022145  0.98719705  1
  O  O46  1  0.94639290  0.32330665  0.49743633  1
  O  O47  1  0.75378008  0.54306290  0.50926355  1
  O  O48  1  0.24967353  0.54102469  0.99942138  1
  O  O49  1  0.73220430  0.45589588  0.97609327  1
  O  O50  1  0.75148334  0.66750453  0.79580756  1
  O  O51  1  0.82117900  0.89659733  0.55834866  1
  O  O52  1  0.55665392  0.95338202  0.81044442  1
  O  O53  1  0.97189872  0.82992961  0.92473563  1
