# generated using pymatgen
data_CoH2SeO4
_symmetry_space_group_name_H-M   'P 1'
_cell_length_a   5.68734859
_cell_length_b   4.87650124
_cell_length_c   13.53229961
_cell_angle_alpha   90.00000000
_cell_angle_beta   101.17776596
_cell_angle_gamma   90.00000000
_symmetry_Int_Tables_number   1
_chemical_formula_structural   CoH2SeO4
_chemical_formula_sum   'Co4 H8 Se4 O16'
_cell_volume   368.19024843
_cell_formula_units_Z   4
loop_
 _symmetry_equiv_pos_site_id
 _symmetry_equiv_pos_as_xyz
  1  'x, y, z'
loop_
 _atom_site_type_symbol
 _atom_site_label
 _atom_site_symmetry_multiplicity
 _atom_site_fract_x
 _atom_site_fract_y
 _atom_site_fract_z
 _atom_site_occupancy
  Co  Co0  1  0.00200362  0.81922517  0.76570820  1
  Co  Co1  1  0.49799638  0.31922517  0.73429180  1
  Co  Co2  1  0.50200362  0.68077483  0.26570820  1
  Co  Co3  1  0.99799638  0.18077483  0.23429180  1
  H  H4  1  0.13116656  0.27295168  0.87154744  1
  H  H5  1  0.10414289  0.85465505  0.10144295  1
  H  H6  1  0.36883344  0.77295168  0.62845256  1
  H  H7  1  0.39585711  0.35465505  0.39855705  1
  H  H8  1  0.60414289  0.64534495  0.60144295  1
  H  H9  1  0.63116656  0.22704832  0.37154744  1
  H  H10  1  0.89585711  0.14534495  0.89855705  1
  H  H11  1  0.86883344  0.72704832  0.12845256  1
  Se  Se12  1  0.06138180  0.76168874  0.39734915  1
  Se  Se13  1  0.56138180  0.73831126  0.89734915  1
  Se  Se14  1  0.43861820  0.26168874  0.10265085  1
  Se  Se15  1  0.93861820  0.23831126  0.60265085  1
  O  O16  1  0.06207737  0.10136916  0.89214892  1
  O  O17  1  0.19888520  0.09783878  0.67978343  1
  O  O18  1  0.06710729  0.42076279  0.37167024  1
  O  O19  1  0.30111480  0.59783878  0.82021657  1
  O  O20  1  0.25215806  0.90332967  0.32245985  1
  O  O21  1  0.43792263  0.60136916  0.60785108  1
  O  O22  1  0.56710729  0.07923721  0.87167024  1
  O  O23  1  0.24784194  0.40332967  0.17754015  1
  O  O24  1  0.75215806  0.59667033  0.82245985  1
  O  O25  1  0.43289271  0.92076279  0.12832976  1
  O  O26  1  0.56207737  0.39863084  0.39214892  1
  O  O27  1  0.74784194  0.09667033  0.67754015  1
  O  O28  1  0.69888520  0.40216122  0.17978343  1
  O  O29  1  0.93289271  0.57923721  0.62832976  1
  O  O30  1  0.80111480  0.90216122  0.32021657  1
  O  O31  1  0.93792263  0.89863084  0.10785108  1
