# generated using pymatgen
data_K2Li2TiO4
_symmetry_space_group_name_H-M   'P 1'
_cell_length_a   5.78977160
_cell_length_b   8.52779417
_cell_length_c   10.94097107
_cell_angle_alpha   90.00000000
_cell_angle_beta   79.19252831
_cell_angle_gamma   90.00000000
_symmetry_Int_Tables_number   1
_chemical_formula_structural   K2Li2TiO4
_chemical_formula_sum   'K8 Li8 Ti4 O16'
_cell_volume   530.61767332
_cell_formula_units_Z   4
loop_
 _symmetry_equiv_pos_site_id
 _symmetry_equiv_pos_as_xyz
  1  'x, y, z'
loop_
 _atom_site_type_symbol
 _atom_site_label
 _atom_site_symmetry_multiplicity
 _atom_site_fract_x
 _atom_site_fract_y
 _atom_site_fract_z
 _atom_site_occupancy
  K  K0  1  0.15869349  0.99562667  0.15778762  1
  K  K1  1  0.11695321  0.28280426  0.60475265  1
  K  K2  1  0.34130651  0.49562667  0.34221238  1
  K  K3  1  0.61695321  0.21719574  0.10475265  1
  K  K4  1  0.38304679  0.78280426  0.89524735  1
  K  K5  1  0.65869349  0.50437333  0.65778762  1
  K  K6  1  0.88304679  0.71719574  0.39524735  1
  K  K7  1  0.84130651  0.00437333  0.84221238  1
  Li  Li8  1  0.19797242  0.01869571  0.42584267  1
  Li  Li9  1  0.30202758  0.51869571  0.07415733  1
  Li  Li10  1  0.09640245  0.54939185  0.79628288  1
  Li  Li11  1  0.40359755  0.04939185  0.70371712  1
  Li  Li12  1  0.59640245  0.95060815  0.29628288  1
  Li  Li13  1  0.90359755  0.45060815  0.20371712  1
  Li  Li14  1  0.69797242  0.48130429  0.92584267  1
  Li  Li15  1  0.80202758  0.98130429  0.57415733  1
  Ti  Ti16  1  0.19169589  0.29386444  0.92739383  1
  Ti  Ti17  1  0.30830411  0.79386444  0.57260617  1
  Ti  Ti18  1  0.69169589  0.20613556  0.42739383  1
  Ti  Ti19  1  0.80830411  0.70613556  0.07260617  1
  O  O20  1  0.06350712  0.66755881  0.14557427  1
  O  O21  1  0.12292017  0.31005859  0.09732987  1
  O  O22  1  0.11934978  0.96855566  0.61573770  1
  O  O23  1  0.18901734  0.59696549  0.61609393  1
  O  O24  1  0.37707983  0.81005859  0.40267013  1
  O  O25  1  0.43649288  0.16755881  0.35442573  1
  O  O26  1  0.31098266  0.09696549  0.88390607  1
  O  O27  1  0.38065022  0.46855566  0.88426230  1
  O  O28  1  0.61934978  0.53144434  0.11573770  1
  O  O29  1  0.68901734  0.90303451  0.11609393  1
  O  O30  1  0.56350712  0.83244119  0.64557427  1
  O  O31  1  0.62292017  0.18994141  0.59732987  1
  O  O32  1  0.81098266  0.40303451  0.38390607  1
  O  O33  1  0.88065022  0.03144434  0.38426230  1
  O  O34  1  0.87707983  0.68994141  0.90267013  1
  O  O35  1  0.93649288  0.33244119  0.85442573  1
