# generated using pymatgen
data_CaH8(NO5)2
_symmetry_space_group_name_H-M   'P 1'
_cell_length_a   6.44824165
_cell_length_b   9.21019326
_cell_length_c   14.81572933
_cell_angle_alpha   90.00000000
_cell_angle_beta   99.02599735
_cell_angle_gamma   90.00000000
_symmetry_Int_Tables_number   1
_chemical_formula_structural   CaH8(NO5)2
_chemical_formula_sum   'Ca4 H32 N8 O40'
_cell_volume   869.00395598
_cell_formula_units_Z   4
loop_
 _symmetry_equiv_pos_site_id
 _symmetry_equiv_pos_as_xyz
  1  'x, y, z'
loop_
 _atom_site_type_symbol
 _atom_site_label
 _atom_site_symmetry_multiplicity
 _atom_site_fract_x
 _atom_site_fract_y
 _atom_site_fract_z
 _atom_site_occupancy
  Ca  Ca0  1  0.45643398  0.58581970  0.13417611  1
  Ca  Ca1  1  0.95643398  0.91418030  0.63417611  1
  Ca  Ca2  1  0.54356602  0.41418030  0.86582389  1
  Ca  Ca3  1  0.04356602  0.08581970  0.36582389  1
  H  H4  1  0.37378165  0.88664395  0.76042425  1
  H  H5  1  0.87378165  0.61335605  0.26042425  1
  H  H6  1  0.62621835  0.11335605  0.23957575  1
  H  H7  1  0.12621835  0.38664395  0.73957575  1
  H  H8  1  0.17400097  0.55398887  0.74710252  1
  H  H9  1  0.67400097  0.94601113  0.24710252  1
  H  H10  1  0.82599903  0.44601113  0.25289748  1
  H  H11  1  0.32599903  0.05398887  0.75289748  1
  H  H12  1  0.37559512  0.84884035  0.40859822  1
  H  H13  1  0.87559512  0.65115965  0.90859822  1
  H  H14  1  0.62440488  0.15115965  0.59140178  1
  H  H15  1  0.12440488  0.34884035  0.09140178  1
  H  H16  1  0.49024339  0.99833441  0.42498653  1
  H  H17  1  0.99024339  0.50166559  0.92498653  1
  H  H18  1  0.50975661  0.00166559  0.57501347  1
  H  H19  1  0.00975661  0.49833441  0.07501347  1
  H  H20  1  0.18912599  0.86326706  0.14302203  1
  H  H21  1  0.68912599  0.63673294  0.64302203  1
  H  H22  1  0.81087401  0.13673294  0.85697797  1
  H  H23  1  0.31087401  0.36326706  0.35697797  1
  H  H24  1  0.19341856  0.81831404  0.04108564  1
  H  H25  1  0.69341856  0.68168596  0.54108564  1
  H  H26  1  0.80658144  0.18168596  0.95891436  1
  H  H27  1  0.30658144  0.31831404  0.45891436  1
  H  H28  1  0.33910827  0.71531151  0.61220713  1
  H  H29  1  0.83910827  0.78468849  0.11220713  1
  H  H30  1  0.66089173  0.28468849  0.38779287  1
  H  H31  1  0.16089173  0.21531151  0.88779287  1
  H  H32  1  0.13653491  0.63015197  0.57011743  1
  H  H33  1  0.63653491  0.86984803  0.07011743  1
  H  H34  1  0.86346509  0.36984803  0.42988257  1
  H  H35  1  0.36346509  0.13015197  0.92988257  1
  N  N36  1  0.42419293  0.73388191  0.90929893  1
  N  N37  1  0.92419293  0.76611809  0.40929893  1
  N  N38  1  0.57580707  0.26611809  0.09070107  1
  N  N39  1  0.07580707  0.23388191  0.59070107  1
  N  N40  1  0.40229144  0.62723560  0.32690536  1
  N  N41  1  0.90229144  0.87276440  0.82690536  1
  N  N42  1  0.59770856  0.37276440  0.67309464  1
  N  N43  1  0.09770856  0.12723560  0.17309464  1
  O  O44  1  0.47109612  0.71836213  0.83007042  1
  O  O45  1  0.97109612  0.78163787  0.33007042  1
  O  O46  1  0.52890388  0.28163787  0.16992958  1
  O  O47  1  0.02890388  0.21836213  0.66992958  1
  O  O48  1  0.41660443  0.61925342  0.95820868  1
  O  O49  1  0.91660443  0.88074658  0.45820868  1
  O  O50  1  0.58339557  0.38074658  0.04179132  1
  O  O51  1  0.08339557  0.11925342  0.54179132  1
  O  O52  1  0.38585626  0.85626430  0.94000184  1
  O  O53  1  0.88585626  0.64373570  0.44000184  1
  O  O54  1  0.61414374  0.14373570  0.05999816  1
  O  O55  1  0.11414374  0.35626430  0.55999816  1
  O  O56  1  0.46736797  0.72823896  0.28039391  1
  O  O57  1  0.96736797  0.77176104  0.78039391  1
  O  O58  1  0.53263203  0.27176104  0.71960609  1
  O  O59  1  0.03263203  0.22823896  0.21960609  1
  O  O60  1  0.38968231  0.64408405  0.40971152  1
  O  O61  1  0.88968231  0.85591595  0.90971152  1
  O  O62  1  0.61031769  0.35591595  0.59028848  1
  O  O63  1  0.11031769  0.14408405  0.09028848  1
  O  O64  1  0.34931993  0.50707317  0.28570621  1
  O  O65  1  0.84931993  0.99292683  0.78570621  1
  O  O66  1  0.65068007  0.49292683  0.71429379  1
  O  O67  1  0.15068007  0.00707317  0.21429379  1
  O  O68  1  0.30414404  0.96232641  0.71930087  1
  O  O69  1  0.80414404  0.53767359  0.21930087  1
  O  O70  1  0.69585596  0.03767359  0.28069913  1
  O  O71  1  0.19585596  0.46232641  0.78069913  1
  O  O72  1  0.35445608  0.95100956  0.42471668  1
  O  O73  1  0.85445608  0.54899044  0.92471668  1
  O  O74  1  0.64554392  0.04899044  0.57528332  1
  O  O75  1  0.14554392  0.45100956  0.07528332  1
  O  O76  1  0.18088001  0.77780686  0.10121813  1
  O  O77  1  0.68088001  0.72219314  0.60121813  1
  O  O78  1  0.81911999  0.22219314  0.89878187  1
  O  O79  1  0.31911999  0.27780686  0.39878187  1
  O  O80  1  0.19030872  0.70083179  0.61724293  1
  O  O81  1  0.69030872  0.79916821  0.11724293  1
  O  O82  1  0.80969128  0.29916821  0.38275707  1
  O  O83  1  0.30969128  0.20083179  0.88275707  1
