# generated using pymatgen
data_Li8FeNi9O20
_symmetry_space_group_name_H-M   'P 1'
_cell_length_a   7.59004184
_cell_length_b   7.59746137
_cell_length_c   6.41224406
_cell_angle_alpha   91.06914217
_cell_angle_beta   90.75544580
_cell_angle_gamma   67.05147056
_symmetry_Int_Tables_number   1
_chemical_formula_structural   Li8FeNi9O20
_chemical_formula_sum   'Li8 Fe1 Ni9 O20'
_cell_volume   340.43141833
_cell_formula_units_Z   1
loop_
 _symmetry_equiv_pos_site_id
 _symmetry_equiv_pos_as_xyz
  1  'x, y, z'
loop_
 _atom_site_type_symbol
 _atom_site_label
 _atom_site_symmetry_multiplicity
 _atom_site_fract_x
 _atom_site_fract_y
 _atom_site_fract_z
 _atom_site_occupancy
  Li  Li0  1  0.10000000  0.10000000  0.60000000  1
  Li  Li1  1  0.10000000  0.60000000  0.10000000  1
  Li  Li2  1  0.31415986  0.28858889  0.78742185  1
  Li  Li3  1  0.30871876  0.80677113  0.30844896  1
  Li  Li4  1  0.50256265  0.49669649  0.99425867  1
  Li  Li5  1  0.69743735  0.70330351  0.20574133  1
  Li  Li6  1  0.89128124  0.39322887  0.89155104  1
  Li  Li7  1  0.88584014  0.91141111  0.41257815  1
  Fe  Fe8  1  0.60000000  0.10000000  0.10000000  1
  Ni  Ni9  1  0.19811180  0.20030600  0.19963046  1
  Ni  Ni10  1  0.00188820  -0.00030600  0.00036954  1
  Ni  Ni11  1  0.20110756  0.69796342  0.70244003  1
  Ni  Ni12  1  0.39957100  0.39852143  0.40355124  1
  Ni  Ni13  1  0.39956320  0.89565583  0.89836731  1
  Ni  Ni14  1  0.60000000  0.60000000  0.60000000  1
  Ni  Ni15  1  0.80043680  0.30434417  0.30163269  1
  Ni  Ni16  1  0.80042900  0.80147857  0.79644876  1
  Ni  Ni17  1  0.99889244  0.50203658  0.49755997  1
  O  O18  1  0.05444398  0.05888143  0.28230930  1
  O  O19  1  0.14555602  0.14111857  0.91769070  1
  O  O20  1  0.05613193  0.55241726  0.77699311  1
  O  O21  1  0.22379124  0.27581498  0.48514421  1
  O  O22  1  0.14386807  0.64758274  0.42300689  1
  O  O23  1  0.34532304  0.33728370  0.10993323  1
  O  O24  1  0.25261577  0.74931123  0.98110343  1
  O  O25  1  0.54662628  0.04121695  0.82696984  1
  O  O26  1  0.42875784  0.47947754  0.69249052  1
  O  O27  1  0.34290807  0.83809254  0.62178735  1
  O  O28  1  0.65337372  0.15878305  0.37303016  1
  O  O29  1  0.54863014  0.54993980  0.32230149  1
  O  O30  1  0.74692807  0.24984845  0.02497466  1
  O  O31  1  0.45307193  0.95015155  0.17502534  1
  O  O32  1  0.65136986  0.65006020  0.87769851  1
  O  O33  1  0.85709193  0.36190746  0.57821265  1
  O  O34  1  0.77124216  0.72052246  0.50750948  1
  O  O35  1  0.94738423  0.45068877  0.21889657  1
  O  O36  1  0.85467696  0.86271630  0.09006677  1
  O  O37  1  0.97620876  0.92418502  0.71485579  1
