# generated using pymatgen
data_Li5Ti2Mn3O10
_symmetry_space_group_name_H-M   'P 1'
_cell_length_a   5.24043461
_cell_length_b   5.29084128
_cell_length_c   8.03032862
_cell_angle_alpha   69.14810317
_cell_angle_beta   108.79738790
_cell_angle_gamma   101.63642908
_symmetry_Int_Tables_number   1
_chemical_formula_structural   Li5Ti2Mn3O10
_chemical_formula_sum   'Li5 Ti2 Mn3 O10'
_cell_volume   196.01606385
_cell_formula_units_Z   1
loop_
 _symmetry_equiv_pos_site_id
 _symmetry_equiv_pos_as_xyz
  1  'x, y, z'
loop_
 _atom_site_type_symbol
 _atom_site_label
 _atom_site_symmetry_multiplicity
 _atom_site_fract_x
 _atom_site_fract_y
 _atom_site_fract_z
 _atom_site_occupancy
  Li  Li0  1  0.21755455  0.49517698  0.39960452  1
  Li  Li1  1  0.39263810  0.50986558  0.78450314  1
  Li  Li2  1  0.50513076  0.98884345  0.50613723  1
  Li  Li3  1  0.78548771  0.50054977  0.60375158  1
  Li  Li4  1  0.60527236  0.48553930  0.22129425  1
  Ti  Ti5  1  0.09953458  0.02904029  0.68818559  1
  Ti  Ti6  1  0.90114595  0.96928524  0.31438124  1
  Mn  Mn7  1  0.99766159  0.50006611  0.00073969  1
  Mn  Mn8  1  0.68722455  0.99043289  0.89519013  1
  Mn  Mn9  1  0.31148873  0.00835036  0.10768417  1
  O  O10  1  0.05048436  0.23248220  0.83321515  1
  O  O11  1  0.13487890  0.78574782  0.54220462  1
  O  O12  1  0.31600690  0.75186649  0.93524089  1
  O  O13  1  0.21716628  0.26120033  0.23452427  1
  O  O14  1  0.42497394  0.23435212  0.65274417  1
  O  O15  1  0.57453884  0.76303535  0.34954375  1
  O  O16  1  0.77819219  0.73816404  0.76561966  1
  O  O17  1  0.68008904  0.24747389  0.06592966  1
  O  O18  1  0.86473435  0.21106578  0.45963595  1
  O  O19  1  0.94751332  0.76641503  0.16778434  1
