# generated using pymatgen
data_LiFeSiO4
_symmetry_space_group_name_H-M   'P 1'
_cell_length_a   5.11424870
_cell_length_b   6.76798207
_cell_length_c   10.34517866
_cell_angle_alpha   89.99936003
_cell_angle_beta   90.00018692
_cell_angle_gamma   90.64010538
_symmetry_Int_Tables_number   1
_chemical_formula_structural   LiFeSiO4
_chemical_formula_sum   'Li4 Fe4 Si4 O16'
_cell_volume   358.05680727
_cell_formula_units_Z   4
loop_
 _symmetry_equiv_pos_site_id
 _symmetry_equiv_pos_as_xyz
  1  'x, y, z'
loop_
 _atom_site_type_symbol
 _atom_site_label
 _atom_site_symmetry_multiplicity
 _atom_site_fract_x
 _atom_site_fract_y
 _atom_site_fract_z
 _atom_site_occupancy
  Li  Li0  1  0.18749047  0.99271956  0.84712905  1
  Li  Li1  1  0.31251788  0.50728011  0.34712759  1
  Li  Li2  1  0.68748413  0.49271431  0.65287082  1
  Li  Li3  1  0.81251081  0.00728131  0.15287261  1
  Fe  Fe4  1  0.18590765  0.49100992  0.83432637  1
  Fe  Fe5  1  0.31408799  0.00899008  0.33432717  1
  Fe  Fe6  1  0.68591278  0.99100803  0.66567048  1
  Fe  Fe7  1  0.81409404  0.50898859  0.16567086  1
  Si  Si8  1  0.18853338  0.23570389  0.59154871  1
  Si  Si9  1  0.31147447  0.26430395  0.09156870  1
  Si  Si10  1  0.68853633  0.73569833  0.90845557  1
  Si  Si11  1  0.81147204  0.76428940  0.40843317  1
  O  O12  1  0.13088251  0.77476134  0.38372758  1
  O  O13  1  0.17880280  0.45659802  0.16395962  1
  O  O14  1  0.19721365  0.06304821  0.16262992  1
  O  O15  1  0.24113496  0.25963670  0.93676707  1
  O  O16  1  0.25886917  0.24036518  0.43678203  1
  O  O17  1  0.30277541  0.43696985  0.66262590  1
  O  O18  1  0.32120474  0.04341168  0.66397062  1
  O  O19  1  0.36911492  0.72523583  0.88372020  1
  O  O20  1  0.63087537  0.27476175  0.11627678  1
  O  O21  1  0.67879717  0.95658015  0.33603221  1
  O  O22  1  0.69722981  0.56303387  0.33737702  1
  O  O23  1  0.74112274  0.75963240  0.56322890  1
  O  O24  1  0.75886388  0.74036613  0.06321329  1
  O  O25  1  0.80279209  0.93695859  0.83736508  1
  O  O26  1  0.82120313  0.54339664  0.83603412  1
  O  O27  1  0.86911269  0.22523417  0.61627457  1
