# generated using pymatgen
data_Na2VPO6
_symmetry_space_group_name_H-M   'P 1'
_cell_length_a   11.46692321
_cell_length_b   4.93044942
_cell_length_c   9.02752074
_cell_angle_alpha   90.00000000
_cell_angle_beta   90.00000000
_cell_angle_gamma   90.00000000
_symmetry_Int_Tables_number   1
_chemical_formula_structural   Na2VPO6
_chemical_formula_sum   'Na8 V4 P4 O24'
_cell_volume   510.38970642
_cell_formula_units_Z   4
loop_
 _symmetry_equiv_pos_site_id
 _symmetry_equiv_pos_as_xyz
  1  'x, y, z'
loop_
 _atom_site_type_symbol
 _atom_site_label
 _atom_site_symmetry_multiplicity
 _atom_site_fract_x
 _atom_site_fract_y
 _atom_site_fract_z
 _atom_site_occupancy
  Na  Na0  1  0.08144129  0.01405969  0.32306480  1
  Na  Na1  1  0.12748883  0.53946837  0.62196204  1
  Na  Na2  1  0.37251117  0.03946837  0.12196204  1
  Na  Na3  1  0.41855871  0.51405969  0.82306480  1
  Na  Na4  1  0.58144129  0.48594031  0.32306480  1
  Na  Na5  1  0.62748883  0.96053163  0.62196204  1
  Na  Na6  1  0.87251117  0.46053163  0.12196204  1
  Na  Na7  1  0.91855871  0.98594031  0.82306480  1
  V  V8  1  0.12463817  0.47312169  0.00099559  1
  V  V9  1  0.37536183  0.97312169  0.50099559  1
  V  V10  1  0.62463817  0.02687831  0.00099559  1
  V  V11  1  0.87536183  0.52687831  0.50099559  1
  P  P12  1  0.22087136  0.08641254  0.80688299  1
  P  P13  1  0.27912864  0.58641254  0.30688299  1
  P  P14  1  0.72087136  0.41358746  0.80688299  1
  P  P15  1  0.77912864  0.91358746  0.30688299  1
  O  O16  1  0.98708872  0.31804217  0.47074973  1
  O  O17  1  0.06412854  0.25059705  0.11487016  1
  O  O18  1  0.09828812  0.23383029  0.81335618  1
  O  O19  1  0.21742869  0.74676002  0.43408454  1
  O  O20  1  0.21917760  0.78001047  0.82722728  1
  O  O21  1  0.22291441  0.66184130  0.15264569  1
  O  O22  1  0.27708559  0.16184130  0.65264569  1
  O  O23  1  0.28082240  0.28001047  0.32722728  1
  O  O24  1  0.28257131  0.24676002  0.93408454  1
  O  O25  1  0.40171188  0.73383029  0.31335618  1
  O  O26  1  0.43587146  0.75059705  0.61487016  1
  O  O27  1  0.51291128  0.81804217  0.97074973  1
  O  O28  1  0.48708872  0.18195783  0.47074973  1
  O  O29  1  0.56412854  0.24940295  0.11487016  1
  O  O30  1  0.59828812  0.26616971  0.81335618  1
  O  O31  1  0.71742869  0.75323998  0.43408454  1
  O  O32  1  0.71917760  0.71998953  0.82722728  1
  O  O33  1  0.72291441  0.83815870  0.15264569  1
  O  O34  1  0.77708559  0.33815870  0.65264569  1
  O  O35  1  0.78082240  0.21998953  0.32722728  1
  O  O36  1  0.78257131  0.25323998  0.93408454  1
  O  O37  1  0.90171188  0.76616971  0.31335618  1
  O  O38  1  0.93587146  0.74940295  0.61487016  1
  O  O39  1  0.01291128  0.68195783  0.97074973  1
