# generated using pymatgen
data_Li2CoSiO4
_symmetry_space_group_name_H-M   'P 1'
_cell_length_a   6.35714400
_cell_length_b   10.82865617
_cell_length_c   5.05137999
_cell_angle_alpha   90.00000000
_cell_angle_beta   90.00000000
_cell_angle_gamma   90.71867320
_symmetry_Int_Tables_number   1
_chemical_formula_structural   Li2CoSiO4
_chemical_formula_sum   'Li8 Co4 Si4 O16'
_cell_volume   347.70624262
_cell_formula_units_Z   4
loop_
 _symmetry_equiv_pos_site_id
 _symmetry_equiv_pos_as_xyz
  1  'x, y, z'
loop_
 _atom_site_type_symbol
 _atom_site_label
 _atom_site_symmetry_multiplicity
 _atom_site_fract_x
 _atom_site_fract_y
 _atom_site_fract_z
 _atom_site_occupancy
  Li  Li0  1  0.00046507  0.58681610  0.31507933  1
  Li  Li1  1  0.00046507  0.08681610  0.18492067  1
  Li  Li2  1  0.23345850  0.66853300  0.81438157  1
  Li  Li3  1  0.23345850  0.16853300  0.68561843  1
  Li  Li4  1  0.76654150  0.83146700  0.31438157  1
  Li  Li5  1  0.76654150  0.33146700  0.18561843  1
  Li  Li6  1  0.99953493  0.91318390  0.81507933  1
  Li  Li7  1  0.99953493  0.41318390  0.68492067  1
  Co  Co8  1  0.50641935  0.90491251  0.80417297  1
  Co  Co9  1  0.50641935  0.40491251  0.69582703  1
  Co  Co10  1  0.49358065  0.59508749  0.30417297  1
  Co  Co11  1  0.49358065  0.09508749  0.19582703  1
  Si  Si12  1  0.24320267  0.83872379  0.31678342  1
  Si  Si13  1  0.24320267  0.33872379  0.18321658  1
  Si  Si14  1  0.75679733  0.66127621  0.81678342  1
  Si  Si15  1  0.75679733  0.16127621  0.68321658  1
  O  O16  1  0.03563750  0.90712969  0.20913158  1
  O  O17  1  0.03563750  0.40712969  0.29086842  1
  O  O18  1  0.25208361  0.83842079  0.64500946  1
  O  O19  1  0.25208361  0.33842079  0.85499054  1
  O  O20  1  0.25082651  0.69365975  0.21011633  1
  O  O21  1  0.25082651  0.19365975  0.28988367  1
  O  O22  1  0.46589027  0.90959474  0.20938777  1
  O  O23  1  0.46589027  0.40959474  0.29061223  1
  O  O24  1  0.53410973  0.59040526  0.70938777  1
  O  O25  1  0.53410973  0.09040526  0.79061223  1
  O  O26  1  0.74917349  0.80634025  0.71011633  1
  O  O27  1  0.74917349  0.30634025  0.78988367  1
  O  O28  1  0.74791639  0.66157921  0.14500946  1
  O  O29  1  0.74791639  0.16157921  0.35499054  1
  O  O30  1  0.96436250  0.59287031  0.70913158  1
  O  O31  1  0.96436250  0.09287031  0.79086842  1
