# generated using pymatgen
data_V6O5F19
_symmetry_space_group_name_H-M   'P 1'
_cell_length_a   5.54875842
_cell_length_b   5.30498814
_cell_length_c   14.78008054
_cell_angle_alpha   90.11510091
_cell_angle_beta   100.19634846
_cell_angle_gamma   89.14089655
_symmetry_Int_Tables_number   1
_chemical_formula_structural   V6O5F19
_chemical_formula_sum   'V6 O5 F19'
_cell_volume   428.14859334
_cell_formula_units_Z   1
loop_
 _symmetry_equiv_pos_site_id
 _symmetry_equiv_pos_as_xyz
  1  'x, y, z'
loop_
 _atom_site_type_symbol
 _atom_site_label
 _atom_site_symmetry_multiplicity
 _atom_site_fract_x
 _atom_site_fract_y
 _atom_site_fract_z
 _atom_site_occupancy
  V  V0  1  0.98465985  0.99034284  0.00099681  1
  V  V1  1  0.10790004  0.47505651  0.33052613  1
  V  V2  1  0.27731624  0.02112130  0.66435745  1
  V  V3  1  0.45253186  0.46987528  0.99693665  1
  V  V4  1  0.61117791  0.02120448  0.33123604  1
  V  V5  1  0.77426757  0.47494748  0.66376385  1
  O  O6  1  0.03305436  0.20893809  0.64288985  1
  O  O7  1  0.20858855  0.29466754  0.97721279  1
  O  O8  1  0.36706769  0.20934400  0.30969209  1
  O  O9  1  0.53348345  0.29174021  0.64270637  1
  O  O10  1  0.86726268  0.29189004  0.30918121  1
  F  F11  1  0.14503354  0.72905508  0.69195890  1
  F  F12  1  0.05304859  0.09494329  0.11628471  1
  F  F13  1  0.23335312  0.41526201  0.44740692  1
  F  F14  1  0.40047319  0.08692512  0.78068542  1
  F  F15  1  0.14706898  0.58139070  0.22052254  1
  F  F16  1  0.31404998  0.92172699  0.55301807  1
  F  F17  1  0.47345711  0.58959358  0.88694699  1
  F  F18  1  0.68589273  0.20513277  0.97611938  1
  F  F19  1  0.29695154  0.77845954  0.02431266  1
  F  F20  1  0.47876211  0.72959357  0.35919590  1
  F  F21  1  0.64086195  0.77347084  0.69152058  1
  F  F22  1  0.56306949  0.42651155  0.11565588  1
  F  F23  1  0.73521467  0.08673893  0.44752379  1
  F  F24  1  0.89976136  0.41624292  0.78066726  1
  F  F25  1  0.64680429  0.92124749  0.21987834  1
  F  F26  1  0.81253562  0.57947019  0.55339746  1
  F  F27  1  0.97079510  0.93113831  0.88248169  1
  F  F28  1  0.81102383  0.71058995  0.02437931  1
  F  F29  1  0.97453163  0.77338140  0.35854495  1
