# generated using pymatgen
data_LiMnPH2O5
_symmetry_space_group_name_H-M   'P 1'
_cell_length_a   10.43032828
_cell_length_b   17.01420773
_cell_length_c   5.13860003
_cell_angle_alpha   90.00000000
_cell_angle_beta   90.00000000
_cell_angle_gamma   90.00000000
_symmetry_Int_Tables_number   1
_chemical_formula_structural   LiMnPH2O5
_chemical_formula_sum   'Li8 Mn8 P8 H16 O40'
_cell_volume   911.91534437
_cell_formula_units_Z   8
loop_
 _symmetry_equiv_pos_site_id
 _symmetry_equiv_pos_as_xyz
  1  'x, y, z'
loop_
 _atom_site_type_symbol
 _atom_site_label
 _atom_site_symmetry_multiplicity
 _atom_site_fract_x
 _atom_site_fract_y
 _atom_site_fract_z
 _atom_site_occupancy
  Li  Li0  1  0.17645044  0.49616774  0.46984931  1
  Li  Li1  1  0.17645044  0.99616774  0.53015069  1
  Li  Li2  1  0.39624465  0.24780449  0.90979327  1
  Li  Li3  1  0.39624465  0.74780449  0.09020673  1
  Li  Li4  1  0.67645044  0.00383226  0.46984931  1
  Li  Li5  1  0.67645044  0.50383226  0.53015069  1
  Li  Li6  1  0.89624465  0.75219551  0.09020673  1
  Li  Li7  1  0.89624465  0.25219551  0.90979327  1
  Mn  Mn8  1  0.14937473  0.18993559  0.54138863  1
  Mn  Mn9  1  0.14937473  0.68993559  0.45861137  1
  Mn  Mn10  1  0.42051436  0.94216363  0.11038638  1
  Mn  Mn11  1  0.42051436  0.44216363  0.88961362  1
  Mn  Mn12  1  0.64937473  0.81006441  0.45861137  1
  Mn  Mn13  1  0.64937473  0.31006441  0.54138863  1
  Mn  Mn14  1  0.92051436  0.55783637  0.11038638  1
  Mn  Mn15  1  0.92051436  0.05783637  0.88961362  1
  P  P16  1  0.22671257  0.09184191  0.01309534  1
  P  P17  1  0.22671257  0.59184191  0.98690466  1
  P  P18  1  0.34590731  0.34142371  0.41142769  1
  P  P19  1  0.34590731  0.84142371  0.58857231  1
  P  P20  1  0.72671257  0.90815809  0.98690466  1
  P  P21  1  0.72671257  0.40815809  0.01309534  1
  P  P22  1  0.84590731  0.65857629  0.58857231  1
  P  P23  1  0.84590731  0.15857629  0.41142769  1
  H  H24  1  0.00553711  0.37074783  0.09115703  1
  H  H25  1  0.00553711  0.87074683  0.90884297  1
  H  H26  1  0.05026249  0.38154116  0.63634192  1
  H  H27  1  0.05026249  0.88154116  0.36365808  1
  H  H28  1  0.10805069  0.30580243  0.13222517  1
  H  H29  1  0.10805069  0.80580243  0.86777483  1
  H  H30  1  0.44846654  0.05328133  0.61118184  1
  H  H31  1  0.44846654  0.55328133  0.38881816  1
  H  H32  1  0.50553711  0.12925317  0.09115703  1
  H  H33  1  0.50553711  0.62925317  0.90884297  1
  H  H34  1  0.55026249  0.61845884  0.36365808  1
  H  H35  1  0.55026249  0.11845884  0.63634192  1
  H  H36  1  0.60805069  0.69419757  0.86777483  1
  H  H37  1  0.60805069  0.19419757  0.13222517  1
  H  H38  1  0.94846654  0.44671867  0.61118184  1
  H  H39  1  0.94846654  0.94671867  0.38881816  1
  O  O40  1  0.02678424  0.42690628  0.52844671  1
  O  O41  1  0.02678424  0.92690628  0.47155329  1
  O  O42  1  0.03837900  0.32236352  0.01301629  1
  O  O43  1  0.03837900  0.82236352  0.98698371  1
  O  O44  1  0.11875311  0.04912015  0.85646989  1
  O  O45  1  0.11875311  0.54912015  0.14353011  1
  O  O46  1  0.19224323  0.59373678  0.69287101  1
  O  O47  1  0.19224323  0.09373678  0.30712899  1
  O  O48  1  0.21718785  0.79658680  0.57400545  1
  O  O49  1  0.21718785  0.29658680  0.42599455  1
  O  O50  1  0.24161972  0.17661662  0.90227443  1
  O  O51  1  0.24161972  0.67661662  0.09772557  1
  O  O52  1  0.32958062  0.92594512  0.47378014  1
  O  O53  1  0.32958062  0.42594512  0.52621986  1
  O  O54  1  0.35399916  0.04666882  0.97008655  1
  O  O55  1  0.35399916  0.54666882  0.02991345  1
  O  O56  1  0.38812116  0.34558048  0.12225620  1
  O  O57  1  0.38812116  0.84558048  0.87774380  1
  O  O58  1  0.45022203  0.29766507  0.57496561  1
  O  O59  1  0.45022203  0.79766507  0.42503439  1
  O  O60  1  0.52678424  0.07309372  0.52844671  1
  O  O61  1  0.52678424  0.57309372  0.47155329  1
  O  O62  1  0.53837900  0.17763648  0.01301629  1
  O  O63  1  0.53837900  0.67763648  0.98698371  1
  O  O64  1  0.61875311  0.95087985  0.14353011  1
  O  O65  1  0.61875311  0.45087985  0.85646989  1
  O  O66  1  0.69224323  0.90626322  0.69287101  1
  O  O67  1  0.69224323  0.40626322  0.30712899  1
  O  O68  1  0.71718785  0.70341320  0.57400545  1
  O  O69  1  0.71718785  0.20341320  0.42599455  1
  O  O70  1  0.74161972  0.32338338  0.90227443  1
  O  O71  1  0.74161972  0.82338338  0.09772557  1
  O  O72  1  0.82958062  0.57405488  0.47378014  1
  O  O73  1  0.82958062  0.07405488  0.52621986  1
  O  O74  1  0.85399916  0.45333118  0.97008655  1
  O  O75  1  0.85399916  0.95333118  0.02991345  1
  O  O76  1  0.88812116  0.65441952  0.87774380  1
  O  O77  1  0.88812116  0.15441952  0.12225620  1
  O  O78  1  0.95022203  0.70233493  0.42503439  1
  O  O79  1  0.95022203  0.20233493  0.57496561  1
