# generated using pymatgen
data_LiVF4
_symmetry_space_group_name_H-M   'P 1'
_cell_length_a   5.56466129
_cell_length_b   5.48008808
_cell_length_c   6.06301570
_cell_angle_alpha   117.17690177
_cell_angle_beta   88.22594519
_cell_angle_gamma   91.79104715
_symmetry_Int_Tables_number   1
_chemical_formula_structural   LiVF4
_chemical_formula_sum   'Li2 V2 F8'
_cell_volume   164.36954094
_cell_formula_units_Z   2
loop_
 _symmetry_equiv_pos_site_id
 _symmetry_equiv_pos_as_xyz
  1  'x, y, z'
loop_
 _atom_site_type_symbol
 _atom_site_label
 _atom_site_symmetry_multiplicity
 _atom_site_fract_x
 _atom_site_fract_y
 _atom_site_fract_z
 _atom_site_occupancy
  Li  Li0  1  0.24676910  0.52048791  0.55361508  1
  Li  Li1  1  0.75321656  0.47936720  0.44635645  1
  V  V2  1  0.49998299  0.50008615  0.00009038  1
  V  V3  1  0.00001656  0.00008582  0.99997199  1
  F  F4  1  0.70572534  0.82522792  0.06075720  1
  F  F5  1  0.96537700  0.77581431  0.64538207  1
  F  F6  1  0.46308795  0.61949299  0.35271702  1
  F  F7  1  0.79316418  0.31321481  0.03672898  1
  F  F8  1  0.20678903  0.68681831  0.96322429  1
  F  F9  1  0.53696654  0.38046472  0.64724299  1
  F  F10  1  0.03458849  0.22409532  0.35463288  1
  F  F11  1  0.29432126  0.17484655  0.93928668  1
