# generated using pymatgen
data_V(PO3)4
_symmetry_space_group_name_H-M   'P 1'
_cell_length_a   7.17110157
_cell_length_b   7.18298332
_cell_length_c   9.86383857
_cell_angle_alpha   71.44997674
_cell_angle_beta   80.16187239
_cell_angle_gamma   109.13594673
_symmetry_Int_Tables_number   1
_chemical_formula_structural   V(PO3)4
_chemical_formula_sum   'V2 P8 O24'
_cell_volume   433.06606174
_cell_formula_units_Z   2
loop_
 _symmetry_equiv_pos_site_id
 _symmetry_equiv_pos_as_xyz
  1  'x, y, z'
loop_
 _atom_site_type_symbol
 _atom_site_label
 _atom_site_symmetry_multiplicity
 _atom_site_fract_x
 _atom_site_fract_y
 _atom_site_fract_z
 _atom_site_occupancy
  V  V0  1  0.05281468  0.80570063  0.74848673  1
  V  V1  1  0.94788277  0.19838971  0.24832957  1
  P  P2  1  0.26438043  0.73057325  0.01696773  1
  P  P3  1  0.24756365  0.28456873  0.48061084  1
  P  P4  1  0.28154946  0.49226204  0.69408529  1
  P  P5  1  0.31443007  0.02521803  0.19281034  1
  P  P6  1  0.68425105  0.97677663  0.80480123  1
  P  P7  1  0.71821901  0.50846861  0.30719550  1
  P  P8  1  0.75168305  0.71695804  0.51856419  1
  P  P9  1  0.73451064  0.27393329  0.97888370  1
  O  O10  1  0.14726913  0.49233364  0.09839510  1
  O  O11  1  0.28186616  0.83147434  0.13828762  1
  O  O12  1  0.09051786  0.24805389  0.39931781  1
  O  O13  1  0.19561313  0.85461357  0.89655941  1
  O  O14  1  0.35588619  0.97094852  0.33754931  1
  O  O15  1  0.12714370  0.08362337  0.18373587  1
  O  O16  1  0.23276627  0.68888763  0.68506804  1
  O  O17  1  0.21787125  0.44730762  0.55372887  1
  O  O18  1  0.19005935  0.30467478  0.83849833  1
  O  O19  1  0.24984972  0.09522825  0.60274590  1
  O  O20  1  0.46971185  0.42381678  0.35868852  1
  O  O21  1  0.50112575  0.77195948  0.94640294  1
  O  O22  1  0.49949459  0.23226310  0.05428966  1
  O  O23  1  0.53038509  0.57663500  0.64295815  1
  O  O24  1  0.74939126  0.90628609  0.39648641  1
  O  O25  1  0.80882503  0.69614628  0.16319966  1
  O  O26  1  0.78093361  0.55101348  0.44842691  1
  O  O27  1  0.76783127  0.31327764  0.31365309  1
  O  O28  1  0.87301041  0.92128184  0.81316488  1
  O  O29  1  0.64174553  0.02839562  0.66088612  1
  O  O30  1  0.80665725  0.15226550  0.09828273  1
  O  O31  1  0.91356906  0.75394712  0.59680750  1
  O  O32  1  0.71359488  0.17299887  0.85714241  1
  O  O33  1  0.84881983  0.51212360  0.89700964  1
