# generated using pymatgen
data_Li2Fe(CO3)2
_symmetry_space_group_name_H-M   'P 1'
_cell_length_a   7.60409739
_cell_length_b   8.35544185
_cell_length_c   9.70986290
_cell_angle_alpha   90.00048116
_cell_angle_beta   89.98114608
_cell_angle_gamma   109.79417927
_symmetry_Int_Tables_number   1
_chemical_formula_structural   Li2Fe(CO3)2
_chemical_formula_sum   'Li8 Fe4 C8 O24'
_cell_volume   580.47114652
_cell_formula_units_Z   4
loop_
 _symmetry_equiv_pos_site_id
 _symmetry_equiv_pos_as_xyz
  1  'x, y, z'
loop_
 _atom_site_type_symbol
 _atom_site_label
 _atom_site_symmetry_multiplicity
 _atom_site_fract_x
 _atom_site_fract_y
 _atom_site_fract_z
 _atom_site_occupancy
  Li  Li0  1  0.97656852  0.35112916  0.89636427  1
  Li  Li1  1  0.85358904  0.79987994  0.77788323  1
  Li  Li2  1  0.52375336  0.14900671  0.39630204  1
  Li  Li3  1  0.64641088  0.69997009  0.27761784  1
  Li  Li4  1  0.35355304  0.30024328  0.72273592  1
  Li  Li5  1  0.47656696  0.85050464  0.60357269  1
  Li  Li6  1  0.14636098  0.19964522  0.22277183  1
  Li  Li7  1  0.02355401  0.64953623  0.10354651  1
  Fe  Fe8  1  0.95657026  0.43477136  0.36974095  1
  Fe  Fe9  1  0.54390298  0.06565771  0.86964788  1
  Fe  Fe10  1  0.45634589  0.93493507  0.12987826  1
  Fe  Fe11  1  0.04327264  0.56511203  0.62997192  1
  C  C12  1  0.75220862  0.22007123  0.61502025  1
  C  C13  1  0.74727181  0.27940353  0.11513528  1
  C  C14  1  0.73750265  0.66106830  0.49933154  1
  C  C15  1  0.76219425  0.83920544  0.99952429  1
  C  C16  1  0.23770600  0.16100113  0.00091051  1
  C  C17  1  0.26245722  0.33873010  0.50090300  1
  C  C18  1  0.25262706  0.72109256  0.88458585  1
  C  C19  1  0.24792376  0.77933240  0.38456830  1
  O  O20  1  0.87780066  0.41305069  0.16149980  1
  O  O21  1  0.85376416  0.33328666  0.69961478  1
  O  O22  1  0.77524630  0.23772069  0.48254433  1
  O  O23  1  0.72513048  0.26211290  0.98277525  1
  O  O24  1  0.64556345  0.16693041  0.19965080  1
  O  O25  1  0.62241729  0.08681968  0.66120818  1
  O  O26  1  0.82604454  0.66600786  0.61621143  1
  O  O27  1  0.87934647  0.76038130  0.98458152  1
  O  O28  1  0.76965394  0.57807300  0.39355425  1
  O  O29  1  0.73030355  0.92199703  0.89374011  1
  O  O30  1  0.62058530  0.73957258  0.48447536  1
  O  O31  1  0.67396652  0.83427178  0.11634141  1
  O  O32  1  0.32616172  0.16592540  0.88418319  1
  O  O33  1  0.37955171  0.26040969  0.51573779  1
  O  O34  1  0.26939935  0.07815213  0.10675835  1
  O  O35  1  0.22985348  0.42135870  0.60681537  1
  O  O36  1  0.12051467  0.23980709  0.01568539  1
  O  O37  1  0.17413877  0.33409879  0.38399549  1
  O  O38  1  0.37813677  0.91232149  0.33842997  1
  O  O39  1  0.35431967  0.83362745  0.80012423  1
  O  O40  1  0.27483363  0.73814898  0.01697158  1
  O  O41  1  0.22528192  0.76140729  0.51705968  1
  O  O42  1  0.14555263  0.66666523  0.29997750  1
  O  O43  1  0.12203809  0.58751402  0.83813886  1
