# generated using pymatgen
data_Mn2NbV3(PO4)6
_symmetry_space_group_name_H-M   'P 1'
_cell_length_a   8.73006886
_cell_length_b   8.72633674
_cell_length_c   8.72633691
_cell_angle_alpha   60.00000227
_cell_angle_beta   60.01413975
_cell_angle_gamma   60.01414326
_symmetry_Int_Tables_number   1
_chemical_formula_structural   Mn2NbV3(PO4)6
_chemical_formula_sum   'Mn2 Nb1 V3 P6 O24'
_cell_volume   470.17487743
_cell_formula_units_Z   1
loop_
 _symmetry_equiv_pos_site_id
 _symmetry_equiv_pos_as_xyz
  1  'x, y, z'
loop_
 _atom_site_type_symbol
 _atom_site_label
 _atom_site_symmetry_multiplicity
 _atom_site_fract_x
 _atom_site_fract_y
 _atom_site_fract_z
 _atom_site_occupancy
  Mn  Mn0  1  0.01282230  0.99572557  0.99572557  1
  Mn  Mn1  1  0.50164810  0.49945030  0.49945030  1
  Nb  Nb2  1  0.56873563  0.14375512  0.14375512  1
  V  V3  1  0.07034981  0.64321706  0.64321706  1
  V  V4  1  0.43576591  0.85474436  0.85474436  1
  V  V5  1  0.92935632  0.35688089  0.35688089  1
  P  P6  1  0.24291849  0.25259921  0.54817851  1
  P  P7  1  0.24291849  0.95630379  0.25259921  1
  P  P8  1  0.24291849  0.54817851  0.95630379  1
  P  P9  1  0.75169396  0.46204076  0.04156604  1
  P  P10  1  0.75169396  0.04156604  0.74469923  1
  P  P11  1  0.75169396  0.74469923  0.46204076  1
  O  O12  1  0.07130536  0.11489015  0.30755860  1
  O  O13  1  0.07130536  0.50624588  0.11489015  1
  O  O14  1  0.07130536  0.30755860  0.50624588  1
  O  O15  1  0.23750226  0.08654525  0.73601609  1
  O  O16  1  0.42476633  0.19137215  0.38280128  1
  O  O17  1  0.26705768  0.41193350  0.55654328  1
  O  O18  1  0.23750226  0.93993640  0.08654525  1
  O  O19  1  0.26705768  0.76446554  0.41193350  1
  O  O20  1  0.57094340  0.61488281  0.00580291  1
  O  O21  1  0.26705768  0.55654328  0.76446554  1
  O  O22  1  0.76076355  0.26501966  0.06141731  1
  O  O23  1  0.57094340  0.00580291  0.80837188  1
  O  O24  1  0.42476633  0.00106024  0.19137215  1
  O  O25  1  0.23750226  0.73601609  0.93993640  1
  O  O26  1  0.73664959  0.44003465  0.23575669  1
  O  O27  1  0.42476633  0.38280128  0.00106024  1
  O  O28  1  0.73664959  0.23575669  0.58755907  1
  O  O29  1  0.76076355  0.06141731  0.91279948  1
  O  O30  1  0.73664959  0.58755907  0.44003465  1
  O  O31  1  0.57094340  0.80837188  0.61488281  1
  O  O32  1  0.76076355  0.91279948  0.26501966  1
  O  O33  1  0.93017269  0.69457030  0.49205731  1
  O  O34  1  0.93017269  0.49205731  0.88319969  1
  O  O35  1  0.93017269  0.88319969  0.69457030  1
