# generated using pymatgen
data_MnF3
_symmetry_space_group_name_H-M   'P 1'
_cell_length_a   12.45130226
_cell_length_b   12.51968872
_cell_length_c   3.90742236
_cell_angle_alpha   90.00000000
_cell_angle_beta   90.00000000
_cell_angle_gamma   90.00000000
_symmetry_Int_Tables_number   1
_chemical_formula_structural   MnF3
_chemical_formula_sum   'Mn10 F30'
_cell_volume   609.11411616
_cell_formula_units_Z   10
loop_
 _symmetry_equiv_pos_site_id
 _symmetry_equiv_pos_as_xyz
  1  'x, y, z'
loop_
 _atom_site_type_symbol
 _atom_site_label
 _atom_site_symmetry_multiplicity
 _atom_site_fract_x
 _atom_site_fract_y
 _atom_site_fract_z
 _atom_site_occupancy
  Mn  Mn0  1  0.00000000  0.50000000  0.59666792  1
  Mn  Mn1  1  0.07784077  0.20764307  0.59916960  1
  Mn  Mn2  1  0.20654266  0.92232574  0.59965927  1
  Mn  Mn3  1  0.29345734  0.42232574  0.59965927  1
  Mn  Mn4  1  0.42215923  0.70764307  0.59916960  1
  Mn  Mn5  1  0.50000000  0.00000000  0.59666792  1
  Mn  Mn6  1  0.57784077  0.29235693  0.59916960  1
  Mn  Mn7  1  0.70654266  0.57767426  0.59965927  1
  Mn  Mn8  1  0.79345734  0.07767426  0.59965927  1
  Mn  Mn9  1  0.92215923  0.79235693  0.59916960  1
  F  F10  1  0.00000000  0.50000000  0.09657802  1
  F  F11  1  0.99809338  0.65358333  0.59716376  1
  F  F12  1  0.06121780  0.85589486  0.59969150  1
  F  F13  1  0.07900226  0.20827249  0.09910742  1
  F  F14  1  0.14129895  0.06530758  0.59970915  1
  F  F15  1  0.15015826  0.49942688  0.59727626  1
  F  F16  1  0.20710409  0.92167255  0.09927423  1
  F  F17  1  0.21453828  0.28187754  0.59957984  1
  F  F18  1  0.28546172  0.78187754  0.59957984  1
  F  F19  1  0.29289591  0.42167255  0.09927423  1
  F  F20  1  0.34984174  0.99942688  0.59727626  1
  F  F21  1  0.35870105  0.56530758  0.59970915  1
  F  F22  1  0.42099774  0.70827249  0.09910742  1
  F  F23  1  0.43878220  0.35589486  0.59969150  1
  F  F24  1  0.50190662  0.15358333  0.59716376  1
  F  F25  1  0.50000000  0.00000000  0.09657802  1
  F  F26  1  0.49809338  0.84641667  0.59716376  1
  F  F27  1  0.56121780  0.64410514  0.59969150  1
  F  F28  1  0.57900226  0.29172751  0.09910742  1
  F  F29  1  0.64129895  0.43469242  0.59970915  1
  F  F30  1  0.65015826  0.00057312  0.59727626  1
  F  F31  1  0.70710409  0.57832745  0.09927423  1
  F  F32  1  0.71453828  0.21812246  0.59957984  1
  F  F33  1  0.78546172  0.71812246  0.59957984  1
  F  F34  1  0.79289591  0.07832745  0.09927423  1
  F  F35  1  0.84984174  0.50057312  0.59727626  1
  F  F36  1  0.85870105  0.93469242  0.59970915  1
  F  F37  1  0.92099774  0.79172751  0.09910742  1
  F  F38  1  0.93878220  0.14410514  0.59969150  1
  F  F39  1  0.00190662  0.34641667  0.59716376  1
