# generated using pymatgen
data_CoRe2(H2O3)4
_symmetry_space_group_name_H-M   'P 1'
_cell_length_a   6.70516261
_cell_length_b   7.00843544
_cell_length_c   7.46522081
_cell_angle_alpha   64.62132272
_cell_angle_beta   69.06287933
_cell_angle_gamma   71.24649831
_symmetry_Int_Tables_number   1
_chemical_formula_structural   CoRe2(H2O3)4
_chemical_formula_sum   'Co1 Re2 H8 O12'
_cell_volume   290.07782197
_cell_formula_units_Z   1
loop_
 _symmetry_equiv_pos_site_id
 _symmetry_equiv_pos_as_xyz
  1  'x, y, z'
loop_
 _atom_site_type_symbol
 _atom_site_label
 _atom_site_symmetry_multiplicity
 _atom_site_fract_x
 _atom_site_fract_y
 _atom_site_fract_z
 _atom_site_occupancy
  Co  Co0  1  0.50000000  0.00000000  0.00000000  1
  Re  Re1  1  0.08438527  0.32353625  0.29107918  1
  Re  Re2  1  0.91561473  0.67646375  0.70892082  1
  H  H3  1  0.38987535  0.69800723  0.35796418  1
  H  H4  1  0.68254847  0.01241836  0.27561868  1
  H  H5  1  0.37656461  0.40574015  0.75041921  1
  H  H6  1  0.74592327  0.19969025  0.05733767  1
  H  H7  1  0.25407673  0.80030975  0.94266233  1
  H  H8  1  0.62343539  0.59425985  0.24958079  1
  H  H9  1  0.31745153  0.98758164  0.72438132  1
  H  H10  1  0.61012465  0.30199277  0.64203582  1
  O  O11  1  0.20798189  0.11485870  0.19049409  1
  O  O12  1  0.13194904  0.56957707  0.09879404  1
  O  O13  1  0.19752802  0.27126780  0.48933428  1
  O  O14  1  0.19921015  0.66914667  0.61284068  1
  O  O15  1  0.67819735  0.07188838  0.13243897  1
  O  O16  1  0.48962296  0.70018686  0.22278609  1
  O  O17  1  0.51037704  0.29981314  0.77721391  1
  O  O18  1  0.32180265  0.92811162  0.86756103  1
  O  O19  1  0.80078985  0.33085333  0.38715932  1
  O  O20  1  0.80247198  0.72873220  0.51066572  1
  O  O21  1  0.86805096  0.43042293  0.90120596  1
  O  O22  1  0.79201811  0.88514130  0.80950591  1
