# generated using pymatgen
data_VF4
_symmetry_space_group_name_H-M   'P 1'
_cell_length_a   7.78395656
_cell_length_b   8.19264215
_cell_length_c   9.98305705
_cell_angle_alpha   90.00000000
_cell_angle_beta   90.00000000
_cell_angle_gamma   90.00000000
_symmetry_Int_Tables_number   1
_chemical_formula_structural   VF4
_chemical_formula_sum   'V8 F32'
_cell_volume   636.63123432
_cell_formula_units_Z   8
loop_
 _symmetry_equiv_pos_site_id
 _symmetry_equiv_pos_as_xyz
  1  'x, y, z'
loop_
 _atom_site_type_symbol
 _atom_site_label
 _atom_site_symmetry_multiplicity
 _atom_site_fract_x
 _atom_site_fract_y
 _atom_site_fract_z
 _atom_site_occupancy
  V  V0  1  0.14042226  0.05353142  0.24908958  1
  V  V1  1  0.14042226  0.44646858  0.24908958  1
  V  V2  1  0.35957774  0.55353142  0.74908958  1
  V  V3  1  0.35957774  0.94646858  0.74908958  1
  V  V4  1  0.64042226  0.05353142  0.25091042  1
  V  V5  1  0.64042226  0.44646858  0.25091042  1
  V  V6  1  0.85957774  0.55353142  0.75091042  1
  V  V7  1  0.85957774  0.94646858  0.75091042  1
  F  F8  1  0.10971847  0.93834397  0.76311482  1
  F  F9  1  0.10971847  0.56165603  0.76311482  1
  F  F10  1  0.12767702  0.57296691  0.39082015  1
  F  F11  1  0.12767702  0.92703309  0.39082015  1
  F  F12  1  0.13070811  0.25000000  0.36753949  1
  F  F13  1  0.14964431  0.25000000  0.13018346  1
  F  F14  1  0.15241577  0.57165146  0.10637098  1
  F  F15  1  0.15241577  0.92834854  0.10637098  1
  F  F16  1  0.34758423  0.07165146  0.60637098  1
  F  F17  1  0.34758423  0.42834854  0.60637098  1
  F  F18  1  0.35035569  0.75000000  0.63018346  1
  F  F19  1  0.36929189  0.75000000  0.86753949  1
  F  F20  1  0.37232298  0.07296691  0.89082015  1
  F  F21  1  0.37232298  0.42703309  0.89082015  1
  F  F22  1  0.39028153  0.06165603  0.26311482  1
  F  F23  1  0.39028153  0.43834397  0.26311482  1
  F  F24  1  0.60971847  0.56165603  0.73688518  1
  F  F25  1  0.60971847  0.93834397  0.73688518  1
  F  F26  1  0.62767702  0.57296691  0.10917985  1
  F  F27  1  0.62767702  0.92703309  0.10917985  1
  F  F28  1  0.63070811  0.25000000  0.13246051  1
  F  F29  1  0.64964431  0.25000000  0.36981654  1
  F  F30  1  0.65241577  0.57165146  0.39362902  1
  F  F31  1  0.65241577  0.92834854  0.39362902  1
  F  F32  1  0.84758423  0.07165146  0.89362902  1
  F  F33  1  0.84758423  0.42834854  0.89362902  1
  F  F34  1  0.85035569  0.75000000  0.86981654  1
  F  F35  1  0.86929189  0.75000000  0.63246051  1
  F  F36  1  0.87232298  0.07296691  0.60917985  1
  F  F37  1  0.87232298  0.42703309  0.60917985  1
  F  F38  1  0.89028153  0.06165603  0.23688518  1
  F  F39  1  0.89028153  0.43834397  0.23688518  1
