# generated using pymatgen
data_Li7V3P8O29
_symmetry_space_group_name_H-M   'P 1'
_cell_length_a   9.86150009
_cell_length_b   9.81812275
_cell_length_c   13.86120415
_cell_angle_alpha   89.99014953
_cell_angle_beta   89.78587822
_cell_angle_gamma   60.14874311
_symmetry_Int_Tables_number   1
_chemical_formula_structural   Li7V3P8O29
_chemical_formula_sum   'Li14 V6 P16 O58'
_cell_volume   1163.98708829
_cell_formula_units_Z   2
loop_
 _symmetry_equiv_pos_site_id
 _symmetry_equiv_pos_as_xyz
  1  'x, y, z'
loop_
 _atom_site_type_symbol
 _atom_site_label
 _atom_site_symmetry_multiplicity
 _atom_site_fract_x
 _atom_site_fract_y
 _atom_site_fract_z
 _atom_site_occupancy
  Li  Li0  1  0.90729479  0.76581364  0.06180251  1
  Li  Li1  1  0.90738692  0.32690937  0.56189086  1
  Li  Li2  1  0.66783209  0.66896299  0.38299549  1
  Li  Li3  1  0.66790752  0.66304101  0.88294189  1
  Li  Li4  1  0.33186559  0.90403492  0.06227687  1
  Li  Li5  1  0.66813838  0.23590625  0.43766108  1
  Li  Li6  1  0.33185235  0.76410332  0.56235408  1
  Li  Li7  1  0.66813948  0.09591629  0.93764442  1
  Li  Li8  1  0.33208814  0.33098315  0.61707264  1
  Li  Li9  1  0.33219216  0.33695619  0.11699284  1
  Li  Li10  1  0.09266510  0.67310503  0.43820367  1
  Li  Li11  1  0.09262859  0.23427418  0.93809718  1
  Li  Li12  1  -0.00000176  0.00000919  -0.00000073  1
  Li  Li13  1  0.99997272  0.00001947  0.50000663  1
  V  V14  1  0.56754128  0.43617710  0.24456509  1
  V  V15  1  0.43252106  0.56381009  0.75540685  1
  V  V16  1  0.56747295  0.99630202  0.74457260  1
  V  V17  1  0.43247284  0.00375656  0.25543252  1
  V  V18  1  0.99999033  0.56491771  0.24998835  1
  V  V19  1  0.00000189  0.43510413  0.75000025  1
  P  P20  1  0.90903283  0.77611198  0.84388484  1
  P  P21  1  0.77438296  0.91358365  0.34426542  1
  P  P22  1  0.90907168  0.31476097  0.34390933  1
  P  P23  1  0.66395196  0.67177932  0.12600533  1
  P  P24  1  0.66400163  0.66430361  0.62603177  1
  P  P25  1  0.77438534  0.31201739  0.84426330  1
  P  P26  1  0.68338381  0.22802870  0.65597263  1
  P  P27  1  0.31657892  0.91138178  0.84402743  1
  P  P28  1  0.68341911  0.08858925  0.15598460  1
  P  P29  1  0.31661262  0.77195187  0.34401613  1
  P  P30  1  0.22561868  0.68797717  0.15571966  1
  P  P31  1  0.33598424  0.33575076  0.37401400  1
  P  P32  1  0.33602873  0.32824355  0.87396582  1
  P  P33  1  0.09096620  0.68518621  0.65610431  1
  P  P34  1  0.22559430  0.08643658  0.65574141  1
  P  P35  1  0.09095282  0.22386634  0.15611438  1
  O  O36  1  0.01023062  0.77118364  0.56576071  1
  O  O37  1  0.91917941  0.74857274  0.34484123  1
  O  O38  1  0.76954391  0.99956690  0.06586655  1
  O  O39  1  0.74375309  0.92281719  0.83854074  1
  O  O40  1  0.88961998  0.62968502  0.83262914  1
  O  O41  1  0.81240800  0.67178952  0.16171130  1
  O  O42  1  0.88963960  0.48060702  0.33261097  1
  O  O43  1  0.01027905  0.21858748  0.06575672  1
  O  O44  1  0.91921418  0.33219480  0.84481955  1
  O  O45  1  0.66141527  0.81374562  0.67145113  1
  O  O46  1  0.62700507  0.89460747  0.33267671  1
  O  O47  1  0.81241796  0.51581276  0.66174902  1
  O  O48  1  0.65453420  0.67501425  0.01811480  1
  O  O49  1  0.65450244  0.67049200  0.51814466  1
  O  O50  1  0.66142810  0.52484125  0.17142304  1
  O  O51  1  0.47976059  0.89762599  0.83209497  1
  O  O52  1  0.51567786  0.81974924  0.16901975  1
  O  O53  1  0.74377085  0.33335132  0.33857088  1
  O  O54  1  0.79063085  0.21596214  0.74580152  1
  O  O55  1  0.76957174  0.23092491  0.56586260  1
  O  O56  1  0.77336146  0.21486732  0.92713868  1
  O  O57  1  0.62705991  0.47838728  0.83268545  1
  O  O58  1  0.51574447  0.66452216  0.66905240  1
  O  O59  1  0.66142594  0.25365890  0.15871683  1
  O  O60  1  0.47982076  0.62256647  0.33208828  1
  O  O61  1  0.33853194  0.91508211  0.34124412  1
  O  O62  1  0.79070996  0.99342532  0.24580494  1
  O  O63  1  0.77335018  0.01172452  0.42713624  1
  O  O64  1  0.22662145  0.98828064  0.57287797  1
  O  O65  1  0.66143787  0.08491960  0.65874485  1
  O  O66  1  0.52019629  0.37742382  0.66790848  1
  O  O67  1  0.33855435  0.74631365  0.84128913  1
  O  O68  1  0.48427620  0.33546703  0.33100498  1
  O  O69  1  0.37295814  0.52161438  0.16730802  1
  O  O70  1  0.22664746  0.78512084  0.07284274  1
  O  O71  1  0.23042567  0.76909944  0.43413882  1
  O  O72  1  0.20937310  0.78405481  0.25417278  1
  O  O73  1  0.25625199  0.66661677  0.66144357  1
  O  O74  1  0.48428440  0.18025351  0.83095656  1
  O  O75  1  0.52023615  0.10234047  0.16794431  1
  O  O76  1  0.33859411  0.47514522  0.82854135  1
  O  O77  1  0.34550103  0.32494627  0.98185627  1
  O  O78  1  0.34539198  0.32954500  0.48190599  1
  O  O79  1  0.18757131  0.48423399  0.33827481  1
  O  O80  1  0.37294592  0.10545349  0.66731002  1
  O  O81  1  0.33852280  0.18629631  0.32858932  1
  O  O82  1  0.08076315  0.66783714  0.15515662  1
  O  O83  1  0.00001394  0.78760672  0.74999336  1
  O  O84  1  0.98974899  0.78138670  0.93422440  1
  O  O85  1  0.11039316  0.51933660  0.66736940  1
  O  O86  1  0.18758420  0.32821227  0.83825717  1
  O  O87  1  0.11035428  0.37030258  0.16739649  1
  O  O88  1  0.25623798  0.07715647  0.16146209  1
  O  O89  1  0.23040571  0.00046134  0.93412613  1
  O  O90  1  0.20930921  0.00658504  0.75420212  1
  O  O91  1  0.08079257  0.25144372  0.65517515  1
  O  O92  1  0.98978998  0.22880987  0.43426963  1
  O  O93  1  0.00000395  0.21230626  0.25001408  1
