# generated using pymatgen
data_Y3Al6Si6B3H3O31
_symmetry_space_group_name_H-M   'P 1'
_cell_length_a   7.36109266
_cell_length_b   9.90985210
_cell_length_c   9.90985217
_cell_angle_alpha   114.08177092
_cell_angle_beta   104.33564466
_cell_angle_gamma   104.33564479
_symmetry_Int_Tables_number   1
_chemical_formula_structural   Y3Al6Si6B3H3O31
_chemical_formula_sum   'Y3 Al6 Si6 B3 H3 O31'
_cell_volume   587.66659516
_cell_formula_units_Z   1
loop_
 _symmetry_equiv_pos_site_id
 _symmetry_equiv_pos_as_xyz
  1  'x, y, z'
loop_
 _atom_site_type_symbol
 _atom_site_label
 _atom_site_symmetry_multiplicity
 _atom_site_fract_x
 _atom_site_fract_y
 _atom_site_fract_z
 _atom_site_occupancy
  Y  Y0  1  0.76085572  1.00000000  0.80300653  1
  Y  Y1  1  0.76085572  0.80300653  1.00000000  1
  Y  Y2  1  0.95784919  0.19699347  0.19699347  1
  Al  Al3  1  0.81105772  0.66349542  0.23594277  1
  Al  Al4  1  0.14756230  0.57244735  0.33650458  1
  Al  Al5  1  0.14756230  0.33650458  0.57244735  1
  Al  Al6  1  0.57511495  0.76405723  0.42755265  1
  Al  Al7  1  0.57511495  0.42755265  0.76405723  1
  Al  Al8  1  0.81105772  0.23594277  0.66349542  1
  Si  Si9  1  0.41315558  0.38081288  0.19171885  1
  Si  Si10  1  0.03234270  0.81090597  0.61918712  1
  Si  Si11  1  0.03234270  0.61918712  0.81090597  1
  Si  Si12  1  0.22143673  0.80828115  0.18909403  1
  Si  Si13  1  0.22143673  0.18909403  0.80828115  1
  Si  Si14  1  0.41315558  0.19171885  0.38081288  1
  B  B15  1  0.79519088  1.00000000  0.34975843  1
  B  B16  1  0.79519088  0.34975843  0.00000000  1
  B  B17  1  0.44543245  0.65024157  0.65024157  1
  H  H18  1  0.46534262  1.00000000  0.56500891  1
  H  H19  1  0.46534262  0.56500891  1.00000000  1
  H  H20  1  0.90033371  0.43499109  0.43499109  1
  O  O21  1  0.99473136  0.78965069  0.19005219  1
  O  O22  1  0.20508067  0.40040150  0.21034931  1
  O  O23  1  0.20508067  0.21034931  0.40040150  1
  O  O24  1  0.80467917  0.80994781  0.59959850  1
  O  O25  1  0.80467917  0.59959850  0.80994781  1
  O  O26  1  0.99473136  0.19005219  0.78965069  1
  O  O27  1  0.60028694  0.00000000  0.57237857  1
  O  O28  1  0.60028694  0.57237857  0.00000000  1
  O  O29  1  0.02790837  0.42762143  0.42762143  1
  O  O30  1  0.74943875  0.00000000  0.20813506  1
  O  O31  1  0.74943875  0.20813506  0.00000000  1
  O  O32  1  0.54130369  0.79186494  0.79186494  1
  O  O33  1  0.37305541  0.00000000  0.28003847  1
  O  O34  1  0.37305541  0.28003847  0.00000000  1
  O  O35  1  0.09301694  0.71996153  0.71996153  1
  O  O36  1  0.58972534  0.56555380  0.27741569  1
  O  O37  1  0.02417154  0.71186189  0.43444620  1
  O  O38  1  0.02417154  0.43444620  0.71186189  1
  O  O39  1  0.31230966  0.72258431  0.28813811  1
  O  O40  1  0.31230966  0.28813811  0.72258431  1
  O  O41  1  0.58972534  0.27741569  0.56555380  1
  O  O42  1  0.96734940  0.00000000  0.00000000  1
  O  O43  1  0.20208873  0.00000000  0.71726809  1
  O  O44  1  0.20208873  0.71726809  0.00000000  1
  O  O45  1  0.48482063  0.28273191  0.28273191  1
  O  O46  1  0.89294752  0.49262883  0.15004770  1
  O  O47  1  0.40031869  0.65741887  0.50737117  1
  O  O48  1  0.40031869  0.50737117  0.65741887  1
  O  O49  1  0.74289983  0.84995230  0.34258113  1
  O  O50  1  0.74289983  0.34258113  0.84995230  1
  O  O51  1  0.89294752  0.15004770  0.49262883  1
