# generated using pymatgen
data_Li2VF6
_symmetry_space_group_name_H-M   'P 1'
_cell_length_a   8.70751178
_cell_length_b   8.56498334
_cell_length_c   10.21038690
_cell_angle_alpha   85.60554758
_cell_angle_beta   93.76841554
_cell_angle_gamma   118.21770978
_symmetry_Int_Tables_number   1
_chemical_formula_structural   Li2VF6
_chemical_formula_sum   'Li12 V6 F36'
_cell_volume   668.64061614
_cell_formula_units_Z   6
loop_
 _symmetry_equiv_pos_site_id
 _symmetry_equiv_pos_as_xyz
  1  'x, y, z'
loop_
 _atom_site_type_symbol
 _atom_site_label
 _atom_site_symmetry_multiplicity
 _atom_site_fract_x
 _atom_site_fract_y
 _atom_site_fract_z
 _atom_site_occupancy
  Li  Li0  1  0.00887596  0.30177999  0.72452922  1
  Li  Li1  1  0.34606791  0.94710350  0.43347260  1
  Li  Li2  1  0.54975099  0.89182768  0.95715825  1
  Li  Li3  1  0.32981592  0.35877892  0.96787751  1
  Li  Li4  1  0.20079942  0.19750165  0.25590650  1
  Li  Li5  1  0.28445479  0.00683993  0.77619184  1
  Li  Li6  1  0.62213336  0.66504450  0.46721331  1
  Li  Li7  1  0.67663686  0.63513987  0.03105528  1
  Li  Li8  1  0.89555300  0.54337785  0.54617833  1
  Li  Li9  1  0.65661692  0.05674343  0.56634646  1
  Li  Li10  1  0.99458657  0.69955171  0.26850148  1
  Li  Li11  1  0.95030768  0.35522977  0.06494568  1
  V  V12  1  0.99870268  0.00083942  0.50202391  1
  V  V13  1  0.33706055  0.66467784  0.70942745  1
  V  V14  1  0.99325439  0.99057680  0.99375129  1
  V  V15  1  0.33386949  0.66169479  0.20729558  1
  V  V16  1  0.66471316  0.33830293  0.79476299  1
  V  V17  1  0.66056168  0.33458460  0.29103172  1
  F  F18  1  0.08168474  0.92841695  0.65238513  1
  F  F19  1  0.06682405  0.93367727  0.15748493  1
  F  F20  1  0.10905541  0.57154273  0.62847614  1
  F  F21  1  0.10895920  0.57897748  0.12141119  1
  F  F22  1  0.27061909  0.77423037  0.82685145  1
  F  F23  1  0.23697505  0.75095903  0.32879951  1
  F  F24  1  0.06162224  0.21467743  0.57676062  1
  F  F25  1  0.41741263  0.89086568  0.60531069  1
  F  F26  1  0.24443461  0.44388375  0.80919236  1
  F  F27  1  0.09061197  0.23063816  0.06569198  1
  F  F28  1  0.41430694  0.86997716  0.10832050  1
  F  F29  1  0.25489365  0.44142828  0.29024194  1
  F  F30  1  0.42234679  0.59313933  0.58308427  1
  F  F31  1  0.22071032  0.08432440  0.92589405  1
  F  F32  1  0.54734057  0.75260153  0.81102329  1
  F  F33  1  0.42843451  0.58370473  0.07158764  1
  F  F34  1  0.22263118  0.07668627  0.42642686  1
  F  F35  1  0.54001746  0.73886887  0.31083452  1
  F  F36  1  0.45118028  0.24171797  0.70201394  1
  F  F37  1  0.76315990  0.91034289  0.55195316  1
  F  F38  1  0.57561155  0.42272316  0.92252576  1
  F  F39  1  0.43945901  0.25636702  0.20602362  1
  F  F40  1  0.76118764  0.90709350  0.04969587  1
  F  F41  1  0.59808223  0.43494600  0.41848707  1
  F  F42  1  0.74421070  0.54368028  0.68908502  1
  F  F43  1  0.57881272  0.11159752  0.87914701  1
  F  F44  1  0.91463559  0.76307684  0.94460014  1
  F  F45  1  0.75617813  0.55899691  0.19146106  1
  F  F46  1  0.58008447  0.11707350  0.39706969  1
  F  F47  1  0.91840014  0.76118029  0.43930590  1
  F  F48  1  0.76907354  0.26162983  0.66433357  1
  F  F49  1  0.74331359  0.25013823  0.16999407  1
  F  F50  1  0.87238309  0.39565569  0.89254287  1
  F  F51  1  0.88188611  0.43175067  0.38389461  1
  F  F52  1  0.93246205  0.08549061  0.84524420  1
  F  F53  1  0.94714550  0.07607846  0.34280998  1
