# generated using pymatgen
data_Na2NiPCO7
_symmetry_space_group_name_H-M   'P 1'
_cell_length_a   10.14242356
_cell_length_b   10.43543825
_cell_length_c   6.63833633
_cell_angle_alpha   90.26421605
_cell_angle_beta   90.51004717
_cell_angle_gamma   60.18395536
_symmetry_Int_Tables_number   1
_chemical_formula_structural   Na2NiPCO7
_chemical_formula_sum   'Na8 Ni4 P4 C4 O28'
_cell_volume   609.57500883
_cell_formula_units_Z   4
loop_
 _symmetry_equiv_pos_site_id
 _symmetry_equiv_pos_as_xyz
  1  'x, y, z'
loop_
 _atom_site_type_symbol
 _atom_site_label
 _atom_site_symmetry_multiplicity
 _atom_site_fract_x
 _atom_site_fract_y
 _atom_site_fract_z
 _atom_site_occupancy
  Na  Na0  1  0.00885809  0.25602261  0.48173583  1
  Na  Na1  1  0.01020833  0.25512082  0.01549596  1
  Na  Na2  1  0.48460810  0.25594234  0.97166938  1
  Na  Na3  1  0.84304077  0.06765397  0.73644340  1
  Na  Na4  1  0.50149936  0.74951031  0.00906954  1
  Na  Na5  1  0.50136816  0.74786435  0.49153179  1
  Na  Na6  1  0.00024225  0.73826762  0.98977005  1
  Na  Na7  1  0.00320249  0.73402761  0.51370983  1
  Ni  Ni8  1  0.28575433  0.06622350  0.74900308  1
  Ni  Ni9  1  0.22096432  0.43084182  0.25863548  1
  Ni  Ni10  1  0.78507908  0.56584090  0.75044523  1
  Ni  Ni11  1  0.71501685  0.93591633  0.25499418  1
  P  P12  1  0.35212835  0.07192854  0.25038680  1
  P  P13  1  0.14677915  0.43458784  0.75124168  1
  P  P14  1  0.85189371  0.57033707  0.25048758  1
  P  P15  1  0.65081841  0.92805274  0.75247258  1
  C  C16  1  0.82115116  0.10567539  0.24843658  1
  C  C17  1  0.32350722  0.60262023  0.24845552  1
  C  C18  1  0.68242040  0.39376799  0.75257583  1
  C  C19  1  0.17081929  0.89920457  0.74943828  1
  O  O20  1  0.09145252  0.04371724  0.74713018  1
  O  O21  1  0.26810210  0.05778817  0.06320747  1
  O  O22  1  0.26925538  0.06137117  0.43778281  1
  O  O23  1  0.14302042  0.28904106  0.74838048  1
  O  O24  1  0.01966059  0.43746915  0.25128537  1
  O  O25  1  0.48478462  0.05776684  0.75940143  1
  O  O26  1  0.35639897  0.21690150  0.24234082  1
  O  O27  1  0.22862028  0.44719731  0.93999886  1
  O  O28  1  0.21918797  0.45690931  0.56288420  1
  O  O29  1  0.67703431  0.15206743  0.24233001  1
  O  O30  1  0.17822658  0.64858510  0.25164561  1
  O  O31  1  0.40701070  0.46103771  0.24794364  1
  O  O32  1  0.63090045  0.30720794  0.76180676  1
  O  O33  1  0.10387803  0.82396372  0.75198704  1
  O  O34  1  0.87762559  0.18919342  0.24617032  1
  O  O35  1  0.37600515  0.68897264  0.24682176  1
  O  O36  1  0.59989099  0.53671126  0.74866005  1
  O  O37  1  0.82876186  0.34569098  0.74727256  1
  O  O38  1  0.31638547  0.84392508  0.74885683  1
  O  O39  1  0.76985560  0.55704558  0.06195643  1
  O  O40  1  0.76945847  0.55925343  0.43741636  1
  O  O41  1  0.64319225  0.78358373  0.75348346  1
  O  O42  1  0.51866672  0.93880913  0.25004853  1
  O  O43  1  0.97755369  0.56774756  0.75351014  1
  O  O44  1  0.85785465  0.71563167  0.24975526  1
  O  O45  1  0.73709219  0.93664926  0.56679768  1
  O  O46  1  0.73900693  0.94088894  0.93642999  1
  O  O47  1  0.90456272  0.96233912  0.25885234  1
