# generated using pymatgen
data_Li7Mn8O20
_symmetry_space_group_name_H-M   'P 1'
_cell_length_a   5.83622276
_cell_length_b   5.83570256
_cell_length_c   24.15667352
_cell_angle_alpha   97.30184744
_cell_angle_beta   90.32932720
_cell_angle_gamma   59.82919594
_symmetry_Int_Tables_number   1
_chemical_formula_structural   Li7Mn8O20
_chemical_formula_sum   'Li14 Mn16 O40'
_cell_volume   703.89241025
_cell_formula_units_Z   2
loop_
 _symmetry_equiv_pos_site_id
 _symmetry_equiv_pos_as_xyz
  1  'x, y, z'
loop_
 _atom_site_type_symbol
 _atom_site_label
 _atom_site_symmetry_multiplicity
 _atom_site_fract_x
 _atom_site_fract_y
 _atom_site_fract_z
 _atom_site_occupancy
  Li  Li0  1  0.65531698  0.70235187  0.04826919  1
  Li  Li1  1  0.60156316  0.80247446  0.19737528  1
  Li  Li2  1  0.99644460  0.99367281  0.99846177  1
  Li  Li3  1  0.24993564  0.50071384  0.25636018  1
  Li  Li4  1  0.52648995  0.94926183  0.42412118  1
  Li  Li5  1  0.92396426  0.15200637  0.22536516  1
  Li  Li6  1  0.20551063  0.59474132  0.39332772  1
  Li  Li7  1  0.84973876  0.30346450  0.45226672  1
  Li  Li8  1  0.79938196  0.39348428  0.60133159  1
  Li  Li9  1  0.92093193  0.65177927  0.72493630  1
  Li  Li10  1  0.06000606  0.90650392  0.84861981  1
  Li  Li11  1  0.45795684  0.10505213  0.65268672  1
  Li  Li12  1  0.38572368  0.19521794  0.80220733  1
  Li  Li13  1  0.52879135  0.44816569  0.92568267  1
  Mn  Mn14  1  0.32656237  0.34908180  0.02296410  1
  Mn  Mn15  1  0.12398694  0.75486332  0.12506388  1
  Mn  Mn16  1  0.12262017  0.25009614  0.12515817  1
  Mn  Mn17  1  0.62893497  0.24837070  0.12489926  1
  Mn  Mn18  1  0.72713355  0.54842169  0.32465461  1
  Mn  Mn19  1  0.82413419  0.84948936  0.52484770  1
  Mn  Mn20  1  0.22732515  0.04899642  0.32424167  1
  Mn  Mn21  1  0.32952375  0.84878916  0.52454072  1
  Mn  Mn22  1  0.72826637  0.04760566  0.32495615  1
  Mn  Mn23  1  0.12531601  0.74881287  0.62709485  1
  Mn  Mn24  1  0.33005027  0.34316156  0.52484328  1
  Mn  Mn25  1  0.42535578  0.64955886  0.72555940  1
  Mn  Mn26  1  0.52622835  0.95015436  0.92464951  1
  Mn  Mn27  1  0.72408844  0.55177564  0.82500592  1
  Mn  Mn28  1  0.92443922  0.15039247  0.72578343  1
  Mn  Mn29  1  0.02392709  0.45023595  0.92456070  1
  O  O30  1  0.79211086  0.95876406  0.16621999  1
  O  O31  1  0.25307168  0.95827699  0.16621342  1
  O  O32  1  0.01138678  0.53284155  0.07775161  1
  O  O33  1  0.45645235  0.53164102  0.07626888  1
  O  O34  1  0.05929919  0.88156678  0.28220845  1
  O  O35  1  0.45362987  0.08855467  0.07773440  1
  O  O36  1  0.27886920  0.44646653  0.16692567  1
  O  O37  1  0.97301610  0.05470655  0.08180285  1
  O  O38  1  0.78803842  0.42247067  0.16574558  1
  O  O39  1  0.57565228  0.85198148  0.28094369  1
  O  O40  1  0.39351663  0.75882846  0.36680444  1
  O  O41  1  0.85136166  0.75802764  0.36727118  1
  O  O42  1  0.05935756  0.33838765  0.28179663  1
  O  O43  1  0.60262122  0.33839994  0.28265358  1
  O  O44  1  0.66243010  0.67949325  0.48345398  1
  O  O45  1  0.88098122  0.24508641  0.36835829  1
  O  O46  1  0.17467092  0.65080600  0.48273503  1
  O  O47  1  0.39433549  0.21534267  0.36689104  1
  O  O48  1  0.99668495  0.56540055  0.57352984  1
  O  O49  1  0.44108971  0.56606302  0.57217973  1
  O  O50  1  0.25976917  0.93723262  0.67810879  1
  O  O51  1  0.66298231  0.14097769  0.48401272  1
  O  O52  1  0.20002774  0.14095033  0.48343503  1
  O  O53  1  0.81649929  0.94578042  0.67416662  1
  O  O54  1  0.47998101  0.04302960  0.56809878  1
  O  O55  1  0.27568129  0.48700766  0.67379245  1
  O  O56  1  0.08871759  0.85466597  0.76652761  1
  O  O57  1  0.99907725  0.00812575  0.57218048  1
  O  O58  1  0.75894693  0.44051841  0.68324752  1
  O  O59  1  0.57401882  0.81181984  0.77485147  1
  O  O60  1  0.58867220  0.36327097  0.77300961  1
  O  O61  1  0.03313176  0.35330310  0.77480970  1
  O  O62  1  0.41493306  0.75164151  0.87516517  1
  O  O63  1  0.86113704  0.73784824  0.87733027  1
  O  O64  1  0.87220061  0.29140719  0.87506293  1
  O  O65  1  0.69045683  0.65902004  0.96686601  1
  O  O66  1  0.36084969  0.24644640  0.88390640  1
  O  O67  1  0.17541895  0.61134950  0.97637870  1
  O  O68  1  0.19040003  0.16236882  0.97205133  1
  O  O69  1  0.63643880  0.15160285  0.97633914  1
