# generated using pymatgen
data_Lu2GeO5
_symmetry_space_group_name_H-M   'P 1'
_cell_length_a   10.16068817
_cell_length_b   3.62709544
_cell_length_c   10.95593233
_cell_angle_alpha   90.00000000
_cell_angle_beta   90.00000000
_cell_angle_gamma   90.00000000
_symmetry_Int_Tables_number   1
_chemical_formula_structural   Lu2GeO5
_chemical_formula_sum   'Lu8 Ge4 O20'
_cell_volume   403.76758255
_cell_formula_units_Z   4
loop_
 _symmetry_equiv_pos_site_id
 _symmetry_equiv_pos_as_xyz
  1  'x, y, z'
loop_
 _atom_site_type_symbol
 _atom_site_label
 _atom_site_symmetry_multiplicity
 _atom_site_fract_x
 _atom_site_fract_y
 _atom_site_fract_z
 _atom_site_occupancy
  Lu  Lu0  1  0.11108154  0.25000000  0.77547821  1
  Lu  Lu1  1  0.13410448  0.25000000  0.43918409  1
  Lu  Lu2  1  0.36589552  0.75000000  0.93918409  1
  Lu  Lu3  1  0.38891846  0.75000000  0.27547821  1
  Lu  Lu4  1  0.61108154  0.25000000  0.72452179  1
  Lu  Lu5  1  0.63410448  0.25000000  0.06081591  1
  Lu  Lu6  1  0.86589552  0.75000000  0.56081591  1
  Lu  Lu7  1  0.88891846  0.75000000  0.22452179  1
  Ge  Ge8  1  0.17563709  0.25000000  0.11537441  1
  Ge  Ge9  1  0.32436291  0.75000000  0.61537441  1
  Ge  Ge10  1  0.67563709  0.25000000  0.38462559  1
  Ge  Ge11  1  0.82436291  0.75000000  0.88462559  1
  O  O12  1  0.99193962  0.25000000  0.60431674  1
  O  O13  1  0.00816329  0.25000000  0.15622336  1
  O  O14  1  0.23888106  0.75000000  0.11168479  1
  O  O15  1  0.24084321  0.75000000  0.76588991  1
  O  O16  1  0.22398767  0.25000000  0.95458295  1
  O  O17  1  0.27601233  0.75000000  0.45458295  1
  O  O18  1  0.25915679  0.25000000  0.26588991  1
  O  O19  1  0.26111894  0.25000000  0.61168479  1
  O  O20  1  0.49183671  0.75000000  0.65622336  1
  O  O21  1  0.50806038  0.75000000  0.10431674  1
  O  O22  1  0.49193962  0.25000000  0.89568326  1
  O  O23  1  0.50816329  0.25000000  0.34377664  1
  O  O24  1  0.73888106  0.75000000  0.38831521  1
  O  O25  1  0.74084321  0.75000000  0.73411009  1
  O  O26  1  0.72398767  0.25000000  0.54541705  1
  O  O27  1  0.77601233  0.75000000  0.04541705  1
  O  O28  1  0.75915679  0.25000000  0.23411009  1
  O  O29  1  0.76111894  0.25000000  0.88831521  1
  O  O30  1  0.99183671  0.75000000  0.84377664  1
  O  O31  1  0.00806038  0.75000000  0.39568326  1
