# generated using pymatgen
data_Li3V4(PO4)6
_symmetry_space_group_name_H-M   'P 1'
_cell_length_a   8.74295682
_cell_length_b   8.65681997
_cell_length_c   8.64059944
_cell_angle_alpha   89.55477530
_cell_angle_beta   60.49521769
_cell_angle_gamma   59.16107268
_symmetry_Int_Tables_number   1
_chemical_formula_structural   Li3V4(PO4)6
_chemical_formula_sum   'Li3 V4 P6 O24'
_cell_volume   461.74696160
_cell_formula_units_Z   1
loop_
 _symmetry_equiv_pos_site_id
 _symmetry_equiv_pos_as_xyz
  1  'x, y, z'
loop_
 _atom_site_type_symbol
 _atom_site_label
 _atom_site_symmetry_multiplicity
 _atom_site_fract_x
 _atom_site_fract_y
 _atom_site_fract_z
 _atom_site_occupancy
  Li  Li0  1  0.63612533  0.70534772  0.10866302  1
  Li  Li1  1  0.39139153  0.66155656  0.64285884  1
  Li  Li2  1  0.37509781  0.18326971  0.96840137  1
  V  V3  1  0.20371865  0.86751097  0.15434464  1
  V  V4  1  0.21889337  0.36142870  0.63766290  1
  V  V5  1  0.79502676  0.63273730  0.35701898  1
  V  V6  1  0.79414663  0.13449215  0.84952544  1
  P  P7  1  0.27572869  0.96511698  0.47428496  1
  P  P8  1  0.28329651  0.45928797  0.24824744  1
  P  P9  1  0.00059380  0.24929541  0.03549800  1
  P  P10  1  0.72074512  0.53645676  0.75607136  1
  P  P11  1  0.00165290  0.75299732  0.95738017  1
  P  P12  1  0.72095904  0.03775091  0.53030734  1
  O  O13  1  0.31710059  0.92358643  0.27713823  1
  O  O14  1  0.08582078  0.96197154  0.62485657  1
  O  O15  1  0.24792517  0.65225222  0.22893068  1
  O  O16  1  0.10210087  0.45168762  0.27067414  1
  O  O17  1  0.47619362  0.79172842  0.45612286  1
  O  O18  1  0.17323027  0.08022893  0.05929240  1
  O  O19  1  0.48685429  0.29476063  0.06278607  1
  O  O20  1  0.12987393  0.80337315  0.99216845  1
  O  O21  1  0.86543551  0.70271075  0.11369104  1
  O  O22  1  0.30668847  0.43547093  0.41283597  1
  O  O23  1  0.17834216  0.58770647  0.76538635  1
  O  O24  1  0.76223426  0.84613912  0.48215869  1
  O  O25  1  0.24757779  0.15160438  0.51712437  1
  O  O26  1  0.82325380  0.42365206  0.21577359  1
  O  O27  1  0.67323451  0.57973113  0.60542348  1
  O  O28  1  0.14229094  0.29765280  0.87766083  1
  O  O29  1  0.88991347  0.18806639  0.98811934  1
  O  O30  1  0.52964643  0.69459479  0.94853552  1
  O  O31  1  0.83409786  0.92373702  0.93510345  1
  O  O32  1  0.51222659  0.20520366  0.55096379  1
  O  O33  1  0.91917695  0.52686806  0.71744319  1
  O  O34  1  0.75819290  0.34334567  0.76562588  1
  O  O35  1  0.91127734  0.04028149  0.37833427  1
  O  O36  1  0.67358538  0.08449090  0.72885240  1
