# generated using pymatgen
data_WO2F
_symmetry_space_group_name_H-M   'P 1'
_cell_length_a   5.64194734
_cell_length_b   5.51919389
_cell_length_c   13.82860724
_cell_angle_alpha   90.67224150
_cell_angle_beta   92.78841311
_cell_angle_gamma   61.47970436
_symmetry_Int_Tables_number   1
_chemical_formula_structural   WO2F
_chemical_formula_sum   'W6 O12 F6'
_cell_volume   377.87337593
_cell_formula_units_Z   6
loop_
 _symmetry_equiv_pos_site_id
 _symmetry_equiv_pos_as_xyz
  1  'x, y, z'
loop_
 _atom_site_type_symbol
 _atom_site_label
 _atom_site_symmetry_multiplicity
 _atom_site_fract_x
 _atom_site_fract_y
 _atom_site_fract_z
 _atom_site_occupancy
  W  W0  1  0.66211105  0.67399736  0.33381362  1
  W  W1  1  0.98697773  0.01598461  0.50072006  1
  W  W2  1  0.29936448  0.36831292  0.66685469  1
  W  W3  1  0.33788895  0.32600264  0.16618638  1
  W  W4  1  0.70063552  0.63168708  0.83314531  1
  W  W5  1  0.01302227  0.98401539  0.99927994  1
  O  O6  1  0.83195731  0.32687210  0.42009648  1
  O  O7  1  0.50000000  0.00000000  0.25000000  1
  O  O8  1  0.85426229  0.30123462  0.91712961  1
  O  O9  1  0.82112124  0.82831678  0.41676512  1
  O  O10  1  0.17887876  0.17168322  0.08323488  1
  O  O11  1  0.17243696  0.17951883  0.58517709  1
  O  O12  1  0.50000000  0.50000000  0.25000000  1
  O  O13  1  0.82756304  0.82048117  0.91482291  1
  O  O14  1  0.50000000  0.50000000  0.75000000  1
  O  O15  1  0.16804269  0.67312790  0.07990352  1
  O  O16  1  0.14573771  0.69876538  0.58287039  1
  O  O17  1  0.00000000  0.50000000  0.75000000  1
  F  F18  1  0.50000000  0.00000000  0.75000000  1
  F  F19  1  0.67670662  0.16433852  0.08460556  1
  F  F20  1  0.65689162  0.18626566  0.58406539  1
  F  F21  1  0.00000000  0.50000000  0.25000000  1
  F  F22  1  0.34310838  0.81373434  0.91593461  1
  F  F23  1  0.32329338  0.83566148  0.41539444  1
