# generated using pymatgen
data_V5BiO10
_symmetry_space_group_name_H-M   'P 1'
_cell_length_a   10.03626106
_cell_length_b   10.43381575
_cell_length_c   10.04209929
_cell_angle_alpha   60.99135974
_cell_angle_beta   89.97245860
_cell_angle_gamma   61.41564703
_symmetry_Int_Tables_number   1
_chemical_formula_structural   V5BiO10
_chemical_formula_sum   'V20 Bi4 O40'
_cell_volume   769.97742308
_cell_formula_units_Z   4
loop_
 _symmetry_equiv_pos_site_id
 _symmetry_equiv_pos_as_xyz
  1  'x, y, z'
loop_
 _atom_site_type_symbol
 _atom_site_label
 _atom_site_symmetry_multiplicity
 _atom_site_fract_x
 _atom_site_fract_y
 _atom_site_fract_z
 _atom_site_occupancy
  V  V0  1  0.04321017  0.19802820  0.56936618  1
  V  V1  1  0.17017907  0.99693345  0.35665581  1
  V  V2  1  0.23001650  0.20235420  0.03985682  1
  V  V3  1  0.03317750  0.59572132  0.84730317  1
  V  V4  1  0.35532885  0.99638822  0.83185920  1
  V  V5  1  0.15307209  0.39947589  0.62831619  1
  V  V6  1  0.44450451  0.40444794  0.96660549  1
  V  V7  1  0.64389159  0.00486044  0.16568493  1
  V  V8  1  0.24619641  0.79842718  0.76964776  1
  V  V9  1  0.36730564  0.59814766  0.55262932  1
  V  V10  1  0.56998298  0.20270047  0.75115247  1
  V  V11  1  0.43015568  0.80316824  0.24452308  1
  V  V12  1  0.83304383  0.99320145  0.64372200  1
  V  V13  1  0.63131362  0.39636152  0.44678326  1
  V  V14  1  0.55721130  0.60229475  0.03003999  1
  V  V15  1  0.75220057  0.20798246  0.22619542  1
  V  V16  1  0.84431443  0.59320007  0.37265492  1
  V  V17  1  0.96798298  0.39961807  0.15320648  1
  V  V18  1  0.76839191  0.80414167  0.95704280  1
  V  V19  1  0.94873839  0.80261327  0.42877615  1
  Bi  Bi20  1  0.41380525  0.17858361  0.41055842  1
  Bi  Bi21  1  0.19316283  0.62105405  0.19071842  1
  Bi  Bi22  1  0.98792309  0.03519704  0.98740452  1
  Bi  Bi23  1  0.61056337  0.76632681  0.61597462  1
  O  O24  1  0.14919273  0.00432782  0.80474507  1
  O  O25  1  0.16511330  0.00324532  0.54377871  1
  O  O26  1  0.18659064  0.00841414  0.14469190  1
  O  O27  1  0.00215814  0.60916870  0.04212645  1
  O  O28  1  0.20942703  0.18481356  0.25455433  1
  O  O29  1  0.23489005  0.20420796  0.85798315  1
  O  O30  1  0.03952048  0.59588916  0.66357338  1
  O  O31  1  0.04681612  0.60132810  0.39451064  1
  O  O32  1  0.24870083  0.19737388  0.59560903  1
  O  O33  1  0.25559766  0.40063935  0.97172940  1
  O  O34  1  0.45093340  0.00523906  0.15934153  1
  O  O35  1  0.05058750  0.80088775  0.76260308  1
  O  O36  1  0.13904153  0.81399006  0.42982490  1
  O  O37  1  0.33716750  0.39327887  0.63697268  1
  O  O38  1  0.54738488  0.00500600  0.83497262  1
  O  O39  1  0.35034965  0.60008771  0.00881547  1
  O  O40  1  0.55106473  0.20551874  0.20755120  1
  O  O41  1  0.36408345  0.58710326  0.75050870  1
  O  O42  1  0.55646566  0.21058362  0.93896390  1
  O  O43  1  0.59667397  0.18921973  0.55234276  1
  O  O44  1  0.39215473  0.60347645  0.34780234  1
  O  O45  1  0.40423684  0.80424672  0.44945147  1
  O  O46  1  0.59960857  0.38510484  0.64800849  1
  O  O47  1  0.80193691  0.00420171  0.84219069  1
  O  O48  1  0.43953315  0.79464410  0.05455118  1
  O  O49  1  0.82816250  0.00576174  0.45684564  1
  O  O50  1  0.63825127  0.40332400  0.25198856  1
  O  O51  1  0.63642370  0.40522177  0.00332081  1
  O  O52  1  0.45569058  0.78975331  0.79432271  1
  O  O53  1  0.84433783  0.00960922  0.18994964  1
  O  O54  1  0.86406438  0.19058804  0.56778856  1
  O  O55  1  0.66429375  0.59777037  0.36573060  1
  O  O56  1  0.73945989  0.60744949  0.03318875  1
  O  O57  1  0.94029166  0.19299764  0.24237476  1
  O  O58  1  0.96530840  0.39616878  0.59957524  1
  O  O59  1  0.75220857  0.79648612  0.40322955  1
  O  O60  1  0.96648962  0.39606313  0.34884642  1
  O  O61  1  0.76887206  0.79361652  0.14198638  1
  O  O62  1  0.00678097  0.39945279  0.96096662  1
  O  O63  1  0.79693682  0.79679147  0.75596530  1
