# generated using pymatgen
data_Na13Ni11O24
_symmetry_space_group_name_H-M   'P 1'
_cell_length_a   8.12968635
_cell_length_b   8.21773011
_cell_length_c   9.04936903
_cell_angle_alpha   72.80200819
_cell_angle_beta   77.53918882
_cell_angle_gamma   111.59197869
_symmetry_Int_Tables_number   1
_chemical_formula_structural   Na13Ni11O24
_chemical_formula_sum   'Na13 Ni11 O24'
_cell_volume   499.87233643
_cell_formula_units_Z   1
loop_
 _symmetry_equiv_pos_site_id
 _symmetry_equiv_pos_as_xyz
  1  'x, y, z'
loop_
 _atom_site_type_symbol
 _atom_site_label
 _atom_site_symmetry_multiplicity
 _atom_site_fract_x
 _atom_site_fract_y
 _atom_site_fract_z
 _atom_site_occupancy
  Na  Na0  1  0.57978720  0.96658930  0.12067841  1
  Na  Na1  1  0.75198071  0.87291753  0.37258157  1
  Na  Na2  1  0.91767205  0.79311763  0.63299751  1
  Na  Na3  1  0.83352318  0.58294457  0.25022499  1
  Na  Na4  1  0.07795825  0.70421809  0.88021499  1
  Na  Na5  1  0.42044296  0.54357258  0.37107209  1
  Na  Na6  1  0.24577437  0.62282384  0.12924288  1
  Na  Na7  1  0.74901732  0.37359780  0.86685686  1
  Na  Na8  1  0.58902968  0.46242616  0.61964535  1
  Na  Na9  1  0.91460888  0.29401423  0.12789811  1
  Na  Na10  1  0.24825677  0.12269154  0.62884784  1
  Na  Na11  1  0.41872754  0.04391504  0.87087712  1
  Na  Na12  1  0.08651833  0.20046331  0.37931040  1
  Ni  Ni13  1  0.16520234  0.91498525  0.25200498  1
  Ni  Ni14  1  0.49929967  0.74998069  0.74877467  1
  Ni  Ni15  1  0.33602863  0.83405309  0.49912609  1
  Ni  Ni16  1  0.66210950  0.66686525  0.99644193  1
  Ni  Ni17  1  0.16727116  0.41670575  0.75117128  1
  Ni  Ni18  1  0.00458244  0.49975125  0.50331358  1
  Ni  Ni19  1  0.50146196  0.25170465  0.24797734  1
  Ni  Ni20  1  0.83330000  0.08339634  0.74995343  1
  Ni  Ni21  1  0.67109934  0.16895736  0.49859157  1
  Ni  Ni22  1  0.33057692  0.33254477  0.00094698  1
  Ni  Ni23  1  0.99557284  0.99775710  0.00129917  1
  O  O24  1  0.77136097  0.99620226  0.58357130  1
  O  O25  1  0.94114911  0.91514005  0.83001921  1
  O  O26  1  0.39666813  0.92034296  0.66568854  1
  O  O27  1  0.55794841  0.83609148  0.91548245  1
  O  O28  1  0.91816368  0.68813321  0.43316105  1
  O  O29  1  0.72184667  0.77901545  0.14795254  1
  O  O30  1  0.12063776  0.84705708  0.07174636  1
  O  O31  1  0.60045985  0.57923278  0.83007878  1
  O  O32  1  0.44118987  0.66408562  0.57986872  1
  O  O33  1  0.27658336  0.75061514  0.32969922  1
  O  O34  1  0.94669418  0.38907117  0.35116631  1
  O  O35  1  0.74852454  0.47864327  0.06678092  1
  O  O36  1  0.06608775  0.58733683  0.66989770  1
  O  O37  1  0.22545678  0.50231806  0.92022810  1
  O  O38  1  0.72555598  0.25160468  0.67014807  1
  O  O39  1  0.54600232  0.31967953  0.42822848  1
  O  O40  1  0.39027278  0.41622403  0.17030644  1
  O  O41  1  0.89514909  0.17032507  0.91649384  1
  O  O42  1  0.10873391  0.33052862  0.58457436  1
  O  O43  1  0.26878200  0.24515607  0.83500792  1
  O  O44  1  0.42908647  0.15861791  0.08576542  1
  O  O45  1  0.60929077  0.08489599  0.32943097  1
  O  O46  1  0.23745475  0.00813232  0.41418985  1
  O  O47  1  0.05709881  0.08155426  0.17046430  1
