# generated using pymatgen
data_Na3BiBPO7
_symmetry_space_group_name_H-M   'P 1'
_cell_length_a   9.31541792
_cell_length_b   7.15139776
_cell_length_c   5.41038362
_cell_angle_alpha   90.00000000
_cell_angle_beta   91.07186822
_cell_angle_gamma   90.00000000
_symmetry_Int_Tables_number   1
_chemical_formula_structural   Na3BiBPO7
_chemical_formula_sum   'Na6 Bi2 B2 P2 O14'
_cell_volume   360.36726702
_cell_formula_units_Z   2
loop_
 _symmetry_equiv_pos_site_id
 _symmetry_equiv_pos_as_xyz
  1  'x, y, z'
loop_
 _atom_site_type_symbol
 _atom_site_label
 _atom_site_symmetry_multiplicity
 _atom_site_fract_x
 _atom_site_fract_y
 _atom_site_fract_z
 _atom_site_occupancy
  Na  Na0  1  0.07076876  0.25000000  0.75706819  1
  Na  Na1  1  0.24172989  0.00749400  0.24909112  1
  Na  Na2  1  0.24172989  0.49250600  0.24909112  1
  Na  Na3  1  0.75827011  0.50749400  0.75090888  1
  Na  Na4  1  0.75827011  0.99250600  0.75090888  1
  Na  Na5  1  0.92923124  0.75000000  0.24293181  1
  Bi  Bi6  1  0.34793254  0.75000000  0.77057868  1
  Bi  Bi7  1  0.65206746  0.25000000  0.22942132  1
  B  B8  1  0.05780289  0.75000000  0.73376546  1
  B  B9  1  0.94219711  0.25000000  0.26623454  1
  P  P10  1  0.40354550  0.25000000  0.70364456  1
  P  P11  1  0.59645450  0.75000000  0.29635544  1
  O  O12  1  0.08591155  0.25000000  0.28330486  1
  O  O13  1  0.13539696  0.75000000  0.96350590  1
  O  O14  1  0.14702448  0.75000000  0.52336035  1
  O  O15  1  0.31986892  0.07786146  0.80708039  1
  O  O16  1  0.31986892  0.42213854  0.80708039  1
  O  O17  1  0.39816939  0.25000000  0.41784587  1
  O  O18  1  0.43412166  0.75000000  0.21181737  1
  O  O19  1  0.56587834  0.25000000  0.78818263  1
  O  O20  1  0.60183061  0.75000000  0.58215413  1
  O  O21  1  0.68013108  0.57786146  0.19291961  1
  O  O22  1  0.68013108  0.92213854  0.19291961  1
  O  O23  1  0.85297552  0.25000000  0.47663965  1
  O  O24  1  0.86460304  0.25000000  0.03649410  1
  O  O25  1  0.91408845  0.75000000  0.71669514  1
