# generated using pymatgen
data_Na2NiPCO7
_symmetry_space_group_name_H-M   'P 1'
_cell_length_a   10.09848337
_cell_length_b   10.32168656
_cell_length_c   6.66640146
_cell_angle_alpha   90.48000217
_cell_angle_beta   90.24369372
_cell_angle_gamma   60.59041315
_symmetry_Int_Tables_number   1
_chemical_formula_structural   Na2NiPCO7
_chemical_formula_sum   'Na8 Ni4 P4 C4 O28'
_cell_volume   605.29465203
_cell_formula_units_Z   4
loop_
 _symmetry_equiv_pos_site_id
 _symmetry_equiv_pos_as_xyz
  1  'x, y, z'
loop_
 _atom_site_type_symbol
 _atom_site_label
 _atom_site_symmetry_multiplicity
 _atom_site_fract_x
 _atom_site_fract_y
 _atom_site_fract_z
 _atom_site_occupancy
  Na  Na0  1  0.00721517  0.25988126  0.48177447  1
  Na  Na1  1  0.00575300  0.26060284  0.01704388  1
  Na  Na2  1  0.48873377  0.25360569  0.98984962  1
  Na  Na3  1  0.49070462  0.25012477  0.51309891  1
  Na  Na4  1  0.85620124  0.05533269  0.73635696  1
  Na  Na5  1  0.50571228  0.74955453  0.01048566  1
  Na  Na6  1  0.50516476  0.74964869  0.48783286  1
  Na  Na7  1  0.99965558  0.73428372  0.97976619  1
  Ni  Ni8  1  0.28327494  0.06412108  0.75073810  1
  Ni  Ni9  1  0.21499224  0.43911925  0.25571338  1
  Ni  Ni10  1  0.78627328  0.56117613  0.74966063  1
  Ni  Ni11  1  0.71954888  0.93562544  0.25367564  1
  P  P12  1  0.35041490  0.07007787  0.24995522  1
  P  P13  1  0.15067874  0.43010280  0.75111001  1
  P  P14  1  0.85026074  0.57311793  0.25096736  1
  P  P15  1  0.64590155  0.93385836  0.74993538  1
  C  C16  1  0.82119116  0.10988398  0.24738123  1
  C  C17  1  0.32037682  0.60790531  0.25070008  1
  C  C18  1  0.68043411  0.38776529  0.74980665  1
  C  C19  1  0.18033886  0.89188942  0.75246711  1
  O  O20  1  0.09763180  0.03758976  0.74833475  1
  O  O21  1  0.26664600  0.05710778  0.06367724  1
  O  O22  1  0.26764276  0.05858103  0.43673029  1
  O  O23  1  0.14312662  0.28299467  0.75256640  1
  O  O24  1  0.01905194  0.44133424  0.25034514  1
  O  O25  1  0.47650778  0.06530237  0.75745017  1
  O  O26  1  0.35548180  0.21810465  0.24969716  1
  O  O27  1  0.23341582  0.44383375  0.93858708  1
  O  O28  1  0.23607467  0.43666996  0.56500587  1
  O  O29  1  0.67573033  0.15437573  0.25033800  1
  O  O30  1  0.17602223  0.65295787  0.24965557  1
  O  O31  1  0.40325388  0.46363622  0.25477569  1
  O  O32  1  0.62613924  0.29998421  0.75194514  1
  O  O33  1  0.11889358  0.81257449  0.75974932  1
  O  O34  1  0.87382977  0.19784595  0.24770176  1
  O  O35  1  0.37571079  0.69314097  0.24801804  1
  O  O36  1  0.59870254  0.53090466  0.74934430  1
  O  O37  1  0.82708738  0.33648234  0.74778893  1
  O  O38  1  0.32555815  0.84422688  0.74903426  1
  O  O39  1  0.76934746  0.55373799  0.06463716  1
  O  O40  1  0.76873878  0.55824380  0.43701760  1
  O  O41  1  0.64293088  0.78641501  0.74847039  1
  O  O42  1  0.51884764  0.93936688  0.24887825  1
  O  O43  1  0.98261260  0.55775508  0.75588925  1
  O  O44  1  0.85424235  0.71972571  0.24393973  1
  O  O45  1  0.71893500  0.96004434  0.56324015  1
  O  O46  1  0.73231432  0.94937574  0.93296567  1
  O  O47  1  0.90550527  0.96688286  0.24605238  1
