# generated using pymatgen
data_Mn2CoO4
_symmetry_space_group_name_H-M   'P 1'
_cell_length_a   6.19745385
_cell_length_b   6.16440132
_cell_length_c   8.27075887
_cell_angle_alpha   89.58924876
_cell_angle_beta   89.91114184
_cell_angle_gamma   83.98382992
_symmetry_Int_Tables_number   1
_chemical_formula_structural   Mn2CoO4
_chemical_formula_sum   'Mn8 Co4 O16'
_cell_volume   314.22426155
_cell_formula_units_Z   4
loop_
 _symmetry_equiv_pos_site_id
 _symmetry_equiv_pos_as_xyz
  1  'x, y, z'
loop_
 _atom_site_type_symbol
 _atom_site_label
 _atom_site_symmetry_multiplicity
 _atom_site_fract_x
 _atom_site_fract_y
 _atom_site_fract_z
 _atom_site_occupancy
  Mn  Mn0  1  0.99440822  0.99895085  0.99589219  1
  Mn  Mn1  1  0.74931749  0.50550990  0.12288117  1
  Mn  Mn2  1  0.74358660  0.99182324  0.62433806  1
  Mn  Mn3  1  0.25554325  0.50555620  0.12555029  1
  Mn  Mn4  1  0.99921142  0.25144492  0.37692107  1
  Mn  Mn5  1  0.25110242  0.99617352  0.62649323  1
  Mn  Mn6  1  0.49847634  0.25123617  0.87336230  1
  Mn  Mn7  1  0.00074229  0.74848373  0.37709884  1
  Co  Co8  1  0.49867683  0.99857231  0.24853247  1
  Co  Co9  1  0.50144419  0.50125170  0.50156099  1
  Co  Co10  1  0.50050418  0.74932558  0.87332543  1
  Co  Co11  1  0.00431824  0.50144428  0.75327453  1
  O  O12  1  0.76587058  0.99176518  0.38611476  1
  O  O13  1  0.00933479  0.72928843  0.14084189  1
  O  O14  1  0.49060047  0.26662656  0.10954418  1
  O  O15  1  0.00797429  0.23288626  0.61835492  1
  O  O16  1  0.50831262  0.73658373  0.10912838  1
  O  O17  1  0.76484888  0.49230294  0.36354831  1
  O  O18  1  0.99314393  0.27342521  0.13683730  1
  O  O19  1  0.50991201  0.23338821  0.63768491  1
  O  O20  1  0.23619875  0.50692825  0.36539048  1
  O  O21  1  0.27246711  0.99209552  0.86084065  1
  O  O22  1  0.23305047  0.00928570  0.38730060  1
  O  O23  1  0.73491211  0.50708477  0.88576873  1
  O  O24  1  0.49127690  0.76295276  0.63832401  1
  O  O25  1  0.70792165  0.97688945  0.86360654  1
  O  O26  1  0.99096945  0.76639101  0.61419242  1
  O  O27  1  0.28587351  0.52233463  0.88329034  1
