# generated using pymatgen
data_Th5OF19
_symmetry_space_group_name_H-M   'P 1'
_cell_length_a   7.34220717
_cell_length_b   8.30216210
_cell_length_c   12.44546857
_cell_angle_alpha   90.00000000
_cell_angle_beta   107.15604330
_cell_angle_gamma   90.00000000
_symmetry_Int_Tables_number   1
_chemical_formula_structural   Th5OF19
_chemical_formula_sum   'Th10 O2 F38'
_cell_volume   724.87318571
_cell_formula_units_Z   2
loop_
 _symmetry_equiv_pos_site_id
 _symmetry_equiv_pos_as_xyz
  1  'x, y, z'
loop_
 _atom_site_type_symbol
 _atom_site_label
 _atom_site_symmetry_multiplicity
 _atom_site_fract_x
 _atom_site_fract_y
 _atom_site_fract_z
 _atom_site_occupancy
  Th  Th0  1  0.13244204  0.25000000  0.00000000  1
  Th  Th1  1  0.86755796  0.75000000  1.00000000  1
  Th  Th2  1  0.20985113  0.25000000  0.38735101  1
  Th  Th3  1  0.79014887  0.75000000  0.61264899  1
  Th  Th4  1  0.82250012  0.25000000  0.61264899  1
  Th  Th5  1  0.17749988  0.75000000  0.38735101  1
  Th  Th6  1  0.36703882  0.00000000  0.73407764  1
  Th  Th7  1  0.63296118  0.00000000  0.26592236  1
  Th  Th8  1  0.63296118  0.50000000  0.26592236  1
  Th  Th9  1  0.36703882  0.50000000  0.73407764  1
  O  O10  1  0.83405562  0.25000000  1.00000000  1
  O  O11  1  0.16594438  0.75000000  0.00000000  1
  F  F12  1  0.66106392  0.01293403  0.66731052  1
  F  F13  1  0.33893608  0.98706597  0.33268948  1
  F  F14  1  0.33893608  0.51293403  0.33268948  1
  F  F15  1  0.99375340  0.48706597  0.33268948  1
  F  F16  1  0.66106392  0.48706597  0.66731052  1
  F  F17  1  0.00624660  0.51293403  0.66731052  1
  F  F18  1  0.00624660  0.98706597  0.66731052  1
  F  F19  1  0.99375340  0.01293403  0.33268948  1
  F  F20  1  0.48876333  0.25000000  0.53831194  1
  F  F21  1  0.51123667  0.75000000  0.46168806  1
  F  F22  1  0.95045140  0.25000000  0.46168806  1
  F  F23  1  0.04954860  0.75000000  0.53831194  1
  F  F24  1  -0.00000000  -0.00000000  -0.00000000  1
  F  F25  1  -0.00000000  0.50000000  -0.00000000  1
  F  F26  1  0.26252429  -0.00000000  0.52504858  1
  F  F27  1  0.73747571  0.00000000  0.47495142  1
  F  F28  1  0.73747571  0.50000000  0.47495142  1
  F  F29  1  0.26252429  0.50000000  0.52504858  1
  F  F30  1  0.13530464  0.25000000  0.20499405  1
  F  F31  1  0.86469536  0.75000000  0.79500595  1
  F  F32  1  0.93031060  0.25000000  0.79500595  1
  F  F33  1  0.06968940  0.75000000  0.20499405  1
  F  F34  1  0.39035812  0.08442623  0.12167889  1
  F  F35  1  0.60964188  0.91557377  0.87832111  1
  F  F36  1  0.60964188  0.58442623  0.87832111  1
  F  F37  1  0.26867924  0.41557377  0.87832111  1
  F  F38  1  0.39035812  0.41557377  0.12167889  1
  F  F39  1  0.73132076  0.58442623  0.12167889  1
  F  F40  1  0.73132076  0.91557377  0.12167889  1
  F  F41  1  0.26867924  0.08442623  0.87832111  1
  F  F42  1  0.52087726  0.25000000  0.77080216  1
  F  F43  1  0.47912274  0.75000000  0.22919784  1
  F  F44  1  0.75007511  0.25000000  0.22919784  1
  F  F45  1  0.24992489  0.75000000  0.77080216  1
  F  F46  1  0.51837313  0.25000000  0.33931591  1
  F  F47  1  0.48162687  0.75000000  0.66068409  1
  F  F48  1  0.17905722  0.25000000  0.66068409  1
  F  F49  1  0.82094278  0.75000000  0.33931591  1
