# generated using pymatgen
data_Li4Fe(BO3)2
_symmetry_space_group_name_H-M   'P 1'
_cell_length_a   9.29334550
_cell_length_b   7.87050885
_cell_length_c   3.35973056
_cell_angle_alpha   90.00000000
_cell_angle_beta   90.00000000
_cell_angle_gamma   90.00000000
_symmetry_Int_Tables_number   1
_chemical_formula_structural   Li4Fe(BO3)2
_chemical_formula_sum   'Li8 Fe2 B4 O12'
_cell_volume   245.74197515
_cell_formula_units_Z   2
loop_
 _symmetry_equiv_pos_site_id
 _symmetry_equiv_pos_as_xyz
  1  'x, y, z'
loop_
 _atom_site_type_symbol
 _atom_site_label
 _atom_site_symmetry_multiplicity
 _atom_site_fract_x
 _atom_site_fract_y
 _atom_site_fract_z
 _atom_site_occupancy
  Li  Li0  1  0.05290134  0.17685864  0.50000000  1
  Li  Li1  1  0.19924308  0.00991651  0.00000000  1
  Li  Li2  1  0.30075692  0.50991651  0.50000000  1
  Li  Li3  1  0.44709866  0.67685864  0.00000000  1
  Li  Li4  1  0.55290134  0.32314136  0.00000000  1
  Li  Li5  1  0.69924308  0.49008349  0.50000000  1
  Li  Li6  1  0.80075692  0.99008349  0.00000000  1
  Li  Li7  1  0.94709866  0.82314136  0.50000000  1
  Fe  Fe8  1  0.00000000  0.50000000  0.00000000  1
  Fe  Fe9  1  0.50000000  0.00000000  0.50000000  1
  B  B10  1  0.20237767  0.77078790  0.50000000  1
  B  B11  1  0.29762233  0.27078790  0.00000000  1
  B  B12  1  0.70237767  0.72921210  0.00000000  1
  B  B13  1  0.79762233  0.22921210  0.50000000  1
  O  O14  1  0.11569108  0.62138727  0.50000000  1
  O  O15  1  0.14843377  0.25661599  0.00000000  1
  O  O16  1  0.13658589  0.92619326  0.50000000  1
  O  O17  1  0.36341411  0.42619326  0.00000000  1
  O  O18  1  0.35156623  0.75661599  0.50000000  1
  O  O19  1  0.38430892  0.12138727  0.00000000  1
  O  O20  1  0.61569108  0.87861273  0.00000000  1
  O  O21  1  0.64843377  0.24338401  0.50000000  1
  O  O22  1  0.63658589  0.57380674  0.00000000  1
  O  O23  1  0.86341411  0.07380674  0.50000000  1
  O  O24  1  0.85156623  0.74338401  0.00000000  1
  O  O25  1  0.88430892  0.37861273  0.50000000  1
