# generated using pymatgen
data_KFePCO7
_symmetry_space_group_name_H-M   'P 1'
_cell_length_a   10.03121988
_cell_length_b   6.43915623
_cell_length_c   5.44588633
_cell_angle_alpha   90.00000000
_cell_angle_beta   88.73850556
_cell_angle_gamma   90.00000000
_symmetry_Int_Tables_number   1
_chemical_formula_structural   KFePCO7
_chemical_formula_sum   'K2 Fe2 P2 C2 O14'
_cell_volume   351.67865651
_cell_formula_units_Z   2
loop_
 _symmetry_equiv_pos_site_id
 _symmetry_equiv_pos_as_xyz
  1  'x, y, z'
loop_
 _atom_site_type_symbol
 _atom_site_label
 _atom_site_symmetry_multiplicity
 _atom_site_fract_x
 _atom_site_fract_y
 _atom_site_fract_z
 _atom_site_occupancy
  K  K0  1  0.24152890  0.42039597  0.24707872  1
  K  K1  1  0.75847110  0.92039597  0.75292128  1
  Fe  Fe2  1  0.36243070  0.77322981  0.78029184  1
  Fe  Fe3  1  0.63756930  0.27322981  0.21970816  1
  P  P4  1  0.43975985  0.26657882  0.72698377  1
  P  P5  1  0.56024015  0.76657882  0.27301623  1
  C  C6  1  0.11011037  0.74389128  0.72038073  1
  C  C7  1  0.88988963  0.24389128  0.27961927  1
  O  O8  1  0.01213727  0.21920861  0.31590342  1
  O  O9  1  0.16050643  0.75205437  0.93706598  1
  O  O10  1  0.19737823  0.76038060  0.54138719  1
  O  O11  1  0.34932356  0.07653717  0.77811194  1
  O  O12  1  0.35058982  0.45907735  0.77492342  1
  O  O13  1  0.43708549  0.76102329  0.10699567  1
  O  O14  1  0.48734693  0.26547373  0.45285056  1
  O  O15  1  0.51265307  0.76547373  0.54714944  1
  O  O16  1  0.56291451  0.26102329  0.89300433  1
  O  O17  1  0.64941018  0.95907735  0.22507658  1
  O  O18  1  0.65067644  0.57653717  0.22188806  1
  O  O19  1  0.80262177  0.26038060  0.45861281  1
  O  O20  1  0.83949357  0.25205437  0.06293402  1
  O  O21  1  0.98786273  0.71920861  0.68409658  1
