# generated using pymatgen
data_Li2Cr3BiO8
_symmetry_space_group_name_H-M   'P 1'
_cell_length_a   6.05787656
_cell_length_b   6.05787700
_cell_length_c   6.22909460
_cell_angle_alpha   60.90517103
_cell_angle_beta   119.09484136
_cell_angle_gamma   120.00000081
_symmetry_Int_Tables_number   1
_chemical_formula_structural   Li2Cr3BiO8
_chemical_formula_sum   'Li2 Cr3 Bi1 O8'
_cell_volume   163.81703718
_cell_formula_units_Z   1
loop_
 _symmetry_equiv_pos_site_id
 _symmetry_equiv_pos_as_xyz
  1  'x, y, z'
loop_
 _atom_site_type_symbol
 _atom_site_label
 _atom_site_symmetry_multiplicity
 _atom_site_fract_x
 _atom_site_fract_y
 _atom_site_fract_z
 _atom_site_occupancy
  Li  Li0  1  0.87336591  0.12663409  0.62009773  1
  Li  Li1  1  0.12663409  0.87336591  0.37990227  1
  Cr  Cr2  1  0.50000000  0.50000000  0.00000000  1
  Cr  Cr3  1  0.50000000  0.00000000  0.00000000  1
  Cr  Cr4  1  0.00000000  0.50000000  0.00000000  1
  Bi  Bi5  1  0.50000000  0.50000000  0.50000000  1
  O  O6  1  0.74691149  0.71881074  0.77501225  1
  O  O7  1  0.74691149  0.25308851  0.77501225  1
  O  O8  1  0.26720394  0.73279606  0.80161082  1
  O  O9  1  0.28118926  0.25308851  0.77501225  1
  O  O10  1  0.71881074  0.74691149  0.22498775  1
  O  O11  1  0.73279606  0.26720394  0.19838918  1
  O  O12  1  0.25308851  0.74691149  0.22498775  1
  O  O13  1  0.25308851  0.28118926  0.22498775  1
