# generated using pymatgen
data_Li2FePCO7
_symmetry_space_group_name_H-M   'P 1'
_cell_length_a   9.38609882
_cell_length_b   10.16284478
_cell_length_c   6.49422290
_cell_angle_alpha   90.00000000
_cell_angle_beta   90.00000000
_cell_angle_gamma   62.19374004
_symmetry_Int_Tables_number   1
_chemical_formula_structural   Li2FePCO7
_chemical_formula_sum   'Li8 Fe4 P4 C4 O28'
_cell_volume   547.94905144
_cell_formula_units_Z   4
loop_
 _symmetry_equiv_pos_site_id
 _symmetry_equiv_pos_as_xyz
  1  'x, y, z'
loop_
 _atom_site_type_symbol
 _atom_site_label
 _atom_site_symmetry_multiplicity
 _atom_site_fract_x
 _atom_site_fract_y
 _atom_site_fract_z
 _atom_site_occupancy
  Li  Li0  1  0.90428876  0.42888527  0.74231562  1
  Li  Li1  1  0.90428876  0.92888527  0.75768438  1
  Li  Li2  1  0.72488528  0.26428310  0.53319155  1
  Li  Li3  1  0.72488528  0.76428310  0.96680845  1
  Li  Li4  1  0.27511472  0.23571690  0.03319155  1
  Li  Li5  1  0.27511472  0.73571690  0.46680845  1
  Li  Li6  1  0.09571124  0.07111473  0.24231562  1
  Li  Li7  1  0.09571124  0.57111473  0.25768438  1
  Fe  Fe8  1  0.67048169  0.06470020  0.24368389  1
  Fe  Fe9  1  0.67048169  0.56470020  0.25631611  1
  Fe  Fe10  1  0.32951831  0.43529980  0.74368389  1
  Fe  Fe11  1  0.32951831  0.93529980  0.75631611  1
  P  P12  1  0.57984397  0.07071267  0.75409761  1
  P  P13  1  0.57984397  0.57071267  0.74590239  1
  P  P14  1  0.42015603  0.42928733  0.25409761  1
  P  P15  1  0.42015603  0.92928733  0.24590239  1
  C  C16  1  0.96061925  0.37080621  0.24211391  1
  C  C17  1  0.96061925  0.87080621  0.25788609  1
  C  C18  1  0.03938075  0.12919379  0.74211391  1
  C  C19  1  0.03938075  0.62919379  0.75788609  1
  O  O20  1  0.92233282  0.01301916  0.26355286  1
  O  O21  1  0.92233282  0.51301916  0.23644714  1
  O  O22  1  0.89699996  0.23372540  0.72331223  1
  O  O23  1  0.83816302  0.34358964  0.26646628  1
  O  O24  1  0.89699996  0.73372540  0.77668777  1
  O  O25  1  0.83816302  0.84358964  0.23353372  1
  O  O26  1  0.69495165  0.05055695  0.93700453  1
  O  O27  1  0.68259339  0.06514663  0.56335678  1
  O  O28  1  0.68259339  0.56514663  0.93664322  1
  O  O29  1  0.69495165  0.55055695  0.56299547  1
  O  O30  1  0.57973778  0.28356052  0.27169167  1
  O  O31  1  0.53924418  0.43840944  0.74043155  1
  O  O32  1  0.57973778  0.78356052  0.22830833  1
  O  O33  1  0.53924418  0.93840944  0.75956845  1
  O  O34  1  0.46075582  0.06159056  0.24043155  1
  O  O35  1  0.42026222  0.21643948  0.77169167  1
  O  O36  1  0.46075582  0.56159056  0.25956845  1
  O  O37  1  0.42026222  0.71643948  0.72830833  1
  O  O38  1  0.30504835  0.44944305  0.43700453  1
  O  O39  1  0.31740661  0.43485337  0.06335678  1
  O  O40  1  0.30504835  0.94944305  0.06299547  1
  O  O41  1  0.31740661  0.93485337  0.43664322  1
  O  O42  1  0.16183698  0.15641036  0.76646628  1
  O  O43  1  0.10300004  0.26627460  0.22331223  1
  O  O44  1  0.16183698  0.65641036  0.73353372  1
  O  O45  1  0.10300004  0.76627460  0.27668777  1
  O  O46  1  0.07766718  0.48698084  0.76355286  1
  O  O47  1  0.07766718  0.98698084  0.73644714  1
