# generated using pymatgen
data_Li2FePCO7
_symmetry_space_group_name_H-M   'P 1'
_cell_length_a   8.34698282
_cell_length_b   10.19444319
_cell_length_c   6.49056923
_cell_angle_alpha   90.00000000
_cell_angle_beta   90.00000000
_cell_angle_gamma   85.00471019
_symmetry_Int_Tables_number   1
_chemical_formula_structural   Li2FePCO7
_chemical_formula_sum   'Li8 Fe4 P4 C4 O28'
_cell_volume   550.20326648
_cell_formula_units_Z   4
loop_
 _symmetry_equiv_pos_site_id
 _symmetry_equiv_pos_as_xyz
  1  'x, y, z'
loop_
 _atom_site_type_symbol
 _atom_site_label
 _atom_site_symmetry_multiplicity
 _atom_site_fract_x
 _atom_site_fract_y
 _atom_site_fract_z
 _atom_site_occupancy
  Li  Li0  1  0.09755320  0.38109204  0.25087133  1
  Li  Li1  1  0.09755320  0.88109204  0.24912867  1
  Li  Li2  1  0.27830794  0.12749723  0.46431461  1
  Li  Li3  1  0.27830794  0.62749723  0.03568539  1
  Li  Li4  1  0.72169206  0.37250277  0.53568539  1
  Li  Li5  1  0.72169206  0.87250277  0.96431461  1
  Li  Li6  1  0.90244680  0.11890796  0.74912867  1
  Li  Li7  1  0.90244680  0.61890796  0.75087133  1
  Fe  Fe8  1  0.32924753  0.39940757  0.74931407  1
  Fe  Fe9  1  0.32924753  0.89940757  0.75068593  1
  Fe  Fe10  1  0.67075247  0.10059243  0.25068593  1
  Fe  Fe11  1  0.67075247  0.60059243  0.24931407  1
  P  P12  1  0.42006181  0.36161589  0.25804183  1
  P  P13  1  0.42006181  0.86161589  0.24195817  1
  P  P14  1  0.57993819  0.13838411  0.74195817  1
  P  P15  1  0.57993819  0.63838411  0.75804183  1
  C  C16  1  0.03969005  0.35081861  0.74097074  1
  C  C17  1  0.03969005  0.85081861  0.75902926  1
  C  C18  1  0.96030995  0.14918139  0.25902926  1
  C  C19  1  0.96030995  0.64918139  0.24097074  1
  O  O20  1  0.07568644  0.47331087  0.76050117  1
  O  O21  1  0.10192882  0.18259401  0.28135586  1
  O  O22  1  0.07568644  0.97331087  0.73949883  1
  O  O23  1  0.16402682  0.26254693  0.74486536  1
  O  O24  1  0.10192882  0.68259401  0.21864414  1
  O  O25  1  0.16402682  0.76254693  0.75513464  1
  O  O26  1  0.31690361  0.40812549  0.06783965  1
  O  O27  1  0.30488966  0.39676939  0.44142546  1
  O  O28  1  0.30488966  0.89676939  0.05857454  1
  O  O29  1  0.31690361  0.90812549  0.43216035  1
  O  O30  1  0.42148623  0.07194272  0.72374109  1
  O  O31  1  0.46177379  0.20949637  0.25917224  1
  O  O32  1  0.42148623  0.57194272  0.77625891  1
  O  O33  1  0.46177379  0.70949637  0.24082776  1
  O  O34  1  0.53822621  0.29050363  0.74082776  1
  O  O35  1  0.57851377  0.42805728  0.27625891  1
  O  O36  1  0.53822621  0.79050363  0.75917224  1
  O  O37  1  0.57851377  0.92805728  0.22374109  1
  O  O38  1  0.69511034  0.10323061  0.55857454  1
  O  O39  1  0.68309639  0.09187451  0.93216035  1
  O  O40  1  0.68309639  0.59187451  0.56783965  1
  O  O41  1  0.69511034  0.60323061  0.94142546  1
  O  O42  1  0.83597318  0.23745307  0.25513464  1
  O  O43  1  0.89807118  0.31740599  0.71864414  1
  O  O44  1  0.83597318  0.73745307  0.24486536  1
  O  O45  1  0.92431356  0.02668913  0.23949883  1
  O  O46  1  0.89807118  0.81740599  0.78135586  1
  O  O47  1  0.92431356  0.52668913  0.26050117  1
