# generated using pymatgen
data_NaMnPCO7
_symmetry_space_group_name_H-M   'P 1'
_cell_length_a   8.18021417
_cell_length_b   8.18021417
_cell_length_c   10.62847111
_cell_angle_alpha   70.35037076
_cell_angle_beta   109.64962924
_cell_angle_gamma   79.79093537
_symmetry_Int_Tables_number   1
_chemical_formula_structural   NaMnPCO7
_chemical_formula_sum   'Na4 Mn4 P4 C4 O28'
_cell_volume   596.04253685
_cell_formula_units_Z   4
loop_
 _symmetry_equiv_pos_site_id
 _symmetry_equiv_pos_as_xyz
  1  'x, y, z'
loop_
 _atom_site_type_symbol
 _atom_site_label
 _atom_site_symmetry_multiplicity
 _atom_site_fract_x
 _atom_site_fract_y
 _atom_site_fract_z
 _atom_site_occupancy
  Na  Na0  1  0.51755307  0.52242451  0.75650353  1
  Na  Na1  1  0.22757549  0.23244693  0.75650353  1
  Na  Na2  1  0.74207673  0.75764947  0.23386535  1
  Na  Na3  1  0.99235053  0.00792327  0.23386535  1
  Mn  Mn4  1  0.59856748  0.15143252  0.65460890  1
  Mn  Mn5  1  0.08897189  0.66102811  0.66090257  1
  Mn  Mn6  1  0.90553213  0.34403859  0.34319303  1
  Mn  Mn7  1  0.40596141  0.84446787  0.34319303  1
  P  P8  1  0.76831635  0.47941245  0.56829115  1
  P  P9  1  0.27058755  0.98168365  0.56829115  1
  P  P10  1  0.72939684  0.02060316  0.42804419  1
  P  P11  1  0.23201218  0.51798782  0.43606550  1
  C  C12  1  0.69905226  0.05094774  0.91859395  1
  C  C13  1  0.20341554  0.54658446  0.92790308  1
  C  C14  1  0.80744027  0.45554271  0.07796596  1
  C  C15  1  0.29445729  0.94255973  0.07796596  1
  O  O16  1  0.24412861  0.99278034  0.94448402  1
  O  O17  1  0.75721966  0.50587139  0.94448402  1
  O  O18  1  0.28046464  0.46953536  0.85969680  1
  O  O19  1  0.77891113  0.97108887  0.85789939  1
  O  O20  1  0.55323421  0.19676579  0.81639739  1
  O  O21  1  0.05843787  0.69156213  0.82869289  1
  O  O22  1  0.94976082  0.49152721  0.66889859  1
  O  O23  1  0.75336401  0.30225998  0.67075109  1
  O  O24  1  0.44774002  0.99663599  0.67075109  1
  O  O25  1  0.25847279  0.80023918  0.66889859  1
  O  O26  1  0.71927628  0.03072372  0.56620004  1
  O  O27  1  0.10441293  0.14920301  0.52492565  1
  O  O28  1  0.60079699  0.64558707  0.52492565  1
  O  O29  1  0.22954313  0.52045687  0.58045023  1
  O  O30  1  0.77518847  0.47408395  0.42675743  1
  O  O31  1  0.89804765  0.85195235  0.47313222  1
  O  O32  1  0.39695577  0.35304423  0.47853524  1
  O  O33  1  0.27591605  0.97481153  0.42675743  1
  O  O34  1  0.55760260  0.99751537  0.32512416  1
  O  O35  1  0.75248463  0.19239740  0.32512416  1
  O  O36  1  0.04566627  0.51242469  0.33598048  1
  O  O37  1  0.23757531  0.70433373  0.33598048  1
  O  O38  1  0.95172056  0.31025284  0.18095029  1
  O  O39  1  0.43974716  0.79827944  0.18095029  1
  O  O40  1  0.72638054  0.53388904  0.14104739  1
  O  O41  1  0.21611096  0.02361946  0.14104739  1
  O  O42  1  0.74873282  0.00126718  0.05384826  1
  O  O43  1  0.25884211  0.49115789  0.06155715  1
