# generated using pymatgen
data_Y4Ga2O9
_symmetry_space_group_name_H-M   'P 1'
_cell_length_a   7.42484890
_cell_length_b   10.67172339
_cell_length_c   11.41629595
_cell_angle_alpha   90.00000000
_cell_angle_beta   107.71713311
_cell_angle_gamma   90.00000000
_symmetry_Int_Tables_number   1
_chemical_formula_structural   Y4Ga2O9
_chemical_formula_sum   'Y16 Ga8 O36'
_cell_volume   861.67707167
_cell_formula_units_Z   4
loop_
 _symmetry_equiv_pos_site_id
 _symmetry_equiv_pos_as_xyz
  1  'x, y, z'
loop_
 _atom_site_type_symbol
 _atom_site_label
 _atom_site_symmetry_multiplicity
 _atom_site_fract_x
 _atom_site_fract_y
 _atom_site_fract_z
 _atom_site_occupancy
  Y  Y0  1  0.09356989  0.37135514  0.94141326  1
  Y  Y1  1  0.09356989  0.12864486  0.44141326  1
  Y  Y2  1  0.22629256  0.59901619  0.69986163  1
  Y  Y3  1  0.26259223  0.11553252  0.78018671  1
  Y  Y4  1  0.22629256  0.90098381  0.19986163  1
  Y  Y5  1  0.41730712  0.88449196  0.59202967  1
  Y  Y6  1  0.26259223  0.38446748  0.28018671  1
  Y  Y7  1  0.58269288  0.38449196  0.90797033  1
  Y  Y8  1  0.41730712  0.61550804  0.09202967  1
  Y  Y9  1  0.73740777  0.61553252  0.71981329  1
  Y  Y10  1  0.58269288  0.11550804  0.40797033  1
  Y  Y11  1  0.77370744  0.09901619  0.80013837  1
  Y  Y12  1  0.73740777  0.88446748  0.21981329  1
  Y  Y13  1  0.77370744  0.40098381  0.30013837  1
  Y  Y14  1  0.90643011  0.87135514  0.55858674  1
  Y  Y15  1  0.90643011  0.62864486  0.05858674  1
  Ga  Ga16  1  0.05412189  0.82901909  0.87768964  1
  Ga  Ga17  1  0.05412189  0.67098091  0.37768964  1
  Ga  Ga18  1  0.41391305  0.32389563  0.60868726  1
  Ga  Ga19  1  0.58608695  0.82389563  0.89131274  1
  Ga  Ga20  1  0.41391305  0.17610437  0.10868726  1
  Ga  Ga21  1  0.58608695  0.67610437  0.39131274  1
  Ga  Ga22  1  0.94587811  0.32901909  0.62231036  1
  Ga  Ga23  1  0.94587811  0.17098091  0.12231036  1
  O  O24  1  0.06298656  0.99867327  0.85672024  1
  O  O25  1  0.02021486  0.74483790  0.72870099  1
  O  O26  1  0.16602159  0.99696957  0.60829334  1
  O  O27  1  0.17766325  0.26142693  0.61341746  1
  O  O28  1  0.31248649  0.50599692  0.89472635  1
  O  O29  1  0.06298656  0.50132673  0.35672024  1
  O  O30  1  0.02021486  0.75516210  0.22870099  1
  O  O31  1  0.37935970  0.23878542  0.95306841  1
  O  O32  1  0.19038944  0.73400098  0.52762269  1
  O  O33  1  0.46452721  0.73282924  0.75150666  1
  O  O34  1  0.16602159  0.50303043  0.10829334  1
  O  O35  1  0.17766325  0.23857307  0.11341746  1
  O  O36  1  0.52470817  0.98151874  0.82459865  1
  O  O37  1  0.31248649  0.99400308  0.39472635  1
  O  O38  1  0.47529183  0.48151874  0.67540135  1
  O  O39  1  0.37935970  0.26121458  0.45306841  1
  O  O40  1  0.53547279  0.23282924  0.74849334  1
  O  O41  1  0.19038944  0.76599902  0.02762269  1
  O  O42  1  0.80961056  0.23400098  0.97237731  1
  O  O43  1  0.46452721  0.76717076  0.25150666  1
  O  O44  1  0.62064030  0.73878542  0.54693159  1
  O  O45  1  0.52470817  0.51848126  0.32459865  1
  O  O46  1  0.68751351  0.00599692  0.60527365  1
  O  O47  1  0.47529183  0.01848126  0.17540135  1
  O  O48  1  0.82233675  0.76142693  0.88658254  1
  O  O49  1  0.83397841  0.49696957  0.89170666  1
  O  O50  1  0.53547279  0.26717076  0.24849334  1
  O  O51  1  0.80961056  0.26599902  0.47237731  1
  O  O52  1  0.62064030  0.76121458  0.04693159  1
  O  O53  1  0.97978514  0.24483790  0.77129901  1
  O  O54  1  0.93701344  0.49867327  0.64327976  1
  O  O55  1  0.68751351  0.49400308  0.10527365  1
  O  O56  1  0.82233675  0.73857307  0.38658254  1
  O  O57  1  0.83397841  0.00303043  0.39170666  1
  O  O58  1  0.97978514  0.25516210  0.27129901  1
  O  O59  1  0.93701344  0.00132673  0.14327976  1
