# generated using pymatgen
data_Li2Co2(SO4)3
_symmetry_space_group_name_H-M   'P 1'
_cell_length_a   7.84148228
_cell_length_b   7.84148228
_cell_length_c   8.80678022
_cell_angle_alpha   68.61643786
_cell_angle_beta   111.38356214
_cell_angle_gamma   113.18487391
_symmetry_Int_Tables_number   1
_chemical_formula_structural   Li2Co2(SO4)3
_chemical_formula_sum   'Li4 Co4 S6 O24'
_cell_volume   447.79291373
_cell_formula_units_Z   2
loop_
 _symmetry_equiv_pos_site_id
 _symmetry_equiv_pos_as_xyz
  1  'x, y, z'
loop_
 _atom_site_type_symbol
 _atom_site_label
 _atom_site_symmetry_multiplicity
 _atom_site_fract_x
 _atom_site_fract_y
 _atom_site_fract_z
 _atom_site_occupancy
  Li  Li0  1  0.32859460  0.86291202  0.55530374  1
  Li  Li1  1  0.13708798  0.67140540  0.05530374  1
  Li  Li2  1  0.86291202  0.32859460  0.94469626  1
  Li  Li3  1  0.67140540  0.13708798  0.44469626  1
  Co  Co4  1  0.63113528  0.87348188  0.98322593  1
  Co  Co5  1  0.12651812  0.36886472  0.48322593  1
  Co  Co6  1  0.87348188  0.63113528  0.51677407  1
  Co  Co7  1  0.36886472  0.12651812  0.01677407  1
  S  S8  1  0.25017058  0.53923475  0.82293884  1
  S  S9  1  0.46076525  0.74982942  0.32293884  1
  S  S10  1  0.94113555  0.94113555  0.75000000  1
  S  S11  1  0.05886445  0.05886445  0.25000000  1
  S  S12  1  0.53923475  0.25017058  0.67706116  1
  S  S13  1  0.74982942  0.46076525  0.17706116  1
  O  O14  1  0.12755190  0.95112886  0.88490130  1
  O  O15  1  0.04887114  0.87244810  0.38490130  1
  O  O16  1  0.12404709  0.50210270  0.92830117  1
  O  O17  1  0.38775514  0.73815295  0.81137324  1
  O  O18  1  0.13237489  0.54294216  0.63994652  1
  O  O19  1  0.49789730  0.87595291  0.42830117  1
  O  O20  1  0.78418927  0.90361274  0.82229640  1
  O  O21  1  0.34868085  0.39512209  0.88291639  1
  O  O22  1  0.26184705  0.61224486  0.31137324  1
  O  O23  1  0.45705784  0.86762511  0.13994652  1
  O  O24  1  0.09638726  0.21581073  0.32229640  1
  O  O25  1  0.39512209  0.34868085  0.61708361  1
  O  O26  1  0.60487791  0.65131915  0.38291639  1
  O  O27  1  0.90361274  0.78418927  0.67770360  1
  O  O28  1  0.54294216  0.13237489  0.86005348  1
  O  O29  1  0.73815295  0.38775514  0.68862676  1
  O  O30  1  0.65131915  0.60487791  0.11708361  1
  O  O31  1  0.21581073  0.09638726  0.17770360  1
  O  O32  1  0.50210270  0.12404709  0.57169883  1
  O  O33  1  0.86762511  0.45705784  0.36005348  1
  O  O34  1  0.61224486  0.26184705  0.18862676  1
  O  O35  1  0.87595291  0.49789730  0.07169883  1
  O  O36  1  0.95112886  0.12755190  0.61509870  1
  O  O37  1  0.87244810  0.04887114  0.11509870  1
