# generated using pymatgen
data_Li3Mn4NiO8
_symmetry_space_group_name_H-M   'P 1'
_cell_length_a   5.98152700
_cell_length_b   5.98152697
_cell_length_c   6.00236892
_cell_angle_alpha   91.59006880
_cell_angle_beta   60.93954077
_cell_angle_gamma   61.00520902
_symmetry_Int_Tables_number   1
_chemical_formula_structural   Li3Mn4NiO8
_chemical_formula_sum   'Li3 Mn4 Ni1 O8'
_cell_volume   154.15649674
_cell_formula_units_Z   1
loop_
 _symmetry_equiv_pos_site_id
 _symmetry_equiv_pos_as_xyz
  1  'x, y, z'
loop_
 _atom_site_type_symbol
 _atom_site_label
 _atom_site_symmetry_multiplicity
 _atom_site_fract_x
 _atom_site_fract_y
 _atom_site_fract_z
 _atom_site_occupancy
  Li  Li0  1  0.00000000  0.00000000  0.50000000  1
  Li  Li1  1  0.50000000  0.00000000  0.50000000  1
  Li  Li2  1  0.50000000  0.50000000  0.50000000  1
  Mn  Mn3  1  0.00000000  0.50000000  0.50000000  1
  Mn  Mn4  1  0.00000000  0.00000000  0.00000000  1
  Mn  Mn5  1  0.50000000  0.00000000  0.00000000  1
  Mn  Mn6  1  0.00000000  0.50000000  0.00000000  1
  Ni  Ni7  1  0.50000000  0.50000000  0.00000000  1
  O  O8  1  0.45935495  0.25057121  0.79121626  1
  O  O9  1  0.99394559  0.26445884  0.76699618  1
  O  O10  1  0.49746266  0.76094077  0.76699618  1
  O  O11  1  0.02155433  0.74603900  0.72448467  1
  O  O12  1  0.97844567  0.25396100  0.27551533  1
  O  O13  1  0.50253734  0.23905923  0.23300382  1
  O  O14  1  0.00605441  0.73554116  0.23300382  1
  O  O15  1  0.54064505  0.74942879  0.20878374  1
