# generated using pymatgen
data_Li3Mn(PO4)2
_symmetry_space_group_name_H-M   'P 1'
_cell_length_a   10.04876270
_cell_length_b   6.02635375
_cell_length_c   4.73276887
_cell_angle_alpha   90.00000000
_cell_angle_beta   92.01011811
_cell_angle_gamma   90.00000000
_symmetry_Int_Tables_number   1
_chemical_formula_structural   Li3Mn(PO4)2
_chemical_formula_sum   'Li6 Mn2 P4 O16'
_cell_volume   286.42780981
_cell_formula_units_Z   2
loop_
 _symmetry_equiv_pos_site_id
 _symmetry_equiv_pos_as_xyz
  1  'x, y, z'
loop_
 _atom_site_type_symbol
 _atom_site_label
 _atom_site_symmetry_multiplicity
 _atom_site_fract_x
 _atom_site_fract_y
 _atom_site_fract_z
 _atom_site_occupancy
  Li  Li0  1  0.00000000  0.00000000  0.00000000  1
  Li  Li1  1  0.00000000  0.50000000  0.00000000  1
  Li  Li2  1  0.21575049  0.75000000  0.47390191  1
  Li  Li3  1  0.50000000  0.00000000  0.50000000  1
  Li  Li4  1  0.50000000  0.50000000  0.50000000  1
  Li  Li5  1  0.78424951  0.25000000  0.52609809  1
  Mn  Mn6  1  0.28135564  0.25000000  0.97317394  1
  Mn  Mn7  1  0.71864436  0.75000000  0.02682606  1
  P  P8  1  0.10042910  0.25000000  0.40803036  1
  P  P9  1  0.40806687  0.75000000  0.93238886  1
  P  P10  1  0.59193313  0.25000000  0.06761114  1
  P  P11  1  0.89957090  0.75000000  0.59196964  1
  O  O12  1  0.04587717  0.75000000  0.69314813  1
  O  O13  1  0.11315463  0.25000000  0.74145679  1
  O  O14  1  0.17132152  0.04627691  0.27517062  1
  O  O15  1  0.17132152  0.45372309  0.27517062  1
  O  O16  1  0.33910128  0.54363909  0.79341628  1
  O  O17  1  0.33910128  0.95636091  0.79341628  1
  O  O18  1  0.41481036  0.75000000  0.25281033  1
  O  O19  1  0.44690269  0.25000000  0.19799744  1
  O  O20  1  0.55309731  0.75000000  0.80200256  1
  O  O21  1  0.58518964  0.25000000  0.74718967  1
  O  O22  1  0.66089872  0.04363909  0.20658372  1
  O  O23  1  0.66089872  0.45636091  0.20658372  1
  O  O24  1  0.82867848  0.54627691  0.72482938  1
  O  O25  1  0.82867848  0.95372309  0.72482938  1
  O  O26  1  0.88684537  0.75000000  0.25854321  1
  O  O27  1  0.95412283  0.25000000  0.30685187  1
