# generated using pymatgen
data_VFe(PO4)2
_symmetry_space_group_name_H-M   'P 1'
_cell_length_a   8.50831564
_cell_length_b   8.66342397
_cell_length_c   8.66342401
_cell_angle_alpha   59.99999781
_cell_angle_beta   59.39509743
_cell_angle_gamma   59.39509435
_symmetry_Int_Tables_number   1
_chemical_formula_structural   VFe(PO4)2
_chemical_formula_sum   'V3 Fe3 P6 O24'
_cell_volume   447.37922271
_cell_formula_units_Z   3
loop_
 _symmetry_equiv_pos_site_id
 _symmetry_equiv_pos_as_xyz
  1  'x, y, z'
loop_
 _atom_site_type_symbol
 _atom_site_label
 _atom_site_symmetry_multiplicity
 _atom_site_fract_x
 _atom_site_fract_y
 _atom_site_fract_z
 _atom_site_occupancy
  V  V0  1  0.07132309  0.64289197  0.64289197  1
  V  V1  1  0.42505616  0.85831461  0.85831461  1
  V  V2  1  0.92855673  0.35714742  0.35714742  1
  Fe  Fe3  1  0.99655349  0.00114917  0.00114917  1
  Fe  Fe4  1  0.57006482  0.14331173  0.14331173  1
  Fe  Fe5  1  0.49891076  0.50036275  0.50036275  1
  P  P6  1  0.25008502  0.24973261  0.54324673  1
  P  P7  1  0.25008502  0.95693564  0.24973261  1
  P  P8  1  0.25008502  0.54324673  0.95693564  1
  P  P9  1  0.75107064  0.45791197  0.04169032  1
  P  P10  1  0.75107064  0.04169032  0.74932707  1
  P  P11  1  0.75107064  0.74932707  0.45791197  1
  O  O12  1  0.06478134  0.11805700  0.31288545  1
  O  O13  1  0.06478134  0.50427521  0.11805700  1
  O  O14  1  0.06478134  0.31288545  0.50427521  1
  O  O15  1  0.22779705  0.09005474  0.74056937  1
  O  O16  1  0.43493361  0.18764154  0.38661763  1
  O  O17  1  0.26498592  0.41267718  0.56167389  1
  O  O18  1  0.22779705  0.94157984  0.09005474  1
  O  O19  1  0.26498592  0.76066302  0.41267718  1
  O  O20  1  0.56662727  0.61827751  0.00300901  1
  O  O21  1  0.26498592  0.56167389  0.76066302  1
  O  O22  1  0.77691210  0.26277272  0.05308408  1
  O  O23  1  0.56662727  0.00300901  0.81208521  1
  O  O24  1  0.43493361  0.99080723  0.18764154  1
  O  O25  1  0.22779705  0.74056937  0.94157984  1
  O  O26  1  0.73103034  0.44330121  0.23812303  1
  O  O27  1  0.43493361  0.38661763  0.99080723  1
  O  O28  1  0.73103034  0.23812303  0.58754542  1
  O  O29  1  0.77691210  0.05308408  0.90723109  1
  O  O30  1  0.73103034  0.58754542  0.44330121  1
  O  O31  1  0.56662727  0.81208521  0.61827751  1
  O  O32  1  0.77691210  0.90723109  0.26277272  1
  O  O33  1  0.93495535  0.68049818  0.50179815  1
  O  O34  1  0.93495535  0.50179815  0.88274732  1
  O  O35  1  0.93495535  0.88274732  0.68049818  1
