# generated using pymatgen
data_Ta4Te16PtI8
_symmetry_space_group_name_H-M   'P 1'
_cell_length_a   6.71553607
_cell_length_b   9.73526880
_cell_length_c   17.27658713
_cell_angle_alpha   106.59506780
_cell_angle_beta   95.30740835
_cell_angle_gamma   98.99184668
_symmetry_Int_Tables_number   1
_chemical_formula_structural   Ta4Te16PtI8
_chemical_formula_sum   'Ta4 Te16 Pt1 I8'
_cell_volume   1057.87111729
_cell_formula_units_Z   1
loop_
 _symmetry_equiv_pos_site_id
 _symmetry_equiv_pos_as_xyz
  1  'x, y, z'
loop_
 _atom_site_type_symbol
 _atom_site_label
 _atom_site_symmetry_multiplicity
 _atom_site_fract_x
 _atom_site_fract_y
 _atom_site_fract_z
 _atom_site_occupancy
  Ta  Ta0  1  0.51388846  0.31104964  0.19754489  1
  Ta  Ta1  1  0.48611154  0.68895036  0.80245511  1
  Ta  Ta2  1  0.01429567  0.29897759  0.19546147  1
  Ta  Ta3  1  0.98570433  0.70102241  0.80453853  1
  Te  Te4  1  0.31794983  0.55613653  0.24511306  1
  Te  Te5  1  0.68205017  0.44386347  0.75488694  1
  Te  Te6  1  0.68287095  0.07045274  0.08615823  1
  Te  Te7  1  0.31712905  0.92954726  0.91384177  1
  Te  Te8  1  0.29933586  0.34428903  0.33510772  1
  Te  Te9  1  0.70066414  0.65571097  0.66489228  1
  Te  Te10  1  0.79031812  0.49139864  0.13803683  1
  Te  Te11  1  0.20968188  0.50860136  0.86196317  1
  Te  Te12  1  0.74562103  0.13536985  0.26828454  1
  Te  Te13  1  0.25437897  0.86463015  0.73171546  1
  Te  Te14  1  0.21973872  0.27942681  0.05656176  1
  Te  Te15  1  0.78026128  0.72057319  0.94343824  1
  Te  Te16  1  0.20015588  0.04661193  0.15657531  1
  Te  Te17  1  0.79984412  0.95338807  0.84342469  1
  Te  Te18  1  0.17461575  0.46660852  0.68738795  1
  Te  Te19  1  0.82538425  0.53339148  0.31261205  1
  Pt  Pt20  1  0.00000000  0.00000000  0.00000000  1
  I  I21  1  0.30149585  0.63994108  0.05995124  1
  I  I22  1  0.69850415  0.36005892  0.94004876  1
  I  I23  1  0.35438651  0.26494848  0.55662990  1
  I  I24  1  0.64561349  0.73505152  0.44337010  1
  I  I25  1  0.77065957  0.00042564  0.66906036  1
  I  I26  1  0.22934043  0.99957436  0.33093964  1
  I  I27  1  0.21010005  0.72395822  0.55428257  1
  I  I28  1  0.78989995  0.27604178  0.44571743  1
