# generated using pymatgen
data_Tb3NbO7
_symmetry_space_group_name_H-M   'P 1'
_cell_length_a   7.49942654
_cell_length_b   10.64209881
_cell_length_c   7.63413419
_cell_angle_alpha   90.00000000
_cell_angle_beta   90.00000000
_cell_angle_gamma   90.00000000
_symmetry_Int_Tables_number   1
_chemical_formula_structural   Tb3NbO7
_chemical_formula_sum   'Tb12 Nb4 O28'
_cell_volume   609.27748811
_cell_formula_units_Z   4
loop_
 _symmetry_equiv_pos_site_id
 _symmetry_equiv_pos_as_xyz
  1  'x, y, z'
loop_
 _atom_site_type_symbol
 _atom_site_label
 _atom_site_symmetry_multiplicity
 _atom_site_fract_x
 _atom_site_fract_y
 _atom_site_fract_z
 _atom_site_occupancy
  Tb  Tb0  1  0.01544060  0.25000000  0.79958107  1
  Tb  Tb1  1  0.24960669  0.52178595  0.96663377  1
  Tb  Tb2  1  0.24960669  0.97821405  0.96663377  1
  Tb  Tb3  1  0.25039331  0.02178595  0.46663377  1
  Tb  Tb4  1  0.25039331  0.47821405  0.46663377  1
  Tb  Tb5  1  0.48455940  0.75000000  0.29958107  1
  Tb  Tb6  1  0.51544060  0.25000000  0.70041893  1
  Tb  Tb7  1  0.74960669  0.52178595  0.53336623  1
  Tb  Tb8  1  0.74960669  0.97821405  0.53336623  1
  Tb  Tb9  1  0.75039331  0.02178595  0.03336623  1
  Tb  Tb10  1  0.75039331  0.47821405  0.03336623  1
  Tb  Tb11  1  0.98455940  0.75000000  0.20041893  1
  Nb  Nb12  1  0.99561523  0.75000000  0.74574026  1
  Nb  Nb13  1  0.50438477  0.25000000  0.24574026  1
  Nb  Nb14  1  0.49561523  0.75000000  0.75425974  1
  Nb  Nb15  1  0.00438477  0.25000000  0.25425974  1
  O  O16  1  0.03726988  0.12465130  0.04585591  1
  O  O17  1  0.03726988  0.37534870  0.04585591  1
  O  O18  1  0.04170243  0.60979877  0.59062107  1
  O  O19  1  0.04170243  0.89020123  0.59062107  1
  O  O20  1  0.24920573  0.25000000  0.33857636  1
  O  O21  1  0.25722500  0.11591590  0.73274734  1
  O  O22  1  0.25722500  0.38408410  0.73274734  1
  O  O23  1  0.24277500  0.61591590  0.23274734  1
  O  O24  1  0.24277500  0.88408410  0.23274734  1
  O  O25  1  0.25079427  0.75000000  0.83857636  1
  O  O26  1  0.45829757  0.10979877  0.09062107  1
  O  O27  1  0.45829757  0.39020123  0.09062107  1
  O  O28  1  0.46273012  0.62465130  0.54585591  1
  O  O29  1  0.46273012  0.87534870  0.54585591  1
  O  O30  1  0.53726988  0.12465130  0.45414409  1
  O  O31  1  0.53726988  0.37534870  0.45414409  1
  O  O32  1  0.54170243  0.60979877  0.90937893  1
  O  O33  1  0.54170243  0.89020123  0.90937893  1
  O  O34  1  0.74920573  0.25000000  0.16142364  1
  O  O35  1  0.75722500  0.11591590  0.76725266  1
  O  O36  1  0.75722500  0.38408410  0.76725266  1
  O  O37  1  0.74277500  0.61591590  0.26725266  1
  O  O38  1  0.74277500  0.88408410  0.26725266  1
  O  O39  1  0.75079427  0.75000000  0.66142364  1
  O  O40  1  0.95829757  0.10979877  0.40937893  1
  O  O41  1  0.95829757  0.39020123  0.40937893  1
  O  O42  1  0.96273012  0.62465130  0.95414409  1
  O  O43  1  0.96273012  0.87534870  0.95414409  1
