# generated using pymatgen
data_LuWO4
_symmetry_space_group_name_H-M   'P 1'
_cell_length_a   5.06676201
_cell_length_b   5.72255646
_cell_length_c   5.24400153
_cell_angle_alpha   90.00000000
_cell_angle_beta   84.87229617
_cell_angle_gamma   90.00000000
_symmetry_Int_Tables_number   1
_chemical_formula_structural   LuWO4
_chemical_formula_sum   'Lu2 W2 O8'
_cell_volume   151.44043673
_cell_formula_units_Z   2
loop_
 _symmetry_equiv_pos_site_id
 _symmetry_equiv_pos_as_xyz
  1  'x, y, z'
loop_
 _atom_site_type_symbol
 _atom_site_label
 _atom_site_symmetry_multiplicity
 _atom_site_fract_x
 _atom_site_fract_y
 _atom_site_fract_z
 _atom_site_occupancy
  Lu  Lu0  1  0.50000000  0.30184685  0.75000000  1
  Lu  Lu1  1  0.50000000  0.69815315  0.25000000  1
  W  W2  1  0.00000000  0.82464680  0.75000000  1
  W  W3  1  0.00000000  0.17535320  0.25000000  1
  O  O4  1  0.21839768  0.09389370  0.54156245  1
  O  O5  1  0.21839768  0.90610630  0.04156245  1
  O  O6  1  0.26636629  0.60731407  0.61289591  1
  O  O7  1  0.26636629  0.39268593  0.11289591  1
  O  O8  1  0.73363371  0.60731407  0.88710409  1
  O  O9  1  0.73363371  0.39268593  0.38710409  1
  O  O10  1  0.78160232  0.09389370  0.95843755  1
  O  O11  1  0.78160232  0.90610630  0.45843855  1
