# generated using pymatgen
data_CdSeO4
_symmetry_space_group_name_H-M   'P 1'
_cell_length_a   6.82050169
_cell_length_b   4.96791475
_cell_length_c   5.02031710
_cell_angle_alpha   90.00000000
_cell_angle_beta   90.00000000
_cell_angle_gamma   90.00000000
_symmetry_Int_Tables_number   1
_chemical_formula_structural   CdSeO4
_chemical_formula_sum   'Cd2 Se2 O8'
_cell_volume   170.10677267
_cell_formula_units_Z   2
loop_
 _symmetry_equiv_pos_site_id
 _symmetry_equiv_pos_as_xyz
  1  'x, y, z'
loop_
 _atom_site_type_symbol
 _atom_site_label
 _atom_site_symmetry_multiplicity
 _atom_site_fract_x
 _atom_site_fract_y
 _atom_site_fract_z
 _atom_site_occupancy
  Cd  Cd0  1  0.00000000  0.86652269  0.00506497  1
  Cd  Cd1  1  0.50000000  0.13347731  0.50506497  1
  Se  Se2  1  0.00000000  0.33913819  0.47876317  1
  Se  Se3  1  0.50000000  0.66086181  0.97876317  1
  O  O4  1  0.00000000  0.66860702  0.41497153  1
  O  O5  1  0.00000000  0.30007280  0.80890907  1
  O  O6  1  0.19363095  0.18704172  0.33210663  1
  O  O7  1  0.30636905  0.81295828  0.83210663  1
  O  O8  1  0.50000000  0.69992720  0.30890907  1
  O  O9  1  0.50000000  0.33139298  0.91497153  1
  O  O10  1  0.69363095  0.81295828  0.83210663  1
  O  O11  1  0.80636905  0.18704172  0.33210663  1
