# generated using pymatgen
data_Li3V2CrO6
_symmetry_space_group_name_H-M   'P 1'
_cell_length_a   15.45079274
_cell_length_b   9.88368364
_cell_length_c   9.88368387
_cell_angle_alpha   17.53579974
_cell_angle_beta   16.83330056
_cell_angle_gamma   16.83329532
_symmetry_Int_Tables_number   1
_chemical_formula_structural   Li3V2CrO6
_chemical_formula_sum   'Li3 V2 Cr1 O6'
_cell_volume   113.29831277
_cell_formula_units_Z   1
loop_
 _symmetry_equiv_pos_site_id
 _symmetry_equiv_pos_as_xyz
  1  'x, y, z'
loop_
 _atom_site_type_symbol
 _atom_site_label
 _atom_site_symmetry_multiplicity
 _atom_site_fract_x
 _atom_site_fract_y
 _atom_site_fract_z
 _atom_site_occupancy
  Li  Li0  1  0.16666700  0.50000000  0.50000000  1
  Li  Li1  1  0.49788076  0.50390341  0.50390341  1
  Li  Li2  1  0.83545224  0.49609659  0.49609659  1
  V  V3  1  0.99764989  0.00135347  0.00135347  1
  V  V4  1  0.33568311  0.99864653  0.99864653  1
  Cr  Cr5  1  0.66666700  0.00000000  0.00000000  1
  O  O6  1  0.24863725  0.25700126  0.25700126  1
  O  O7  1  0.58345260  0.25435805  0.25435805  1
  O  O8  1  0.08469675  0.74299874  0.74299874  1
  O  O9  1  0.91246078  0.25992492  0.25992492  1
  O  O10  1  0.42087322  0.74007508  0.74007508  1
  O  O11  1  0.74988040  0.74564195  0.74564195  1
