# generated using pymatgen
data_Li3Al2FeO6
_symmetry_space_group_name_H-M   'P 1'
_cell_length_a   4.99974085
_cell_length_b   4.99974085
_cell_length_c   5.11508998
_cell_angle_alpha   80.55847741
_cell_angle_beta   99.44152259
_cell_angle_gamma   60.02042321
_symmetry_Int_Tables_number   1
_chemical_formula_structural   Li3Al2FeO6
_chemical_formula_sum   'Li3 Al2 Fe1 O6'
_cell_volume   104.62970909
_cell_formula_units_Z   1
loop_
 _symmetry_equiv_pos_site_id
 _symmetry_equiv_pos_as_xyz
  1  'x, y, z'
loop_
 _atom_site_type_symbol
 _atom_site_label
 _atom_site_symmetry_multiplicity
 _atom_site_fract_x
 _atom_site_fract_y
 _atom_site_fract_z
 _atom_site_occupancy
  Li  Li0  1  0.16729437  0.16729437  0.50000000  1
  Li  Li1  1  0.50000000  0.50000000  0.50000000  1
  Li  Li2  1  0.83270563  0.83270563  0.50000000  1
  Al  Al3  1  0.33325325  0.33325325  0.00000000  1
  Al  Al4  1  0.66674675  0.66674675  0.00000000  1
  Fe  Fe5  1  0.00000000  0.00000000  0.00000000  1
  O  O6  1  0.27461798  0.72538202  0.78029723  1
  O  O7  1  0.07325767  0.57908503  0.21764012  1
  O  O8  1  0.42091497  0.92674233  0.21764012  1
  O  O9  1  0.57908503  0.07325767  0.78235988  1
  O  O10  1  0.92674233  0.42091497  0.78235988  1
  O  O11  1  0.72538202  0.27461798  0.21970277  1
