# generated using pymatgen
data_Tm4(B2O5)3
_symmetry_space_group_name_H-M   'P 1'
_cell_length_a   4.38211265
_cell_length_b   6.21190572
_cell_length_c   18.77793952
_cell_angle_alpha   84.07908742
_cell_angle_beta   90.00000000
_cell_angle_gamma   69.34630156
_symmetry_Int_Tables_number   1
_chemical_formula_structural   Tm4(B2O5)3
_chemical_formula_sum   'Tm8 B12 O30'
_cell_volume   475.39151391
_cell_formula_units_Z   2
loop_
 _symmetry_equiv_pos_site_id
 _symmetry_equiv_pos_as_xyz
  1  'x, y, z'
loop_
 _atom_site_type_symbol
 _atom_site_label
 _atom_site_symmetry_multiplicity
 _atom_site_fract_x
 _atom_site_fract_y
 _atom_site_fract_z
 _atom_site_occupancy
  Tm  Tm0  1  0.34463988  0.72561198  0.80228361  1
  Tm  Tm1  1  0.33184300  0.73276277  0.59933597  1
  Tm  Tm2  1  0.92974714  0.72561198  0.30228361  1
  Tm  Tm3  1  0.93539423  0.73276277  0.09933597  1
  Tm  Tm4  1  0.06460677  0.26723723  0.90066403  1
  Tm  Tm5  1  0.07025286  0.27438802  0.69771639  1
  Tm  Tm6  1  0.66815700  0.26723723  0.40066403  1
  Tm  Tm7  1  0.65536012  0.27438802  0.19771639  1
  B  B8  1  0.80261069  0.80607083  0.91284491  1
  B  B9  1  0.79566842  0.86357563  0.69419048  1
  B  B10  1  0.35886730  0.66223781  0.97445591  1
  B  B11  1  0.39131848  0.80607083  0.41284491  1
  B  B12  1  0.34075595  0.86357563  0.19419048  1
  B  B13  1  0.97889389  0.66223781  0.47445591  1
  B  B14  1  0.02110611  0.33776219  0.52554409  1
  B  B15  1  0.65924405  0.13642437  0.80580952  1
  B  B16  1  0.60868152  0.19392917  0.58715509  1
  B  B17  1  0.64113270  0.33776219  0.02554409  1
  B  B18  1  0.20433158  0.13642437  0.30580952  1
  B  B19  1  0.19738931  0.19392917  0.08715509  1
  O  O20  1  0.84091965  0.97084575  0.62127628  1
  O  O21  1  0.45583461  0.83170758  0.92920575  1
  O  O22  1  0.46540937  0.86911800  0.69668481  1
  O  O23  1  0.00476308  0.74588784  0.98002232  1
  O  O24  1  0.18823460  0.97084575  0.12127628  1
  O  O25  1  0.71245781  0.83170758  0.42920575  1
  O  O26  1  0.92555876  0.63674504  0.86139488  1
  O  O27  1  0.66547163  0.86911800  0.19668481  1
  O  O28  1  0.24934808  0.74588784  0.48002232  1
  O  O29  1  0.05033196  0.63440526  0.70392320  1
  O  O30  1  0.91021509  0.58347205  0.54968118  1
  O  O31  1  0.49368715  0.41652795  0.95031882  1
  O  O32  1  0.43769620  0.63674504  0.36139488  1
  O  O33  1  0.31526278  0.63440526  0.20392320  1
  O  O34  1  0.68473722  0.36559474  0.79607680  1
  O  O35  1  0.56230280  0.36325496  0.63860512  1
  O  O36  1  0.50631285  0.58347205  0.04968118  1
  O  O37  1  0.08978491  0.41652795  0.45031882  1
  O  O38  1  0.94966804  0.36559474  0.29607680  1
  O  O39  1  0.75065192  0.25411216  0.51997768  1
  O  O40  1  0.33452837  0.13088200  0.80331519  1
  O  O41  1  0.07444124  0.36325496  0.13860512  1
  O  O42  1  0.28754219  0.16829242  0.57079425  1
  O  O43  1  0.81176540  0.02915425  0.87872372  1
  O  O44  1  0.86891187  0.00000000  0.75000000  1
  O  O45  1  0.99523692  0.25411216  0.01997768  1
  O  O46  1  0.53459063  0.13088200  0.30331519  1
  O  O47  1  0.54416539  0.16829242  0.07079425  1
  O  O48  1  0.15908035  0.02915425  0.37872372  1
  O  O49  1  0.13108813  1.00000000  0.25000000  1
