# generated using pymatgen
data_Rb2Ge2O5
_symmetry_space_group_name_H-M   'P 1'
_cell_length_a   7.04290870
_cell_length_b   7.04290870
_cell_length_c   15.26020207
_cell_angle_alpha   90.23592488
_cell_angle_beta   89.76407512
_cell_angle_gamma   102.46821672
_symmetry_Int_Tables_number   1
_chemical_formula_structural   Rb2Ge2O5
_chemical_formula_sum   'Rb8 Ge8 O20'
_cell_volume   739.08297385
_cell_formula_units_Z   4
loop_
 _symmetry_equiv_pos_site_id
 _symmetry_equiv_pos_as_xyz
  1  'x, y, z'
loop_
 _atom_site_type_symbol
 _atom_site_label
 _atom_site_symmetry_multiplicity
 _atom_site_fract_x
 _atom_site_fract_y
 _atom_site_fract_z
 _atom_site_occupancy
  Rb  Rb0  1  0.27911590  0.93067467  0.91743401  1
  Rb  Rb1  1  0.06932533  0.72088410  0.41743401  1
  Rb  Rb2  1  0.55683251  0.70434303  0.60361938  1
  Rb  Rb3  1  0.29565697  0.44316749  0.10361938  1
  Rb  Rb4  1  0.70434303  0.55683251  0.89638062  1
  Rb  Rb5  1  0.44316749  0.29565697  0.39638062  1
  Rb  Rb6  1  0.93067467  0.27911590  0.58256599  1
  Rb  Rb7  1  0.72088410  0.06932533  0.08256599  1
  Ge  Ge8  1  0.05265043  0.78928840  0.69492831  1
  Ge  Ge9  1  0.21071160  0.94734957  0.19492831  1
  Ge  Ge10  1  0.20501833  0.43799329  0.82112518  1
  Ge  Ge11  1  0.56200671  0.79498167  0.32112518  1
  Ge  Ge12  1  0.43799329  0.20501833  0.67887482  1
  Ge  Ge13  1  0.79498167  0.56200671  0.17887482  1
  Ge  Ge14  1  0.78928840  0.05265043  0.80507169  1
  Ge  Ge15  1  0.94734957  0.21071160  0.30507169  1
  O  O16  1  0.23374765  0.00870268  0.69032341  1
  O  O17  1  0.99129732  0.76625235  0.19032341  1
  O  O18  1  0.13184955  0.64916721  0.77968162  1
  O  O19  1  0.35083279  0.86815045  0.27968162  1
  O  O20  1  0.68441402  0.98971135  0.90460263  1
  O  O21  1  0.01028865  0.31558598  0.40460263  1
  O  O22  1  0.28729598  0.49152133  0.92519760  1
  O  O23  1  0.50847867  0.71270402  0.42519760  1
  O  O24  1  0.39849964  0.39849964  0.75000000  1
  O  O25  1  0.84411805  0.84411805  0.75000000  1
  O  O26  1  0.15588195  0.15588195  0.25000000  1
  O  O27  1  0.60150036  0.60150036  0.25000000  1
  O  O28  1  0.49152133  0.28729598  0.57480240  1
  O  O29  1  0.71270402  0.50847867  0.07480240  1
  O  O30  1  0.98971135  0.68441402  0.59539737  1
  O  O31  1  0.31558598  0.01028865  0.09539737  1
  O  O32  1  0.64916721  0.13184955  0.72031838  1
  O  O33  1  0.86815045  0.35083279  0.22031838  1
  O  O34  1  0.00870268  0.23374765  0.80967659  1
  O  O35  1  0.76625235  0.99129732  0.30967659  1
