# generated using pymatgen
data_Na2LiFePCO7
_symmetry_space_group_name_H-M   'P 1'
_cell_length_a   8.81609086
_cell_length_b   6.73550664
_cell_length_c   10.22201861
_cell_angle_alpha   89.62910209
_cell_angle_beta   88.22887957
_cell_angle_gamma   90.37559388
_symmetry_Int_Tables_number   1
_chemical_formula_structural   Na2LiFePCO7
_chemical_formula_sum   'Na8 Li4 Fe4 P4 C4 O28'
_cell_volume   606.67548618
_cell_formula_units_Z   4
loop_
 _symmetry_equiv_pos_site_id
 _symmetry_equiv_pos_as_xyz
  1  'x, y, z'
loop_
 _atom_site_type_symbol
 _atom_site_label
 _atom_site_symmetry_multiplicity
 _atom_site_fract_x
 _atom_site_fract_y
 _atom_site_fract_z
 _atom_site_occupancy
  Na  Na0  1  0.08283917  0.25493733  0.87819659  1
  Na  Na1  1  0.25978798  0.99863376  0.62577843  1
  Na  Na2  1  0.26151034  0.00212708  0.12600498  1
  Na  Na3  1  0.26173832  0.50132497  0.12532942  1
  Na  Na4  1  0.74091760  0.50284558  0.87439316  1
  Na  Na5  1  0.74002316  0.99577398  0.87425583  1
  Na  Na6  1  0.73765222  0.50171639  0.37673436  1
  Na  Na7  1  0.73753468  0.99951920  0.37731884  1
  Li  Li8  1  0.08719575  0.25461161  0.37769413  1
  Li  Li9  1  0.27322262  0.48008999  0.61734118  1
  Li  Li10  1  0.90852166  0.74206200  0.62232968  1
  Li  Li11  1  0.91048339  0.75011591  0.12744272  1
  Fe  Fe12  1  0.35351512  0.74707889  0.88817111  1
  Fe  Fe13  1  0.34712807  0.74744520  0.39432637  1
  Fe  Fe14  1  0.64767592  0.24936936  0.61430793  1
  Fe  Fe15  1  0.64972090  0.25124040  0.10985771  1
  P  P16  1  0.40952858  0.25246660  0.85080939  1
  P  P17  1  0.40626680  0.25019899  0.35699638  1
  P  P18  1  0.59243658  0.74369640  0.64839810  1
  P  P19  1  0.59191415  0.75166321  0.14793861  1
  C  C20  1  0.05295747  0.74859525  0.86181053  1
  C  C21  1  0.05003417  0.74961565  0.36302200  1
  C  C22  1  0.95448728  0.25884917  0.62722426  1
  C  C23  1  0.94272243  0.25056245  0.14144487  1
  O  O24  1  0.09770713  0.27524004  0.64805740  1
  O  O25  1  0.08688341  0.24881349  0.15819475  1
  O  O26  1  0.09012449  0.74989949  0.98419329  1
  O  O27  1  0.09119450  0.75046639  0.48438374  1
  O  O28  1  0.15846721  0.74439633  0.76971466  1
  O  O29  1  0.15363771  0.74638013  0.26887827  1
  O  O30  1  0.31401328  0.06465854  0.88949457  1
  O  O31  1  0.31588020  0.43440817  0.89738583  1
  O  O32  1  0.30816641  0.06254145  0.39368231  1
  O  O33  1  0.30539314  0.42982710  0.40124328  1
  O  O34  1  0.42960297  0.26380489  0.69758613  1
  O  O35  1  0.43395234  0.72946336  0.58611524  1
  O  O36  1  0.43458416  0.25624575  0.20549119  1
  O  O37  1  0.43853734  0.75456490  0.07918373  1
  O  O38  1  0.56830363  0.24813795  0.91130303  1
  O  O39  1  0.56778706  0.74446571  0.80021893  1
  O  O40  1  0.56116522  0.25109102  0.42383615  1
  O  O41  1  0.56143548  0.75099619  0.29879548  1
  O  O42  1  0.69774849  0.56725907  0.60874782  1
  O  O43  1  0.68471335  0.93262296  0.60542757  1
  O  O44  1  0.69061546  0.56764766  0.10889279  1
  O  O45  1  0.69331587  0.93585173  0.10889679  1
  O  O46  1  0.85626151  0.24872704  0.72645941  1
  O  O47  1  0.84914834  0.25144735  0.24199908  1
  O  O48  1  0.90432025  0.25116578  0.50923678  1
  O  O49  1  0.88637386  0.25193936  0.02429432  1
  O  O50  1  0.91204843  0.75175487  0.82852169  1
  O  O51  1  0.90880839  0.75164192  0.33263820  1
