# generated using pymatgen
data_Li6V3P8O29
_symmetry_space_group_name_H-M   'P 1'
_cell_length_a   9.81476189
_cell_length_b   9.85267266
_cell_length_c   13.92464808
_cell_angle_alpha   90.11399403
_cell_angle_beta   90.35220177
_cell_angle_gamma   60.02983267
_symmetry_Int_Tables_number   1
_chemical_formula_structural   Li6V3P8O29
_chemical_formula_sum   'Li12 V6 P16 O58'
_cell_volume   1166.46205165
_cell_formula_units_Z   2
loop_
 _symmetry_equiv_pos_site_id
 _symmetry_equiv_pos_as_xyz
  1  'x, y, z'
loop_
 _atom_site_type_symbol
 _atom_site_label
 _atom_site_symmetry_multiplicity
 _atom_site_fract_x
 _atom_site_fract_y
 _atom_site_fract_z
 _atom_site_occupancy
  Li  Li0  1  0.77157234  0.90566939  0.56021593  1
  Li  Li1  1  0.90573377  0.32365850  0.56193593  1
  Li  Li2  1  0.66974939  0.66695621  0.88363584  1
  Li  Li3  1  0.77524625  0.31696079  0.05978663  1
  Li  Li4  1  0.31230796  0.91223772  0.06085393  1
  Li  Li5  1  0.67674268  0.22868220  0.43926275  1
  Li  Li6  1  0.32103543  0.77143387  0.56101401  1
  Li  Li7  1  0.68779340  0.08817767  0.93855072  1
  Li  Li8  1  0.22333072  0.68860066  0.94112665  1
  Li  Li9  1  0.32732144  0.33647698  0.11609106  1
  Li  Li10  1  0.09403730  0.67468431  0.43780511  1
  Li  Li11  1  0.22828787  0.09508898  0.44004275  1
  V  V12  1  0.56944095  0.43097773  0.25178428  1
  V  V13  1  0.43266670  0.56579430  0.75026000  1
  V  V14  1  0.56944990  0.99849315  0.74935189  1
  V  V15  1  0.43072126  0.00101678  0.25098936  1
  V  V16  1  0.99488889  0.56998561  0.24459040  1
  V  V17  1  0.00318774  0.43031701  0.75345523  1
  P  P18  1  0.91364986  0.76957126  0.84182475  1
  P  P19  1  0.76916913  0.91356477  0.34060384  1
  P  P20  1  0.91544478  0.32024574  0.34390965  1
  P  P21  1  0.66330247  0.66592985  0.12587519  1
  P  P22  1  0.66684870  0.66475410  0.62658118  1
  P  P23  1  0.77140466  0.32022469  0.84142145  1
  P  P24  1  0.67971312  0.23216471  0.65801519  1
  P  P25  1  0.32042793  0.91019966  0.84512364  1
  P  P26  1  0.67861556  0.09072360  0.15617206  1
  P  P27  1  0.31953744  0.76706833  0.34145540  1
  P  P28  1  0.22976105  0.67876462  0.15721349  1
  P  P29  1  0.33139022  0.33470671  0.37329115  1
  P  P30  1  0.33727677  0.33247093  0.87382019  1
  P  P31  1  0.08439671  0.68116917  0.65597113  1
  P  P32  1  0.23166131  0.08629264  0.66012441  1
  P  P33  1  0.08642146  0.22981942  0.15841340  1
  O  O34  1  0.99724591  0.75709161  0.56440375  1
  O  O35  1  0.91519393  0.75001731  0.34069264  1
  O  O36  1  0.75302010  0.00940802  0.06566859  1
  O  O37  1  0.74563310  0.91834096  0.84042181  1
  O  O38  1  0.88738078  0.62761918  0.82623114  1
  O  O39  1  0.81296897  0.66541194  0.16997745  1
  O  O40  1  0.90440675  0.47830256  0.32618704  1
  O  O41  1  0.99255822  0.23811233  0.07306456  1
  O  O42  1  0.91797675  0.33862563  0.83888063  1
  O  O43  1  0.67273503  0.81285556  0.66620895  1
  O  O44  1  0.61716383  0.90571893  0.32150182  1
  O  O45  1  0.81425876  0.51275552  0.66694506  1
  O  O46  1  0.66574364  0.66400525  0.01815614  1
  O  O47  1  0.66050600  0.66716654  0.51950787  1
  O  O48  1  0.67023686  0.51352463  0.16475284  1
  O  O49  1  0.48766370  0.88533895  0.82463087  1
  O  O50  1  0.51362308  0.81430990  0.16437406  1
  O  O51  1  0.75112991  0.33344683  0.34184821  1
  O  O52  1  0.78984783  0.21082971  0.75041621  1
  O  O53  1  0.75850553  0.24274924  0.56818990  1
  O  O54  1  0.75585313  0.24451563  0.93080857  1
  O  O55  1  0.62626412  0.48648500  0.82597220  1
  O  O56  1  0.51357835  0.66898665  0.66903751  1
  O  O57  1  0.66278339  0.25700579  0.16151142  1
  O  O58  1  0.47919187  0.61717118  0.32308745  1
  O  O59  1  0.33606242  0.91496038  0.34208102  1
  O  O60  1  0.78730584  0.00241332  0.24886271  1
  O  O61  1  0.75517130  0.00277757  0.43144533  1
  O  O62  1  0.24493696  0.99751614  0.56914251  1
  O  O63  1  0.66692723  0.08182722  0.65861114  1
  O  O64  1  0.51953057  0.37892792  0.67463885  1
  O  O65  1  0.33376375  0.74665563  0.84157157  1
  O  O66  1  0.48706875  0.32637439  0.33391558  1
  O  O67  1  0.37479717  0.51346971  0.17462345  1
  O  O68  1  0.24614439  0.75669628  0.06902876  1
  O  O69  1  0.24300369  0.75458884  0.43166705  1
  O  O70  1  0.21150270  0.78832155  0.24940046  1
  O  O71  1  0.24842131  0.66538026  0.65768808  1
  O  O72  1  0.48884517  0.18459329  0.83656587  1
  O  O73  1  0.51185913  0.11484719  0.17483517  1
  O  O74  1  0.33692006  0.48449728  0.83305961  1
  O  O75  1  0.33724919  0.34032937  0.98146210  1
  O  O76  1  0.33290762  0.33350331  0.48051044  1
  O  O77  1  0.18421236  0.48598018  0.33087769  1
  O  O78  1  0.38327684  0.09502863  0.67864326  1
  O  O79  1  0.32548985  0.18612720  0.33357837  1
  O  O80  1  0.08369051  0.66209873  0.15859237  1
  O  O81  1  0.99124888  0.79292514  0.74519784  1
  O  O82  1  0.00778464  0.76108233  0.92678739  1
  O  O83  1  0.09208828  0.52362728  0.67555399  1
  O  O84  1  0.19042989  0.33415970  0.83020862  1
  O  O85  1  0.11173936  0.37288304  0.17257678  1
  O  O86  1  0.25452248  0.08117539  0.15997202  1
  O  O87  1  0.24734698  0.99598190  0.93472020  1
  O  O88  1  0.21216296  0.99889816  0.75144989  1
  O  O89  1  0.08511052  0.25066761  0.65956727  1
  O  O90  1  0.00189564  0.24185570  0.43530493  1
  O  O91  1  0.00829089  0.20715444  0.25480843  1
