# generated using pymatgen
data_ZnN6
_symmetry_space_group_name_H-M   'P 1'
_cell_length_a   6.07178972
_cell_length_b   13.03189703
_cell_length_c   16.46968147
_cell_angle_alpha   90.00000000
_cell_angle_beta   90.00000000
_cell_angle_gamma   90.00000000
_symmetry_Int_Tables_number   1
_chemical_formula_structural   ZnN6
_chemical_formula_sum   'Zn12 N72'
_cell_volume   1303.19547145
_cell_formula_units_Z   12
loop_
 _symmetry_equiv_pos_site_id
 _symmetry_equiv_pos_as_xyz
  1  'x, y, z'
loop_
 _atom_site_type_symbol
 _atom_site_label
 _atom_site_symmetry_multiplicity
 _atom_site_fract_x
 _atom_site_fract_y
 _atom_site_fract_z
 _atom_site_occupancy
  Zn  Zn0  1  0.80478541  0.81516916  0.92124765  1
  Zn  Zn1  1  0.19521459  0.18483084  0.07875235  1
  Zn  Zn2  1  0.69521459  0.31516916  0.07875235  1
  Zn  Zn3  1  0.19521459  0.18483084  0.42124765  1
  Zn  Zn4  1  0.30478541  0.68483084  0.92124765  1
  Zn  Zn5  1  0.80478541  0.81516916  0.57875235  1
  Zn  Zn6  1  0.30478541  0.68483084  0.57875235  1
  Zn  Zn7  1  0.69521459  0.31516916  0.42124765  1
  Zn  Zn8  1  0.41027961  0.50301106  0.75000000  1
  Zn  Zn9  1  0.58972039  0.49698894  0.25000000  1
  Zn  Zn10  1  0.08972039  0.00301106  0.25000000  1
  Zn  Zn11  1  0.91027961  0.99698894  0.75000000  1
  N  N12  1  0.91381155  0.67896665  0.38547916  1
  N  N13  1  0.08618845  0.32103335  0.61452084  1
  N  N14  1  0.58618845  0.17896665  0.61452084  1
  N  N15  1  0.08618845  0.32103335  0.88547916  1
  N  N16  1  0.41381155  0.82103335  0.38547916  1
  N  N17  1  0.91381155  0.67896665  0.11452084  1
  N  N18  1  0.41381155  0.82103335  0.11452084  1
  N  N19  1  0.58618845  0.17896665  0.88547916  1
  N  N20  1  0.71137414  0.47084148  0.94697124  1
  N  N21  1  0.28862586  0.52915852  0.05302876  1
  N  N22  1  0.78862586  0.97084148  0.05302876  1
  N  N23  1  0.28862586  0.52915852  0.44697124  1
  N  N24  1  0.21137414  0.02915852  0.94697124  1
  N  N25  1  0.71137414  0.47084148  0.55302876  1
  N  N26  1  0.21137414  0.02915852  0.55302876  1
  N  N27  1  0.78862586  0.97084148  0.44697124  1
  N  N28  1  0.43796311  0.55731032  0.86946063  1
  N  N29  1  0.56203689  0.44268968  0.13053937  1
  N  N30  1  0.06203689  0.05731032  0.13053937  1
  N  N31  1  0.56203689  0.44268968  0.36946063  1
  N  N32  1  0.93796311  0.94268968  0.86946063  1
  N  N33  1  0.43796311  0.55731032  0.63053937  1
  N  N34  1  0.93796311  0.94268968  0.63053937  1
  N  N35  1  0.06203689  0.05731032  0.36946063  1
  N  N36  1  0.57870347  0.51317086  0.90967680  1
  N  N37  1  0.42129653  0.48682914  0.09032320  1
  N  N38  1  0.92129653  0.01317086  0.09032320  1
  N  N39  1  0.42129653  0.48682914  0.40967680  1
  N  N40  1  0.07870347  0.98682914  0.90967680  1
  N  N41  1  0.57870347  0.51317086  0.59032320  1
  N  N42  1  0.07870347  0.98682914  0.59032320  1
  N  N43  1  0.92129653  0.01317086  0.40967680  1
  N  N44  1  0.97250152  0.70157916  0.44953057  1
  N  N45  1  0.02749848  0.29842084  0.55046943  1
  N  N46  1  0.52749848  0.20157916  0.55046943  1
  N  N47  1  0.02749848  0.29842084  0.94953057  1
  N  N48  1  0.47250152  0.79842084  0.44953057  1
  N  N49  1  0.97250152  0.70157916  0.05046943  1
  N  N50  1  0.47250152  0.79842084  0.05046943  1
  N  N51  1  0.52749848  0.20157916  0.94953057  1
  N  N52  1  0.89723905  0.46439571  0.75000000  1
  N  N53  1  0.10276095  0.53560429  0.25000000  1
  N  N54  1  0.60276095  0.96439571  0.25000000  1
  N  N55  1  0.39723905  0.03560429  0.75000000  1
  N  N56  1  0.71434683  0.43290121  0.75000000  1
  N  N57  1  0.28565317  0.56709879  0.25000000  1
  N  N58  1  0.78565317  0.93290121  0.25000000  1
  N  N59  1  0.21434683  0.06709879  0.75000000  1
  N  N60  1  0.72663762  0.73493061  0.82135103  1
  N  N61  1  0.27336238  0.26506939  0.17864897  1
  N  N62  1  0.77336238  0.23493061  0.17864897  1
  N  N63  1  0.27336238  0.26506939  0.32135103  1
  N  N64  1  0.22663762  0.76506939  0.82135103  1
  N  N65  1  0.72663762  0.73493061  0.67864897  1
  N  N66  1  0.22663762  0.76506939  0.67864897  1
  N  N67  1  0.77336238  0.23493061  0.32135103  1
  N  N68  1  0.73166654  0.73972988  0.75000000  1
  N  N69  1  0.26833346  0.26027012  0.25000000  1
  N  N70  1  0.76833346  0.23972988  0.25000000  1
  N  N71  1  0.23166654  0.76027012  0.75000000  1
  N  N72  1  0.02967165  0.72755733  0.98207554  1
  N  N73  1  0.97032835  0.27244267  0.01792446  1
  N  N74  1  0.47032835  0.22755733  0.01792446  1
  N  N75  1  0.97032835  0.27244267  0.48207554  1
  N  N76  1  0.52967165  0.77244267  0.98207554  1
  N  N77  1  0.02967165  0.72755733  0.51792446  1
  N  N78  1  0.52967165  0.77244267  0.51792446  1
  N  N79  1  0.47032835  0.22755733  0.48207554  1
  N  N80  1  0.57902948  0.00476642  0.75000000  1
  N  N81  1  0.42097052  0.99523358  0.25000000  1
  N  N82  1  0.92097052  0.50476642  0.25000000  1
  N  N83  1  0.07902948  0.49523358  0.75000000  1
