# generated using pymatgen
data_Na2Ge2O5
_symmetry_space_group_name_H-M   'P 1'
_cell_length_a   6.61246237
_cell_length_b   5.08702708
_cell_length_c   16.30858044
_cell_angle_alpha   90.00000000
_cell_angle_beta   90.00000000
_cell_angle_gamma   90.00000000
_symmetry_Int_Tables_number   1
_chemical_formula_structural   Na2Ge2O5
_chemical_formula_sum   'Na8 Ge8 O20'
_cell_volume   548.58436172
_cell_formula_units_Z   4
loop_
 _symmetry_equiv_pos_site_id
 _symmetry_equiv_pos_as_xyz
  1  'x, y, z'
loop_
 _atom_site_type_symbol
 _atom_site_label
 _atom_site_symmetry_multiplicity
 _atom_site_fract_x
 _atom_site_fract_y
 _atom_site_fract_z
 _atom_site_occupancy
  Na  Na0  1  0.09992183  0.77772512  0.05610745  1
  Na  Na1  1  0.09992183  0.22227488  0.55610745  1
  Na  Na2  1  0.40007817  0.27772512  0.05610745  1
  Na  Na3  1  0.40007817  0.72227488  0.55610745  1
  Na  Na4  1  0.59992183  0.27772512  0.44389255  1
  Na  Na5  1  0.59992183  0.72227488  0.94389255  1
  Na  Na6  1  0.90007817  0.77772512  0.44389255  1
  Na  Na7  1  0.90007817  0.22227488  0.94389255  1
  Ge  Ge8  1  0.10010011  0.30480864  0.34532538  1
  Ge  Ge9  1  0.10010011  0.69519136  0.84532538  1
  Ge  Ge10  1  0.39989989  0.19519136  0.84532538  1
  Ge  Ge11  1  0.39989989  0.80480864  0.34532538  1
  Ge  Ge12  1  0.60010011  0.19519136  0.65467462  1
  Ge  Ge13  1  0.60010011  0.80480864  0.15467462  1
  Ge  Ge14  1  0.89989989  0.30480864  0.15467462  1
  Ge  Ge15  1  0.89989989  0.69519136  0.65467462  1
  O  O16  1  0.00000000  0.20332143  0.25000000  1
  O  O17  1  0.00000000  0.79667857  0.75000000  1
  O  O18  1  0.05562285  0.23611769  0.07238932  1
  O  O19  1  0.05562285  0.76388231  0.57238932  1
  O  O20  1  0.15415816  0.65208927  0.35178284  1
  O  O21  1  0.15415816  0.34791073  0.85178284  1
  O  O22  1  0.34584184  0.15208927  0.35178284  1
  O  O23  1  0.34584184  0.84791073  0.85178284  1
  O  O24  1  0.44437715  0.73611769  0.07238932  1
  O  O25  1  0.44437715  0.26388231  0.57238932  1
  O  O26  1  0.50000000  0.70332143  0.25000000  1
  O  O27  1  0.50000000  0.29667857  0.75000000  1
  O  O28  1  0.55562285  0.73611769  0.42761068  1
  O  O29  1  0.55562285  0.26388231  0.92761068  1
  O  O30  1  0.65415816  0.15208927  0.14821716  1
  O  O31  1  0.65415816  0.84791073  0.64821716  1
  O  O32  1  0.84584184  0.65208927  0.14821716  1
  O  O33  1  0.84584184  0.34791073  0.64821716  1
  O  O34  1  0.94437715  0.23611769  0.42761068  1
  O  O35  1  0.94437715  0.76388231  0.92761068  1
