# generated using pymatgen
data_Li6V3P8O29
_symmetry_space_group_name_H-M   'P 1'
_cell_length_a   9.83588333
_cell_length_b   9.79732474
_cell_length_c   13.90405206
_cell_angle_alpha   89.96985353
_cell_angle_beta   90.12629484
_cell_angle_gamma   59.97996892
_symmetry_Int_Tables_number   1
_chemical_formula_structural   Li6V3P8O29
_chemical_formula_sum   'Li12 V6 P16 O58'
_cell_volume   1160.12121585
_cell_formula_units_Z   2
loop_
 _symmetry_equiv_pos_site_id
 _symmetry_equiv_pos_as_xyz
  1  'x, y, z'
loop_
 _atom_site_type_symbol
 _atom_site_label
 _atom_site_symmetry_multiplicity
 _atom_site_fract_x
 _atom_site_fract_y
 _atom_site_fract_z
 _atom_site_occupancy
  Li  Li0  1  0.91056472  0.77569684  0.06058358  1
  Li  Li1  1  0.66819351  0.66831299  0.88263275  1
  Li  Li2  1  0.77764643  0.31348485  0.06098098  1
  Li  Li3  1  0.31444640  0.91065695  0.06172123  1
  Li  Li4  1  0.66497823  0.23581430  0.44254606  1
  Li  Li5  1  0.33254745  0.76516040  0.56206784  1
  Li  Li6  1  0.67694235  0.09544398  0.93707413  1
  Li  Li7  1  0.22646686  0.67861948  0.93984429  1
  Li  Li8  1  0.09428588  0.66789516  0.44161899  1
  Li  Li9  1  0.23121246  0.10354911  0.44317327  1
  Li  Li10  1  0.09584306  0.22788169  0.93759165  1
  Li  Li11  1  0.96557196  0.02270500  0.50792206  1
  V  V12  1  0.56937820  0.43064619  0.25062998  1
  V  V13  1  0.43622263  0.56194406  0.74983143  1
  V  V14  1  0.56715984  0.99663323  0.74578642  1
  V  V15  1  0.43272509  0.00258785  0.25190099  1
  V  V16  1  0.99994448  0.56696112  0.25161904  1
  V  V17  1  0.99774446  0.43516157  0.74404317  1
  P  P18  1  0.91144636  0.77023261  0.84170092  1
  P  P19  1  0.77388830  0.91582138  0.34190532  1
  P  P20  1  0.91557011  0.30980433  0.34214559  1
  P  P21  1  0.66660951  0.66670892  0.12705279  1
  P  P22  1  0.66339819  0.66650951  0.62787210  1
  P  P23  1  0.77274855  0.31849285  0.84155443  1
  P  P24  1  0.68718060  0.22537125  0.65626901  1
  P  P25  1  0.31998312  0.90906272  0.84370197  1
  P  P26  1  0.67984132  0.08662774  0.15569070  1
  P  P27  1  0.31702392  0.77085799  0.34267576  1
  P  P28  1  0.23256439  0.67920548  0.15867176  1
  P  P29  1  0.33346314  0.33454848  0.37335206  1
  P  P30  1  0.33294546  0.33129264  0.87116731  1
  P  P31  1  0.08795750  0.68661909  0.65626548  1
  P  P32  1  0.22700668  0.08765269  0.65825764  1
  P  P33  1  0.08721991  0.23290079  0.15663040  1
  O  O34  1  0.00819945  0.77269274  0.56553929  1
  O  O35  1  0.91670385  0.74465576  0.34052418  1
  O  O36  1  0.75376196  0.00067755  0.06375909  1
  O  O37  1  0.74780150  0.91883364  0.84448091  1
  O  O38  1  0.89075886  0.62485174  0.82706900  1
  O  O39  1  0.81327966  0.67408602  0.16575966  1
  O  O40  1  0.91265390  0.46678418  0.33113511  1
  O  O41  1  0.00209359  0.24446769  0.06414373  1
  O  O42  1  0.92153208  0.33220814  0.84425170  1
  O  O43  1  0.66621525  0.81176092  0.67543534  1
  O  O44  1  0.62099615  0.91184481  0.33036288  1
  O  O45  1  0.81054910  0.51804869  0.67311448  1
  O  O46  1  0.66638788  0.66664558  0.01843049  1
  O  O47  1  0.65652482  0.67230078  0.52133895  1
  O  O48  1  0.67532464  0.51107151  0.16514281  1
  O  O49  1  0.48562994  0.88707010  0.82912513  1
  O  O50  1  0.51322955  0.81356711  0.16616313  1
  O  O51  1  0.74480476  0.33794633  0.34008987  1
  O  O52  1  0.79313409  0.21096073  0.75001120  1
  O  O53  1  0.77478730  0.21762920  0.56614259  1
  O  O54  1  0.75236751  0.24433695  0.93132488  1
  O  O55  1  0.62907710  0.48664275  0.82535400  1
  O  O56  1  0.51047295  0.67306719  0.67010026  1
  O  O57  1  0.66459675  0.25157342  0.15737356  1
  O  O58  1  0.47409098  0.61989910  0.32831989  1
  O  O59  1  0.33789716  0.91784342  0.34103610  1
  O  O60  1  0.79611224  0.99128710  0.24275009  1
  O  O61  1  0.78562964  0.00792933  0.42421633  1
  O  O62  1  0.22852048  0.99720820  0.56935449  1
  O  O63  1  0.65933360  0.08640444  0.66373886  1
  O  O64  1  0.53189007  0.38353815  0.66796658  1
  O  O65  1  0.33448333  0.74480237  0.84605218  1
  O  O66  1  0.48933787  0.32069357  0.33242830  1
  O  O67  1  0.38213336  0.51965945  0.17725814  1
  O  O68  1  0.24414777  0.75646190  0.06776909  1
  O  O69  1  0.22931134  0.77174182  0.43203164  1
  O  O70  1  0.20902340  0.79247159  0.24918279  1
  O  O71  1  0.25364967  0.66694780  0.66184135  1
  O  O72  1  0.48200867  0.18085533  0.83059082  1
  O  O73  1  0.52001317  0.09817439  0.17518813  1
  O  O74  1  0.33475613  0.48178482  0.82947155  1
  O  O75  1  0.33344186  0.33499261  0.97847399  1
  O  O76  1  0.33291551  0.33484052  0.48081934  1
  O  O77  1  0.19015998  0.49043303  0.33192236  1
  O  O78  1  0.37992306  0.09266691  0.66989068  1
  O  O79  1  0.32060149  0.19039727  0.33241027  1
  O  O80  1  0.08392465  0.66361204  0.15844873  1
  O  O81  1  0.99757015  0.79258507  0.74991348  1
  O  O82  1  0.00523945  0.75306411  0.93153111  1
  O  O83  1  0.09574557  0.52683886  0.67045590  1
  O  O84  1  0.18191463  0.33498175  0.82958087  1
  O  O85  1  0.09767760  0.38218210  0.17672706  1
  O  O86  1  0.25174190  0.08371560  0.15900934  1
  O  O87  1  0.24208347  0.00304816  0.93288887  1
  O  O88  1  0.21145520  0.99667989  0.75189855  1
  O  O89  1  0.08406634  0.25220459  0.66017634  1
  O  O90  1  0.00618706  0.20565725  0.42492774  1
  O  O91  1  0.99161144  0.21183666  0.24312765  1
