# generated using pymatgen
data_K2LuPCO7
_symmetry_space_group_name_H-M   'P 1'
_cell_length_a   9.88935432
_cell_length_b   7.04147731
_cell_length_c   5.78686946
_cell_angle_alpha   90.00000000
_cell_angle_beta   91.61272055
_cell_angle_gamma   90.00000000
_symmetry_Int_Tables_number   1
_chemical_formula_structural   K2LuPCO7
_chemical_formula_sum   'K4 Lu2 P2 C2 O14'
_cell_volume   402.81287684
_cell_formula_units_Z   2
loop_
 _symmetry_equiv_pos_site_id
 _symmetry_equiv_pos_as_xyz
  1  'x, y, z'
loop_
 _atom_site_type_symbol
 _atom_site_label
 _atom_site_symmetry_multiplicity
 _atom_site_fract_x
 _atom_site_fract_y
 _atom_site_fract_z
 _atom_site_occupancy
  K  K0  1  0.22713721  0.48687582  0.24587670  1
  K  K1  1  0.22713721  0.01312418  0.24587670  1
  K  K2  1  0.77286279  0.51312418  0.75412330  1
  K  K3  1  0.77286279  0.98687582  0.75412330  1
  Lu  Lu4  1  0.36346975  0.75000000  0.77722321  1
  Lu  Lu5  1  0.63653025  0.25000000  0.22277679  1
  P  P6  1  0.43074113  0.25000000  0.71283770  1
  P  P7  1  0.56925887  0.75000000  0.28716230  1
  C  C8  1  0.09240497  0.75000000  0.72950092  1
  C  C9  1  0.90759503  0.25000000  0.27049908  1
  O  O10  1  0.03395587  0.25000000  0.29985983  1
  O  O11  1  0.15433639  0.75000000  0.93474257  1
  O  O12  1  0.17669819  0.75000000  0.55404159  1
  O  O13  1  0.34943071  0.06731890  0.76464720  1
  O  O14  1  0.34943071  0.43268110  0.76464720  1
  O  O15  1  0.43499283  0.75000000  0.13649056  1
  O  O16  1  0.46727241  0.25000000  0.45095719  1
  O  O17  1  0.53272759  0.75000000  0.54904281  1
  O  O18  1  0.56500717  0.25000000  0.86350944  1
  O  O19  1  0.65056929  0.56731890  0.23535280  1
  O  O20  1  0.65056929  0.93268110  0.23535280  1
  O  O21  1  0.82330181  0.25000000  0.44595841  1
  O  O22  1  0.84566361  0.25000000  0.06525743  1
  O  O23  1  0.96604413  0.75000000  0.70014017  1
