# generated using pymatgen
data_TiMn3(PO4)4
_symmetry_space_group_name_H-M   'P 1'
_cell_length_a   4.95968473
_cell_length_b   9.96035218
_cell_length_c   6.04289108
_cell_angle_alpha   90.00000000
_cell_angle_beta   90.00000000
_cell_angle_gamma   90.25496376
_symmetry_Int_Tables_number   1
_chemical_formula_structural   TiMn3(PO4)4
_chemical_formula_sum   'Ti1 Mn3 P4 O16'
_cell_volume   298.51711231
_cell_formula_units_Z   1
loop_
 _symmetry_equiv_pos_site_id
 _symmetry_equiv_pos_as_xyz
  1  'x, y, z'
loop_
 _atom_site_type_symbol
 _atom_site_label
 _atom_site_symmetry_multiplicity
 _atom_site_fract_x
 _atom_site_fract_y
 _atom_site_fract_z
 _atom_site_occupancy
  Ti  Ti0  1  0.96388955  0.27661917  0.25000000  1
  Mn  Mn1  1  0.06708639  0.71113847  0.75000000  1
  Mn  Mn2  1  0.45866820  0.22384607  0.75000000  1
  Mn  Mn3  1  0.57479468  0.78468319  0.25000000  1
  P  P4  1  0.08427503  0.60158236  0.25000000  1
  P  P5  1  0.38977492  0.09892204  0.25000000  1
  P  P6  1  0.58579142  0.89558529  0.75000000  1
  P  P7  1  0.93481021  0.40541517  0.75000000  1
  O  O8  1  0.13627120  0.44639078  0.25000000  1
  O  O9  1  0.22739798  0.66837621  0.04993681  1
  O  O10  1  0.22739798  0.66837621  0.45006319  1
  O  O11  1  0.23811639  0.39473097  0.75000000  1
  O  O12  1  0.27698809  0.87274392  0.75000000  1
  O  O13  1  0.23414823  0.17036345  0.05642443  1
  O  O14  1  0.23414823  0.17036345  0.44357557  1
  O  O15  1  0.35440008  0.94747772  0.25000000  1
  O  O16  1  0.64369602  0.04489730  0.75000000  1
  O  O17  1  0.72739685  0.82421476  0.54966916  1
  O  O18  1  0.72739685  0.82421476  0.95033084  1
  O  O19  1  0.69069937  0.13868573  0.25000000  1
  O  O20  1  0.77634260  0.61943282  0.25000000  1
  O  O21  1  0.80182799  0.32958825  0.54515162  1
  O  O22  1  0.80182799  0.32958825  0.95484838  1
  O  O23  1  0.84285376  0.55276467  0.75000000  1
