# generated using pymatgen
data_Li7Mn12Cu5O32
_symmetry_space_group_name_H-M   'P 1'
_cell_length_a   8.32125535
_cell_length_b   8.28499419
_cell_length_c   8.30616253
_cell_angle_alpha   90.02190617
_cell_angle_beta   89.95293895
_cell_angle_gamma   90.04737169
_symmetry_Int_Tables_number   1
_chemical_formula_structural   Li7Mn12Cu5O32
_chemical_formula_sum   'Li7 Mn12 Cu5 O32'
_cell_volume   572.63930759
_cell_formula_units_Z   1
loop_
 _symmetry_equiv_pos_site_id
 _symmetry_equiv_pos_as_xyz
  1  'x, y, z'
loop_
 _atom_site_type_symbol
 _atom_site_label
 _atom_site_symmetry_multiplicity
 _atom_site_fract_x
 _atom_site_fract_y
 _atom_site_fract_z
 _atom_site_occupancy
  Li  Li0  1  0.00253659  0.00274624  0.00316000  1
  Li  Li1  1  0.12711966  0.87545706  0.37289099  1
  Li  Li2  1  0.37412044  0.12719389  0.87351691  1
  Li  Li3  1  0.49743259  0.99656548  0.50302630  1
  Li  Li4  1  0.50275724  0.49737404  0.99693476  1
  Li  Li5  1  0.62475115  0.62718611  0.62745723  1
  Li  Li6  1  0.87329947  0.37272760  0.12476263  1
  Mn  Mn7  1  0.12497421  0.12780398  0.62648411  1
  Mn  Mn8  1  0.12689866  0.37445815  0.87245222  1
  Mn  Mn9  1  0.12892684  0.62648656  0.12338436  1
  Mn  Mn10  1  0.37236092  0.37397462  0.62544352  1
  Mn  Mn11  1  0.37562600  0.62532509  0.37241078  1
  Mn  Mn12  1  0.37582468  0.87040501  0.12653824  1
  Mn  Mn13  1  0.62261922  0.37154464  0.37379322  1
  Mn  Mn14  1  0.62708143  0.12504381  0.12862395  1
  Mn  Mn15  1  0.62950356  0.87303351  0.87559298  1
  Mn  Mn16  1  0.87109163  0.12487316  0.37551777  1
  Mn  Mn17  1  0.87307227  0.87721549  0.62837296  1
  Mn  Mn18  1  0.87561267  0.62768972  0.87568783  1
  Cu  Cu19  1  0.24264631  0.23926741  0.24132521  1
  Cu  Cu20  1  0.25676534  0.76015212  0.74196804  1
  Cu  Cu21  1  0.74179137  0.25807358  0.75981253  1
  Cu  Cu22  1  0.75776296  0.74270589  0.25644651  1
  Cu  Cu23  1  0.99329342  0.50697681  0.49356325  1
  O  O24  1  0.10097040  0.13000209  0.39069461  1
  O  O25  1  0.10860020  0.89616009  0.62503785  1
  O  O26  1  0.11473401  0.61503543  0.88596556  1
  O  O27  1  0.12720382  0.38896352  0.10310638  1
  O  O28  1  0.12216700  0.14846827  0.85536063  1
  O  O29  1  0.13373174  0.36701855  0.63361582  1
  O  O30  1  0.14127889  0.62111139  0.35446327  1
  O  O31  1  0.14930083  0.85578433  0.12220632  1
  O  O32  1  0.35021016  0.14431342  0.62154645  1
  O  O33  1  0.35527930  0.37839429  0.85107046  1
  O  O34  1  0.36380005  0.63464377  0.13684799  1
  O  O35  1  0.37739545  0.85148663  0.35616964  1
  O  O36  1  0.37406233  0.61123850  0.60278441  1
  O  O37  1  0.38575473  0.38489306  0.38572456  1
  O  O38  1  0.39159680  0.10220300  0.12608818  1
  O  O39  1  0.39990340  0.86793649  0.89096054  1
  O  O40  1  0.60215966  0.37164739  0.61047085  1
  O  O41  1  0.60968584  0.60279848  0.37264875  1
  O  O42  1  0.61504278  0.88527294  0.11471751  1
  O  O43  1  0.62657468  0.10949288  0.89782382  1
  O  O44  1  0.62270426  0.35190241  0.14445053  1
  O  O45  1  0.63593304  0.13587541  0.36460798  1
  O  O46  1  0.64469826  0.87775379  0.64901349  1
  O  O47  1  0.65034870  0.64289552  0.87801466  1
  O  O48  1  0.85314677  0.35964215  0.37930412  1
  O  O49  1  0.85598332  0.12219683  0.14951711  1
  O  O50  1  0.86529807  0.86377896  0.86396871  1
  O  O51  1  0.87857965  0.64584420  0.64104378  1
  O  O52  1  0.87115650  0.89083753  0.39763383  1
  O  O53  1  0.88543683  0.11472427  0.61549290  1
  O  O54  1  0.89160434  0.39734217  0.87092865  1
  O  O55  1  0.89779456  0.62618328  0.10967736  1
