# generated using pymatgen
data_LiP5WO15
_symmetry_space_group_name_H-M   'P 1'
_cell_length_a   10.70076056
_cell_length_b   13.85346036
_cell_length_c   9.50386402
_cell_angle_alpha   90.00000000
_cell_angle_beta   68.08307267
_cell_angle_gamma   90.00000000
_symmetry_Int_Tables_number   1
_chemical_formula_structural   LiP5WO15
_chemical_formula_sum   'Li4 P20 W4 O60'
_cell_volume   1307.05199231
_cell_formula_units_Z   4
loop_
 _symmetry_equiv_pos_site_id
 _symmetry_equiv_pos_as_xyz
  1  'x, y, z'
loop_
 _atom_site_type_symbol
 _atom_site_label
 _atom_site_symmetry_multiplicity
 _atom_site_fract_x
 _atom_site_fract_y
 _atom_site_fract_z
 _atom_site_occupancy
  Li  Li0  1  0.01519421  0.63275088  0.92841816  1
  Li  Li1  1  0.48480579  0.36724912  0.07158184  1
  Li  Li2  1  0.51519421  0.86724912  0.92841816  1
  Li  Li3  1  0.98480579  0.13275088  0.07158184  1
  P  P4  1  0.26295264  0.25179341  0.01558501  1
  P  P5  1  0.24520203  0.57510828  0.18258885  1
  P  P6  1  0.23415124  0.91235983  0.17582995  1
  P  P7  1  0.26035712  0.64166949  0.47557522  1
  P  P8  1  0.25760150  0.85615983  0.47230621  1
  P  P9  1  0.24239850  0.14384017  0.52769379  1
  P  P10  1  0.23964288  0.35833051  0.52442478  1
  P  P11  1  0.26584876  0.08764017  0.82417005  1
  P  P12  1  0.25479797  0.42489172  0.81741115  1
  P  P13  1  0.23704736  0.74820659  0.98441499  1
  P  P14  1  0.76295264  0.24820659  0.01558501  1
  P  P15  1  0.74520203  0.92489172  0.18258885  1
  P  P16  1  0.73415124  0.58764017  0.17582995  1
  P  P17  1  0.76035712  0.85833051  0.47557522  1
  P  P18  1  0.75760150  0.64384017  0.47230621  1
  P  P19  1  0.73964288  0.14166949  0.52442478  1
  P  P20  1  0.74239850  0.35615983  0.52769379  1
  P  P21  1  0.75479797  0.07510828  0.81741115  1
  P  P22  1  0.76584876  0.41235983  0.82417005  1
  P  P23  1  0.73704736  0.75179341  0.98441499  1
  W  W24  1  0.00201640  0.00090301  0.49770569  1
  W  W25  1  0.99798360  0.50090301  0.50229431  1
  W  W26  1  0.49798360  0.99909699  0.50229431  1
  W  W27  1  0.50201640  0.49909699  0.49770569  1
  O  O28  1  0.11631471  0.23332098  0.07090055  1
  O  O29  1  0.19161288  0.65561505  0.10403724  1
  O  O30  1  0.15972641  0.83312411  0.11512622  1
  O  O31  1  0.11473575  0.52312379  0.28437591  1
  O  O32  1  0.12016008  0.97916200  0.27609302  1
  O  O33  1  0.11125363  0.12236244  0.50598103  1
  O  O34  1  0.10914269  0.37881841  0.50083654  1
  O  O35  1  0.14130176  0.57890746  0.56427450  1
  O  O36  1  0.14134458  0.92085156  0.55997783  1
  O  O37  1  0.21740288  0.74896143  0.53200176  1
  O  O38  1  0.28968240  0.64294165  0.30136397  1
  O  O39  1  0.28004752  0.84977276  0.29961035  1
  O  O40  1  0.34046658  0.26718380  0.11431805  1
  O  O41  1  0.35788178  0.51363084  0.09162797  1
  O  O42  1  0.35706214  0.95536992  0.06494939  1
  O  O43  1  0.14211822  0.48636916  0.90837203  1
  O  O44  1  0.14293786  0.04463008  0.93505061  1
  O  O45  1  0.15953342  0.73281620  0.88568195  1
  O  O46  1  0.21995248  0.15022724  0.70038965  1
  O  O47  1  0.21031760  0.35705835  0.69863603  1
  O  O48  1  0.28259712  0.25103857  0.46799824  1
  O  O49  1  0.35865542  0.07914844  0.44002217  1
  O  O50  1  0.35869824  0.42109254  0.43572550  1
  O  O51  1  0.38874637  0.87763756  0.49401897  1
  O  O52  1  0.39085731  0.62118159  0.49916346  1
  O  O53  1  0.37983992  0.02083800  0.72390698  1
  O  O54  1  0.38526425  0.47687621  0.71562409  1
  O  O55  1  0.34027359  0.16687589  0.88487378  1
  O  O56  1  0.30838712  0.34438495  0.89596276  1
  O  O57  1  0.61631471  0.26667902  0.07090055  1
  O  O58  1  0.38368529  0.76667902  0.92909945  1
  O  O59  1  0.69161288  0.84438495  0.10403724  1
  O  O60  1  0.65972641  0.66687589  0.11512622  1
  O  O61  1  0.62016008  0.52083800  0.27609302  1
  O  O62  1  0.61473575  0.97687621  0.28437591  1
  O  O63  1  0.60914269  0.12118159  0.50083654  1
  O  O64  1  0.61125363  0.37763756  0.50598103  1
  O  O65  1  0.64130176  0.92109254  0.56427450  1
  O  O66  1  0.64134458  0.57914844  0.55997783  1
  O  O67  1  0.71740288  0.75103857  0.53200176  1
  O  O68  1  0.78004752  0.65022724  0.29961035  1
  O  O69  1  0.78968240  0.85705835  0.30136397  1
  O  O70  1  0.84046658  0.23281620  0.11431805  1
  O  O71  1  0.85706214  0.54463008  0.06494939  1
  O  O72  1  0.85788178  0.98636916  0.09162797  1
  O  O73  1  0.64211822  0.01363084  0.90837203  1
  O  O74  1  0.64293786  0.45536992  0.93505061  1
  O  O75  1  0.65953342  0.76718380  0.88568195  1
  O  O76  1  0.71031760  0.14294165  0.69863603  1
  O  O77  1  0.71995248  0.34977276  0.70038965  1
  O  O78  1  0.78259712  0.24896143  0.46799824  1
  O  O79  1  0.85869824  0.07890746  0.43572550  1
  O  O80  1  0.85865542  0.42085156  0.44002217  1
  O  O81  1  0.88874637  0.62236244  0.49401897  1
  O  O82  1  0.89085731  0.87881841  0.49916346  1
  O  O83  1  0.88526425  0.02312379  0.71562409  1
  O  O84  1  0.87983992  0.47916200  0.72390698  1
  O  O85  1  0.80838712  0.15561505  0.89596276  1
  O  O86  1  0.84027359  0.33312411  0.88487378  1
  O  O87  1  0.88368529  0.73332098  0.92909945  1
