# generated using pymatgen
data_Na2LiFePCO7
_symmetry_space_group_name_H-M   'P 1'
_cell_length_a   8.85570565
_cell_length_b   6.66255578
_cell_length_c   10.31479975
_cell_angle_alpha   89.54361688
_cell_angle_beta   88.36064618
_cell_angle_gamma   89.40483912
_symmetry_Int_Tables_number   1
_chemical_formula_structural   Na2LiFePCO7
_chemical_formula_sum   'Na8 Li4 Fe4 P4 C4 O28'
_cell_volume   608.29021179
_cell_formula_units_Z   4
loop_
 _symmetry_equiv_pos_site_id
 _symmetry_equiv_pos_as_xyz
  1  'x, y, z'
loop_
 _atom_site_type_symbol
 _atom_site_label
 _atom_site_symmetry_multiplicity
 _atom_site_fract_x
 _atom_site_fract_y
 _atom_site_fract_z
 _atom_site_occupancy
  Na  Na0  1  0.08172585  0.24327299  0.88097195  1
  Na  Na1  1  0.08160543  0.24562328  0.38003715  1
  Na  Na2  1  0.26048752  0.99954928  0.62552446  1
  Na  Na3  1  0.26005441  0.50004366  0.62464040  1
  Na  Na4  1  0.25954778  0.50080166  0.12644993  1
  Na  Na5  1  0.74137476  0.50330835  0.87554143  1
  Na  Na6  1  0.73833492  0.50287472  0.37767940  1
  Na  Na7  1  0.73939731  0.99611951  0.37393045  1
  Li  Li8  1  0.27557082  0.01601906  0.11848532  1
  Li  Li9  1  0.72883021  0.98541522  0.87651169  1
  Li  Li10  1  0.90692646  0.75863871  0.62649271  1
  Li  Li11  1  0.91089761  0.76398754  0.12489084  1
  Fe  Fe12  1  0.35076833  0.75038016  0.89291858  1
  Fe  Fe13  1  0.35191075  0.75257251  0.39015507  1
  Fe  Fe14  1  0.64835405  0.24750913  0.61205848  1
  Fe  Fe15  1  0.65112422  0.24759925  0.10882206  1
  P  P16  1  0.41697347  0.24406996  0.85411879  1
  P  P17  1  0.41168161  0.24646519  0.35085058  1
  P  P18  1  0.59536581  0.75275947  0.65053652  1
  P  P19  1  0.58900238  0.75500795  0.14581704  1
  C  C20  1  0.04595667  0.75910403  0.86477894  1
  C  C21  1  0.05328650  0.75254201  0.35978555  1
  C  C22  1  0.93974113  0.24637121  0.63810020  1
  C  C23  1  0.94736758  0.24039428  0.13369279  1
  O  O24  1  0.08477144  0.25327982  0.64623010  1
  O  O25  1  0.09311069  0.22635320  0.13958945  1
  O  O26  1  0.08879328  0.74918156  0.98455091  1
  O  O27  1  0.09268873  0.75153900  0.48133141  1
  O  O28  1  0.14839321  0.75293718  0.77075341  1
  O  O29  1  0.15685021  0.75990280  0.26771381  1
  O  O30  1  0.31551688  0.06480311  0.89950574  1
  O  O31  1  0.32915160  0.43805583  0.89636316  1
  O  O32  1  0.31586310  0.06392516  0.39806653  1
  O  O33  1  0.31655347  0.43774908  0.38720912  1
  O  O34  1  0.43434264  0.24612671  0.70282778  1
  O  O35  1  0.44057862  0.74757383  0.58435995  1
  O  O36  1  0.43220188  0.23599955  0.19972046  1
  O  O37  1  0.43124619  0.77157267  0.08470712  1
  O  O38  1  0.57543181  0.22944100  0.91291804  1
  O  O39  1  0.57015952  0.76763955  0.80086688  1
  O  O40  1  0.56736473  0.24981304  0.41445094  1
  O  O41  1  0.56626647  0.75755752  0.29621978  1
  O  O42  1  0.69297479  0.56269621  0.61797802  1
  O  O43  1  0.69515436  0.93098122  0.60211356  1
  O  O44  1  0.67725237  0.56075362  0.10602259  1
  O  O45  1  0.69600777  0.92967764  0.10083516  1
  O  O46  1  0.85318454  0.23739204  0.74159558  1
  O  O47  1  0.86280698  0.24505526  0.23931082  1
  O  O48  1  0.87741903  0.24837567  0.52460505  1
  O  O49  1  0.88148132  0.25046389  0.02274328  1
  O  O50  1  0.90504127  0.77450093  0.83589840  1
  O  O51  1  0.91310752  0.74622381  0.32872060  1
