# generated using pymatgen
data_Na3CoO3
_symmetry_space_group_name_H-M   'P 1'
_cell_length_a   6.09590087
_cell_length_b   7.67933302
_cell_length_c   8.99784409
_cell_angle_alpha   90.00000000
_cell_angle_beta   90.49100899
_cell_angle_gamma   90.00000000
_symmetry_Int_Tables_number   1
_chemical_formula_structural   Na3CoO3
_chemical_formula_sum   'Na12 Co4 O12'
_cell_volume   421.19568512
_cell_formula_units_Z   4
loop_
 _symmetry_equiv_pos_site_id
 _symmetry_equiv_pos_as_xyz
  1  'x, y, z'
loop_
 _atom_site_type_symbol
 _atom_site_label
 _atom_site_symmetry_multiplicity
 _atom_site_fract_x
 _atom_site_fract_y
 _atom_site_fract_z
 _atom_site_occupancy
  Na  Na0  1  0.11643701  0.73165106  0.72618634  1
  Na  Na1  1  0.10753869  0.84251607  0.06732384  1
  Na  Na2  1  0.25428266  0.96826585  0.46052015  1
  Na  Na3  1  0.24571734  0.46826585  0.03947985  1
  Na  Na4  1  0.38356299  0.23165106  0.77381366  1
  Na  Na5  1  0.39246131  0.34251607  0.43267616  1
  Na  Na6  1  0.60753869  0.65748393  0.56732384  1
  Na  Na7  1  0.61643701  0.76834894  0.22618634  1
  Na  Na8  1  0.75428266  0.53173415  0.96052015  1
  Na  Na9  1  0.74571734  0.03173415  0.53947985  1
  Na  Na10  1  0.89246131  0.15748393  0.93267616  1
  Na  Na11  1  0.88356299  0.26834894  0.27381366  1
  Co  Co12  1  0.07143252  0.64993858  0.35391135  1
  Co  Co13  1  0.42856748  0.14993858  0.14608865  1
  Co  Co14  1  0.57143252  0.85006142  0.85391135  1
  Co  Co15  1  0.92856748  0.35006142  0.64608865  1
  O  O16  1  0.05906254  0.41897394  0.81398355  1
  O  O17  1  0.06674551  0.22339345  0.51148805  1
  O  O18  1  0.14031487  0.13548700  0.12487780  1
  O  O19  1  0.35968513  0.63548700  0.37512220  1
  O  O20  1  0.43325449  0.72339345  0.98851195  1
  O  O21  1  0.44093746  0.91897394  0.68601645  1
  O  O22  1  0.55906254  0.08102606  0.31398355  1
  O  O23  1  0.56674551  0.27660655  0.01148805  1
  O  O24  1  0.64031487  0.36451300  0.62487780  1
  O  O25  1  0.85968513  0.86451300  0.87512220  1
  O  O26  1  0.93325449  0.77660655  0.48851195  1
  O  O27  1  0.94093746  0.58102606  0.18601645  1
