# generated using pymatgen
data_Na3MnSiBO7
_symmetry_space_group_name_H-M   'P 1'
_cell_length_a   8.97862025
_cell_length_b   6.47429529
_cell_length_c   5.26979404
_cell_angle_alpha   90.00000000
_cell_angle_beta   87.76463728
_cell_angle_gamma   90.00000000
_symmetry_Int_Tables_number   1
_chemical_formula_structural   Na3MnSiBO7
_chemical_formula_sum   'Na6 Mn2 Si2 B2 O14'
_cell_volume   306.10127570
_cell_formula_units_Z   2
loop_
 _symmetry_equiv_pos_site_id
 _symmetry_equiv_pos_as_xyz
  1  'x, y, z'
loop_
 _atom_site_type_symbol
 _atom_site_label
 _atom_site_symmetry_multiplicity
 _atom_site_fract_x
 _atom_site_fract_y
 _atom_site_fract_z
 _atom_site_occupancy
  Na  Na0  1  0.08240713  0.25000000  0.76282215  1
  Na  Na1  1  0.26156323  0.00889863  0.25337462  1
  Na  Na2  1  0.26156323  0.49110137  0.25337462  1
  Na  Na3  1  0.73843677  0.50889863  0.74662538  1
  Na  Na4  1  0.73843677  0.99110137  0.74662538  1
  Na  Na5  1  0.91759287  0.75000000  0.23717785  1
  Mn  Mn6  1  0.33475688  0.75000000  0.78370415  1
  Mn  Mn7  1  0.66524312  0.25000000  0.21629585  1
  Si  Si8  1  0.42980385  0.25000000  0.71842195  1
  Si  Si9  1  0.57019615  0.75000000  0.28157805  1
  B  B10  1  0.06825848  0.75000000  0.73047071  1
  B  B11  1  0.93174152  0.25000000  0.26952929  1
  O  O12  1  0.07836162  0.25000000  0.30297060  1
  O  O13  1  0.13612754  0.75000000  0.96577356  1
  O  O14  1  0.17906991  0.75000000  0.53387534  1
  O  O15  1  0.31804886  0.05235363  0.78157166  1
  O  O16  1  0.31804886  0.44764637  0.78157166  1
  O  O17  1  0.47923472  0.25000000  0.41270023  1
  O  O18  1  0.42293250  0.75000000  0.11237632  1
  O  O19  1  0.57706750  0.25000000  0.88762368  1
  O  O20  1  0.52076528  0.75000000  0.58729977  1
  O  O21  1  0.68195114  0.55235363  0.21842834  1
  O  O22  1  0.68195114  0.94764637  0.21842834  1
  O  O23  1  0.82093009  0.25000000  0.46612466  1
  O  O24  1  0.86387246  0.25000000  0.03422644  1
  O  O25  1  0.92163838  0.75000000  0.69702940  1
