# generated using pymatgen
data_Li6V3P8O29
_symmetry_space_group_name_H-M   'P 1'
_cell_length_a   9.79637524
_cell_length_b   9.84014307
_cell_length_c   13.87473567
_cell_angle_alpha   89.97304668
_cell_angle_beta   90.25011258
_cell_angle_gamma   60.04784976
_symmetry_Int_Tables_number   1
_chemical_formula_structural   Li6V3P8O29
_chemical_formula_sum   'Li12 V6 P16 O58'
_cell_volume   1158.84461179
_cell_formula_units_Z   2
loop_
 _symmetry_equiv_pos_site_id
 _symmetry_equiv_pos_as_xyz
  1  'x, y, z'
loop_
 _atom_site_type_symbol
 _atom_site_label
 _atom_site_symmetry_multiplicity
 _atom_site_fract_x
 _atom_site_fract_y
 _atom_site_fract_z
 _atom_site_occupancy
  Li  Li0  1  0.77263043  0.90568818  0.55758132  1
  Li  Li1  1  0.90685241  0.32155404  0.55764352  1
  Li  Li2  1  0.66838972  0.66755411  0.88557241  1
  Li  Li3  1  0.77263925  0.31915098  0.06463968  1
  Li  Li4  1  0.31970895  0.90539498  0.06427015  1
  Li  Li5  1  0.67532508  0.22728064  0.43636143  1
  Li  Li6  1  0.32073364  0.77196190  0.55825914  1
  Li  Li7  1  0.68108732  0.09108780  0.94228437  1
  Li  Li8  1  0.22382567  0.68027528  0.94457587  1
  Li  Li9  1  0.09656748  0.67486613  0.43600259  1
  Li  Li10  1  0.22819354  0.09671129  0.43626743  1
  Li  Li11  1  0.09439180  0.22667749  0.94291879  1
  V  V12  1  0.56664368  0.43252037  0.24954739  1
  V  V13  1  0.43280048  0.56489912  0.75047312  1
  V  V14  1  0.56904661  0.00007837  0.74823440  1
  V  V15  1  0.43278974  0.00145558  0.24992267  1
  V  V16  1  0.99836238  0.56982296  0.24597715  1
  V  V17  1  0.00192535  0.43538071  0.75035177  1
  P  P18  1  0.91310867  0.77107777  0.84207786  1
  P  P19  1  0.76960645  0.91202981  0.34178042  1
  P  P20  1  0.91306077  0.32019348  0.34177786  1
  P  P21  1  0.66545381  0.66683522  0.12634405  1
  P  P22  1  0.66672549  0.66596329  0.62680161  1
  P  P23  1  0.77191853  0.31783673  0.84304670  1
  P  P24  1  0.68090495  0.23229984  0.65728062  1
  P  P25  1  0.31935427  0.90980761  0.84354501  1
  P  P26  1  0.68082111  0.08783755  0.15654317  1
  P  P27  1  0.32071913  0.76828561  0.34193411  1
  P  P28  1  0.22975387  0.68159685  0.15812306  1
  P  P29  1  0.33239781  0.33353899  0.37399612  1
  P  P30  1  0.33572215  0.33268900  0.87388322  1
  P  P31  1  0.08603536  0.68275523  0.65559341  1
  P  P32  1  0.23005262  0.08705659  0.65757346  1
  P  P33  1  0.08745807  0.23197777  0.15807736  1
  O  O34  1  0.99726396  0.75899887  0.56451731  1
  O  O35  1  0.91806289  0.74841974  0.34182145  1
  O  O36  1  0.75475555  0.00735585  0.06538196  1
  O  O37  1  0.74405850  0.91904225  0.84041086  1
  O  O38  1  0.88918550  0.62675577  0.82703304  1
  O  O39  1  0.81073818  0.67089957  0.16950518  1
  O  O40  1  0.90539074  0.47772590  0.32545050  1
  O  O41  1  0.99767827  0.24216018  0.06763516  1
  O  O42  1  0.92155729  0.33197577  0.84392734  1
  O  O43  1  0.67343062  0.81297430  0.66634186  1
  O  O44  1  0.61928895  0.90183362  0.32518009  1
  O  O45  1  0.81616519  0.51371762  0.66945949  1
  O  O46  1  0.66351168  0.66476497  0.01794926  1
  O  O47  1  0.66527640  0.66396095  0.51951829  1
  O  O48  1  0.67337217  0.51165213  0.16436133  1
  O  O49  1  0.48562971  0.88743508  0.82634565  1
  O  O50  1  0.51118480  0.81401422  0.16378428  1
  O  O51  1  0.74669735  0.33778920  0.34122229  1
  O  O52  1  0.79073696  0.21039270  0.75049190  1
  O  O53  1  0.76009147  0.24249766  0.56729636  1
  O  O54  1  0.75545386  0.24208363  0.93273990  1
  O  O55  1  0.62747305  0.48457946  0.82616990  1
  O  O56  1  0.51511349  0.66879928  0.66962919  1
  O  O57  1  0.66346191  0.25422010  0.16108305  1
  O  O58  1  0.47997773  0.62031708  0.32497390  1
  O  O59  1  0.33627064  0.91749590  0.34119813  1
  O  O60  1  0.79052748  0.00030096  0.24971116  1
  O  O61  1  0.75835293  0.00191311  0.43209409  1
  O  O62  1  0.24487018  0.99710610  0.56712296  1
  O  O63  1  0.66709373  0.08201652  0.65816476  1
  O  O64  1  0.52081982  0.38037316  0.67364458  1
  O  O65  1  0.33279876  0.74693247  0.84422055  1
  O  O66  1  0.48715643  0.32529200  0.33362544  1
  O  O67  1  0.38153326  0.52267134  0.17536313  1
  O  O68  1  0.24275508  0.75912788  0.06830290  1
  O  O69  1  0.24061239  0.75961434  0.43215832  1
  O  O70  1  0.20939242  0.79188082  0.24987550  1
  O  O71  1  0.24983892  0.66846641  0.65777590  1
  O  O72  1  0.48574303  0.18741079  0.83303347  1
  O  O73  1  0.52026190  0.09902879  0.17625636  1
  O  O74  1  0.33163069  0.48574795  0.83124742  1
  O  O75  1  0.33077373  0.33736963  0.98100657  1
  O  O76  1  0.33348449  0.33140874  0.48169586  1
  O  O77  1  0.18525761  0.48724200  0.33312575  1
  O  O78  1  0.38300751  0.09357410  0.67778584  1
  O  O79  1  0.32412788  0.18717798  0.33297536  1
  O  O80  1  0.08534270  0.66061043  0.16050095  1
  O  O81  1  0.99302538  0.79352295  0.74598421  1
  O  O82  1  0.00706029  0.76183689  0.92790195  1
  O  O83  1  0.09815713  0.52248687  0.67368702  1
  O  O84  1  0.18376928  0.33267003  0.83141695  1
  O  O85  1  0.10281075  0.37718393  0.17549535  1
  O  O86  1  0.25182404  0.08146919  0.15838591  1
  O  O87  1  0.24113945  0.00255576  0.93262808  1
  O  O88  1  0.21040421  0.99910730  0.75037220  1
  O  O89  1  0.08427209  0.25126580  0.65739354  1
  O  O90  1  0.00137691  0.23911389  0.43232683  1
  O  O91  1  0.99947806  0.20888680  0.24997518  1
