# generated using pymatgen
data_Li6V3P8O29
_symmetry_space_group_name_H-M   'P 1'
_cell_length_a   9.80608379
_cell_length_b   9.81848835
_cell_length_c   13.92500962
_cell_angle_alpha   90.02160285
_cell_angle_beta   90.02840000
_cell_angle_gamma   60.18166308
_symmetry_Int_Tables_number   1
_chemical_formula_structural   Li6V3P8O29
_chemical_formula_sum   'Li12 V6 P16 O58'
_cell_volume   1163.21073250
_cell_formula_units_Z   2
loop_
 _symmetry_equiv_pos_site_id
 _symmetry_equiv_pos_as_xyz
  1  'x, y, z'
loop_
 _atom_site_type_symbol
 _atom_site_label
 _atom_site_symmetry_multiplicity
 _atom_site_fract_x
 _atom_site_fract_y
 _atom_site_fract_z
 _atom_site_occupancy
  Li  Li0  1  0.77077559  0.90571149  0.56043535  1
  Li  Li1  1  0.90669468  0.32138702  0.55871806  1
  Li  Li2  1  0.66930977  0.67228250  0.88589354  1
  Li  Li3  1  0.76448403  0.32739462  0.06358787  1
  Li  Li4  1  0.32915061  0.90302868  0.06369148  1
  Li  Li5  1  0.67643493  0.22764740  0.43858657  1
  Li  Li6  1  0.32035594  0.77181015  0.55830842  1
  Li  Li7  1  0.23121751  0.66526595  0.94345564  1
  Li  Li8  1  0.09484516  0.67463175  0.43552684  1
  Li  Li9  1  0.22877497  0.09461894  0.43807230  1
  Li  Li10  1  0.09970133  0.23575085  0.94090111  1
  Li  Li11  1  0.95949108  0.98288786  0.00007977  1
  V  V12  1  0.56731131  0.43212855  0.25037200  1
  V  V13  1  0.43365608  0.56449688  0.75134609  1
  V  V14  1  0.56992884  0.00293420  0.75346360  1
  V  V15  1  0.43506571  0.00108153  0.24889928  1
  V  V16  1  0.99667306  0.57137355  0.24538153  1
  V  V17  1  0.00407702  0.43154076  0.74803079  1
  P  P18  1  0.91257584  0.77532169  0.84152743  1
  P  P19  1  0.76801311  0.91354953  0.34202006  1
  P  P20  1  0.91313976  0.32009952  0.34183521  1
  P  P21  1  0.66608774  0.66564599  0.12654129  1
  P  P22  1  0.66628773  0.66657342  0.62832135  1
  P  P23  1  0.77511629  0.31654780  0.84335862  1
  P  P24  1  0.68115723  0.23199258  0.65861334  1
  P  P25  1  0.31533649  0.91117777  0.84420574  1
  P  P26  1  0.68974735  0.08570636  0.15666471  1
  P  P27  1  0.32079858  0.76844776  0.34127841  1
  P  P28  1  0.22831139  0.68404760  0.15825399  1
  P  P29  1  0.33071617  0.33510393  0.37119938  1
  P  P30  1  0.33499305  0.33215192  0.87297267  1
  P  P31  1  0.08629085  0.68318455  0.65534422  1
  P  P32  1  0.23444847  0.08509241  0.65838763  1
  P  P33  1  0.08752242  0.22858906  0.15822260  1
  O  O34  1  0.99764084  0.75313064  0.56381300  1
  O  O35  1  0.91515844  0.74908698  0.34116805  1
  O  O36  1  0.78896471  0.00530366  0.07221625  1
  O  O37  1  0.74276868  0.91585898  0.83925658  1
  O  O38  1  0.90092731  0.62430387  0.83267325  1
  O  O39  1  0.80701444  0.67531388  0.16961668  1
  O  O40  1  0.90557773  0.47760832  0.32339911  1
  O  O41  1  0.00119446  0.22645751  0.06847739  1
  O  O42  1  0.92266842  0.33832039  0.83767631  1
  O  O43  1  0.67266764  0.81232437  0.66881184  1
  O  O44  1  0.61829575  0.90227741  0.32245102  1
  O  O45  1  0.81431930  0.51234364  0.66734989  1
  O  O46  1  0.66464934  0.66234083  0.01808886  1
  O  O47  1  0.65897383  0.66574501  0.52130711  1
  O  O48  1  0.67671376  0.50995332  0.16501433  1
  O  O49  1  0.48033753  0.89197958  0.83047245  1
  O  O50  1  0.51008925  0.81081744  0.16396849  1
  O  O51  1  0.74771976  0.33708969  0.34314522  1
  O  O52  1  0.79158816  0.21143646  0.75078472  1
  O  O53  1  0.75960547  0.24305845  0.56832198  1
  O  O54  1  0.78164006  0.23285148  0.93425212  1
  O  O55  1  0.62735578  0.48118965  0.83099427  1
  O  O56  1  0.51480557  0.66867209  0.67344543  1
  O  O57  1  0.66038732  0.25754665  0.16311068  1
  O  O58  1  0.48009524  0.61949917  0.32225433  1
  O  O59  1  0.33783061  0.91627722  0.34232311  1
  O  O60  1  0.78952836  0.00638663  0.25458151  1
  O  O61  1  0.75324701  0.00093027  0.43403315  1
  O  O62  1  0.24497450  0.99653238  0.56788087  1
  O  O63  1  0.66891829  0.08097198  0.65957009  1
  O  O64  1  0.52077527  0.37888549  0.67501232  1
  O  O65  1  0.33017359  0.74769191  0.84522499  1
  O  O66  1  0.48684817  0.32636833  0.33239275  1
  O  O67  1  0.38104151  0.52886824  0.16970858  1
  O  O68  1  0.22331050  0.77450075  0.06864223  1
  O  O69  1  0.24388230  0.75421222  0.43139924  1
  O  O70  1  0.20864942  0.79304713  0.25048176  1
  O  O71  1  0.25006413  0.66691591  0.65643184  1
  O  O72  1  0.48351290  0.19217052  0.82849273  1
  O  O73  1  0.53405644  0.08596159  0.16737938  1
  O  O74  1  0.33048466  0.48758123  0.83058818  1
  O  O75  1  0.32804328  0.34331673  0.97969289  1
  O  O76  1  0.33191300  0.33100513  0.47872288  1
  O  O77  1  0.18531162  0.48800351  0.33142324  1
  O  O78  1  0.38506373  0.09193500  0.67813534  1
  O  O79  1  0.32545106  0.18696723  0.32958227  1
  O  O80  1  0.08444451  0.66065475  0.16247084  1
  O  O81  1  0.99146599  0.79515150  0.74386746  1
  O  O82  1  0.00578027  0.78466243  0.92390400  1
  O  O83  1  0.09712992  0.52319899  0.67782255  1
  O  O84  1  0.18840417  0.32629211  0.83191064  1
  O  O85  1  0.09599542  0.37786683  0.17137692  1
  O  O86  1  0.25407916  0.08117085  0.16017843  1
  O  O87  1  0.22968328  0.00404935  0.93253815  1
  O  O88  1  0.21018495  0.99838532  0.75020014  1
  O  O89  1  0.08642141  0.25037741  0.65738267  1
  O  O90  1  0.00286261  0.24103151  0.43207778  1
  O  O91  1  0.00016213  0.20713848  0.25084183  1
