# generated using pymatgen
data_Sr2TbCu2(BiO4)2
_symmetry_space_group_name_H-M   'P 1'
_cell_length_a   3.79920241
_cell_length_b   3.79920241
_cell_length_c   15.53949818
_cell_angle_alpha   97.02159371
_cell_angle_beta   97.02159371
_cell_angle_gamma   90.00000000
_symmetry_Int_Tables_number   1
_chemical_formula_structural   Sr2TbCu2(BiO4)2
_chemical_formula_sum   'Sr2 Tb1 Cu2 Bi2 O8'
_cell_volume   220.91898461
_cell_formula_units_Z   1
loop_
 _symmetry_equiv_pos_site_id
 _symmetry_equiv_pos_as_xyz
  1  'x, y, z'
loop_
 _atom_site_type_symbol
 _atom_site_label
 _atom_site_symmetry_multiplicity
 _atom_site_fract_x
 _atom_site_fract_y
 _atom_site_fract_z
 _atom_site_occupancy
  Sr  Sr0  1  0.11433227  0.11433227  0.22866454  1
  Sr  Sr1  1  0.88566773  0.88566773  0.77133546  1
  Tb  Tb2  1  -0.00000000  -0.00000000  -0.00000000  1
  Cu  Cu3  1  0.44736060  0.44736060  0.89472120  1
  Cu  Cu4  1  0.55263940  0.55263940  0.10527880  1
  Bi  Bi5  1  0.29597576  0.29597576  0.59195151  1
  Bi  Bi6  1  0.70402424  0.70402424  0.40804849  1
  O  O7  1  0.04895625  0.54895625  0.09791249  1
  O  O8  1  0.95104375  0.45104375  0.90208751  1
  O  O9  1  0.54895625  0.04895625  0.09791249  1
  O  O10  1  0.45104375  0.95104375  0.90208751  1
  O  O11  1  0.20208864  0.20208864  0.40417728  1
  O  O12  1  0.79791136  0.79791136  0.59582272  1
  O  O13  1  0.36550783  0.36550783  0.73101566  1
  O  O14  1  0.63449217  0.63449217  0.26898434  1
