# generated using pymatgen
data_MnV(P2O7)2
_symmetry_space_group_name_H-M   'P 1'
_cell_length_a   4.82467347
_cell_length_b   8.09355276
_cell_length_c   7.01138066
_cell_angle_alpha   92.47445871
_cell_angle_beta   108.29586686
_cell_angle_gamma   88.75126414
_symmetry_Int_Tables_number   1
_chemical_formula_structural   MnV(P2O7)2
_chemical_formula_sum   'Mn1 V1 P4 O14'
_cell_volume   259.69308845
_cell_formula_units_Z   1
loop_
 _symmetry_equiv_pos_site_id
 _symmetry_equiv_pos_as_xyz
  1  'x, y, z'
loop_
 _atom_site_type_symbol
 _atom_site_label
 _atom_site_symmetry_multiplicity
 _atom_site_fract_x
 _atom_site_fract_y
 _atom_site_fract_z
 _atom_site_occupancy
  Mn  Mn0  1  0.78836873  0.00344739  0.27235879  1
  V  V1  1  0.20780920  0.50374157  0.71785518  1
  P  P2  1  0.40339616  0.17317626  0.51962691  1
  P  P3  1  0.22379780  0.78005428  0.09314783  1
  P  P4  1  0.78637479  0.28509258  0.91152171  1
  P  P5  1  0.60038837  0.68440232  0.48380449  1
  O  O6  1  0.04213113  0.34124137  0.84137689  1
  O  O7  1  0.15058901  0.67294186  0.89479435  1
  O  O8  1  0.17393945  0.04069858  0.47253717  1
  O  O9  1  0.26434188  0.34890281  0.52895689  1
  O  O10  1  0.38688429  0.66510086  0.60728266  1
  O  O11  1  0.57521048  0.43761232  0.89706461  1
  O  O12  1  0.60465071  0.14809470  0.74880342  1
  O  O13  1  0.40774885  0.64693841  0.25250643  1
  O  O14  1  0.40606260  0.93006002  0.09106263  1
  O  O15  1  0.59739500  0.17914792  0.38726842  1
  O  O16  1  0.73140562  0.85198098  0.50618088  1
  O  O17  1  0.82990511  0.54221300  0.53194704  1
  O  O18  1  0.88318614  0.20594747  0.10908733  1
  O  O19  1  0.94171669  0.82276730  0.13742238  1
