# generated using pymatgen
data_Li2Ti3NiO8
_symmetry_space_group_name_H-M   'P 1'
_cell_length_a   8.43398420
_cell_length_b   8.44807648
_cell_length_c   8.44644380
_cell_angle_alpha   89.89801916
_cell_angle_beta   90.20409207
_cell_angle_gamma   90.21098000
_symmetry_Int_Tables_number   1
_chemical_formula_structural   Li2Ti3NiO8
_chemical_formula_sum   'Li8 Ti12 Ni4 O32'
_cell_volume   601.80825324
_cell_formula_units_Z   4
loop_
 _symmetry_equiv_pos_site_id
 _symmetry_equiv_pos_as_xyz
  1  'x, y, z'
loop_
 _atom_site_type_symbol
 _atom_site_label
 _atom_site_symmetry_multiplicity
 _atom_site_fract_x
 _atom_site_fract_y
 _atom_site_fract_z
 _atom_site_occupancy
  Li  Li0  1  0.12554407  0.87436165  0.37414516  1
  Li  Li1  1  0.24719567  0.74673518  0.75313626  1
  Li  Li2  1  0.25231491  0.25291157  0.25308383  1
  Li  Li3  1  0.37413284  0.12608967  0.87440788  1
  Li  Li4  1  0.62530710  0.62615677  0.62606111  1
  Li  Li5  1  0.74721664  0.75354462  0.24698448  1
  Li  Li6  1  0.75259642  0.24703088  0.74695999  1
  Li  Li7  1  0.87471046  0.37398004  0.12631058  1
  Ti  Ti8  1  0.11498487  0.62216532  0.12945626  1
  Ti  Ti9  1  0.12145700  0.37023265  0.88439639  1
  Ti  Ti10  1  0.13033381  0.11563636  0.62245282  1
  Ti  Ti11  1  0.36956104  0.88440344  0.12149145  1
  Ti  Ti12  1  0.37836403  0.62960842  0.38434151  1
  Ti  Ti13  1  0.38481098  0.37832539  0.63082483  1
  Ti  Ti14  1  0.61488484  0.87748652  0.86967509  1
  Ti  Ti15  1  0.62206859  0.12975666  0.11507075  1
  Ti  Ti16  1  0.63086436  0.38443881  0.37835554  1
  Ti  Ti17  1  0.86850116  0.61510294  0.87835751  1
  Ti  Ti18  1  0.87742760  0.86969298  0.61500851  1
  Ti  Ti19  1  0.88508528  0.12210741  0.36988475  1
  Ni  Ni20  1  0.00192239  0.49884022  0.50321918  1
  Ni  Ni21  1  0.49761017  0.50218469  0.00475326  1
  Ni  Ni22  1  0.50153655  0.00279696  0.49838192  1
  Ni  Ni23  1  0.99690510  0.99841297  0.99722121  1
  O  O24  1  0.10651170  0.12599659  0.39127854  1
  O  O25  1  0.10915439  0.89382744  0.62653044  1
  O  O26  1  0.10986892  0.61071421  0.88914726  1
  O  O27  1  0.12687918  0.39064446  0.10527160  1
  O  O28  1  0.12487857  0.14458527  0.85903501  1
  O  O29  1  0.13755758  0.36263958  0.63599521  1
  O  O30  1  0.14087736  0.61897139  0.35633323  1
  O  O31  1  0.14113261  0.86041650  0.12104861  1
  O  O32  1  0.35703887  0.14272319  0.62445527  1
  O  O33  1  0.36065585  0.38133698  0.85708587  1
  O  O34  1  0.36019883  0.64007303  0.13615933  1
  O  O35  1  0.38083119  0.85657253  0.35872116  1
  O  O36  1  0.37341438  0.60982768  0.60490949  1
  O  O37  1  0.39035011  0.38932472  0.38879102  1
  O  O38  1  0.39097162  0.10612780  0.12643343  1
  O  O39  1  0.39360220  0.87390094  0.89024079  1
  O  O40  1  0.60668839  0.37368905  0.60867452  1
  O  O41  1  0.60991866  0.60544622  0.37282175  1
  O  O42  1  0.61026905  0.88903850  0.10990299  1
  O  O43  1  0.62689352  0.10883218  0.89392444  1
  O  O44  1  0.62532209  0.35542078  0.14038203  1
  O  O45  1  0.63806483  0.13658805  0.36283068  1
  O  O46  1  0.63946932  0.87784267  0.64172535  1
  O  O47  1  0.64074129  0.63901197  0.87883294  1
  O  O48  1  0.85923069  0.35957572  0.37795898  1
  O  O49  1  0.86039214  0.12005787  0.14315733  1
  O  O50  1  0.86085285  0.86100748  0.86394768  1
  O  O51  1  0.87545031  0.64364813  0.64248983  1
  O  O52  1  0.87371437  0.89040173  0.39452653  1
  O  O53  1  0.88959769  0.11029830  0.61100625  1
  O  O54  1  0.89066967  0.39342694  0.87332682  1
  O  O55  1  0.89346689  0.62611096  0.10916133  1
