# generated using pymatgen
data_TiSb3(PO4)6
_symmetry_space_group_name_H-M   'P 1'
_cell_length_a   8.95649645
_cell_length_b   8.95649596
_cell_length_c   8.95649628
_cell_angle_alpha   58.25223898
_cell_angle_beta   58.25223632
_cell_angle_gamma   58.25224183
_symmetry_Int_Tables_number   1
_chemical_formula_structural   TiSb3(PO4)6
_chemical_formula_sum   'Ti1 Sb3 P6 O24'
_cell_volume   487.70152499
_cell_formula_units_Z   1
loop_
 _symmetry_equiv_pos_site_id
 _symmetry_equiv_pos_as_xyz
  1  'x, y, z'
loop_
 _atom_site_type_symbol
 _atom_site_label
 _atom_site_symmetry_multiplicity
 _atom_site_fract_x
 _atom_site_fract_y
 _atom_site_fract_z
 _atom_site_occupancy
  Ti  Ti0  1  0.85924253  0.85924253  0.85924253  1
  Sb  Sb1  1  0.14292717  0.14292717  0.14292717  1
  Sb  Sb2  1  0.35726611  0.35726611  0.35726611  1
  Sb  Sb3  1  0.64436429  0.64436429  0.64436429  1
  P  P4  1  0.03805280  0.75001511  0.46611587  1
  P  P5  1  0.46611587  0.03805280  0.75001511  1
  P  P6  1  0.75001511  0.46611587  0.03805280  1
  P  P7  1  0.24835194  0.54011668  0.96139333  1
  P  P8  1  0.54011668  0.96139333  0.24835194  1
  P  P9  1  0.96139333  0.24835194  0.54011668  1
  O  O10  1  0.13339076  0.27466601  0.51469480  1
  O  O11  1  0.27466601  0.51469480  0.13339076  1
  O  O12  1  0.06360025  0.91886242  0.28190294  1
  O  O13  1  0.51469480  0.13339076  0.27466601  1
  O  O14  1  0.21907132  0.57531310  0.44259189  1
  O  O15  1  0.00228007  0.78099259  0.63519964  1
  O  O16  1  0.28190294  0.06360025  0.91886242  1
  O  O17  1  0.44259189  0.21907132  0.57531310  1
  O  O18  1  0.57531310  0.44259189  0.21907132  1
  O  O19  1  0.22768329  0.36700402  0.98593335  1
  O  O20  1  0.07550227  0.71416611  0.93649762  1
  O  O21  1  0.36700402  0.98593335  0.22768329  1
  O  O22  1  0.63519964  0.00228007  0.78099259  1
  O  O23  1  0.91886242  0.28190294  0.06360025  1
  O  O24  1  0.78099259  0.63519964  0.00228007  1
  O  O25  1  0.42213832  0.56080161  0.78310812  1
  O  O26  1  0.56080161  0.78310812  0.42213832  1
  O  O27  1  0.71416611  0.93649762  0.07550227  1
  O  O28  1  0.98593335  0.22768329  0.36700402  1
  O  O29  1  0.78310812  0.42213832  0.56080161  1
  O  O30  1  0.48149355  0.87266267  0.72259844  1
  O  O31  1  0.93649762  0.07550227  0.71416611  1
  O  O32  1  0.72259844  0.48149355  0.87266267  1
  O  O33  1  0.87266267  0.72259844  0.48149355  1
