# generated using pymatgen
data_K2O
_symmetry_space_group_name_H-M   'P 1'
_cell_length_a   12.89346811
_cell_length_b   6.66309836
_cell_length_c   6.47879233
_cell_angle_alpha   90.00038561
_cell_angle_beta   90.00000000
_cell_angle_gamma   90.00000000
_symmetry_Int_Tables_number   1
_chemical_formula_structural   K2O
_chemical_formula_sum   'K16 O8'
_cell_volume   556.59594002
_cell_formula_units_Z   8
loop_
 _symmetry_equiv_pos_site_id
 _symmetry_equiv_pos_as_xyz
  1  'x, y, z'
loop_
 _atom_site_type_symbol
 _atom_site_label
 _atom_site_symmetry_multiplicity
 _atom_site_fract_x
 _atom_site_fract_y
 _atom_site_fract_z
 _atom_site_occupancy
  K  K0  1  0.02091526  0.73936809  0.00027716  1
  K  K1  1  0.02090824  0.76062545  0.50027645  1
  K  K2  1  0.20571133  0.12263885  0.14353144  1
  K  K3  1  0.20570613  0.37734829  0.64352162  1
  K  K4  1  0.29429387  0.87734829  0.64352162  1
  K  K5  1  0.29428867  0.62263885  0.14353144  1
  K  K6  1  0.47908474  0.23936809  0.00027716  1
  K  K7  1  0.47909176  0.26062545  0.50027645  1
  K  K8  1  0.52090824  0.73937455  0.49972355  1
  K  K9  1  0.52091526  0.76063191  0.99972284  1
  K  K10  1  0.70570613  0.12265171  0.35647838  1
  K  K11  1  0.70571133  0.37736115  0.85646856  1
  K  K12  1  0.79429387  0.62265171  0.35647838  1
  K  K13  1  0.79428867  0.87736115  0.85646856  1
  K  K14  1  0.97909176  0.23937455  0.49972355  1
  K  K15  1  0.97908474  0.26063191  0.99972284  1
  O  O16  1  0.11497838  0.03098428  0.76815368  1
  O  O17  1  0.11497736  0.46901108  0.26815862  1
  O  O18  1  0.38502264  0.96901108  0.26815862  1
  O  O19  1  0.38502162  0.53098428  0.76815368  1
  O  O20  1  0.61497736  0.03098892  0.73184138  1
  O  O21  1  0.61497838  0.46901572  0.23184632  1
  O  O22  1  0.88502264  0.53098892  0.73184138  1
  O  O23  1  0.88502162  0.96901572  0.23184632  1
