# generated using pymatgen
data_Na2NiPCO7
_symmetry_space_group_name_H-M   'P 1'
_cell_length_a   8.86552203
_cell_length_b   10.33643155
_cell_length_c   6.63076446
_cell_angle_alpha   89.68577728
_cell_angle_beta   90.44946116
_cell_angle_gamma   87.78775584
_symmetry_Int_Tables_number   1
_chemical_formula_structural   Na2NiPCO7
_chemical_formula_sum   'Na8 Ni4 P4 C4 O28'
_cell_volume   607.14733976
_cell_formula_units_Z   4
loop_
 _symmetry_equiv_pos_site_id
 _symmetry_equiv_pos_as_xyz
  1  'x, y, z'
loop_
 _atom_site_type_symbol
 _atom_site_label
 _atom_site_symmetry_multiplicity
 _atom_site_fract_x
 _atom_site_fract_y
 _atom_site_fract_z
 _atom_site_occupancy
  Na  Na0  1  0.25146561  0.12155586  0.00819871  1
  Na  Na1  1  0.24930063  0.12296171  0.49093306  1
  Na  Na2  1  0.26467430  0.62508182  0.01694992  1
  Na  Na3  1  0.26522037  0.62415842  0.48234141  1
  Na  Na4  1  0.73681485  0.36411378  0.51429766  1
  Na  Na5  1  0.73757029  0.36824240  0.98918170  1
  Na  Na6  1  0.74196545  0.88619125  0.97292402  1
  Na  Na7  1  0.91271603  0.61447538  0.73692569  1
  Ni  Ni8  1  0.34633234  0.39004634  0.75133654  1
  Ni  Ni9  1  0.35068196  0.88871660  0.74846019  1
  Ni  Ni10  1  0.65377055  0.10532648  0.25632226  1
  Ni  Ni11  1  0.65446796  0.61153819  0.25389400  1
  P  P12  1  0.42261359  0.35867482  0.25095842  1
  P  P13  1  0.42564672  0.86162893  0.24994908  1
  P  P14  1  0.57901207  0.14222258  0.75055675  1
  P  P15  1  0.57887759  0.64031253  0.75172272  1
  C  C16  1  0.06904400  0.36134232  0.75010008  1
  C  C17  1  0.07615734  0.85541464  0.75236679  1
  C  C18  1  0.92643649  0.14045888  0.24816208  1
  C  C19  1  0.92782374  0.64303728  0.24861001  1
  O  O20  1  0.06517859  0.15799347  0.24630743  1
  O  O21  1  0.06822095  0.65487266  0.24741572  1
  O  O22  1  0.13216939  0.47373751  0.74783862  1
  O  O23  1  0.13679185  0.96750981  0.74805234  1
  O  O24  1  0.16206027  0.26222040  0.74994172  1
  O  O25  1  0.17443612  0.75777377  0.74625926  1
  O  O26  1  0.32471723  0.39469758  0.06382917  1
  O  O27  1  0.32699087  0.39469772  0.43730629  1
  O  O28  1  0.32516831  0.89382557  0.06323643  1
  O  O29  1  0.32999982  0.89660198  0.43613924  1
  O  O30  1  0.42813176  0.07239427  0.74803873  1
  O  O31  1  0.42835439  0.57071508  0.75311287  1
  O  O32  1  0.45874421  0.20904343  0.25123077  1
  O  O33  1  0.46145613  0.71170956  0.25072073  1
  O  O34  1  0.54135893  0.29247732  0.75603261  1
  O  O35  1  0.54129177  0.78853041  0.75830719  1
  O  O36  1  0.57351631  0.42907680  0.25030055  1
  O  O37  1  0.57562927  0.93070812  0.24279573  1
  O  O38  1  0.67641964  0.11650318  0.56392720  1
  O  O39  1  0.67615628  0.10707610  0.93800615  1
  O  O40  1  0.67569396  0.60254776  0.56670696  1
  O  O41  1  0.68128458  0.60421190  0.93602459  1
  O  O42  1  0.82492159  0.23534661  0.25094570  1
  O  O43  1  0.82952302  0.73834720  0.24240343  1
  O  O44  1  0.86897664  0.02800134  0.24806867  1
  O  O45  1  0.86725245  0.53000377  0.25802007  1
  O  O46  1  0.92691701  0.35660719  0.75236624  1
  O  O47  1  0.93772380  0.83930726  0.76262952  1
