# generated using pymatgen
data_CaGeO3
_symmetry_space_group_name_H-M   'P 1'
_cell_length_a   6.95097453
_cell_length_b   9.56673516
_cell_length_c   6.89401880
_cell_angle_alpha   84.05837380
_cell_angle_beta   76.43689068
_cell_angle_gamma   69.97294245
_symmetry_Int_Tables_number   1
_chemical_formula_structural   CaGeO3
_chemical_formula_sum   'Ca6 Ge6 O18'
_cell_volume   418.57109994
_cell_formula_units_Z   6
loop_
 _symmetry_equiv_pos_site_id
 _symmetry_equiv_pos_as_xyz
  1  'x, y, z'
loop_
 _atom_site_type_symbol
 _atom_site_label
 _atom_site_symmetry_multiplicity
 _atom_site_fract_x
 _atom_site_fract_y
 _atom_site_fract_z
 _atom_site_occupancy
  Ca  Ca0  1  0.07754012  0.66395481  0.42812182  1
  Ca  Ca1  1  0.26493107  0.35829910  0.90813941  1
  Ca  Ca2  1  0.24317712  0.99779867  0.26511359  1
  Ca  Ca3  1  0.75682288  0.00220133  0.73488641  1
  Ca  Ca4  1  0.73506893  0.64170090  0.09186059  1
  Ca  Ca5  1  0.92245988  0.33604519  0.57187818  1
  Ge  Ge6  1  0.15712306  0.70825139  0.89812245  1
  Ge  Ge7  1  0.47378623  0.30478027  0.45771212  1
  Ge  Ge8  1  0.72855394  0.00576528  0.22971085  1
  Ge  Ge9  1  0.27144606  0.99423472  0.77028915  1
  Ge  Ge10  1  0.52621377  0.69521973  0.54228788  1
  Ge  Ge11  1  0.84287694  0.29174861  0.10187755  1
  O  O12  1  0.03453853  0.25163638  0.24150484  1
  O  O13  1  0.09049057  0.06550914  0.61987804  1
  O  O14  1  0.10344163  0.58899590  0.09656884  1
  O  O15  1  0.21727087  0.41132614  0.55748460  1
  O  O16  1  0.34768563  0.10820870  0.89272549  1
  O  O17  1  0.48040499  0.13324003  0.36164200  1
  O  O18  1  0.37951096  0.73670182  0.35680007  1
  O  O19  1  0.19172216  0.87133596  0.97225478  1
  O  O20  1  0.58741305  0.39923060  0.24313811  1
  O  O21  1  0.41258695  0.60076940  0.75686189  1
  O  O22  1  0.80827784  0.12866404  0.02774522  1
  O  O23  1  0.62048904  0.26329818  0.64319993  1
  O  O24  1  0.51959501  0.86675997  0.63835800  1
  O  O25  1  0.65231437  0.89179130  0.10727451  1
  O  O26  1  0.78272913  0.58867386  0.44251540  1
  O  O27  1  0.89655837  0.41100410  0.90343116  1
  O  O28  1  0.90950943  0.93449086  0.38012196  1
  O  O29  1  0.96546147  0.74836362  0.75849516  1
