# generated using pymatgen
data_Li5Mn5(NiO6)2
_symmetry_space_group_name_H-M   'P 1'
_cell_length_a   5.16780211
_cell_length_b   5.16780169
_cell_length_c   9.84884187
_cell_angle_alpha   84.97348804
_cell_angle_beta   95.02651281
_cell_angle_gamma   60.35675407
_symmetry_Int_Tables_number   1
_chemical_formula_structural   Li5Mn5(NiO6)2
_chemical_formula_sum   'Li5 Mn5 Ni2 O12'
_cell_volume   225.10164276
_cell_formula_units_Z   1
loop_
 _symmetry_equiv_pos_site_id
 _symmetry_equiv_pos_as_xyz
  1  'x, y, z'
loop_
 _atom_site_type_symbol
 _atom_site_label
 _atom_site_symmetry_multiplicity
 _atom_site_fract_x
 _atom_site_fract_y
 _atom_site_fract_z
 _atom_site_occupancy
  Li  Li0  1  0.17514161  0.65666485  0.50650327  1
  Li  Li1  1  0.32208993  0.84365734  0.99070890  1
  Li  Li2  1  0.65666485  0.17514161  0.99349673  1
  Li  Li3  1  0.84365734  0.32208993  0.50929110  1
  Li  Li4  1  0.92183140  0.92183140  0.75000000  1
  Mn  Mn5  1  0.07361392  0.07361392  0.25000000  1
  Mn  Mn6  1  0.99072033  0.51932387  0.99319618  1
  Mn  Mn7  1  0.51932387  0.99072033  0.50680382  1
  Mn  Mn8  1  0.41664097  0.41664097  0.25000000  1
  Mn  Mn9  1  0.58115984  0.58115984  0.75000000  1
  Ni  Ni10  1  0.25462288  0.25462288  0.75000000  1
  Ni  Ni11  1  0.74605742  0.74605742  0.25000000  1
  O  O12  1  0.93917876  0.25499923  0.86878850  1
  O  O13  1  0.25499923  0.93917876  0.63121150  1
  O  O14  1  0.16414007  0.35011151  0.37713490  1
  O  O15  1  0.35011151  0.16414007  0.12286510  1
  O  O16  1  0.30599042  0.54623696  0.86374662  1
  O  O17  1  0.54623696  0.30599042  0.63625338  1
  O  O18  1  0.45629326  0.69568449  0.36277874  1
  O  O19  1  0.69568449  0.45629326  0.13722126  1
  O  O20  1  0.62792905  0.85053758  0.87173690  1
  O  O21  1  0.85053758  0.62792905  0.62826310  1
  O  O22  1  0.79206287  0.01531241  0.38279423  1
  O  O23  1  0.01531241  0.79206287  0.11720577  1
