# generated using pymatgen
data_Li2Zr7Fe(PO4)12
_symmetry_space_group_name_H-M   'P 1'
_cell_length_a   8.98493075
_cell_length_b   9.07593968
_cell_length_c   12.54641669
_cell_angle_alpha   90.11687034
_cell_angle_beta   89.98241276
_cell_angle_gamma   89.95536766
_symmetry_Int_Tables_number   1
_chemical_formula_structural   Li2Zr7Fe(PO4)12
_chemical_formula_sum   'Li2 Zr7 Fe1 P12 O48'
_cell_volume   1023.11625985
_cell_formula_units_Z   1
loop_
 _symmetry_equiv_pos_site_id
 _symmetry_equiv_pos_as_xyz
  1  'x, y, z'
loop_
 _atom_site_type_symbol
 _atom_site_label
 _atom_site_symmetry_multiplicity
 _atom_site_fract_x
 _atom_site_fract_y
 _atom_site_fract_z
 _atom_site_occupancy
  Li  Li0  1  0.78400204  0.22293237  0.18076169  1
  Li  Li1  1  0.78048084  0.27921169  0.81194513  1
  Zr  Zr2  1  0.25166470  0.53293200  0.37946353  1
  Zr  Zr3  1  0.25217380  0.96250120  0.62317644  1
  Zr  Zr4  1  0.25180491  0.03540168  0.11841017  1
  Zr  Zr5  1  0.25125714  0.46523818  0.87990431  1
  Zr  Zr6  1  0.74753847  0.54675561  0.11683797  1
  Zr  Zr7  1  0.74718483  0.95418589  0.87770489  1
  Zr  Zr8  1  0.74827778  0.02765391  0.38712035  1
  Fe  Fe9  1  0.74883001  0.46400105  0.61418946  1
  P  P10  1  0.03226292  0.24937053  0.50614312  1
  P  P11  1  0.10338255  0.39104881  0.14278392  1
  P  P12  1  0.10359485  0.10948386  0.85588903  1
  P  P13  1  0.40379937  0.60671203  0.64217597  1
  P  P14  1  0.38780791  0.89391988  0.35688564  1
  P  P15  1  0.45805315  0.75043060  0.99874337  1
  P  P16  1  0.54267672  0.25060320  0.00023787  1
  P  P17  1  0.60513364  0.11825928  0.64566248  1
  P  P18  1  0.61663299  0.39340191  0.35535452  1
  P  P19  1  0.88758920  0.59884667  0.84911120  1
  P  P20  1  0.89248998  0.89871520  0.14257110  1
  P  P21  1  0.96364437  0.74305989  0.50610842  1
  O  O22  1  0.06074502  0.64788772  0.43160581  1
  O  O23  1  0.06389320  0.83855816  0.57732184  1
  O  O24  1  0.06153012  0.91095239  0.15195641  1
  O  O25  1  0.05767004  0.58272946  0.84044289  1
  O  O26  1  0.13039733  0.14867271  0.57446618  1
  O  O27  1  0.13084033  0.35112516  0.43843850  1
  O  O28  1  0.15518065  0.43794708  0.03137489  1
  O  O29  1  0.15497787  0.06461546  0.96771997  1
  O  O30  1  0.15144254  0.23170781  0.16661091  1
  O  O31  1  0.15617947  0.26705929  0.83084738  1
  O  O32  1  0.17078435  0.49511454  0.22749098  1
  O  O33  1  0.16915282  0.99902328  0.77473039  1
  O  O34  1  0.32103369  0.99900360  0.27389976  1
  O  O35  1  0.33646580  0.50383018  0.72684622  1
  O  O36  1  0.36240105  0.76892105  0.66451016  1
  O  O37  1  0.34474376  0.73246263  0.33366875  1
  O  O38  1  0.34510344  0.56263273  0.53173184  1
  O  O39  1  0.33143385  0.93743595  0.46808870  1
  O  O40  1  0.36112046  0.84434994  0.07244486  1
  O  O41  1  0.35745048  0.65800262  0.92639091  1
  O  O42  1  0.43534679  0.10057564  0.65254201  1
  O  O43  1  0.44497001  0.40475962  0.35100869  1
  O  O44  1  0.44585411  0.14516045  0.06623303  1
  O  O45  1  0.44475115  0.35623194  0.93509373  1
  O  O46  1  0.55703025  0.64977314  0.06818725  1
  O  O47  1  0.55788787  0.84931652  0.92830996  1
  O  O48  1  0.57498767  0.59073618  0.64612443  1
  O  O49  1  0.55926708  0.90892198  0.35174530  1
  O  O50  1  0.64585845  0.33566564  0.07909489  1
  O  O51  1  0.64755672  0.16591925  0.92253283  1
  O  O52  1  0.65740979  0.07839484  0.53188839  1
  O  O53  1  0.67180961  0.42737796  0.46787204  1
  O  O54  1  0.66763749  0.23528506  0.32121202  1
  O  O55  1  0.65561441  0.27614630  0.67520764  1
  O  O56  1  0.68104395  0.50218531  0.27257996  1
  O  O57  1  0.67933096  0.01141046  0.72574306  1
  O  O58  1  0.82066038  0.01038144  0.22292634  1
  O  O59  1  0.81602137  0.48670554  0.77081029  1
  O  O60  1  0.84440009  0.73982671  0.16883978  1
  O  O61  1  0.84255501  0.75981843  0.82448931  1
  O  O62  1  0.83298293  0.55975294  0.96252776  1
  O  O63  1  0.83844268  0.93878255  0.02972953  1
  O  O64  1  0.86540717  0.64276678  0.57515957  1
  O  O65  1  0.86242789  0.84336886  0.43749354  1
  O  O66  1  0.93074604  0.10599008  0.84739593  1
  O  O67  1  0.93039850  0.39753451  0.15037087  1
  O  O68  1  0.93456470  0.15478804  0.43211719  1
  O  O69  1  0.93504245  0.34572662  0.58099472  1
