# generated using pymatgen
data_Sr2SmCu2(BiO4)2
_symmetry_space_group_name_H-M   'P 1'
_cell_length_a   3.81401543
_cell_length_b   3.81401543
_cell_length_c   15.62112033
_cell_angle_alpha   97.01209157
_cell_angle_beta   97.01209157
_cell_angle_gamma   90.00000000
_symmetry_Int_Tables_number   1
_chemical_formula_structural   Sr2SmCu2(BiO4)2
_chemical_formula_sum   'Sr2 Sm1 Cu2 Bi2 O8'
_cell_volume   223.82379573
_cell_formula_units_Z   1
loop_
 _symmetry_equiv_pos_site_id
 _symmetry_equiv_pos_as_xyz
  1  'x, y, z'
loop_
 _atom_site_type_symbol
 _atom_site_label
 _atom_site_symmetry_multiplicity
 _atom_site_fract_x
 _atom_site_fract_y
 _atom_site_fract_z
 _atom_site_occupancy
  Sr  Sr0  1  0.11472200  0.11472200  0.22944400  1
  Sr  Sr1  1  0.88527800  0.88527800  0.77055600  1
  Sm  Sm2  1  -0.00000000  -0.00000000  0.00000000  1
  Cu  Cu3  1  0.44648365  0.44648365  0.89296730  1
  Cu  Cu4  1  0.55351635  0.55351635  0.10703270  1
  Bi  Bi5  1  0.29583799  0.29583799  0.59167598  1
  Bi  Bi6  1  0.70416201  0.70416201  0.40832402  1
  O  O7  1  0.05056211  0.55056211  0.10112423  1
  O  O8  1  0.94943789  0.44943789  0.89887577  1
  O  O9  1  0.55056211  0.05056211  0.10112423  1
  O  O10  1  0.44943789  0.94943789  0.89887577  1
  O  O11  1  0.20247200  0.20247200  0.40494400  1
  O  O12  1  0.79752800  0.79752800  0.59505600  1
  O  O13  1  0.36474168  0.36474168  0.72948336  1
  O  O14  1  0.63525832  0.63525832  0.27051664  1
