# generated using pymatgen
data_Li3Mn2V3O12
_symmetry_space_group_name_H-M   'P 1'
_cell_length_a   8.82642103
_cell_length_b   12.66464595
_cell_length_c   9.19689429
_cell_angle_alpha   90.00000000
_cell_angle_beta   90.00000000
_cell_angle_gamma   92.76135828
_symmetry_Int_Tables_number   1
_chemical_formula_structural   Li3Mn2V3O12
_chemical_formula_sum   'Li12 Mn8 V12 O48'
_cell_volume   1026.86728128
_cell_formula_units_Z   4
loop_
 _symmetry_equiv_pos_site_id
 _symmetry_equiv_pos_as_xyz
  1  'x, y, z'
loop_
 _atom_site_type_symbol
 _atom_site_label
 _atom_site_symmetry_multiplicity
 _atom_site_fract_x
 _atom_site_fract_y
 _atom_site_fract_z
 _atom_site_occupancy
  Li  Li0  1  0.07421216  0.69672510  0.08953870  1
  Li  Li1  1  0.05903547  0.34225534  0.51244661  1
  Li  Li2  1  0.17841396  0.18035507  0.77640510  1
  Li  Li3  1  0.32158604  0.31964493  0.27640510  1
  Li  Li4  1  0.42578784  0.80327490  0.58953870  1
  Li  Li5  1  0.44096453  0.15774466  0.01244661  1
  Li  Li6  1  0.55903547  0.84225534  0.98755339  1
  Li  Li7  1  0.57421216  0.19672510  0.41046130  1
  Li  Li8  1  0.67841396  0.68035507  0.72359490  1
  Li  Li9  1  0.82158604  0.81964493  0.22359490  1
  Li  Li10  1  0.94096453  0.65774466  0.48755339  1
  Li  Li11  1  0.92578784  0.30327490  0.91046130  1
  Mn  Mn12  1  0.24840481  0.89391785  0.02776033  1
  Mn  Mn13  1  0.25159519  0.60608215  0.52776033  1
  Mn  Mn14  1  0.25344782  0.38216287  0.96674795  1
  Mn  Mn15  1  0.24655218  0.11783713  0.46674795  1
  Mn  Mn16  1  0.75344782  0.88216287  0.53325205  1
  Mn  Mn17  1  0.74655218  0.61783713  0.03325205  1
  Mn  Mn18  1  0.74840481  0.39391785  0.47223967  1
  Mn  Mn19  1  0.75159519  0.10608215  0.97223967  1
  V  V20  1  0.04389142  0.48930769  0.24986246  1
  V  V21  1  0.11856983  0.85728596  0.37792465  1
  V  V22  1  0.11222737  0.14775977  0.11442517  1
  V  V23  1  0.38143017  0.64271404  0.87792465  1
  V  V24  1  0.38777263  0.35224023  0.61442517  1
  V  V25  1  0.45610858  0.01069231  0.74986246  1
  V  V26  1  0.54389142  0.98930769  0.25013754  1
  V  V27  1  0.61222737  0.64775977  0.38557483  1
  V  V28  1  0.61856983  0.35728596  0.12207535  1
  V  V29  1  0.88777263  0.85224023  0.88557483  1
  V  V30  1  0.88143017  0.14271404  0.62207535  1
  V  V31  1  0.95610858  0.51069231  0.75013754  1
  O  O32  1  0.05150205  0.44125371  0.87606354  1
  O  O33  1  0.07128100  0.90419617  0.89624935  1
  O  O34  1  0.06862216  0.60642333  0.65453333  1
  O  O35  1  0.06502161  0.19418557  0.58208333  1
  O  O36  1  0.10777536  0.59006101  0.36962212  1
  O  O37  1  0.12275965  0.84027309  0.18505892  1
  O  O38  1  0.13831398  0.99011569  0.41897439  1
  O  O39  1  0.12424353  0.25364403  0.98701794  1
  O  O40  1  0.17202992  0.19080394  0.28766220  1
  O  O41  1  0.19591050  0.42692036  0.17004660  1
  O  O42  1  0.24744407  0.78542523  0.46893484  1
  O  O43  1  0.25255593  0.71457477  0.96893484  1
  O  O44  1  0.24697776  0.06428086  0.05221848  1
  O  O45  1  0.25302224  0.43571914  0.55221848  1
  O  O46  1  0.30408950  0.07307964  0.67004660  1
  O  O47  1  0.32797008  0.30919606  0.78766220  1
  O  O48  1  0.36168602  0.50988431  0.91897439  1
  O  O49  1  0.37575647  0.24635597  0.48701794  1
  O  O50  1  0.37724035  0.65972691  0.68505892  1
  O  O51  1  0.39222464  0.90993899  0.86962212  1
  O  O52  1  0.43137784  0.89357667  0.15453333  1
  O  O53  1  0.42871900  0.59580383  0.39624935  1
  O  O54  1  0.43497839  0.30581443  0.08208333  1
  O  O55  1  0.44849795  0.05874629  0.37606354  1
  O  O56  1  0.55150205  0.94125371  0.62393646  1
  O  O57  1  0.56502161  0.69418557  0.91791667  1
  O  O58  1  0.57128100  0.40419617  0.60375065  1
  O  O59  1  0.56862216  0.10642333  0.84546667  1
  O  O60  1  0.60777536  0.09006101  0.13037788  1
  O  O61  1  0.62275965  0.34027309  0.31494108  1
  O  O62  1  0.62424353  0.75364403  0.51298206  1
  O  O63  1  0.63831398  0.49011569  0.08102561  1
  O  O64  1  0.67202992  0.69080394  0.21233780  1
  O  O65  1  0.69591050  0.92692036  0.32995340  1
  O  O66  1  0.74697776  0.56428086  0.44778152  1
  O  O67  1  0.75302224  0.93571914  0.94778152  1
  O  O68  1  0.74744407  0.28542523  0.03106516  1
  O  O69  1  0.75255593  0.21457477  0.53106516  1
  O  O70  1  0.80408950  0.57307964  0.82995340  1
  O  O71  1  0.82797008  0.80919606  0.71233780  1
  O  O72  1  0.87575647  0.74635597  0.01298206  1
  O  O73  1  0.86168602  0.00988431  0.58102561  1
  O  O74  1  0.87724035  0.15972691  0.81494108  1
  O  O75  1  0.89222464  0.40993899  0.63037788  1
  O  O76  1  0.93497839  0.80581443  0.41791667  1
  O  O77  1  0.93137784  0.39357667  0.34546667  1
  O  O78  1  0.92871900  0.09580383  0.10375065  1
  O  O79  1  0.94849795  0.55874629  0.12393646  1
