# generated using pymatgen
data_Li2CoO2
_symmetry_space_group_name_H-M   'P 1'
_cell_length_a   3.15167743
_cell_length_b   3.15436387
_cell_length_c   5.12425282
_cell_angle_alpha   89.96835330
_cell_angle_beta   90.00000000
_cell_angle_gamma   119.97182100
_symmetry_Int_Tables_number   1
_chemical_formula_structural   Li2CoO2
_chemical_formula_sum   'Li2 Co1 O2'
_cell_volume   44.13040283
_cell_formula_units_Z   1
loop_
 _symmetry_equiv_pos_site_id
 _symmetry_equiv_pos_as_xyz
  1  'x, y, z'
loop_
 _atom_site_type_symbol
 _atom_site_label
 _atom_site_symmetry_multiplicity
 _atom_site_fract_x
 _atom_site_fract_y
 _atom_site_fract_z
 _atom_site_occupancy
  Li  Li0  1  0.33334852  0.66677820  0.64253093  1
  Li  Li1  1  0.66657032  0.33322180  0.35746907  1
  Co  Co2  1  0.99995956  0.00000000  0.00000000  1
  O  O3  1  0.33343966  0.66695671  0.23712746  1
  O  O4  1  0.66648194  0.33304329  0.76287254  1
