# generated using pymatgen
data_Cr3P6WO24
_symmetry_space_group_name_H-M   'P 1'
_cell_length_a   8.82356341
_cell_length_b   8.82356360
_cell_length_c   8.82356355
_cell_angle_alpha   58.38235861
_cell_angle_beta   58.38235696
_cell_angle_gamma   58.38235837
_symmetry_Int_Tables_number   1
_chemical_formula_structural   Cr3P6WO24
_chemical_formula_sum   'Cr3 P6 W1 O24'
_cell_volume   467.76759895
_cell_formula_units_Z   1
loop_
 _symmetry_equiv_pos_site_id
 _symmetry_equiv_pos_as_xyz
  1  'x, y, z'
loop_
 _atom_site_type_symbol
 _atom_site_label
 _atom_site_symmetry_multiplicity
 _atom_site_fract_x
 _atom_site_fract_y
 _atom_site_fract_z
 _atom_site_occupancy
  Cr  Cr0  1  0.14338587  0.14338587  0.14338587  1
  Cr  Cr1  1  0.35777631  0.35777631  0.35777631  1
  Cr  Cr2  1  0.64269627  0.64269627  0.64269627  1
  P  P3  1  0.03618207  0.74915807  0.45991971  1
  P  P4  1  0.45991971  0.03618207  0.74915807  1
  P  P5  1  0.74915807  0.45991971  0.03618207  1
  P  P6  1  0.25921840  0.52653031  0.96735180  1
  P  P7  1  0.52653031  0.96735180  0.25921840  1
  P  P8  1  0.96735180  0.25921840  0.52653031  1
  W  W9  1  0.85931584  0.85931584  0.85931584  1
  O  O10  1  0.13959458  0.27470263  0.51055095  1
  O  O11  1  0.27470263  0.51055095  0.13959458  1
  O  O12  1  0.06341888  0.92265860  0.28228542  1
  O  O13  1  0.51055095  0.13959458  0.27470263  1
  O  O14  1  0.21639791  0.57548697  0.44241852  1
  O  O15  1  0.00120616  0.78183708  0.63743754  1
  O  O16  1  0.28228542  0.06341888  0.92265860  1
  O  O17  1  0.44241852  0.21639791  0.57548697  1
  O  O18  1  0.57548697  0.44241852  0.21639791  1
  O  O19  1  0.22085559  0.36388032  0.99246319  1
  O  O20  1  0.07733857  0.71249457  0.93647146  1
  O  O21  1  0.36388032  0.99246319  0.22085559  1
  O  O22  1  0.63743754  0.00120616  0.78183708  1
  O  O23  1  0.92265860  0.28228542  0.06341888  1
  O  O24  1  0.78183708  0.63743754  0.00120616  1
  O  O25  1  0.42385665  0.56231596  0.78404854  1
  O  O26  1  0.56231596  0.78404854  0.42385665  1
  O  O27  1  0.71249457  0.93647146  0.07733857  1
  O  O28  1  0.99246319  0.22085559  0.36388032  1
  O  O29  1  0.78404854  0.42385665  0.56231596  1
  O  O30  1  0.49203279  0.86437897  0.72033149  1
  O  O31  1  0.93647146  0.07733857  0.71249457  1
  O  O32  1  0.72033149  0.49203279  0.86437897  1
  O  O33  1  0.86437897  0.72033149  0.49203279  1
