# generated using pymatgen
data_Sr2NdCu2(BiO4)2
_symmetry_space_group_name_H-M   'P 1'
_cell_length_a   3.82568901
_cell_length_b   3.82568901
_cell_length_c   15.63934771
_cell_angle_alpha   97.02542460
_cell_angle_beta   97.02542460
_cell_angle_gamma   90.00000000
_symmetry_Int_Tables_number   1
_chemical_formula_structural   Sr2NdCu2(BiO4)2
_chemical_formula_sum   'Sr2 Nd1 Cu2 Bi2 O8'
_cell_volume   225.44566109
_cell_formula_units_Z   1
loop_
 _symmetry_equiv_pos_site_id
 _symmetry_equiv_pos_as_xyz
  1  'x, y, z'
loop_
 _atom_site_type_symbol
 _atom_site_label
 _atom_site_symmetry_multiplicity
 _atom_site_fract_x
 _atom_site_fract_y
 _atom_site_fract_z
 _atom_site_occupancy
  Sr  Sr0  1  0.11512008  0.11512008  0.23024016  1
  Sr  Sr1  1  0.88487992  0.88487992  0.76975984  1
  Nd  Nd2  1  -0.00000000  0.00000000  -0.00000000  1
  Cu  Cu3  1  0.44543106  0.44543106  0.89086211  1
  Cu  Cu4  1  0.55456894  0.55456894  0.10913789  1
  Bi  Bi5  1  0.29580360  0.29580360  0.59160720  1
  Bi  Bi6  1  0.70419640  0.70419640  0.40839280  1
  O  O7  1  0.05170547  0.55170547  0.10341094  1
  O  O8  1  0.94829453  0.44829453  0.89658906  1
  O  O9  1  0.55170547  0.05170547  0.10341094  1
  O  O10  1  0.44829453  0.94829453  0.89658906  1
  O  O11  1  0.20251265  0.20251265  0.40502531  1
  O  O12  1  0.79748735  0.79748735  0.59497469  1
  O  O13  1  0.36461184  0.36461184  0.72922369  1
  O  O14  1  0.63538816  0.63538816  0.27077631  1
