# generated using pymatgen
data_Li6Mn3P8O29
_symmetry_space_group_name_H-M   'P 1'
_cell_length_a   9.75223295
_cell_length_b   9.72740106
_cell_length_c   13.92022725
_cell_angle_alpha   89.97553106
_cell_angle_beta   89.98656899
_cell_angle_gamma   59.96266825
_symmetry_Int_Tables_number   1
_chemical_formula_structural   Li6Mn3P8O29
_chemical_formula_sum   'Li12 Mn6 P16 O58'
_cell_volume   1143.17919126
_cell_formula_units_Z   2
loop_
 _symmetry_equiv_pos_site_id
 _symmetry_equiv_pos_as_xyz
  1  'x, y, z'
loop_
 _atom_site_type_symbol
 _atom_site_label
 _atom_site_symmetry_multiplicity
 _atom_site_fract_x
 _atom_site_fract_y
 _atom_site_fract_z
 _atom_site_occupancy
  Li  Li0  1  0.03121417  0.95752211  0.50872714  1
  Li  Li1  1  0.10183822  0.23360725  0.56210230  1
  Li  Li2  1  0.09805286  0.67727852  0.05820858  1
  Li  Li3  1  0.66492069  0.09784272  0.56292567  1
  Li  Li4  1  0.31642845  0.77637335  0.93750924  1
  Li  Li5  1  0.67812418  0.22925487  0.05925001  1
  Li  Li6  1  0.33789859  0.89644475  0.44167394  1
  Li  Li7  1  0.76377313  0.33434772  0.44125283  1
  Li  Li8  1  0.66411075  0.66755363  0.11484314  1
  Li  Li9  1  0.91525534  0.30974799  0.93701157  1
  Li  Li10  1  0.77373654  0.90827514  0.93603122  1
  Li  Li11  1  0.90465046  0.76005098  0.44122079  1
  Mn  Mn12  1  0.00134299  0.43350134  0.74961027  1
  Mn  Mn13  1  0.00038155  0.56683204  0.25074988  1
  Mn  Mn14  1  0.43158795  -0.00007688  0.24932715  1
  Mn  Mn15  1  0.56320594  0.00150396  0.75120281  1
  Mn  Mn16  1  0.43191221  0.56680568  0.74769518  1
  Mn  Mn17  1  0.56542357  0.43516489  0.25239378  1
  P  P18  1  0.08867111  0.22961077  0.34013352  1
  P  P19  1  0.23098988  0.08890078  0.84122264  1
  P  P20  1  0.09037618  0.67774257  0.83928982  1
  P  P21  1  0.33438214  0.33248458  0.13029689  1
  P  P22  1  0.33385833  0.33421640  0.62997071  1
  P  P23  1  0.22619809  0.68728567  0.34088279  1
  P  P24  1  0.32264329  0.76955288  0.15752390  1
  P  P25  1  0.67979658  0.08874903  0.34140742  1
  P  P26  1  0.31829913  0.91013993  0.65892195  1
  P  P27  1  0.67575048  0.23376410  0.84072333  1
  P  P28  1  0.77079783  0.31832985  0.65920059  1
  P  P29  1  0.66645037  0.66585100  0.87141241  1
  P  P30  1  0.66684295  0.66712656  0.37308954  1
  P  P31  1  0.90853141  0.32257972  0.15747536  1
  P  P32  1  0.76805858  0.90944235  0.15855338  1
  P  P33  1  0.90886671  0.77358212  0.65812751  1
  O  O34  1  0.99985130  0.21087829  0.24812956  1
  O  O35  1  0.98881732  0.24996987  0.06572718  1
  O  O36  1  0.08084283  0.25657942  0.84053093  1
  O  O37  1  0.20419457  0.00844933  0.74585386  1
  O  O38  1  0.23111438  0.99371352  0.56682930  1
  O  O39  1  0.25525085  0.07964506  0.34031250  1
  O  O40  1  0.09789891  0.38154381  0.32796543  1
  O  O41  1  0.18546543  0.32315307  0.66463962  1
  O  O42  1  0.10631021  0.51438594  0.82324022  1
  O  O43  1  0.98322729  0.78755162  0.56640455  1
  O  O44  1  0.99991659  0.79221350  0.74942991  1
  O  O45  1  0.07980880  0.66436424  0.34064867  1
  O  O46  1  0.32809362  0.18763771  0.17125351  1
  O  O47  1  0.37846059  0.10511990  0.82531959  1
  O  O48  1  0.18309903  0.48957050  0.16466659  1
  O  O49  1  0.33847039  0.33538467  0.02255440  1
  O  O50  1  0.33818502  0.32454637  0.52221484  1
  O  O51  1  0.32208502  0.48870262  0.66959282  1
  O  O52  1  0.52114061  0.09557971  0.32820154  1
  O  O53  1  0.49125065  0.18556926  0.66767776  1
  O  O54  1  0.25497983  0.66457517  0.84018060  1
  O  O55  1  0.20661585  0.78667388  0.24371492  1
  O  O56  1  0.25158405  0.75159099  0.06623666  1
  O  O57  1  0.21278216  0.79066359  0.42459607  1
  O  O58  1  0.38041233  0.52763548  0.33162066  1
  O  O59  1  0.48863718  0.32977589  0.16742068  1
  O  O60  1  0.33798192  0.74392704  0.66111418  1
  O  O61  1  0.51435481  0.38106152  0.82331361  1
  O  O62  1  0.66303139  0.08152915  0.84137760  1
  O  O63  1  0.23563652  0.99665003  0.92730381  1
  O  O64  1  0.75400939  0.99924852  0.06799122  1
  O  O65  1  0.78885193  0.00013746  0.24874664  1
  O  O66  1  0.33859298  0.91861378  0.15924565  1
  O  O67  1  0.49134453  0.62456152  0.17671047  1
  O  O68  1  0.66320291  0.25545311  0.34132636  1
  O  O69  1  0.51080227  0.67384785  0.83500963  1
  O  O70  1  0.61918899  0.47905002  0.67096909  1
  O  O71  1  0.77398584  0.22878545  0.56896595  1
  O  O72  1  0.75494026  0.24256258  0.93150191  1
  O  O73  1  0.79144954  0.20862626  0.75084757  1
  O  O74  1  0.74180436  0.33788292  0.16063865  1
  O  O75  1  0.50870647  0.81247821  0.33521684  1
  O  O76  1  0.47795676  0.90435574  0.67114336  1
  O  O77  1  0.68014857  0.50829121  0.33575849  1
  O  O78  1  0.66761067  0.66546324  0.98018853  1
  O  O79  1  0.66710779  0.66713227  0.48087613  1
  O  O80  1  0.81474348  0.51020333  0.83453728  1
  O  O81  1  0.62562360  0.88321379  0.17589681  1
  O  O82  1  0.67480740  0.81444930  0.83550101  1
  O  O83  1  0.91998752  0.33570888  0.65893076  1
  O  O84  1  0.00360206  0.22775864  0.43083431  1
  O  O85  1  0.88456899  0.49138982  0.17648699  1
  O  O86  1  0.81238619  0.67947959  0.33543804  1
  O  O87  1  0.90478439  0.61892464  0.66985024  1
  O  O88  1  0.74044856  0.92131925  0.66233745  1
  O  O89  1  0.76889046  0.00272870  0.43122927  1
  O  O90  1  0.92032640  0.74457496  0.15740907  1
  O  O91  1  0.00214961  0.75593044  0.93053240  1
