# generated using pymatgen
data_Li2MnVP2(HO5)2
_symmetry_space_group_name_H-M   'P 1'
_cell_length_a   5.50225565
_cell_length_b   10.15351339
_cell_length_c   10.14156701
_cell_angle_alpha   80.03937191
_cell_angle_beta   80.40668751
_cell_angle_gamma   83.17522178
_symmetry_Int_Tables_number   1
_chemical_formula_structural   Li2MnVP2(HO5)2
_chemical_formula_sum   'Li6 Mn3 V3 P6 H6 O30'
_cell_volume   547.86884536
_cell_formula_units_Z   3
loop_
 _symmetry_equiv_pos_site_id
 _symmetry_equiv_pos_as_xyz
  1  'x, y, z'
loop_
 _atom_site_type_symbol
 _atom_site_label
 _atom_site_symmetry_multiplicity
 _atom_site_fract_x
 _atom_site_fract_y
 _atom_site_fract_z
 _atom_site_occupancy
  Li  Li0  1  0.80036863  0.63659864  0.80903100  1
  Li  Li1  1  0.86628163  0.70185283  0.52181817  1
  Li  Li2  1  0.53296499  0.03006528  0.85766713  1
  Li  Li3  1  0.46705867  0.96482491  0.14483814  1
  Li  Li4  1  0.12879797  0.30375896  0.47463555  1
  Li  Li5  1  0.20452619  0.36290682  0.19203095  1
  Mn  Mn6  1  0.82941712  0.66826046  0.16914878  1
  Mn  Mn7  1  0.66669224  0.33336776  0.33323426  1
  Mn  Mn8  1  0.50399171  0.99838198  0.49749757  1
  V  V9  1  0.33020402  0.66925916  0.66599393  1
  V  V10  1  0.16667028  0.33333347  0.83331681  1
  V  V11  1  0.00309147  0.99739317  0.00068543  1
  P  P12  1  0.93702201  0.93264972  0.69745033  1
  P  P13  1  0.71847255  0.40381843  0.63611425  1
  P  P14  1  0.39632311  0.73403817  0.96922417  1
  P  P15  1  0.61486874  0.26285190  0.03051116  1
  P  P16  1  0.26049949  0.59909706  0.36474319  1
  P  P17  1  0.07283560  0.06755960  0.30193993  1
  H  H18  1  0.83572355  0.89352072  0.23611097  1
  H  H19  1  0.83088379  0.43973478  0.10358765  1
  H  H20  1  0.49760546  0.77314391  0.43057703  1
  H  H21  1  0.50245335  0.22693448  0.56308257  1
  H  H22  1  0.16179881  0.56264771  0.90113073  1
  H  H23  1  0.17153794  0.10401695  0.76553116  1
  O  O24  1  0.88858507  0.92433806  0.85434068  1
  O  O25  1  0.99443255  0.78563884  0.66578386  1
  O  O26  1  0.96636523  0.33884453  0.68015202  1
  O  O27  1  0.83506456  0.34600557  0.96807670  1
  O  O28  1  0.85946868  0.98086653  0.36424943  1
  O  O29  1  0.68167505  0.99408882  0.65581161  1
  O  O30  1  0.81105643  0.86803329  0.14781057  1
  O  O31  1  0.66691534  0.11598199  0.99909784  1
  O  O32  1  0.66642990  0.55068596  0.66757398  1
  O  O33  1  0.76649732  0.40909967  0.47882771  1
  O  O34  1  0.85309989  0.46416843  0.19192444  1
  O  O35  1  0.44474145  0.74232880  0.81234866  1
  O  O36  1  0.52223724  0.79863155  0.51887918  1
  O  O37  1  0.49825160  0.32067060  0.69857285  1
  O  O38  1  0.65165776  0.67258458  0.01087901  1
  O  O39  1  0.36694021  0.32779911  0.98652394  1
  O  O40  1  0.47386517  0.68578760  0.30241627  1
  O  O41  1  0.48024298  0.20249332  0.47473461  1
  O  O42  1  0.56683412  0.25757024  0.18779954  1
  O  O43  1  0.14536731  0.53587582  0.81255890  1
  O  O44  1  0.21547772  0.59234869  0.52191841  1
  O  O45  1  0.30809617  0.45428458  0.33184843  1
  O  O46  1  0.33890380  0.88104933  0.00088498  1
  O  O47  1  0.18799385  0.13078508  0.85411040  1
  O  O48  1  0.32731802  -0.00005784  0.34172991  1
  O  O49  1  0.14858854  0.01963279  0.63488023  1
  O  O50  1  0.18473042  0.64706222  0.03182874  1
  O  O51  1  0.00601127  0.66670412  0.32494307  1
  O  O52  1  0.02523469  0.21236155  0.33483422  1
  O  O53  1  0.11782634  0.07431828  0.14475799  1
