# generated using pymatgen
data_Li4Mn3Co3(SnO8)2
_symmetry_space_group_name_H-M   'P 1'
_cell_length_a   5.80728144
_cell_length_b   5.89797709
_cell_length_c   9.67426832
_cell_angle_alpha   89.07368993
_cell_angle_beta   90.50990771
_cell_angle_gamma   120.11803649
_symmetry_Int_Tables_number   1
_chemical_formula_structural   Li4Mn3Co3(SnO8)2
_chemical_formula_sum   'Li4 Mn3 Co3 Sn2 O16'
_cell_volume   286.58271324
_cell_formula_units_Z   1
loop_
 _symmetry_equiv_pos_site_id
 _symmetry_equiv_pos_as_xyz
  1  'x, y, z'
loop_
 _atom_site_type_symbol
 _atom_site_label
 _atom_site_symmetry_multiplicity
 _atom_site_fract_x
 _atom_site_fract_y
 _atom_site_fract_z
 _atom_site_occupancy
  Li  Li0  1  0.33790006  0.67230071  0.89966374  1
  Li  Li1  1  0.00744317  0.00238420  0.99510188  1
  Li  Li2  1  0.00411948  0.00223215  0.49374306  1
  Li  Li3  1  0.66442514  0.33252116  0.39074245  1
  Mn  Mn4  1  0.66226282  0.83014103  0.21476968  1
  Mn  Mn5  1  0.82925999  0.65959426  0.71649571  1
  Mn  Mn6  1  0.83322193  0.17105555  0.71537870  1
  Co  Co7  1  0.17023257  0.83072290  0.21468488  1
  Co  Co8  1  0.17087481  0.33978806  0.21459905  1
  Co  Co9  1  0.33977316  0.16910940  0.71508168  1
  Sn  Sn10  1  0.32747327  0.65917220  0.48881454  1
  Sn  Sn11  1  0.66431989  0.33202118  0.99508210  1
  O  O12  1  0.15707757  0.84018647  0.60389678  1
  O  O13  1  0.03362850  0.51640558  0.32880426  1
  O  O14  1  0.33336632  0.66759074  0.11333191  1
  O  O15  1  0.00337198  0.00040030  0.30661249  1
  O  O16  1  -0.00128790  -0.00715912  0.80734222  1
  O  O17  1  0.15749600  0.31337132  0.60051726  1
  O  O18  1  0.48360798  0.96495078  0.33137357  1
  O  O19  1  0.48372678  0.51745991  0.32950427  1
  O  O20  1  0.31483149  0.15934219  0.10485173  1
  O  O21  1  0.67619397  0.81794880  0.59672830  1
  O  O22  1  0.51216964  0.47958400  0.83090939  1
  O  O23  1  0.51267559  0.03633374  0.83595740  1
  O  O24  1  0.67036064  0.34194695  0.61198692  1
  O  O25  1  0.83891296  0.68653862  0.10364306  1
  O  O26  1  0.97050496  0.50963202  0.84551550  1
  O  O27  1  0.84205824  0.15472390  0.10270647  1
