# generated using pymatgen
data_Li2MnVP2(HO5)2
_symmetry_space_group_name_H-M   'P 1'
_cell_length_a   5.48861689
_cell_length_b   14.34969057
_cell_length_c   7.43203783
_cell_angle_alpha   95.14043864
_cell_angle_beta   69.95811137
_cell_angle_gamma   88.51532721
_symmetry_Int_Tables_number   1
_chemical_formula_structural   Li2MnVP2(HO5)2
_chemical_formula_sum   'Li6 Mn3 V3 P6 H6 O30'
_cell_volume   546.68452795
_cell_formula_units_Z   3
loop_
 _symmetry_equiv_pos_site_id
 _symmetry_equiv_pos_as_xyz
  1  'x, y, z'
loop_
 _atom_site_type_symbol
 _atom_site_label
 _atom_site_symmetry_multiplicity
 _atom_site_fract_x
 _atom_site_fract_y
 _atom_site_fract_z
 _atom_site_occupancy
  Li  Li0  1  0.74395234  0.69525686  0.86194411  1
  Li  Li1  1  0.93177536  0.64071460  0.46595627  1
  Li  Li2  1  0.59218072  0.97498337  0.79684607  1
  Li  Li3  1  0.40614923  0.02590408  0.20262409  1
  Li  Li4  1  0.06729873  0.35776691  0.53831713  1
  Li  Li5  1  0.25676360  0.30579705  0.13274756  1
  Mn  Mn6  1  0.66419188  0.83548991  0.33542765  1
  Mn  Mn7  1  0.33324276  0.66720370  0.66754332  1
  Mn  Mn8  1  0.33167555  0.16614498  0.66726549  1
  V  V9  1  0.66598146  0.33199386  0.33419393  1
  V  V10  1  0.00566280  0.49912522  0.99679539  1
  V  V11  1  0.99854579  0.00001025  0.99905132  1
  P  P12  1  0.98623945  0.14564030  0.37910416  1
  P  P13  1  0.67995828  0.18696256  0.95362919  1
  P  P14  1  0.65150314  0.48090653  0.71493988  1
  P  P15  1  0.35948878  0.51846543  0.28469110  1
  P  P16  1  0.31808150  0.81288100  0.04780974  1
  P  P17  1  0.00763020  0.85462386  0.61872294  1
  H  H18  1  0.94749644  0.32522862  0.98754807  1
  H  H19  1  0.72198225  0.00740087  0.34763525  1
  H  H20  1  0.60958896  0.66130980  0.32481085  1
  H  H21  1  0.38330983  0.33856249  0.68255025  1
  H  H22  1  0.27760485  0.99233584  0.65175420  1
  H  H23  1  0.05696276  0.67598107  0.00913377  1
  O  O24  1  0.90687148  0.90227139  0.83053027  1
  O  O25  1  0.94030169  0.22506596  0.84121858  1
  O  O26  1  0.86234131  0.44768653  0.79624300  1
  O  O27  1  0.78841264  0.88583876  0.54277146  1
  O  O28  1  0.70219043  0.07831258  0.95838870  1
  O  O29  1  0.96394450  0.25440431  0.37343696  1
  O  O30  1  0.64886194  0.58788179  0.70834922  1
  O  O31  1  0.75020572  0.43090077  0.50603626  1
  O  O32  1  0.94539139  0.37183360  0.09696641  1
  O  O33  1  0.72559200  0.10784731  0.49168926  1
  O  O34  1  0.71941643  0.96129783  0.23822341  1
  O  O35  1  0.42325465  0.76604783  0.83554046  1
  O  O36  1  0.45862981  0.21437133  0.87827771  1
  O  O37  1  0.61118151  0.70655168  0.43434762  1
  O  O38  1  0.38043766  0.44734205  0.82643151  1
  O  O39  1  0.62875353  0.55224112  0.17275995  1
  O  O40  1  0.38235634  0.29297176  0.57345957  1
  O  O41  1  0.53892147  0.78683109  0.12524695  1
  O  O42  1  0.57688250  0.23328860  0.16550188  1
  O  O43  1  0.27870439  0.03906049  0.76100545  1
  O  O44  1  0.27033662  0.89234301  0.50791795  1
  O  O45  1  0.05719253  0.62969805  0.89883407  1
  O  O46  1  0.25573446  0.56706966  0.49463187  1
  O  O47  1  0.37022383  0.40978160  0.29178543  1
  O  O48  1  0.02037929  0.74724176  0.62302797  1
  O  O49  1  0.29418919  0.92163415  0.04316694  1
  O  O50  1  0.20757998  0.11888514  0.45449980  1
  O  O51  1  0.14795920  0.54749598  0.20162651  1
  O  O52  1  0.05762756  0.77433516  0.15941498  1
  O  O53  1  0.08886026  0.09877854  0.16762811  1
