# generated using pymatgen
data_Li2MnVP2(O4F)2
_symmetry_space_group_name_H-M   'P 1'
_cell_length_a   10.43011237
_cell_length_b   5.35221710
_cell_length_c   7.47906718
_cell_angle_alpha   108.95135389
_cell_angle_beta   105.73505446
_cell_angle_gamma   97.53264976
_symmetry_Int_Tables_number   1
_chemical_formula_structural   Li2MnVP2(O4F)2
_chemical_formula_sum   'Li4 Mn2 V2 P4 O16 F4'
_cell_volume   368.90488268
_cell_formula_units_Z   2
loop_
 _symmetry_equiv_pos_site_id
 _symmetry_equiv_pos_as_xyz
  1  'x, y, z'
loop_
 _atom_site_type_symbol
 _atom_site_label
 _atom_site_symmetry_multiplicity
 _atom_site_fract_x
 _atom_site_fract_y
 _atom_site_fract_z
 _atom_site_occupancy
  Li  Li0  1  0.04107995  0.42954081  0.81321610  1
  Li  Li1  1  0.53986562  0.42789028  0.81056684  1
  Li  Li2  1  0.45993166  0.57372339  0.18757079  1
  Li  Li3  1  0.95803519  0.56978763  0.18823152  1
  Mn  Mn4  1  0.49888430  0.00108376  0.99934838  1
  Mn  Mn5  1  0.74857748  0.49984659  0.50025941  1
  V  V6  1  0.00207455  0.00051869  0.00260902  1
  V  V7  1  0.25040460  0.49768655  0.49838051  1
  P  P8  1  0.22136053  0.11854869  0.76152195  1
  P  P9  1  0.27920172  0.87805413  0.23540581  1
  P  P10  1  0.72245637  0.11942159  0.76281462  1
  P  P11  1  0.77762881  0.88227722  0.24031169  1
  O  O12  1  0.14252556  0.16150406  0.91362196  1
  O  O13  1  0.18209871  0.82554306  0.61291084  1
  O  O14  1  0.17746443  0.31561957  0.65675911  1
  O  O15  1  0.12092518  0.78015275  0.11500201  1
  O  O16  1  0.37982987  0.21768204  0.88254506  1
  O  O17  1  0.32330256  0.68229928  0.34027272  1
  O  O18  1  0.31806195  0.17142032  0.38321820  1
  O  O19  1  0.35734961  0.83423583  0.08112564  1
  O  O20  1  0.63985514  0.16011372  0.91168356  1
  O  O21  1  0.68356150  0.82562940  0.61402784  1
  O  O22  1  0.67959991  0.32124418  0.66096243  1
  O  O23  1  0.61966973  0.78287585  0.11473338  1
  O  O24  1  0.87979789  0.21837625  0.88849565  1
  O  O25  1  0.82177840  0.68156577  0.34299929  1
  O  O26  1  0.81647606  0.17728032  0.38865350  1
  O  O27  1  0.85967137  0.84419476  0.09231667  1
  F  F28  1  0.06837212  0.33727148  0.26361474  1
  F  F29  1  0.43046240  0.64991813  0.72502305  1
  F  F30  1  0.56011606  0.34236276  0.26466430  1
  F  F31  1  0.93958178  0.67233015  0.74713240  1
