# generated using pymatgen
data_Li2MnVP2(O4F)2
_symmetry_space_group_name_H-M   'P 1'
_cell_length_a   5.20046707
_cell_length_b   10.50452814
_cell_length_c   10.48708148
_cell_angle_alpha   78.37344126
_cell_angle_beta   80.53220421
_cell_angle_gamma   82.71480201
_symmetry_Int_Tables_number   1
_chemical_formula_structural   Li2MnVP2(O4F)2
_chemical_formula_sum   'Li6 Mn3 V3 P6 O24 F6'
_cell_volume   550.88783061
_cell_formula_units_Z   3
loop_
 _symmetry_equiv_pos_site_id
 _symmetry_equiv_pos_as_xyz
  1  'x, y, z'
loop_
 _atom_site_type_symbol
 _atom_site_label
 _atom_site_symmetry_multiplicity
 _atom_site_fract_x
 _atom_site_fract_y
 _atom_site_fract_z
 _atom_site_occupancy
  Li  Li0  1  0.00425297  0.27016214  0.08043258  1
  Li  Li1  1  0.33320182  0.39797342  0.58707904  1
  Li  Li2  1  0.66730763  0.06609824  0.25368940  1
  Li  Li3  1  0.33269237  0.93390176  0.74631060  1
  Li  Li4  1  0.66679818  0.60202658  0.41292096  1
  Li  Li5  1  0.99574703  0.72983786  0.91956742  1
  Mn  Mn6  1  0.50000000  0.50000000  0.00000000  1
  Mn  Mn7  1  0.33199552  0.66723484  0.66603309  1
  Mn  Mn8  1  0.66800448  0.33276516  0.33396691  1
  V  V9  1  0.00000000  0.00000000  0.00000000  1
  V  V10  1  0.16805070  0.83317751  0.33191288  1
  V  V11  1  0.83194930  0.16682249  0.66808712  1
  P  P12  1  0.18782017  0.13658124  0.37311545  1
  P  P13  1  0.14830911  0.52897242  0.29419795  1
  P  P14  1  0.51760566  0.80026650  0.03753284  1
  P  P15  1  0.48239434  0.19973350  0.96246716  1
  P  P16  1  0.85169089  0.47102758  0.70580205  1
  P  P17  1  0.81217983  0.86341876  0.62688455  1
  O  O18  1  0.25749706  0.11266139  0.02602343  1
  O  O19  1  0.02797031  0.66516845  0.32356139  1
  O  O20  1  0.11934571  0.13382852  0.52134095  1
  O  O21  1  0.21956664  0.53089746  0.14672427  1
  O  O22  1  0.07632625  0.55814821  0.63961283  1
  O  O23  1  0.05813762  0.81628271  0.69989007  1
  O  O24  1  0.41103499  0.22426945  0.30764698  1
  O  O25  1  0.39244431  0.48088321  0.36893144  1
  O  O26  1  0.30640784  0.00110599  0.34205253  1
  O  O27  1  0.44993139  0.80011578  0.18531637  1
  O  O28  1  0.36318075  0.33540291  0.99295283  1
  O  O29  1  0.72347661  0.14862028  0.03728594  1
  O  O30  1  0.27652339  0.85137972  0.96271406  1
  O  O31  1  0.63681925  0.66459709  0.00704717  1
  O  O32  1  0.55006861  0.19988422  0.81468363  1
  O  O33  1  0.69359216  0.99889401  0.65794747  1
  O  O34  1  0.60755569  0.51911679  0.63106856  1
  O  O35  1  0.58896501  0.77573055  0.69235302  1
  O  O36  1  0.94186238  0.18371729  0.30010993  1
  O  O37  1  0.92367275  0.44185179  0.36038717  1
  O  O38  1  0.78043336  0.46910254  0.85327573  1
  O  O39  1  0.88065429  0.86617148  0.47865905  1
  O  O40  1  0.97202969  0.33483155  0.67643861  1
  O  O41  1  0.74250294  0.88733861  0.97397657  1
  F  F42  1  0.06721064  0.06259282  0.80140440  1
  F  F43  1  0.25136432  0.60400268  0.86908944  1
  F  F44  1  0.40510962  0.73205110  0.45968157  1
  F  F45  1  0.59489038  0.26794890  0.54031843  1
  F  F46  1  0.74863568  0.39599732  0.13091056  1
  F  F47  1  0.93278936  0.93740718  0.19859560  1
