# generated using pymatgen
data_Li2MnVP2(O4F)2
_symmetry_space_group_name_H-M   'P 1'
_cell_length_a   5.23843948
_cell_length_b   10.52536673
_cell_length_c   10.35259939
_cell_angle_alpha   78.74842610
_cell_angle_beta   80.28991554
_cell_angle_gamma   83.84584472
_symmetry_Int_Tables_number   1
_chemical_formula_structural   Li2MnVP2(O4F)2
_chemical_formula_sum   'Li6 Mn3 V3 P6 O24 F6'
_cell_volume   550.18283735
_cell_formula_units_Z   3
loop_
 _symmetry_equiv_pos_site_id
 _symmetry_equiv_pos_as_xyz
  1  'x, y, z'
loop_
 _atom_site_type_symbol
 _atom_site_label
 _atom_site_symmetry_multiplicity
 _atom_site_fract_x
 _atom_site_fract_y
 _atom_site_fract_z
 _atom_site_occupancy
  Li  Li0  1  0.00523193  0.26801898  0.08392573  1
  Li  Li1  1  0.32810107  0.39864702  0.58274027  1
  Li  Li2  1  0.66867207  0.06751430  0.25509730  1
  Li  Li3  1  0.33476725  0.93527165  0.74740464  1
  Li  Li4  1  0.66466093  0.59915270  0.41156970  1
  Li  Li5  1  0.99856575  0.73139535  0.91926136  1
  Mn  Mn6  1  0.50165536  0.49857546  0.00033240  1
  Mn  Mn7  1  0.66666700  0.33333300  0.33333300  1
  Mn  Mn8  1  0.83167864  0.16809154  0.66633360  1
  V  V9  1  0.00405410  0.99875602  0.00127593  1
  V  V10  1  0.16666700  0.83333300  0.33333300  1
  V  V11  1  0.32927890  0.66791098  0.66539107  1
  P  P12  1  0.18735851  0.13589297  0.37316663  1
  P  P13  1  0.14597449  0.53077403  0.29350037  1
  P  P14  1  0.51789331  0.79862009  0.03784733  1
  P  P15  1  0.48893092  0.19900052  0.96239274  1
  P  P16  1  0.84440208  0.46766648  0.70427426  1
  P  P17  1  0.81543969  0.86804691  0.62881867  1
  O  O18  1  0.26331420  0.11171463  0.02665075  1
  O  O19  1  0.02320501  0.66523628  0.32302251  1
  O  O20  1  0.11887029  0.13542299  0.52344261  1
  O  O21  1  0.21446371  0.53124301  0.14322439  1
  O  O22  1  0.07001980  0.55495137  0.64001525  1
  O  O23  1  0.05558313  0.82037542  0.70189434  1
  O  O24  1  0.41138577  0.22574348  0.30625584  1
  O  O25  1  0.38323781  0.48726305  0.36882486  1
  O  O26  1  0.31012899  0.00142972  0.34364449  1
  O  O27  1  0.45087649  0.79709908  0.18831417  1
  O  O28  1  0.36420163  0.33372613  0.99334915  1
  O  O29  1  0.72839838  0.15186136  0.03630321  1
  O  O30  1  0.27774987  0.84629058  0.96477266  1
  O  O31  1  0.63939533  0.66393543  0.00619523  1
  O  O32  1  0.55461201  0.19987746  0.81187107  1
  O  O33  1  0.69393767  0.00273157  0.66047077  1
  O  O34  1  0.60493562  0.51480464  0.63036379  1
  O  O35  1  0.58953503  0.78075852  0.69113939  1
  O  O36  1  0.95009519  0.17940395  0.29784214  1
  O  O37  1  0.92194723  0.44092352  0.36041116  1
  O  O38  1  0.77872099  0.46678954  0.85479493  1
  O  O39  1  0.88245651  0.86956692  0.47835183  1
  O  O40  1  0.96913137  0.33293987  0.67331785  1
  O  O41  1  0.74379797  0.88590848  0.97552761  1
  F  F42  1  0.07490416  0.06075725  0.80693634  1
  F  F43  1  0.25842884  0.60590975  0.85972966  1
  F  F44  1  0.39902311  0.72957114  0.46740060  1
  F  F45  1  0.58943750  0.27153229  0.53066662  1
  F  F46  1  0.74389550  0.39513471  0.13600038  1
  F  F47  1  0.93431089  0.93709586  0.19926540  1
