# generated using pymatgen
data_Li9(CoO4)2
_symmetry_space_group_name_H-M   'P 1'
_cell_length_a   9.30084720
_cell_length_b   9.27685084
_cell_length_c   9.11957232
_cell_angle_alpha   90.00000000
_cell_angle_beta   90.00000000
_cell_angle_gamma   90.00000000
_symmetry_Int_Tables_number   1
_chemical_formula_structural   Li9(CoO4)2
_chemical_formula_sum   'Li36 Co8 O32'
_cell_volume   786.86015677
_cell_formula_units_Z   4
loop_
 _symmetry_equiv_pos_site_id
 _symmetry_equiv_pos_as_xyz
  1  'x, y, z'
loop_
 _atom_site_type_symbol
 _atom_site_label
 _atom_site_symmetry_multiplicity
 _atom_site_fract_x
 _atom_site_fract_y
 _atom_site_fract_z
 _atom_site_occupancy
  Li  Li0  1  0.10342474  0.63143552  0.13773128  1
  Li  Li1  1  0.10342474  0.86856448  0.63773128  1
  Li  Li2  1  0.11632189  0.10894925  0.83460053  1
  Li  Li3  1  0.11632189  0.39105075  0.33460053  1
  Li  Li4  1  0.11667104  0.84935065  0.35955307  1
  Li  Li5  1  0.11667104  0.65064935  0.85955307  1
  Li  Li6  1  0.16109134  0.12144282  0.41547982  1
  Li  Li7  1  0.16109134  0.37855718  0.91547982  1
  Li  Li8  1  0.33890866  0.87855718  0.91547982  1
  Li  Li9  1  0.33890866  0.62144282  0.41547982  1
  Li  Li10  1  0.38332896  0.15064935  0.85955307  1
  Li  Li11  1  0.38332896  0.34935065  0.35955307  1
  Li  Li12  1  0.38367811  0.60894925  0.83460053  1
  Li  Li13  1  0.38367811  0.89105075  0.33460053  1
  Li  Li14  1  0.39657526  0.13143552  0.13773128  1
  Li  Li15  1  0.39657526  0.36856448  0.63773128  1
  Li  Li16  1  0.61551480  0.61533097  0.35774993  1
  Li  Li17  1  0.61551480  0.88466903  0.85774993  1
  Li  Li18  1  0.61039323  0.11518391  0.65438700  1
  Li  Li19  1  0.61039323  0.38481609  0.15438700  1
  Li  Li20  1  0.62195646  0.64875595  0.62822478  1
  Li  Li21  1  0.62195646  0.85124405  0.12822478  1
  Li  Li22  1  0.65124831  0.61996663  0.89569720  1
  Li  Li23  1  0.65124831  0.88003337  0.39569720  1
  Li  Li24  1  0.66295926  0.11412510  0.10436468  1
  Li  Li25  1  0.66295926  0.38587490  0.60436468  1
  Li  Li26  1  0.83704074  0.61412510  0.10436468  1
  Li  Li27  1  0.83704074  0.88587490  0.60436468  1
  Li  Li28  1  0.84875169  0.38003337  0.39569720  1
  Li  Li29  1  0.84875169  0.11996663  0.89569720  1
  Li  Li30  1  0.87804354  0.14875595  0.62822478  1
  Li  Li31  1  0.87804354  0.35124405  0.12822478  1
  Li  Li32  1  0.88960677  0.61518391  0.65438700  1
  Li  Li33  1  0.88960677  0.88481609  0.15438700  1
  Li  Li34  1  0.88448520  0.11533097  0.35774993  1
  Li  Li35  1  0.88448520  0.38466903  0.85774993  1
  Co  Co36  1  0.12269328  0.13105408  0.12194255  1
  Co  Co37  1  0.12269328  0.36894592  0.62194255  1
  Co  Co38  1  0.37730672  0.63105408  0.12194255  1
  Co  Co39  1  0.37730672  0.86894592  0.62194255  1
  Co  Co40  1  0.61210222  0.14943352  0.37955493  1
  Co  Co41  1  0.61210222  0.35056648  0.87955493  1
  Co  Co42  1  0.88789778  0.64943352  0.37955493  1
  Co  Co43  1  0.88789778  0.85056648  0.87955493  1
  O  O44  1  0.00885455  0.26110311  0.49721951  1
  O  O45  1  0.00885455  0.23889689  0.99721951  1
  O  O46  1  0.03044281  0.01415690  0.24870990  1
  O  O47  1  0.03044281  0.48584310  0.74870990  1
  O  O48  1  0.24792420  0.04849294  0.99874168  1
  O  O49  1  0.24792420  0.45150706  0.49874168  1
  O  O50  1  0.23643727  0.23583961  0.24509005  1
  O  O51  1  0.23643727  0.26416039  0.74509005  1
  O  O52  1  0.26356273  0.73583961  0.24509005  1
  O  O53  1  0.26356273  0.76416039  0.74509005  1
  O  O54  1  0.25207580  0.54849294  0.99874168  1
  O  O55  1  0.25207580  0.95150706  0.49874168  1
  O  O56  1  0.46955719  0.51415690  0.24870990  1
  O  O57  1  0.46955719  0.98584310  0.74870990  1
  O  O58  1  0.49114545  0.76110311  0.49721951  1
  O  O59  1  0.49114545  0.73889689  0.99721951  1
  O  O60  1  0.51936416  0.23734960  0.00596169  1
  O  O61  1  0.51936416  0.26265040  0.50596169  1
  O  O62  1  0.53473097  0.00987605  0.25286110  1
  O  O63  1  0.53473097  0.49012395  0.75286110  1
  O  O64  1  0.74334247  0.03783032  0.49955196  1
  O  O65  1  0.74334247  0.46216968  0.99955196  1
  O  O66  1  0.74841198  0.24857136  0.25796636  1
  O  O67  1  0.74841198  0.25142864  0.75796636  1
  O  O68  1  0.75158802  0.74857136  0.25796636  1
  O  O69  1  0.75158802  0.75142864  0.75796636  1
  O  O70  1  0.75665753  0.53783032  0.49955196  1
  O  O71  1  0.75665753  0.96216968  0.99955196  1
  O  O72  1  0.96526903  0.99012395  0.75286110  1
  O  O73  1  0.96526903  0.50987605  0.25286110  1
  O  O74  1  0.98063584  0.73734960  0.00596169  1
  O  O75  1  0.98063584  0.76265040  0.50596169  1
