# generated using pymatgen
data_LiVF5
_symmetry_space_group_name_H-M   'P 1'
_cell_length_a   6.78325618
_cell_length_b   10.63432241
_cell_length_c   10.63432241
_cell_angle_alpha   95.83809551
_cell_angle_beta   108.59836258
_cell_angle_gamma   71.40163742
_symmetry_Int_Tables_number   1
_chemical_formula_structural   LiVF5
_chemical_formula_sum   'Li8 V8 F40'
_cell_volume   689.08163681
_cell_formula_units_Z   8
loop_
 _symmetry_equiv_pos_site_id
 _symmetry_equiv_pos_as_xyz
  1  'x, y, z'
loop_
 _atom_site_type_symbol
 _atom_site_label
 _atom_site_symmetry_multiplicity
 _atom_site_fract_x
 _atom_site_fract_y
 _atom_site_fract_z
 _atom_site_occupancy
  Li  Li0  1  0.63930699  0.72040103  0.05122307  1
  Li  Li1  1  0.19151505  0.22040103  0.55122307  1
  Li  Li2  1  0.08808391  0.05122307  0.77959897  1
  Li  Li3  1  0.14029098  0.55122307  0.27959897  1
  Li  Li4  1  0.85970902  0.44877693  0.72040103  1
  Li  Li5  1  0.91191609  0.94877693  0.22040103  1
  Li  Li6  1  0.80848495  0.77959897  0.44877693  1
  Li  Li7  1  0.36069301  0.27959897  0.94877693  1
  V  V8  1  0.31972134  0.04173061  0.14562849  1
  V  V9  1  0.86145195  0.35437151  0.04173061  1
  V  V10  1  0.67409285  0.14562849  0.45826939  1
  V  V11  1  0.71582346  0.45826939  0.35437151  1
  V  V12  1  0.28417654  0.54173061  0.64562849  1
  V  V13  1  0.32590715  0.85437151  0.54173061  1
  V  V14  1  0.13854805  0.64562849  0.95826939  1
  V  V15  1  0.68027866  0.95826939  0.85437151  1
  F  F16  1  0.40948426  0.16684434  0.09291086  1
  F  F17  1  0.03171364  0.17751224  0.11732405  1
  F  F18  1  0.41438859  0.11732405  0.32248776  1
  F  F19  1  0.81657339  0.09291086  0.33315566  1
  F  F20  1  0.07632860  0.40708914  0.16684434  1
  F  F21  1  0.70922588  0.38267595  0.17751224  1
  F  F22  1  0.71773865  0.52908036  0.99523334  1
  F  F23  1  0.24841433  0.02908036  0.49523334  1
  F  F24  1  0.59190083  0.32248776  0.38267595  1
  F  F25  1  0.43235900  0.55604927  0.28574251  1
  F  F26  1  0.79733524  0.05604927  0.78574251  1
  F  F27  1  0.00277706  0.68027615  0.09424033  1
  F  F28  1  0.91118711  0.18027615  0.59424033  1
  F  F29  1  0.98341773  0.33315566  0.40708914  1
  F  F30  1  0.35338451  0.71425749  0.05604927  1
  F  F31  1  0.48840727  0.21425749  0.55604927  1
  F  F32  1  0.81694679  0.59424033  0.31972385  1
  F  F33  1  0.40853673  0.09424033  0.81972385  1
  F  F34  1  0.25318099  0.49523334  0.47091964  1
  F  F35  1  0.22250531  0.99523334  0.97091964  1
  F  F36  1  0.77749469  0.00476666  0.02908036  1
  F  F37  1  0.74681901  0.50476666  0.52908036  1
  F  F38  1  0.59146327  0.90575967  0.18027615  1
  F  F39  1  0.18305321  0.40575967  0.68027615  1
  F  F40  1  0.51159273  0.78574251  0.44395073  1
  F  F41  1  0.64661549  0.28574251  0.94395073  1
  F  F42  1  0.01658227  0.66684434  0.59291086  1
  F  F43  1  0.99722294  0.31972385  0.90575967  1
  F  F44  1  0.08881289  0.81972385  0.40575967  1
  F  F45  1  0.20266476  0.94395073  0.21425749  1
  F  F46  1  0.56764100  0.44395073  0.71425749  1
  F  F47  1  0.40809917  0.67751224  0.61732405  1
  F  F48  1  0.75158567  0.97091964  0.50476666  1
  F  F49  1  0.28226135  0.47091964  0.00476666  1
  F  F50  1  0.29077412  0.61732405  0.82248776  1
  F  F51  1  0.92367140  0.59291086  0.83315566  1
  F  F52  1  0.18342661  0.90708914  0.66684434  1
  F  F53  1  0.58561141  0.88267595  0.67751224  1
  F  F54  1  0.96828636  0.82248776  0.88267595  1
  F  F55  1  0.59051574  0.83315566  0.90708914  1
