# generated using pymatgen
data_Li3V2P4(HO8)2
_symmetry_space_group_name_H-M   'P 1'
_cell_length_a   13.77166486
_cell_length_b   8.07467682
_cell_length_c   7.88494750
_cell_angle_alpha   89.97889703
_cell_angle_beta   100.04486375
_cell_angle_gamma   90.24502567
_symmetry_Int_Tables_number   1
_chemical_formula_structural   Li3V2P4(HO8)2
_chemical_formula_sum   'Li9 V6 P12 H6 O48'
_cell_volume   863.37159688
_cell_formula_units_Z   3
loop_
 _symmetry_equiv_pos_site_id
 _symmetry_equiv_pos_as_xyz
  1  'x, y, z'
loop_
 _atom_site_type_symbol
 _atom_site_label
 _atom_site_symmetry_multiplicity
 _atom_site_fract_x
 _atom_site_fract_y
 _atom_site_fract_z
 _atom_site_occupancy
  Li  Li0  1  0.17989431  0.86769114  0.02383813  1
  Li  Li1  1  0.14814060  0.13313776  0.30461726  1
  Li  Li2  1  0.15149251  0.36884432  0.80069785  1
  Li  Li3  1  0.48710180  0.36794377  0.14364404  1
  Li  Li4  1  0.51453498  0.86946901  0.36481358  1
  Li  Li5  1  0.51823855  0.63518920  0.86232958  1
  Li  Li6  1  0.85184039  0.63270697  0.19498400  1
  Li  Li7  1  0.81924282  0.36712465  0.47516918  1
  Li  Li8  1  0.84818753  0.86830262  0.69968151  1
  V  V9  1  0.16593683  0.50370548  0.17854937  1
  V  V10  1  0.16852350  0.99628730  0.66423613  1
  V  V11  1  0.49842933  0.49736823  0.50335308  1
  V  V12  1  0.50071918  0.00537026  0.98821602  1
  V  V13  1  0.83415462  0.00282014  0.32235537  1
  V  V14  1  0.83128952  0.49489108  0.83596352  1
  P  P15  1  0.04495338  0.84809712  0.27448370  1
  P  P16  1  0.04491540  0.65191546  0.78506661  1
  P  P17  1  0.28956231  0.15738281  0.05399249  1
  P  P18  1  0.37705525  0.65720220  0.11322531  1
  P  P19  1  0.28775947  0.35087676  0.55548745  1
  P  P20  1  0.37887931  0.85100711  0.61072133  1
  P  P21  1  0.62226368  0.15309489  0.38261910  1
  P  P22  1  0.71083363  0.65598913  0.44681977  1
  P  P23  1  0.62241695  0.34884549  0.89118341  1
  P  P24  1  0.71283536  0.85090646  0.94408519  1
  P  P25  1  0.95497556  0.34778822  0.22513198  1
  P  P26  1  0.95500302  0.15193253  0.71532518  1
  H  H27  1  0.00914107  0.51007496  0.52595824  1
  H  H28  1  0.32925137  0.01042007  0.32357662  1
  H  H29  1  0.33753276  0.51032706  0.84347014  1
  H  H30  1  0.67206626  0.50970860  0.18047312  1
  H  H31  1  0.65865665  0.01186602  0.64505749  1
  H  H32  1  0.99080910  0.01028892  0.97401140  1
  O  O33  1  0.06410869  0.94611003  0.11636778  1
  O  O34  1  0.06726536  0.32836298  0.21581458  1
  O  O35  1  0.08941803  0.67259218  0.27172422  1
  O  O36  1  0.09341276  0.94899755  0.43260030  1
  O  O37  1  0.06438351  0.54810385  0.62717094  1
  O  O38  1  0.23556934  0.32512526  0.05063313  1
  O  O39  1  0.06610894  0.17210054  0.71320029  1
  O  O40  1  0.26554404  0.67806974  0.11846443  1
  O  O41  1  0.09761785  0.81836385  0.78957149  1
  O  O42  1  0.27187997  0.06211755  0.21971193  1
  O  O43  1  0.09472674  0.54572236  0.94358052  1
  O  O44  1  0.23774786  0.45396515  0.38792736  1
  O  O45  1  0.23275818  0.18421406  0.54020960  1
  O  O46  1  0.40113195  0.17825566  0.04916915  1
  O  O47  1  0.27030010  0.83325710  0.62716680  1
  O  O48  1  0.27219931  0.43981457  0.71986255  1
  O  O49  1  0.43102465  0.82521468  0.11627481  1
  O  O50  1  0.24069018  0.04870923  0.90281534  1
  O  O51  1  0.42587354  0.54804969  0.26395014  1
  O  O52  1  0.39471011  0.94052352  0.44669492  1
  O  O53  1  0.39611227  0.33283883  0.53779848  1
  O  O54  1  0.43359850  0.68472713  0.62595397  1
  O  O55  1  0.60363645  0.44671514  0.05187770  1
  O  O56  1  0.42928820  0.95270392  0.77926526  1
  O  O57  1  0.57192102  0.04720850  0.22472110  1
  O  O58  1  0.39462736  0.56222829  0.94736584  1
  O  O59  1  0.57059378  0.32033119  0.37837094  1
  O  O60  1  0.59977327  0.67529197  0.44755516  1
  O  O61  1  0.60423469  0.04969326  0.54082229  1
  O  O62  1  0.57041330  0.45183798  0.73571873  1
  O  O63  1  0.75905199  0.95110918  0.11315789  1
  O  O64  1  0.57495768  0.17478676  0.89556573  1
  O  O65  1  0.72989931  0.55987540  0.28176822  1
  O  O66  1  0.73391989  0.17510254  0.37643550  1
  O  O67  1  0.60106312  0.82978198  0.95642474  1
  O  O68  1  0.76584869  0.82317488  0.45051467  1
  O  O69  1  0.75938484  0.54722336  0.59852096  1
  O  O70  1  0.90682185  0.44987049  0.06766905  1
  O  O71  1  0.72857312  0.94034768  0.78240799  1
  O  O72  1  0.91002879  0.17200457  0.22714321  1
  O  O73  1  0.73184066  0.33061600  0.87919489  1
  O  O74  1  0.93239597  0.82880100  0.28284377  1
  O  O75  1  0.76527410  0.68224074  0.96003509  1
  O  O76  1  0.93615793  0.44493274  0.38382028  1
  O  O77  1  0.90498991  0.04622261  0.55594656  1
  O  O78  1  0.90219480  0.31812597  0.71032501  1
  O  O79  1  0.93374328  0.67212575  0.78772993  1
  O  O80  1  0.93541115  0.04789384  0.87301561  1
