# generated using pymatgen
data_Na6Ti2O7
_symmetry_space_group_name_H-M   'P 1'
_cell_length_a   5.97287046
_cell_length_b   5.97287046
_cell_length_c   12.96293449
_cell_angle_alpha   75.38293784
_cell_angle_beta   104.61706216
_cell_angle_gamma   85.61320199
_symmetry_Int_Tables_number   1
_chemical_formula_structural   Na6Ti2O7
_chemical_formula_sum   'Na12 Ti4 O14'
_cell_volume   428.12408651
_cell_formula_units_Z   2
loop_
 _symmetry_equiv_pos_site_id
 _symmetry_equiv_pos_as_xyz
  1  'x, y, z'
loop_
 _atom_site_type_symbol
 _atom_site_label
 _atom_site_symmetry_multiplicity
 _atom_site_fract_x
 _atom_site_fract_y
 _atom_site_fract_z
 _atom_site_occupancy
  Na  Na0  1  0.34047658  0.86925194  0.58125897  1
  Na  Na1  1  0.35477493  0.58558650  0.86565714  1
  Na  Na2  1  0.00000000  0.50000000  0.50000000  1
  Na  Na3  1  0.18553852  0.18553852  0.75000000  1
  Na  Na4  1  0.13074806  0.65952342  0.08125897  1
  Na  Na5  1  0.41441350  0.64522507  0.36565714  1
  Na  Na6  1  0.58558650  0.35477493  0.63434286  1
  Na  Na7  1  0.86925194  0.34047658  0.91874103  1
  Na  Na8  1  0.81446148  0.81446148  0.25000000  1
  Na  Na9  1  0.64522507  0.41441350  0.13434286  1
  Na  Na10  1  0.65952342  0.13074806  0.41874103  1
  Na  Na11  1  0.50000000  0.00000000  0.00000000  1
  Ti  Ti12  1  0.78748601  0.87498404  0.86044314  1
  Ti  Ti13  1  0.87498404  0.78748601  0.63955686  1
  Ti  Ti14  1  0.12501596  0.21251399  0.36044314  1
  Ti  Ti15  1  0.21251399  0.12501596  0.13955686  1
  O  O16  1  0.09402496  0.91135736  0.89253196  1
  O  O17  1  0.08864264  0.90597504  0.39253196  1
  O  O18  1  0.15123550  0.59296595  0.67708849  1
  O  O19  1  0.72719340  0.67417358  0.97855042  1
  O  O20  1  0.71249280  0.71249280  0.75000000  1
  O  O21  1  0.67417358  0.72719340  0.52144958  1
  O  O22  1  0.40703405  0.84876450  0.17708849  1
  O  O23  1  0.59296595  0.15123550  0.82291151  1
  O  O24  1  0.32582642  0.27280660  0.47855042  1
  O  O25  1  0.28750720  0.28750720  0.25000000  1
  O  O26  1  0.27280660  0.32582642  0.02144958  1
  O  O27  1  0.84876450  0.40703405  0.32291151  1
  O  O28  1  0.91135736  0.09402496  0.60746804  1
  O  O29  1  0.90597504  0.08864264  0.10746804  1
