# generated using pymatgen
data_Li24TiCr11O36
_symmetry_space_group_name_H-M   'P 1'
_cell_length_a   8.74595381
_cell_length_b   8.71535597
_cell_length_c   9.75834019
_cell_angle_alpha   89.99999994
_cell_angle_beta   98.18293602
_cell_angle_gamma   60.11565877
_symmetry_Int_Tables_number   1
_chemical_formula_structural   Li24TiCr11O36
_chemical_formula_sum   'Li24 Ti1 Cr11 O36'
_cell_volume   636.16768965
_cell_formula_units_Z   1
loop_
 _symmetry_equiv_pos_site_id
 _symmetry_equiv_pos_as_xyz
  1  'x, y, z'
loop_
 _atom_site_type_symbol
 _atom_site_label
 _atom_site_symmetry_multiplicity
 _atom_site_fract_x
 _atom_site_fract_y
 _atom_site_fract_z
 _atom_site_occupancy
  Li  Li0  1  0.16454945  0.00698038  0.00066694  1
  Li  Li1  1  0.00000000  0.25007879  0.75000000  1
  Li  Li2  1  0.16759134  0.16443948  0.50016261  1
  Li  Li3  1  0.33238466  0.08347158  0.24997774  1
  Li  Li4  1  0.16922486  0.32722537  0.00021873  1
  Li  Li5  1  0.50126289  0.99937913  0.99972927  1
  Li  Li6  1  0.49677734  0.16356970  0.49938372  1
  Li  Li7  1  0.16911377  0.50585781  0.50048457  1
  Li  Li8  1  1.00000000  0.75049712  0.25000000  1
  Li  Li9  1  0.50046741  0.33783364  0.99860706  1
  Li  Li10  1  0.16510470  0.66554337  0.00078473  1
  Li  Li11  1  0.33402742  0.58292300  0.75025904  1
  Li  Li12  1  0.16747049  0.82715511  0.49948313  1
  Li  Li13  1  0.49873711  0.50064202  0.50027073  1
  Li  Li14  1  0.83545055  0.17152982  0.49933306  1
  Li  Li15  1  0.66761534  0.41585624  0.25002226  1
  Li  Li16  1  0.50322266  0.66034604  0.00061628  1
  Li  Li17  1  0.83240866  0.33203181  0.99983739  1
  Li  Li18  1  0.83077514  0.49644922  0.49978127  1
  Li  Li19  1  0.49953259  0.83830105  0.50139294  1
  Li  Li20  1  0.83088623  0.67497158  0.99951543  1
  Li  Li21  1  0.66597258  0.91695042  0.74974096  1
  Li  Li22  1  0.83489530  0.83064807  0.49921527  1
  Li  Li23  1  0.83252951  0.99462561  0.00051687  1
  Ti  Ti24  1  0.00000000  0.41731970  0.25000000  1
  Cr  Cr25  1  0.00000000  0.07804579  0.25000000  1
  Cr  Cr26  1  0.00000000  0.57590700  0.75000000  1
  Cr  Cr27  1  0.33837940  0.25182609  0.74863591  1
  Cr  Cr28  1  0.33464654  0.41844009  0.25151145  1
  Cr  Cr29  1  0.66173161  0.08885475  0.24471656  1
  Cr  Cr30  1  0.00000000  0.91091008  0.75000000  1
  Cr  Cr31  1  0.67325913  0.24765908  0.75061213  1
  Cr  Cr32  1  0.33826839  0.75058636  0.25528344  1
  Cr  Cr33  1  0.32674087  0.92091721  0.74938787  1
  Cr  Cr34  1  0.66162060  0.59020449  0.75136409  1
  Cr  Cr35  1  0.66535346  0.75308663  0.24848855  1
  O  O36  1  0.09822376  0.02250585  0.63803693  1
  O  O37  1  0.06927497  0.21331606  0.13463507  1
  O  O38  1  0.26637302  0.11450515  0.86348272  1
  O  O39  1  0.40177377  0.05285296  0.63475704  1
  O  O40  1  0.09151131  0.38604178  0.63684333  1
  O  O41  1  0.24147640  0.30805003  0.36279085  1
  O  O42  1  0.24248891  0.44503623  0.86252956  1
  O  O43  1  0.09813935  0.52359445  0.13733050  1
  O  O44  1  0.57380666  0.14501109  0.86110524  1
  O  O45  1  0.42964833  0.21149627  0.13680702  1
  O  O46  1  0.06856857  0.71373890  0.63638168  1
  O  O47  1  0.42910379  0.35580142  0.63787634  1
  O  O48  1  0.76796058  0.04481312  0.63697664  1
  O  O49  1  0.56649365  0.28847170  0.36124009  1
  O  O50  1  0.26186554  0.62012863  0.36723947  1
  O  O51  1  0.90177624  0.12072961  0.86196307  1
  O  O52  1  0.39996474  0.55021464  0.13785452  1
  O  O53  1  0.75770035  0.19002910  0.13637225  1
  O  O54  1  0.23203942  0.81277370  0.86302336  1
  O  O55  1  0.59822623  0.45462673  0.86524296  1
  O  O56  1  0.09362583  0.88486104  0.13904956  1
  O  O57  1  0.73362698  0.38087817  0.63651728  1
  O  O58  1  0.42619334  0.71881774  0.63889476  1
  O  O59  1  0.24229965  0.94772945  0.36362775  1
  O  O60  1  0.57035167  0.64114460  0.36319298  1
  O  O61  1  0.93072503  0.28259003  0.36536493  1
  O  O62  1  0.57089621  0.78490521  0.86212366  1
  O  O63  1  0.43350635  0.85496535  0.13875991  1
  O  O64  1  0.90848869  0.47755309  0.86315667  1
  O  O65  1  0.75852360  0.54952743  0.13720915  1
  O  O66  1  0.75751109  0.68752514  0.63747044  1
  O  O67  1  0.90186065  0.62173380  0.36266950  1
  O  O68  1  0.60003526  0.95017938  0.36214548  1
  O  O69  1  0.73813446  0.88199417  0.13276053  1
  O  O70  1  0.93143143  0.78230746  0.86361832  1
  O  O71  1  0.90637417  0.97848687  0.36095044  1
