# generated using pymatgen
data_Tm(ClO4)3
_symmetry_space_group_name_H-M   'P 1'
_cell_length_a   9.22390280
_cell_length_b   9.22394479
_cell_length_c   5.67582948
_cell_angle_alpha   90.00000000
_cell_angle_beta   90.00000000
_cell_angle_gamma   119.99993366
_symmetry_Int_Tables_number   1
_chemical_formula_structural   Tm(ClO4)3
_chemical_formula_sum   'Tm2 Cl6 O24'
_cell_volume   418.20736220
_cell_formula_units_Z   2
loop_
 _symmetry_equiv_pos_site_id
 _symmetry_equiv_pos_as_xyz
  1  'x, y, z'
loop_
 _atom_site_type_symbol
 _atom_site_label
 _atom_site_symmetry_multiplicity
 _atom_site_fract_x
 _atom_site_fract_y
 _atom_site_fract_z
 _atom_site_occupancy
  Tm  Tm0  1  0.33339407  0.66669521  0.75000000  1
  Tm  Tm1  1  0.66670402  0.33330838  0.25000000  1
  Cl  Cl2  1  0.09075803  0.70751876  0.25000000  1
  Cl  Cl3  1  0.29248863  0.38324357  0.25000000  1
  Cl  Cl4  1  0.61676643  0.90924745  0.25000000  1
  Cl  Cl5  1  0.38324126  0.09075696  0.75000000  1
  Cl  Cl6  1  0.70751948  0.61675849  0.75000000  1
  Cl  Cl7  1  0.90924859  0.29248785  0.75000000  1
  O  O8  1  0.02004477  0.81289530  0.25000000  1
  O  O9  1  0.03597841  0.47122169  0.75000000  1
  O  O10  1  0.19826723  0.74150191  0.04191448  1
  O  O11  1  0.19826723  0.74150191  0.45808552  1
  O  O12  1  0.43524679  0.96401941  0.75000000  1
  O  O13  1  0.25849614  0.45677069  0.45808523  1
  O  O14  1  0.25849614  0.45677069  0.04191477  1
  O  O15  1  0.18709932  0.20715392  0.25000000  1
  O  O16  1  0.54323879  0.80173221  0.04191977  1
  O  O17  1  0.54323879  0.80173221  0.45808023  1
  O  O18  1  0.20715078  0.02004852  0.75000000  1
  O  O19  1  0.47122530  0.43524287  0.25000000  1
  O  O20  1  0.52877595  0.56475982  0.75000000  1
  O  O21  1  0.79285443  0.97995409  0.25000000  1
  O  O22  1  0.45676778  0.19826803  0.54191443  1
  O  O23  1  0.45676778  0.19826803  0.95808557  1
  O  O24  1  0.81289604  0.79284848  0.75000000  1
  O  O25  1  0.74150064  0.54323182  0.95808365  1
  O  O26  1  0.74150064  0.54323182  0.54191635  1
  O  O27  1  0.56475261  0.03597609  0.25000000  1
  O  O28  1  0.80172308  0.25848921  0.95807899  1
  O  O29  1  0.80172308  0.25848921  0.54192101  1
  O  O30  1  0.96401884  0.52877559  0.25000000  1
  O  O31  1  0.97994490  0.18709776  0.75000000  1
