# generated using pymatgen
data_LiVF3
_symmetry_space_group_name_H-M   'P 1'
_cell_length_a   8.82867783
_cell_length_b   5.00538810
_cell_length_c   10.67567422
_cell_angle_alpha   90.00000000
_cell_angle_beta   90.00000000
_cell_angle_gamma   90.00000000
_symmetry_Int_Tables_number   1
_chemical_formula_structural   LiVF3
_chemical_formula_sum   'Li8 V8 F24'
_cell_volume   471.76828121
_cell_formula_units_Z   8
loop_
 _symmetry_equiv_pos_site_id
 _symmetry_equiv_pos_as_xyz
  1  'x, y, z'
loop_
 _atom_site_type_symbol
 _atom_site_label
 _atom_site_symmetry_multiplicity
 _atom_site_fract_x
 _atom_site_fract_y
 _atom_site_fract_z
 _atom_site_occupancy
  Li  Li0  1  0.21432498  0.49626193  0.10104179  1
  Li  Li1  1  0.21432498  0.00373807  0.60104179  1
  Li  Li2  1  0.28567502  0.49626193  0.60104179  1
  Li  Li3  1  0.28567502  0.00373807  0.10104179  1
  Li  Li4  1  0.71432498  0.50373807  0.39895821  1
  Li  Li5  1  0.71432498  0.99626193  0.89895821  1
  Li  Li6  1  0.78567502  0.99626193  0.39895821  1
  Li  Li7  1  0.78567502  0.50373807  0.89895821  1
  V  V8  1  0.08629210  0.49314056  0.36363084  1
  V  V9  1  0.08629210  0.00685944  0.86363084  1
  V  V10  1  0.41370790  0.49314056  0.86363084  1
  V  V11  1  0.41370790  0.00685944  0.36363084  1
  V  V12  1  0.58629210  0.50685944  0.13636916  1
  V  V13  1  0.58629210  0.99314056  0.63636916  1
  V  V14  1  0.91370790  0.50685944  0.63636916  1
  V  V15  1  0.91370790  0.99314056  0.13636916  1
  F  F16  1  0.08526361  0.72354966  0.19695953  1
  F  F17  1  0.08526361  0.77645034  0.69695953  1
  F  F18  1  0.09515321  0.30239710  0.54253777  1
  F  F19  1  0.09515321  0.19760290  0.04253777  1
  F  F20  1  0.25000000  0.25000000  0.27200610  1
  F  F21  1  0.25000000  0.25000000  0.77200610  1
  F  F22  1  0.25000000  0.75000000  0.45490685  1
  F  F23  1  0.25000000  0.75000000  0.95490685  1
  F  F24  1  0.40484679  0.19760290  0.54253777  1
  F  F25  1  0.40484679  0.30239710  0.04253777  1
  F  F26  1  0.41473639  0.72354966  0.69695953  1
  F  F27  1  0.41473639  0.77645034  0.19695953  1
  F  F28  1  0.58526361  0.27645034  0.30304047  1
  F  F29  1  0.58526361  0.22354966  0.80304047  1
  F  F30  1  0.59515321  0.69760290  0.95746223  1
  F  F31  1  0.59515321  0.80239710  0.45746223  1
  F  F32  1  0.75000000  0.25000000  0.04509315  1
  F  F33  1  0.75000000  0.25000000  0.54509315  1
  F  F34  1  0.75000000  0.75000000  0.22799390  1
  F  F35  1  0.75000000  0.75000000  0.72799390  1
  F  F36  1  0.90484679  0.80239710  0.95746223  1
  F  F37  1  0.90484679  0.69760290  0.45746223  1
  F  F38  1  0.91473639  0.27645034  0.80304047  1
  F  F39  1  0.91473639  0.22354966  0.30304047  1
