# generated using pymatgen
data_SrCa2Cu2(BiO4)2
_symmetry_space_group_name_H-M   'P 1'
_cell_length_a   5.50314201
_cell_length_b   5.25961962
_cell_length_c   15.85086143
_cell_angle_alpha   90.00000000
_cell_angle_beta   99.99668858
_cell_angle_gamma   90.00000000
_symmetry_Int_Tables_number   1
_chemical_formula_structural   SrCa2Cu2(BiO4)2
_chemical_formula_sum   'Sr2 Ca4 Cu4 Bi4 O16'
_cell_volume   451.82869630
_cell_formula_units_Z   2
loop_
 _symmetry_equiv_pos_site_id
 _symmetry_equiv_pos_as_xyz
  1  'x, y, z'
loop_
 _atom_site_type_symbol
 _atom_site_label
 _atom_site_symmetry_multiplicity
 _atom_site_fract_x
 _atom_site_fract_y
 _atom_site_fract_z
 _atom_site_occupancy
  Sr  Sr0  1  0.50000000  0.00000000  0.50000000  1
  Sr  Sr1  1  0.00000000  0.50000000  0.50000000  1
  Ca  Ca2  1  0.62334952  0.00000000  0.71536517  1
  Ca  Ca3  1  0.37665048  0.00000000  0.28463483  1
  Ca  Ca4  1  0.09201565  0.50000000  0.71536517  1
  Ca  Ca5  1  0.90798435  0.50000000  0.28463483  1
  Cu  Cu6  1  0.06005227  0.00000000  0.61579039  1
  Cu  Cu7  1  0.93994773  0.00000000  0.38420961  1
  Cu  Cu8  1  0.55573812  0.50000000  0.61579039  1
  Cu  Cu9  1  0.44426188  0.50000000  0.38420961  1
  Bi  Bi10  1  0.17036869  0.00000000  0.90192686  1
  Bi  Bi11  1  0.82963131  0.00000000  0.09807314  1
  Bi  Bi12  1  0.73155817  0.50000000  0.90192686  1
  Bi  Bi13  1  0.26844183  0.50000000  0.09807314  1
  O  O14  1  0.10917276  0.00000000  0.77052568  1
  O  O15  1  0.89082724  0.00000000  0.22947432  1
  O  O16  1  0.66135292  0.50000000  0.77052568  1
  O  O17  1  0.33864708  0.50000000  0.22947432  1
  O  O18  1  0.68991573  0.25000000  0.37983145  1
  O  O19  1  0.31008427  0.75000000  0.62016855  1
  O  O20  1  0.31008427  0.25000000  0.62016855  1
  O  O21  1  0.68991573  0.75000000  0.37983145  1
  O  O22  1  0.77899334  0.00000000  0.90476313  1
  O  O23  1  0.22100666  0.00000000  0.09523687  1
  O  O24  1  0.12576980  0.50000000  0.90476313  1
  O  O25  1  0.87423020  0.50000000  0.09523687  1
  O  O26  1  0.80661288  0.25000000  0.61322576  1
  O  O27  1  0.19338712  0.75000000  0.38677424  1
  O  O28  1  0.19338712  0.25000000  0.38677424  1
  O  O29  1  0.80661288  0.75000000  0.61322576  1
