# generated using pymatgen
data_Li2MnVP2(HO5)2
_symmetry_space_group_name_H-M   'P 1'
_cell_length_a   8.09122934
_cell_length_b   7.30657497
_cell_length_c   6.92962425
_cell_angle_alpha   116.79277451
_cell_angle_beta   86.60165540
_cell_angle_gamma   89.07641796
_symmetry_Int_Tables_number   1
_chemical_formula_structural   Li2MnVP2(HO5)2
_chemical_formula_sum   'Li4 Mn2 V2 P4 H4 O20'
_cell_volume   364.62702473
_cell_formula_units_Z   2
loop_
 _symmetry_equiv_pos_site_id
 _symmetry_equiv_pos_as_xyz
  1  'x, y, z'
loop_
 _atom_site_type_symbol
 _atom_site_label
 _atom_site_symmetry_multiplicity
 _atom_site_fract_x
 _atom_site_fract_y
 _atom_site_fract_z
 _atom_site_occupancy
  Li  Li0  1  0.32311567  0.82285672  0.07449692  1
  Li  Li1  1  0.17472908  0.17353645  0.42881654  1
  Li  Li2  1  0.82527092  0.82646355  0.57118346  1
  Li  Li3  1  0.67688433  0.17714328  0.92550308  1
  Mn  Mn4  1  0.00000000  0.50000000  0.00000000  1
  Mn  Mn5  1  0.50000000  0.00000000  0.50000000  1
  V  V6  1  0.00000000  0.00000000  0.00000000  1
  V  V7  1  0.50000000  0.50000000  0.50000000  1
  P  P8  1  0.15606249  0.76660927  0.48292505  1
  P  P9  1  0.34471818  0.23117345  0.01858845  1
  P  P10  1  0.65528182  0.76882655  0.98141155  1
  P  P11  1  0.84393751  0.23339073  0.51707495  1
  H  H12  1  0.14650048  0.65491623  0.79013416  1
  H  H13  1  0.64859289  0.66740993  0.28785131  1
  H  H14  1  0.35140711  0.33259107  0.71214869  1
  H  H15  1  0.85349952  0.34508377  0.20986584  1
  O  O16  1  0.01567110  0.65551581  0.33729639  1
  O  O17  1  0.22559188  0.11818405  0.11127826  1
  O  O18  1  0.26390905  0.87969713  0.38339578  1
  O  O19  1  0.06198646  0.93003154  0.69586876  1
  O  O20  1  0.55201867  0.93100364  0.18495505  1
  O  O21  1  0.26215731  0.62054249  0.53928277  1
  O  O22  1  0.47757542  0.34188285  0.18064250  1
  O  O23  1  0.75171698  0.61907449  0.03843031  1
  O  O24  1  0.10320109  0.71994162  0.94502325  1
  O  O25  1  0.60408118  0.73150876  0.44305950  1
  O  O26  1  0.39591882  0.26849124  0.55694050  1
  O  O27  1  0.89679891  0.28005838  0.05497675  1
  O  O28  1  0.24828302  0.38092551  0.96156969  1
  O  O29  1  0.52242458  0.65811715  0.81935750  1
  O  O30  1  0.73784269  0.37945751  0.46071723  1
  O  O31  1  0.44798133  0.06899636  0.81504495  1
  O  O32  1  0.93801354  0.06996846  0.30413124  1
  O  O33  1  0.73609095  0.12030287  0.61660422  1
  O  O34  1  0.77440812  0.88181595  0.88872174  1
  O  O35  1  0.98432890  0.34448419  0.66270361  1
