# generated using pymatgen
data_Li2MnVP2(O4F)2
_symmetry_space_group_name_H-M   'P 1'
_cell_length_a   5.23900348
_cell_length_b   14.74787960
_cell_length_c   7.50051326
_cell_angle_alpha   86.69340560
_cell_angle_beta   105.27385047
_cell_angle_gamma   85.78371405
_symmetry_Int_Tables_number   1
_chemical_formula_structural   Li2MnVP2(O4F)2
_chemical_formula_sum   'Li6 Mn3 V3 P6 O24 F6'
_cell_volume   555.74732303
_cell_formula_units_Z   3
loop_
 _symmetry_equiv_pos_site_id
 _symmetry_equiv_pos_as_xyz
  1  'x, y, z'
loop_
 _atom_site_type_symbol
 _atom_site_label
 _atom_site_symmetry_multiplicity
 _atom_site_fract_x
 _atom_site_fract_y
 _atom_site_fract_z
 _atom_site_occupancy
  Li  Li0  1  0.06005120  0.85730186  0.33077383  1
  Li  Li1  1  0.39160726  0.52291862  0.66641883  1
  Li  Li2  1  0.72840831  0.19152583  0.99518813  1
  Li  Li3  1  0.27359163  0.81021979  0.00167871  1
  Li  Li4  1  0.60526440  0.47428338  0.33589272  1
  Li  Li5  1  0.93779503  0.14320873  0.66743496  1
  Mn  Mn6  1  0.99570010  0.49958682  0.99694306  1
  Mn  Mn7  1  0.66535808  0.33325777  0.66580599  1
  Mn  Mn8  1  0.66862197  0.83372970  0.66900789  1
  V  V9  1  0.00406574  0.00049729  0.00257460  1
  V  V10  1  0.33431003  0.16614129  0.33280400  1
  V  V11  1  0.33342638  0.66668808  0.33334996  1
  P  P12  1  0.26266290  0.29322044  0.94123450  1
  P  P13  1  0.06945746  0.37316376  0.38892170  1
  P  P14  1  0.40590446  0.03978833  0.72407709  1
  P  P15  1  0.59728895  0.95904388  0.27875938  1
  P  P16  1  0.92768647  0.62810695  0.61132774  1
  P  P17  1  0.73880055  0.70651093  0.05607532  1
  O  O18  1  0.08417565  0.56056182  0.77920222  1
  O  O19  1  0.23099981  0.05371833  0.86028732  1
  O  O20  1  0.24154215  0.39211700  0.99243997  1
  O  O21  1  0.08949860  0.27466011  0.33882304  1
  O  O22  1  0.10072421  0.61608127  0.47326196  1
  O  O23  1  0.25140740  0.10487840  0.55365867  1
  O  O24  1  0.01769926  0.73912517  0.14410985  1
  O  O25  1  0.43787824  0.27855840  0.80444509  1
  O  O26  1  0.35025920  0.40649671  0.47679678  1
  O  O27  1  0.42533224  0.94079575  0.67322138  1
  O  O28  1  0.58281820  0.77379621  0.88821981  1
  O  O29  1  0.68628180  0.07252889  0.81472436  1
  O  O30  1  0.31665535  0.92655883  0.18924945  1
  O  O31  1  0.41513270  0.22782591  0.11156279  1
  O  O32  1  0.57591217  0.05789786  0.32769064  1
  O  O33  1  0.64925725  0.59542665  0.52277406  1
  O  O34  1  0.56525856  0.71849070  0.19365305  1
  O  O35  1  0.98126254  0.25968361  0.85301428  1
  O  O36  1  0.75110109  0.89277134  0.44808637  1
  O  O37  1  0.89235303  0.38662750  0.52503790  1
  O  O38  1  0.91143739  0.72684367  0.66369496  1
  O  O39  1  0.75637032  0.60740986  0.00498848  1
  O  O40  1  0.77276964  0.94662634  0.14295651  1
  O  O41  1  0.91674956  0.44017495  0.22001789  1
  F  F42  1  0.02435379  0.11257348  0.15141684  1
  F  F43  1  0.34388907  0.77481114  0.47614891  1
  F  F44  1  0.32316310  0.55846334  0.19089245  1
  F  F45  1  0.67306247  0.44755241  0.81678211  1
  F  F46  1  0.64336774  0.21648789  0.50749087  1
  F  F47  1  0.98928654  0.89126500  0.85708559  1
