# generated using pymatgen
data_Li2MnVP2(HO5)2
_symmetry_space_group_name_H-M   'P 1'
_cell_length_a   5.46923263
_cell_length_b   10.22881915
_cell_length_c   7.41603958
_cell_angle_alpha   105.59391618
_cell_angle_beta   69.72025176
_cell_angle_gamma   83.32807070
_symmetry_Int_Tables_number   1
_chemical_formula_structural   Li2MnVP2(HO5)2
_chemical_formula_sum   'Li4 Mn2 V2 P4 H4 O20'
_cell_volume   364.63645934
_cell_formula_units_Z   2
loop_
 _symmetry_equiv_pos_site_id
 _symmetry_equiv_pos_as_xyz
  1  'x, y, z'
loop_
 _atom_site_type_symbol
 _atom_site_label
 _atom_site_symmetry_multiplicity
 _atom_site_fract_x
 _atom_site_fract_y
 _atom_site_fract_z
 _atom_site_occupancy
  Li  Li0  1  0.89226474  0.54101201  0.71160162  1
  Li  Li1  1  0.60743986  0.96068301  0.78397659  1
  Li  Li2  1  0.38622330  0.03796234  0.21676108  1
  Li  Li3  1  0.11221487  0.46089537  0.28677022  1
  Mn  Mn4  1  0.74700051  0.75176126  0.25280415  1
  Mn  Mn5  1  0.49939860  0.50058931  0.50140707  1
  V  V6  1  0.25530475  0.24926864  0.74625469  1
  V  V7  1  0.99932023  0.99825933  0.99872040  1
  P  P8  1  0.91146576  0.22221609  0.45467231  1
  P  P9  1  0.41068451  0.72049884  0.95499564  1
  P  P10  1  0.59631319  0.27774453  0.04474278  1
  P  P11  1  0.08365281  0.77909113  0.54483392  1
  H  H12  1  0.78177113  0.48875547  0.15481584  1
  H  H13  1  0.71085543  0.01122164  0.35174368  1
  H  H14  1  0.28883056  0.98718598  0.64780203  1
  H  H15  1  0.21637343  0.51358843  0.84796694  1
  O  O16  1  0.95649613  0.85142590  0.78103191  1
  O  O17  1  0.84985808  0.32860082  0.94835297  1
  O  O18  1  0.85122750  0.82638456  0.48184313  1
  O  O19  1  0.66415736  0.11598844  0.99542211  1
  O  O20  1  0.85243058  0.38152799  0.50409098  1
  O  O21  1  0.73240558  0.94292300  0.21979485  1
  O  O22  1  0.54012719  0.64894723  0.71923514  1
  O  O23  1  0.75965505  0.55654371  0.28739699  1
  O  O24  1  0.65598306  0.17182774  0.55098268  1
  O  O25  1  0.36904555  0.32184956  0.97705695  1
  O  O26  1  0.64281680  0.68057411  0.02097512  1
  O  O27  1  0.33081747  0.83381230  0.45258324  1
  O  O28  1  0.23892712  0.44543078  0.71435268  1
  O  O29  1  0.46884314  0.34925012  0.27986899  1
  O  O30  1  0.26379666  0.05654214  0.78092608  1
  O  O31  1  0.14872562  0.61934467  0.49501809  1
  O  O32  1  0.33498254  0.88244970  0.00351046  1
  O  O33  1  0.13911471  0.17270302  0.51968914  1
  O  O34  1  0.16564047  0.66490551  0.04824061  1
  O  O35  1  0.03583668  0.14823433  0.21975790  1
