# generated using pymatgen
data_Li2FeF5
_symmetry_space_group_name_H-M   'P 1'
_cell_length_a   3.88292306
_cell_length_b   5.32759982
_cell_length_c   10.08718004
_cell_angle_alpha   90.00000000
_cell_angle_beta   90.00000000
_cell_angle_gamma   68.62836579
_symmetry_Int_Tables_number   1
_chemical_formula_structural   Li2FeF5
_chemical_formula_sum   'Li4 Fe2 F10'
_cell_volume   194.32114925
_cell_formula_units_Z   2
loop_
 _symmetry_equiv_pos_site_id
 _symmetry_equiv_pos_as_xyz
  1  'x, y, z'
loop_
 _atom_site_type_symbol
 _atom_site_label
 _atom_site_symmetry_multiplicity
 _atom_site_fract_x
 _atom_site_fract_y
 _atom_site_fract_z
 _atom_site_occupancy
  Li  Li0  1  0.13359607  0.73280687  0.94320507  1
  Li  Li1  1  0.13359607  0.73280687  0.55679493  1
  Li  Li2  1  0.86640393  0.26719313  0.05679493  1
  Li  Li3  1  0.86640393  0.26719313  0.44320507  1
  Fe  Fe4  1  0.19155388  0.61689224  0.25000000  1
  Fe  Fe5  1  0.80844612  0.38310776  0.75000000  1
  F  F6  1  0.05097340  0.89805321  0.12021057  1
  F  F7  1  0.05097340  0.89805321  0.37978943  1
  F  F8  1  0.68844181  0.62311638  0.90751995  1
  F  F9  1  0.68844181  0.62311638  0.59248005  1
  F  F10  1  0.26382879  0.47234242  0.75000000  1
  F  F11  1  0.73617121  0.52765758  0.25000000  1
  F  F12  1  0.31155819  0.37688362  0.40751995  1
  F  F13  1  0.31155819  0.37688362  0.09248005  1
  F  F14  1  0.94902660  0.10194679  0.62021057  1
  F  F15  1  0.94902660  0.10194679  0.87978943  1
