# generated using pymatgen
data_Li2MnVP2(HO5)2
_symmetry_space_group_name_H-M   'P 1'
_cell_length_a   10.29773524
_cell_length_b   7.41347524
_cell_length_c   5.17723118
_cell_angle_alpha   74.71142838
_cell_angle_beta   82.38108459
_cell_angle_gamma   102.38970043
_symmetry_Int_Tables_number   1
_chemical_formula_structural   Li2MnVP2(HO5)2
_chemical_formula_sum   'Li4 Mn2 V2 P4 H4 O20'
_cell_volume   364.79114862
_cell_formula_units_Z   2
loop_
 _symmetry_equiv_pos_site_id
 _symmetry_equiv_pos_as_xyz
  1  'x, y, z'
loop_
 _atom_site_type_symbol
 _atom_site_label
 _atom_site_symmetry_multiplicity
 _atom_site_fract_x
 _atom_site_fract_y
 _atom_site_fract_z
 _atom_site_occupancy
  Li  Li0  1  0.28879182  0.10506762  0.63927779  1
  Li  Li1  1  0.21527856  0.38763660  0.86936981  1
  Li  Li2  1  0.78091007  0.61677912  0.13121736  1
  Li  Li3  1  0.71545090  0.89405492  0.35698739  1
  Mn  Mn4  1  0.25103263  0.74840166  0.25013538  1
  Mn  Mn5  1  0.50139533  0.50226793  0.49562755  1
  V  V6  1  0.99987488  0.99715417  0.00636569  1
  V  V7  1  0.74778887  0.25084281  0.74935738  1
  P  P8  1  0.06253652  0.29460514  0.38737376  1
  P  P9  1  0.43427262  0.20017045  0.12245152  1
  P  P10  1  0.56804254  0.80154111  0.86673842  1
  P  P11  1  0.93424907  0.70261293  0.62623395  1
  H  H12  1  0.13812331  0.79235846  0.84551757  1
  H  H13  1  0.36559219  0.70386696  0.65264788  1
  H  H14  1  0.63603259  0.30231976  0.33748868  1
  H  H15  1  0.86097393  0.20129911  0.16085055  1
  O  O16  1  0.08917819  0.15999373  0.21373276  1
  O  O17  1  0.10968249  0.22544959  0.66242672  1
  O  O18  1  0.08452681  0.70359721  0.58853374  1
  O  O19  1  0.15497592  0.49535637  0.20505128  1
  O  O20  1  0.16199121  0.87957242  0.96110587  1
  O  O21  1  0.38192332  0.26295433  0.85639103  1
  O  O22  1  0.41022348  0.33707677  0.29859090  1
  O  O23  1  0.34038442  0.61352331  0.54139527  1
  O  O24  1  0.65765417  0.00472075  0.68129829  1
  O  O25  1  0.41636721  0.79469512  0.91088766  1
  O  O26  1  0.58709661  0.20771325  0.06712054  1
  O  O27  1  0.34549479  0.99807826  0.31022920  1
  O  O28  1  0.66024216  0.39298302  0.44548993  1
  O  O29  1  0.59628070  0.66328965  0.69455064  1
  O  O30  1  0.61803326  0.74200608  0.13712595  1
  O  O31  1  0.83984112  0.11578573  0.04557006  1
  O  O32  1  0.83977060  0.50135503  0.80275456  1
  O  O33  1  0.91071279  0.29186305  0.43489105  1
  O  O34  1  0.89005490  0.77148685  0.34645073  1
  O  O35  1  0.90522003  0.83752074  0.79876315  1
