# generated using pymatgen
data_Li2MnVP2(HO5)2
_symmetry_space_group_name_H-M   'P 1'
_cell_length_a   5.46098445
_cell_length_b   14.55657974
_cell_length_c   7.44473565
_cell_angle_alpha   95.60964937
_cell_angle_beta   69.08042998
_cell_angle_gamma   88.76092878
_symmetry_Int_Tables_number   1
_chemical_formula_structural   Li2MnVP2(HO5)2
_chemical_formula_sum   'Li6 Mn3 V3 P6 H6 O30'
_cell_volume   549.13053453
_cell_formula_units_Z   3
loop_
 _symmetry_equiv_pos_site_id
 _symmetry_equiv_pos_as_xyz
  1  'x, y, z'
loop_
 _atom_site_type_symbol
 _atom_site_label
 _atom_site_symmetry_multiplicity
 _atom_site_fract_x
 _atom_site_fract_y
 _atom_site_fract_z
 _atom_site_occupancy
  Li  Li0  1  0.73836205  0.69376655  0.86530832  1
  Li  Li1  1  0.93240040  0.64168976  0.46678049  1
  Li  Li2  1  0.59590547  0.97407881  0.79696272  1
  Li  Li3  1  0.39894530  0.02483395  0.20347637  1
  Li  Li4  1  0.06847345  0.35939428  0.53267864  1
  Li  Li5  1  0.26481622  0.30688738  0.13342866  1
  Mn  Mn6  1  0.66448932  0.83478315  0.33540977  1
  Mn  Mn7  1  0.66682787  0.33337772  0.33364299  1
  Mn  Mn8  1  0.33189209  0.66636922  0.66798942  1
  V  V9  1  0.33760684  0.16584961  0.66387223  1
  V  V10  1  0.00009135  0.50015031  0.00007345  1
  V  V11  1  0.99939915  0.99921529  0.99908965  1
  P  P12  1  0.98648217  0.14853842  0.37999659  1
  P  P13  1  0.68870921  0.18440818  0.95177920  1
  P  P14  1  0.65063744  0.48183966  0.71566040  1
  P  P15  1  0.34895133  0.51798140  0.28496733  1
  P  P16  1  0.31660716  0.81413353  0.04754922  1
  P  P17  1  0.01138687  0.85258008  0.61917395  1
  H  H18  1  0.94710566  0.32663188  0.98974781  1
  H  H19  1  0.71534401  0.00794619  0.34702875  1
  H  H20  1  0.61172730  0.65868689  0.32541838  1
  H  H21  1  0.38496571  0.34103007  0.67706043  1
  H  H22  1  0.28482500  0.99177784  0.65255924  1
  H  H23  1  0.05359371  0.67450615  0.01031306  1
  O  O24  1  0.90925126  0.90110438  0.83037131  1
  O  O25  1  0.96095240  0.21854798  0.83775929  1
  O  O26  1  0.85892118  0.44866109  0.79843569  1
  O  O27  1  0.79535870  0.88458483  0.54073208  1
  O  O28  1  0.70352148  0.07733780  0.95581483  1
  O  O29  1  0.97981550  0.25421375  0.37536881  1
  O  O30  1  0.64440491  0.58752633  0.71274073  1
  O  O31  1  0.75196181  0.43262900  0.50490333  1
  O  O32  1  0.94906865  0.37026398  0.10048913  1
  O  O33  1  0.71222990  0.11507412  0.49447086  1
  O  O34  1  0.71424387  0.96291689  0.23786589  1
  O  O35  1  0.42244808  0.76585981  0.83619416  1
  O  O36  1  0.47757226  0.21397777  0.86948456  1
  O  O37  1  0.61198092  0.70344696  0.43537176  1
  O  O38  1  0.37504393  0.44837886  0.82858310  1
  O  O39  1  0.62451727  0.55111283  0.17136795  1
  O  O40  1  0.38490048  0.29677451  0.56648586  1
  O  O41  1  0.53500871  0.78728579  0.12659249  1
  O  O42  1  0.58374705  0.23287639  0.16245044  1
  O  O43  1  0.28048625  0.03778017  0.76207312  1
  O  O44  1  0.27939561  0.88901410  0.50737818  1
  O  O45  1  0.05141146  0.63009525  0.89997904  1
  O  O46  1  0.24780399  0.56704430  0.49560251  1
  O  O47  1  0.35507515  0.41206990  0.28837391  1
  O  O48  1  0.02209247  0.74688536  0.62325638  1
  O  O49  1  0.29518721  0.92129970  0.04237120  1
  O  O50  1  0.19625624  0.11591684  0.46165404  1
  O  O51  1  0.14101731  0.55097271  0.20193538  1
  O  O52  1  0.05062100  0.77735384  0.16104277  1
  O  O53  1  0.08616088  0.09854443  0.17088712  1
