# generated using pymatgen
data_Li3V2P4(HO8)2
_symmetry_space_group_name_H-M   'P 1'
_cell_length_a   9.74999749
_cell_length_b   8.07843506
_cell_length_c   7.88389588
_cell_angle_alpha   90.00000000
_cell_angle_beta   67.94106312
_cell_angle_gamma   90.00000000
_symmetry_Int_Tables_number   1
_chemical_formula_structural   Li3V2P4(HO8)2
_chemical_formula_sum   'Li6 V4 P8 H4 O32'
_cell_volume   575.51642577
_cell_formula_units_Z   2
loop_
 _symmetry_equiv_pos_site_id
 _symmetry_equiv_pos_as_xyz
  1  'x, y, z'
loop_
 _atom_site_type_symbol
 _atom_site_label
 _atom_site_symmetry_multiplicity
 _atom_site_fract_x
 _atom_site_fract_y
 _atom_site_fract_z
 _atom_site_occupancy
  Li  Li0  1  0.22244289  0.13314839  0.15705584  1
  Li  Li1  1  0.22691635  0.36840033  0.64901460  1
  Li  Li2  1  0.26940438  0.86789865  0.84371785  1
  Li  Li3  1  0.77755711  0.63314839  0.34294416  1
  Li  Li4  1  0.73059562  0.36789865  0.65628215  1
  Li  Li5  1  0.77308365  0.86840033  0.85098540  1
  V  V6  1  0.24891674  0.50373608  0.01237869  1
  V  V7  1  0.25275808  0.99618289  0.49570569  1
  V  V8  1  0.74724192  0.49618289  0.00429431  1
  V  V9  1  0.75108326  0.00373608  0.48762131  1
  P  P10  1  0.06730864  0.84818535  0.22943984  1
  P  P11  1  0.06787583  0.65161146  0.74007212  1
  P  P12  1  0.43107135  0.35102990  0.26809951  1
  P  P13  1  0.56892865  0.85102990  0.23190049  1
  P  P14  1  0.43472514  0.15752200  0.76454361  1
  P  P15  1  0.56527486  0.65752200  0.73545639  1
  P  P16  1  0.93269136  0.34818535  0.27056016  1
  P  P17  1  0.93212417  0.15161146  0.75992788  1
  H  H18  1  0.01413472  0.51008000  0.51713029  1
  H  H19  1  0.50558551  0.51105968  0.50576441  1
  H  H20  1  0.49441449  0.01105968  0.99423559  1
  H  H21  1  0.98586528  0.01008000  0.98286971  1
  O  O22  1  0.09536213  0.94544499  0.05187009  1
  O  O23  1  0.10119574  0.32881563  0.14840340  1
  O  O24  1  0.13387231  0.67255331  0.18204916  1
  O  O25  1  0.14096686  0.94940394  0.33802581  1
  O  O26  1  0.09719321  0.54761136  0.56294501  1
  O  O27  1  0.09905784  0.17185326  0.64682562  1
  O  O28  1  0.14726883  0.81799933  0.69189360  1
  O  O29  1  0.14224457  0.54542218  0.84911567  1
  O  O30  1  0.35700108  0.45361199  0.14965162  1
  O  O31  1  0.34824480  0.18463011  0.30773729  1
  O  O32  1  0.40562713  0.83337645  0.35696751  1
  O  O33  1  0.40731215  0.43995733  0.44785548  1
  O  O34  1  0.36066175  0.04839122  0.66310425  1
  O  O35  1  0.35371875  0.32526774  0.81506623  1
  O  O36  1  0.59268785  0.93995733  0.05214452  1
  O  O37  1  0.59437287  0.33337645  0.14303249  1
  O  O38  1  0.39805628  0.67829354  0.85276214  1
  O  O39  1  0.40861204  0.06319688  0.94824468  1
  O  O40  1  0.65175520  0.68463011  0.19226271  1
  O  O41  1  0.64299892  0.95361199  0.35034838  1
  O  O42  1  0.59138796  0.56319688  0.55175532  1
  O  O43  1  0.60194372  0.17829354  0.64723786  1
  O  O44  1  0.64628125  0.82526774  0.68493377  1
  O  O45  1  0.63933825  0.54839122  0.83689575  1
  O  O46  1  0.85903314  0.44940394  0.16197419  1
  O  O47  1  0.86612769  0.17255331  0.31795084  1
  O  O48  1  0.89880426  0.82881563  0.35159660  1
  O  O49  1  0.90463787  0.44544499  0.44812991  1
  O  O50  1  0.85775543  0.04542218  0.65088433  1
  O  O51  1  0.85273117  0.31799933  0.80810640  1
  O  O52  1  0.90094216  0.67185326  0.85317438  1
  O  O53  1  0.90280679  0.04761136  0.93705499  1
