# generated using pymatgen
data_Dy2P4O13
_symmetry_space_group_name_H-M   'P 1'
_cell_length_a   8.95021793
_cell_length_b   9.62847508
_cell_length_c   13.99492056
_cell_angle_alpha   90.00000000
_cell_angle_beta   106.85136769
_cell_angle_gamma   90.00000000
_symmetry_Int_Tables_number   1
_chemical_formula_structural   Dy2P4O13
_chemical_formula_sum   'Dy8 P16 O52'
_cell_volume   1154.25221694
_cell_formula_units_Z   4
loop_
 _symmetry_equiv_pos_site_id
 _symmetry_equiv_pos_as_xyz
  1  'x, y, z'
loop_
 _atom_site_type_symbol
 _atom_site_label
 _atom_site_symmetry_multiplicity
 _atom_site_fract_x
 _atom_site_fract_y
 _atom_site_fract_z
 _atom_site_occupancy
  Dy  Dy0  1  0.02424092  0.00494935  0.72206829  1
  Dy  Dy1  1  0.02424092  0.49505065  0.22206829  1
  Dy  Dy2  1  0.44869029  0.99908832  0.73638379  1
  Dy  Dy3  1  0.55130971  0.49908832  0.76361621  1
  Dy  Dy4  1  0.44869029  0.50091168  0.23638379  1
  Dy  Dy5  1  0.55130971  0.00091168  0.26361621  1
  Dy  Dy6  1  0.97575908  0.50494935  0.77793171  1
  Dy  Dy7  1  0.97575908  0.99505065  0.27793171  1
  P  P8  1  0.15131975  0.23954765  0.93804277  1
  P  P9  1  0.28896775  0.73318766  0.84561676  1
  P  P10  1  0.21665416  0.29296543  0.65687070  1
  P  P11  1  0.15131975  0.26045235  0.43804277  1
  P  P12  1  0.49433806  0.24840809  0.94099451  1
  P  P13  1  0.28896775  0.76681234  0.34561676  1
  P  P14  1  0.21665416  0.20703457  0.15687070  1
  P  P15  1  0.50566194  0.74840809  0.55900549  1
  P  P16  1  0.49433806  0.25159191  0.44099451  1
  P  P17  1  0.78334584  0.79296543  0.84312930  1
  P  P18  1  0.71103225  0.23318766  0.65438324  1
  P  P19  1  0.50566194  0.75159191  0.05900549  1
  P  P20  1  0.84868025  0.73954765  0.56195723  1
  P  P21  1  0.78334584  0.70703457  0.34312930  1
  P  P22  1  0.71103225  0.26681234  0.15438324  1
  P  P23  1  0.84868025  0.76045235  0.06195723  1
  O  O24  1  0.05192828  0.36800557  0.91164520  1
  O  O25  1  0.11525361  0.12238627  0.86430841  1
  O  O26  1  0.14286783  0.66630198  0.85894328  1
  O  O27  1  0.11881645  0.37070167  0.71144024  1
  O  O28  1  0.05192828  0.13199443  0.41164520  1
  O  O29  1  0.13246871  0.32118932  0.53975825  1
  O  O30  1  0.33153574  0.28867957  0.96369263  1
  O  O31  1  0.25304309  0.86727938  0.78074584  1
  O  O32  1  0.21667811  0.13244187  0.67233148  1
  O  O33  1  0.11525361  0.37761373  0.36430841  1
  O  O34  1  0.39345707  0.79360577  0.95246761  1
  O  O35  1  0.14286783  0.83369802  0.35894328  1
  O  O36  1  0.11881645  0.12929833  0.21144024  1
  O  O37  1  0.38722519  0.63200284  0.80690005  1
  O  O38  1  0.47098123  0.12051203  0.87698672  1
  O  O39  1  0.38156068  0.34789322  0.67800895  1
  O  O40  1  0.13246871  0.17881068  0.03975825  1
  O  O41  1  0.33153574  0.21132043  0.46369263  1
  O  O42  1  0.25304309  0.63272062  0.28074584  1
  O  O43  1  0.21667811  0.36755813  0.17233148  1
  O  O44  1  0.44535950  0.87632922  0.59742098  1
  O  O45  1  0.39345707  0.70639423  0.45246761  1
  O  O46  1  0.55464050  0.37632922  0.90257902  1
  O  O47  1  0.61843932  0.84789322  0.82199105  1
  O  O48  1  0.52901877  0.62051203  0.62301328  1
  O  O49  1  0.38722519  0.86799716  0.30690005  1
  O  O50  1  0.61277481  0.13200284  0.69309995  1
  O  O51  1  0.47098123  0.37948797  0.37698672  1
  O  O52  1  0.38156068  0.15210678  0.17800895  1
  O  O53  1  0.44535950  0.62367078  0.09742098  1
  O  O54  1  0.60654293  0.29360577  0.54753239  1
  O  O55  1  0.55464050  0.12367078  0.40257902  1
  O  O56  1  0.78332189  0.63244187  0.82766852  1
  O  O57  1  0.74695691  0.36727938  0.71925416  1
  O  O58  1  0.66846426  0.78867957  0.53630737  1
  O  O59  1  0.86753129  0.82118932  0.96024175  1
  O  O60  1  0.61843932  0.65210678  0.32199105  1
  O  O61  1  0.52901877  0.87948797  0.12301328  1
  O  O62  1  0.61277481  0.36799716  0.19309995  1
  O  O63  1  0.88118355  0.87070167  0.78855976  1
  O  O64  1  0.85713217  0.16630198  0.64105672  1
  O  O65  1  0.60654293  0.20639423  0.04753239  1
  O  O66  1  0.88474639  0.62238627  0.63569159  1
  O  O67  1  0.78332189  0.86755813  0.32766852  1
  O  O68  1  0.74695691  0.13272062  0.21925416  1
  O  O69  1  0.66846426  0.71132043  0.03630737  1
  O  O70  1  0.86753129  0.67881068  0.46024175  1
  O  O71  1  0.94807172  0.86800557  0.58835480  1
  O  O72  1  0.88118355  0.62929833  0.28855976  1
  O  O73  1  0.85713217  0.33369802  0.14105672  1
  O  O74  1  0.88474639  0.87761373  0.13569159  1
  O  O75  1  0.94807172  0.63199443  0.08835480  1
