# generated using pymatgen
data_Gd2P4O13
_symmetry_space_group_name_H-M   'P 1'
_cell_length_a   8.97906095
_cell_length_b   9.76324186
_cell_length_c   14.05179796
_cell_angle_alpha   90.00000000
_cell_angle_beta   106.64888954
_cell_angle_gamma   90.00000000
_symmetry_Int_Tables_number   1
_chemical_formula_structural   Gd2P4O13
_chemical_formula_sum   'Gd8 P16 O52'
_cell_volume   1180.20632384
_cell_formula_units_Z   4
loop_
 _symmetry_equiv_pos_site_id
 _symmetry_equiv_pos_as_xyz
  1  'x, y, z'
loop_
 _atom_site_type_symbol
 _atom_site_label
 _atom_site_symmetry_multiplicity
 _atom_site_fract_x
 _atom_site_fract_y
 _atom_site_fract_z
 _atom_site_occupancy
  Gd  Gd0  1  0.02223934  0.00488397  0.72089103  1
  Gd  Gd1  1  0.02223934  0.49511603  0.22089103  1
  Gd  Gd2  1  0.44903613  0.99911673  0.73636254  1
  Gd  Gd3  1  0.55096387  0.49911673  0.76363746  1
  Gd  Gd4  1  0.44903613  0.50088327  0.23636254  1
  Gd  Gd5  1  0.55096387  0.00088327  0.26363746  1
  Gd  Gd6  1  0.97776066  0.50488397  0.77910897  1
  Gd  Gd7  1  0.97776066  0.99511603  0.27910897  1
  P  P8  1  0.14998200  0.23935038  0.93847039  1
  P  P9  1  0.28830998  0.73287732  0.84714053  1
  P  P10  1  0.21752791  0.29271237  0.65622140  1
  P  P11  1  0.14998200  0.26064962  0.43847039  1
  P  P12  1  0.49309630  0.24843550  0.94152005  1
  P  P13  1  0.28830998  0.76712268  0.34714053  1
  P  P14  1  0.21752791  0.20728763  0.15622140  1
  P  P15  1  0.50690370  0.74843550  0.55847995  1
  P  P16  1  0.49309630  0.25156450  0.44152005  1
  P  P17  1  0.78247209  0.79271237  0.84377860  1
  P  P18  1  0.71169002  0.23287732  0.65285947  1
  P  P19  1  0.50690370  0.75156450  0.05847995  1
  P  P20  1  0.85001800  0.73935038  0.56152961  1
  P  P21  1  0.78247209  0.70728763  0.34377860  1
  P  P22  1  0.71169002  0.26712268  0.15285947  1
  P  P23  1  0.85001800  0.76064962  0.06152961  1
  O  O24  1  0.04972143  0.36496870  0.91405365  1
  O  O25  1  0.11461665  0.12423224  0.86479615  1
  O  O26  1  0.14319895  0.66902753  0.86253151  1
  O  O27  1  0.12230124  0.36874836  0.71223548  1
  O  O28  1  0.04972143  0.13503130  0.41405365  1
  O  O29  1  0.13277446  0.32258611  0.53992261  1
  O  O30  1  0.32954621  0.28963133  0.96292910  1
  O  O31  1  0.25248021  0.86369633  0.78149562  1
  O  O32  1  0.21684081  0.13468910  0.67063747  1
  O  O33  1  0.11461665  0.37576776  0.36479615  1
  O  O34  1  0.39619421  0.79364355  0.95221638  1
  O  O35  1  0.14319895  0.83097247  0.36253151  1
  O  O36  1  0.12230124  0.13125164  0.21223548  1
  O  O37  1  0.38406512  0.63043415  0.80886854  1
  O  O38  1  0.46932208  0.12225165  0.87816116  1
  O  O39  1  0.38198292  0.34629284  0.67598831  1
  O  O40  1  0.13277446  0.17741389  0.03992261  1
  O  O41  1  0.32954621  0.21036867  0.46292910  1
  O  O42  1  0.25248021  0.63630367  0.28149562  1
  O  O43  1  0.21684081  0.36531090  0.17063747  1
  O  O44  1  0.44386978  0.87340260  0.59595387  1
  O  O45  1  0.39619421  0.70635645  0.45221638  1
  O  O46  1  0.55613022  0.37340260  0.90404613  1
  O  O47  1  0.61801708  0.84629284  0.82401169  1
  O  O48  1  0.53067792  0.62225165  0.62183884  1
  O  O49  1  0.38406512  0.86956585  0.30886854  1
  O  O50  1  0.61593488  0.13043415  0.69113146  1
  O  O51  1  0.46932208  0.37774835  0.37816116  1
  O  O52  1  0.38198292  0.15370716  0.17598831  1
  O  O53  1  0.44386978  0.62659740  0.09595387  1
  O  O54  1  0.60380579  0.29364355  0.54778362  1
  O  O55  1  0.55613022  0.12659740  0.40404613  1
  O  O56  1  0.78315919  0.63468910  0.82936253  1
  O  O57  1  0.74751979  0.36369633  0.71850438  1
  O  O58  1  0.67045379  0.78963133  0.53707090  1
  O  O59  1  0.86722554  0.82258611  0.96007739  1
  O  O60  1  0.61801708  0.65370716  0.32401169  1
  O  O61  1  0.53067792  0.87774835  0.12183884  1
  O  O62  1  0.61593488  0.36956585  0.19113146  1
  O  O63  1  0.87769876  0.86874836  0.78776452  1
  O  O64  1  0.85680105  0.16902753  0.63746849  1
  O  O65  1  0.60380579  0.20635645  0.04778362  1
  O  O66  1  0.88538335  0.62423224  0.63520385  1
  O  O67  1  0.78315919  0.86531090  0.32936253  1
  O  O68  1  0.74751979  0.13630367  0.21850438  1
  O  O69  1  0.67045379  0.71036867  0.03707090  1
  O  O70  1  0.86722554  0.67741389  0.46007739  1
  O  O71  1  0.95027857  0.86496870  0.58594635  1
  O  O72  1  0.87769876  0.63125164  0.28776452  1
  O  O73  1  0.85680105  0.33097247  0.13746849  1
  O  O74  1  0.88538335  0.87576776  0.13520385  1
  O  O75  1  0.95027857  0.63503130  0.08594635  1
