# generated using pymatgen
data_Li3V2P4(HO8)2
_symmetry_space_group_name_H-M   'P 1'
_cell_length_a   9.76563113
_cell_length_b   8.07677046
_cell_length_c   7.88549189
_cell_angle_alpha   90.04444916
_cell_angle_beta   68.00524681
_cell_angle_gamma   89.94744628
_symmetry_Int_Tables_number   1
_chemical_formula_structural   Li3V2P4(HO8)2
_chemical_formula_sum   'Li6 V4 P8 H4 O32'
_cell_volume   576.69777139
_cell_formula_units_Z   2
loop_
 _symmetry_equiv_pos_site_id
 _symmetry_equiv_pos_as_xyz
  1  'x, y, z'
loop_
 _atom_site_type_symbol
 _atom_site_label
 _atom_site_symmetry_multiplicity
 _atom_site_fract_x
 _atom_site_fract_y
 _atom_site_fract_z
 _atom_site_occupancy
  Li  Li0  1  0.27526950  0.63057355  0.34687918  1
  Li  Li1  1  0.22844001  0.36991821  0.65342875  1
  Li  Li2  1  0.27092962  0.86557126  0.85188809  1
  Li  Li3  1  0.72433521  0.13304266  0.15535311  1
  Li  Li4  1  0.77704208  0.63692389  0.35469695  1
  Li  Li5  1  0.77302962  0.86962299  0.84493022  1
  V  V6  1  0.24794771  0.49528793  0.00257059  1
  V  V7  1  0.25065711  0.00192585  0.48994725  1
  V  V8  1  0.74911716  0.49982153  0.99785589  1
  V  V9  1  0.74991952  0.00632888  0.50169725  1
  P  P10  1  0.06837432  0.85193249  0.23258188  1
  P  P11  1  0.06699684  0.65522583  0.73246160  1
  P  P12  1  0.43372981  0.34499946  0.26852477  1
  P  P13  1  0.56885079  0.84758131  0.23142223  1
  P  P14  1  0.43129825  0.14955370  0.76009460  1
  P  P15  1  0.56748441  0.65105649  0.73991660  1
  P  P16  1  0.93271102  0.35333764  0.26362619  1
  P  P17  1  0.93594369  0.15960746  0.76506293  1
  H  H18  1  0.99308082  0.50115769  0.48864297  1
  H  H19  1  0.51164155  0.50521232  0.51679454  1
  H  H20  1  0.48546288  0.00778639  0.98244424  1
  H  H21  1  0.99632954  0.00892279  0.99500650  1
  O  O22  1  0.09091909  0.94202530  0.05334328  1
  O  O23  1  0.09493934  0.33104013  0.14001875  1
  O  O24  1  0.14979557  0.68503397  0.19114549  1
  O  O25  1  0.13995025  0.95290981  0.35180751  1
  O  O26  1  0.09438217  0.55909072  0.55373713  1
  O  O27  1  0.10226069  0.17714131  0.64414952  1
  O  O28  1  0.14476435  0.82612839  0.68614805  1
  O  O29  1  0.14014952  0.55099258  0.84024232  1
  O  O30  1  0.35747850  0.44596625  0.16218376  1
  O  O31  1  0.36701619  0.16987730  0.31794055  1
  O  O32  1  0.40070739  0.82634040  0.35085286  1
  O  O33  1  0.40665361  0.44404667  0.44543010  1
  O  O34  1  0.35287938  0.04339991  0.65410824  1
  O  O35  1  0.35284243  0.31650261  0.80790083  1
  O  O36  1  0.59720967  0.94232986  0.05274981  1
  O  O37  1  0.60125596  0.32708579  0.14481937  1
  O  O38  1  0.40112625  0.67147860  0.85187591  1
  O  O39  1  0.40246641  0.04440568  0.93746603  1
  O  O40  1  0.64478992  0.67504742  0.18998247  1
  O  O41  1  0.64073839  0.95134583  0.34104765  1
  O  O42  1  0.59533325  0.55723204  0.55635294  1
  O  O43  1  0.59505806  0.16847531  0.64338821  1
  O  O44  1  0.65024758  0.81545692  0.68959754  1
  O  O45  1  0.63740445  0.55012934  0.85663984  1
  O  O46  1  0.85310429  0.45993449  0.15738314  1
  O  O47  1  0.85230921  0.18753466  0.31087217  1
  O  O48  1  0.90289618  0.83136021  0.35444034  1
  O  O49  1  0.90877741  0.45915435  0.43781419  1
  O  O50  1  0.85839178  0.05446611  0.66510481  1
  O  O51  1  0.86471873  0.33060878  0.82157902  1
  O  O52  1  0.89939233  0.67630594  0.85224506  1
  O  O53  1  0.90961621  0.05941198  0.94566478  1
