# generated using pymatgen
data_Li8CrFe7(PO4)12
_symmetry_space_group_name_H-M   'P 1'
_cell_length_a   8.65589885
_cell_length_b   8.78300361
_cell_length_c   12.21580639
_cell_angle_alpha   90.19486014
_cell_angle_beta   90.02145457
_cell_angle_gamma   89.96742134
_symmetry_Int_Tables_number   1
_chemical_formula_structural   Li8CrFe7(PO4)12
_chemical_formula_sum   'Li8 Cr1 Fe7 P12 O48'
_cell_volume   928.69854006
_cell_formula_units_Z   1
loop_
 _symmetry_equiv_pos_site_id
 _symmetry_equiv_pos_as_xyz
  1  'x, y, z'
loop_
 _atom_site_type_symbol
 _atom_site_label
 _atom_site_symmetry_multiplicity
 _atom_site_fract_x
 _atom_site_fract_y
 _atom_site_fract_z
 _atom_site_occupancy
  Li  Li0  1  0.21696204  0.72208383  0.18184811  1
  Li  Li1  1  0.21769913  0.77681505  0.81768572  1
  Li  Li2  1  0.28273514  0.22279982  0.31892069  1
  Li  Li3  1  0.28280149  0.27767801  0.68212694  1
  Li  Li4  1  0.71706362  0.72298529  0.31780309  1
  Li  Li5  1  0.71674927  0.78021047  0.68061213  1
  Li  Li6  1  0.78326596  0.22263694  0.18241184  1
  Li  Li7  1  0.78289143  0.27750253  0.81856279  1
  Cr  Cr8  1  0.75145704  0.46078367  0.61416411  1
  Fe  Fe9  1  0.24811817  0.95912776  0.61317757  1
  Fe  Fe10  1  0.24894002  0.54115605  0.38685450  1
  Fe  Fe11  1  0.25086486  0.04080123  0.11290020  1
  Fe  Fe12  1  0.25093377  0.45891750  0.88750841  1
  Fe  Fe13  1  0.74959329  0.54059537  0.11150080  1
  Fe  Fe14  1  0.74867425  0.96000596  0.88760026  1
  Fe  Fe15  1  0.75117709  0.03934033  0.38693594  1
  P  P16  1  0.03734773  0.25115611  0.50011098  1
  P  P17  1  0.46083942  0.74988247  -0.00004075  1
  P  P18  1  0.53922120  0.25011967  0.00056933  1
  P  P19  1  0.95968608  0.74744544  0.50044983  1
  P  P20  1  0.10530452  0.39271904  0.14698012  1
  P  P21  1  0.10579509  0.10705805  0.85299831  1
  P  P22  1  0.39650757  0.60416466  0.64647837  1
  P  P23  1  0.39386285  0.89278691  0.35347227  1
  P  P24  1  0.60551380  0.10968157  0.64545887  1
  P  P25  1  0.60632770  0.39368018  0.35552390  1
  P  P26  1  0.89429056  0.60698138  0.85026626  1
  P  P27  1  0.89453497  0.89238503  0.14680606  1
  O  O28  1  0.05602328  0.64024791  0.42927762  1
  O  O29  1  0.05535391  0.85482491  0.57290792  1
  O  O30  1  0.07346933  0.89520623  0.15611762  1
  O  O31  1  0.07252807  0.60352053  0.84149514  1
  O  O32  1  0.14213870  0.16598819  0.58278270  1
  O  O33  1  0.14595138  0.33894891  0.42196785  1
  O  O34  1  0.15544643  0.43411158  0.03066279  1
  O  O35  1  0.15590094  0.06592141  0.96940031  1
  O  O36  1  0.16171798  0.23214274  0.17996684  1
  O  O37  1  0.16188910  0.26787963  0.82026623  1
  O  O38  1  0.17446913  0.51374312  0.22609841  1
  O  O39  1  0.17459011  0.98544202  0.77384017  1
  O  O40  1  0.32590244  0.01401614  0.27441448  1
  O  O41  1  0.32836492  0.48433312  0.72521897  1
  O  O42  1  0.34491292  0.76673805  0.68020698  1
  O  O43  1  0.33737387  0.73201297  0.32030054  1
  O  O44  1  0.34906098  0.56599303  0.52908614  1
  O  O45  1  0.34308006  0.93479186  0.46994711  1
  O  O46  1  0.35266773  0.83746424  0.07994794  1
  O  O47  1  0.35239967  0.66226904  0.92040263  1
  O  O48  1  0.42692674  0.10811742  0.65578205  1
  O  O49  1  0.42815664  0.39562776  0.34713628  1
  O  O50  1  0.44355974  0.14239679  0.07144874  1
  O  O51  1  0.44379423  0.35772669  0.92902589  1
  O  O52  1  0.55681766  0.64267996  0.07153468  1
  O  O53  1  0.55663782  0.85720129  0.92857837  1
  O  O54  1  0.57808339  0.59849447  0.65431285  1
  O  O55  1  0.57283656  0.89521338  0.34383177  1
  O  O56  1  0.64707569  0.33777479  0.08067570  1
  O  O57  1  0.64763273  0.16318587  0.92032979  1
  O  O58  1  0.65569421  0.06692873  0.52966698  1
  O  O59  1  0.65783171  0.43352361  0.47363835  1
  O  O60  1  0.66368494  0.23298851  0.32224940  1
  O  O61  1  0.66373246  0.27185160  0.67772978  1
  O  O62  1  0.67612420  0.51509619  0.27784187  1
  O  O63  1  0.67493684  0.99071426  0.72547979  1
  O  O64  1  0.82579104  0.01340229  0.22618190  1
  O  O65  1  0.82586565  0.48560760  0.76826383  1
  O  O66  1  0.83815155  0.73131500  0.17901430  1
  O  O67  1  0.83577142  0.76739514  0.81817459  1
  O  O68  1  0.84084906  0.56133623  0.96499324  1
  O  O69  1  0.84424648  0.93354688  0.03042091  1
  O  O70  1  0.85021726  0.65929462  0.57944208  1
  O  O71  1  0.85031381  0.83525768  0.42184385  1
  O  O72  1  0.92671399  0.10454346  0.84384400  1
  O  O73  1  0.92619995  0.39587407  0.15571638  1
  O  O74  1  0.94199564  0.14327834  0.42920814  1
  O  O75  1  0.93796355  0.36253345  0.56964039  1
