# generated using pymatgen
data_V6O5F19
_symmetry_space_group_name_H-M   'P 1'
_cell_length_a   5.57349608
_cell_length_b   5.39741194
_cell_length_c   14.80588665
_cell_angle_alpha   89.69131274
_cell_angle_beta   100.86416040
_cell_angle_gamma   91.63309475
_symmetry_Int_Tables_number   1
_chemical_formula_structural   V6O5F19
_chemical_formula_sum   'V6 O5 F19'
_cell_volume   437.23679407
_cell_formula_units_Z   1
loop_
 _symmetry_equiv_pos_site_id
 _symmetry_equiv_pos_as_xyz
  1  'x, y, z'
loop_
 _atom_site_type_symbol
 _atom_site_label
 _atom_site_symmetry_multiplicity
 _atom_site_fract_x
 _atom_site_fract_y
 _atom_site_fract_z
 _atom_site_occupancy
  V  V0  1  0.01827640  0.05821405  0.99423441  1
  V  V1  1  0.14134687  0.56287433  0.33910253  1
  V  V2  1  0.27845800  0.03382921  0.66352883  1
  V  V3  1  0.47467844  0.56342906  0.00636347  1
  V  V4  1  0.68520877  0.05774043  0.32701968  1
  V  V5  1  0.81631253  0.50620830  0.66736232  1
  O  O6  1  0.04054329  0.20979637  0.64446195  1
  O  O7  1  0.20184861  0.29183059  0.97748230  1
  O  O8  1  0.30099339  0.79089250  0.02427220  1
  O  O9  1  0.86866766  0.29041898  0.30913342  1
  O  O10  1  0.96586774  0.78981957  0.35615370  1
  F  F11  1  0.12284018  0.72933096  0.68971279  1
  F  F12  1  0.05266206  0.05077052  0.11530531  1
  F  F13  1  0.20283422  0.39670036  0.44438893  1
  F  F14  1  0.40046133  0.06753344  0.78176685  1
  F  F15  1  0.11881253  0.55323316  0.21845019  1
  F  F16  1  0.30163462  0.91591432  0.55447853  1
  F  F17  1  0.44889845  0.55493381  0.88553021  1
  F  F18  1  0.39297571  0.20050752  0.30787321  1
  F  F19  1  0.51823970  0.29390455  0.64351684  1
  F  F20  1  0.72554180  0.19991532  0.97394840  1
  F  F21  1  0.44459637  0.70743054  0.35917751  1
  F  F22  1  0.64812686  0.77722497  0.69050748  1
  F  F23  1  0.53859840  0.39631842  0.11151347  1
  F  F24  1  0.72267250  0.05228757  0.44816584  1
  F  F25  1  0.89311327  0.40060147  0.78230709  1
  F  F26  1  0.62866024  0.89139359  0.22184016  1
  F  F27  1  0.80168700  0.55708325  0.54835356  1
  F  F28  1  0.96692991  0.89297233  0.88895595  1
  F  F29  1  0.77851317  0.70689052  0.02508986  1
