# generated using pymatgen
data_ReNiO4
_symmetry_space_group_name_H-M   'P 1'
_cell_length_a   4.74782374
_cell_length_b   5.55212226
_cell_length_c   5.55212226
_cell_angle_alpha   63.27925962
_cell_angle_beta   87.77588823
_cell_angle_gamma   87.77588823
_symmetry_Int_Tables_number   1
_chemical_formula_structural   ReNiO4
_chemical_formula_sum   'Re2 Ni2 O8'
_cell_volume   130.59119334
_cell_formula_units_Z   2
loop_
 _symmetry_equiv_pos_site_id
 _symmetry_equiv_pos_as_xyz
  1  'x, y, z'
loop_
 _atom_site_type_symbol
 _atom_site_label
 _atom_site_symmetry_multiplicity
 _atom_site_fract_x
 _atom_site_fract_y
 _atom_site_fract_z
 _atom_site_occupancy
  Re  Re0  1  0.50000000  0.27113631  0.72886369  1
  Re  Re1  1  0.50000000  0.72886369  0.27113631  1
  Ni  Ni2  1  0.00863725  0.76170579  0.76170579  1
  Ni  Ni3  1  0.99136275  0.23829421  0.23829421  1
  O  O4  1  0.31850393  0.90973503  0.90973503  1
  O  O5  1  0.68149607  0.09026497  0.09026497  1
  O  O6  1  0.29049902  0.39020488  0.39020488  1
  O  O7  1  0.70950098  0.60979512  0.60979512  1
  O  O8  1  0.21601199  0.88222222  0.39801918  1
  O  O9  1  0.78398801  0.11777778  0.60198082  1
  O  O10  1  0.78398801  0.60198082  0.11777778  1
  O  O11  1  0.21601199  0.39801918  0.88222222  1
