# generated using pymatgen
data_K6Nb11O30
_symmetry_space_group_name_H-M   'P 1'
_cell_length_a   12.88427436
_cell_length_b   12.84999305
_cell_length_c   8.04968884
_cell_angle_alpha   90.00000000
_cell_angle_beta   90.00000000
_cell_angle_gamma   90.00128384
_symmetry_Int_Tables_number   1
_chemical_formula_structural   K6Nb11O30
_chemical_formula_sum   'K12 Nb22 O60'
_cell_volume   1332.72931294
_cell_formula_units_Z   2
loop_
 _symmetry_equiv_pos_site_id
 _symmetry_equiv_pos_as_xyz
  1  'x, y, z'
loop_
 _atom_site_type_symbol
 _atom_site_label
 _atom_site_symmetry_multiplicity
 _atom_site_fract_x
 _atom_site_fract_y
 _atom_site_fract_z
 _atom_site_occupancy
  K  K0  1  0.00371281  0.00472284  0.25000000  1
  K  K1  1  0.00556683  0.00092364  0.75000000  1
  K  K2  1  0.17875320  0.67315992  0.25000000  1
  K  K3  1  0.17651126  0.67024434  0.75000000  1
  K  K4  1  0.32126729  0.17317138  0.75000000  1
  K  K5  1  0.32353419  0.17025037  0.25000000  1
  K  K6  1  0.49628022  0.50473562  0.75000000  1
  K  K7  1  0.49446145  0.50091598  0.25000000  1
  K  K8  1  0.66624385  0.82597405  0.25000000  1
  K  K9  1  0.66882737  0.82481344  0.75000000  1
  K  K10  1  0.83377841  0.32593858  0.75000000  1
  K  K11  1  0.83117674  0.32483744  0.25000000  1
  Nb  Nb12  1  0.00727980  0.49053288  0.00977833  1
  Nb  Nb13  1  0.00727980  0.49053288  0.49022167  1
  Nb  Nb14  1  0.08372680  0.20878038  0.00013252  1
  Nb  Nb15  1  0.08372680  0.20878038  0.49986748  1
  Nb  Nb16  1  0.20908425  0.92344041  0.00005230  1
  Nb  Nb17  1  0.20908425  0.92344041  0.49994770  1
  Nb  Nb18  1  0.29092667  0.42345887  0.99994945  1
  Nb  Nb19  1  0.29092667  0.42345887  0.50005055  1
  Nb  Nb20  1  0.41628129  0.70880173  0.99987076  1
  Nb  Nb21  1  0.41628129  0.70880173  0.50012924  1
  Nb  Nb22  1  0.49273310  0.99055039  0.50977895  1
  Nb  Nb23  1  0.49273310  0.99055039  0.99022105  1
  Nb  Nb24  1  0.57425807  0.29546476  0.99193582  1
  Nb  Nb25  1  0.57425807  0.29546476  0.50806418  1
  Nb  Nb26  1  0.61878557  0.11762801  0.25000000  1
  Nb  Nb27  1  0.70425226  0.57852162  0.00876010  1
  Nb  Nb28  1  0.70425226  0.57852162  0.49123990  1
  Nb  Nb29  1  0.79574556  0.07849111  0.99127224  1
  Nb  Nb30  1  0.79574556  0.07849111  0.50872776  1
  Nb  Nb31  1  0.88124635  0.61757617  0.75000000  1
  Nb  Nb32  1  0.92573412  0.79545212  0.00808103  1
  Nb  Nb33  1  0.92573412  0.79545212  0.49191897  1
  O  O34  1  0.99028049  0.50924554  0.25000000  1
  O  O35  1  0.99744010  0.50474065  0.75000000  1
  O  O36  1  0.98856841  0.65298590  0.95373497  1
  O  O37  1  0.98856841  0.65298590  0.54626503  1
  O  O38  1  0.06635137  0.85605340  0.99965400  1
  O  O39  1  0.06635137  0.85605340  0.50034600  1
  O  O40  1  0.07647724  0.20826537  0.25000000  1
  O  O41  1  0.07449476  0.20657414  0.75000000  1
  O  O42  1  0.14030518  0.06861847  0.00020473  1
  O  O43  1  0.14030518  0.06861847  0.49979527  1
  O  O44  1  0.15507560  0.50470162  0.00049528  1
  O  O45  1  0.15507560  0.50470162  0.49950472  1
  O  O46  1  0.21296165  0.28693053  0.99854393  1
  O  O47  1  0.21296165  0.28693053  0.50145607  1
  O  O48  1  0.20523669  0.92266412  0.25000000  1
  O  O49  1  0.20677952  0.92338643  0.75000000  1
  O  O50  1  0.29322946  0.42340160  0.25000000  1
  O  O51  1  0.29476054  0.42267557  0.75000000  1
  O  O52  1  0.28704300  0.78692536  0.00146888  1
  O  O53  1  0.28704300  0.78692536  0.49853112  1
  O  O54  1  0.34492346  0.00469526  -0.00049704  1
  O  O55  1  0.34492346  0.00469526  0.50049704  1
  O  O56  1  0.35969561  0.56861234  0.99979024  1
  O  O57  1  0.35969561  0.56861234  0.50020976  1
  O  O58  1  0.42351531  0.70827365  0.75000000  1
  O  O59  1  0.42551240  0.70655354  0.25000000  1
  O  O60  1  0.43364218  0.35606216  0.00028796  1
  O  O61  1  0.43364218  0.35606216  0.49971204  1
  O  O62  1  0.51141757  0.15299207  0.45377592  1
  O  O63  1  0.51141757  0.15299207  0.04622408  1
  O  O64  1  0.50972883  0.00922509  0.75000000  1
  O  O65  1  0.50257984  0.00479448  0.25000000  1
  O  O66  1  0.50599620  0.84475749  0.99925158  1
  O  O67  1  0.50599620  0.84475749  0.50074842  1
  O  O68  1  0.57142862  0.64017678  0.99772433  1
  O  O69  1  0.57142862  0.64017678  0.50227567  1
  O  O70  1  0.57592884  0.28568895  0.75000000  1
  O  O71  1  0.58931916  0.28031311  0.25000000  1
  O  O72  1  0.64521568  0.42982000  0.00239777  1
  O  O73  1  0.64521568  0.42982000  0.49760223  1
  O  O74  1  0.65125268  0.01046741  0.04884709  1
  O  O75  1  0.65125268  0.01046741  0.45115291  1
  O  O76  1  0.70959014  0.20838678  0.01598999  1
  O  O77  1  0.70959014  0.20838678  0.48401001  1
  O  O78  1  0.71689152  0.57467720  0.25000000  1
  O  O79  1  0.72041702  0.58561366  0.75000000  1
  O  O80  1  0.77963488  0.08551032  0.25000000  1
  O  O81  1  0.78307978  0.07478535  0.75000000  1
  O  O82  1  0.79036671  0.70842467  0.98431470  1
  O  O83  1  0.79036671  0.70842467  0.51568530  1
  O  O84  1  0.84874604  0.51046966  0.95113116  1
  O  O85  1  0.84874604  0.51046966  0.54886884  1
  O  O86  1  0.85479244  0.92982280  0.99751699  1
  O  O87  1  0.85479244  0.92982280  0.50248301  1
  O  O88  1  0.92413131  0.78573648  0.25000000  1
  O  O89  1  0.91055870  0.78024754  0.75000000  1
  O  O90  1  0.92857553  0.14018757  0.00225511  1
  O  O91  1  0.92857553  0.14018757  0.49774489  1
  O  O92  1  0.99400004  0.34475218  0.00078104  1
  O  O93  1  0.99400004  0.34475218  0.49921896  1
