# generated using pymatgen
data_CsGe
_symmetry_space_group_name_H-M   'P 1'
_cell_length_a   12.62380057
_cell_length_b   12.62380057
_cell_length_c   12.62380057
_cell_angle_alpha   124.66896837
_cell_angle_beta   124.66896837
_cell_angle_gamma   82.08705526
_symmetry_Int_Tables_number   1
_chemical_formula_structural   CsGe
_chemical_formula_sum   'Cs16 Ge16'
_cell_volume   1308.39100043
_cell_formula_units_Z   16
loop_
 _symmetry_equiv_pos_site_id
 _symmetry_equiv_pos_as_xyz
  1  'x, y, z'
loop_
 _atom_site_type_symbol
 _atom_site_label
 _atom_site_symmetry_multiplicity
 _atom_site_fract_x
 _atom_site_fract_y
 _atom_site_fract_z
 _atom_site_occupancy
  Cs  Cs0  1  0.25000000  0.39147768  0.14147768  1
  Cs  Cs1  1  0.75000000  0.10852232  0.35852232  1
  Cs  Cs2  1  0.10852232  0.25000000  0.35852232  1
  Cs  Cs3  1  0.39147768  0.75000000  0.14147768  1
  Cs  Cs4  1  0.75000000  0.60852232  0.85852232  1
  Cs  Cs5  1  0.25000000  0.89147768  0.64147768  1
  Cs  Cs6  1  0.89147768  0.75000000  0.64147768  1
  Cs  Cs7  1  0.60852232  0.25000000  0.85852232  1
  Cs  Cs8  1  0.49471342  0.24471342  0.48942683  1
  Cs  Cs9  1  0.25528658  0.00528658  0.01057317  1
  Cs  Cs10  1  0.00528658  0.49471342  0.75000000  1
  Cs  Cs11  1  0.24471342  0.25528658  0.75000000  1
  Cs  Cs12  1  0.50528658  0.75528658  0.51057317  1
  Cs  Cs13  1  0.74471342  0.99471342  0.98942683  1
  Cs  Cs14  1  0.99471342  0.50528658  0.25000000  1
  Cs  Cs15  1  0.75528658  0.74471342  0.25000000  1
  Ge  Ge16  1  0.57698286  0.48063721  0.21023987  1
  Ge  Ge17  1  0.77039734  0.36674299  0.28976013  1
  Ge  Ge18  1  0.92301714  0.13325701  0.90365435  1
  Ge  Ge19  1  0.72960266  0.01936279  0.59634565  1
  Ge  Ge20  1  0.01936279  0.92301714  0.28976013  1
  Ge  Ge21  1  0.13325701  0.72960266  0.21023987  1
  Ge  Ge22  1  0.36674299  0.57698286  0.59634565  1
  Ge  Ge23  1  0.48063721  0.77039734  0.90365435  1
  Ge  Ge24  1  0.42301714  0.51936179  0.78975913  1
  Ge  Ge25  1  0.22960266  0.63325701  0.71023987  1
  Ge  Ge26  1  0.07698286  0.86674199  0.09634465  1
  Ge  Ge27  1  0.27039734  0.98063721  0.40365435  1
  Ge  Ge28  1  0.98063721  0.07698286  0.71023987  1
  Ge  Ge29  1  0.86674199  0.27039734  0.78975913  1
  Ge  Ge30  1  0.63325701  0.42301714  0.40365435  1
  Ge  Ge31  1  0.51936279  0.22960266  0.09634565  1
