# generated using pymatgen
data_H7SIO10
_symmetry_space_group_name_H-M   'P 1'
_cell_length_a   9.21659093
_cell_length_b   14.05960719
_cell_length_c   14.05957816
_cell_angle_alpha   96.16731182
_cell_angle_beta   109.13339324
_cell_angle_gamma   70.86648570
_symmetry_Int_Tables_number   1
_chemical_formula_structural   H7SIO10
_chemical_formula_sum   'H56 S8 I8 O80'
_cell_volume   1626.13525724
_cell_formula_units_Z   8
loop_
 _symmetry_equiv_pos_site_id
 _symmetry_equiv_pos_as_xyz
  1  'x, y, z'
loop_
 _atom_site_type_symbol
 _atom_site_label
 _atom_site_symmetry_multiplicity
 _atom_site_fract_x
 _atom_site_fract_y
 _atom_site_fract_z
 _atom_site_occupancy
  H  H0  1  0.85956335  0.10099380  0.01173877  1
  H  H1  1  0.29510203  0.12522152  0.02356407  1
  H  H2  1  0.29597259  0.12527872  0.19164311  1
  H  H3  1  0.82267385  0.11782263  0.19967864  1
  H  H4  1  0.77153887  0.02356411  0.37477852  1
  H  H5  1  0.44049658  0.30032113  0.11782268  1
  H  H6  1  0.34782425  0.01173884  0.39900617  1
  H  H7  1  0.92125058  0.30835697  0.12527875  1
  H  H8  1  0.60432971  0.19164303  0.37472119  1
  H  H9  1  0.46055706  0.48826146  0.10099387  1
  H  H10  1  0.12299439  0.19967842  0.38217741  1
  H  H11  1  0.92032445  0.47643629  0.12522169  1
  H  H12  1  0.24081758  0.38217732  0.30032129  1
  H  H13  1  0.72960756  0.37472116  0.30835687  1
  H  H14  1  0.98027852  0.62593945  0.05291730  1
  H  H15  1  0.94669940  0.12593958  0.55291758  1
  H  H16  1  0.29380600  0.71386186  0.06607674  1
  H  H17  1  0.55840848  0.21386153  0.56607666  1
  H  H18  1  0.32482394  0.17568565  0.62569789  1
  H  H19  1  0.62518793  0.67568567  0.12569803  1
  H  H20  1  0.89676019  0.37477836  0.47643608  1
  H  H21  1  0.49233213  0.56607671  0.28613845  1
  H  H22  1  0.72772938  0.06607643  0.78613840  1
  H  H23  1  0.44881844  0.39900612  0.48826141  1
  H  H24  1  0.89378196  0.55291745  0.37406057  1
  H  H25  1  0.42736136  0.05291752  0.87406065  1
  H  H26  1  0.99949016  0.12569784  0.82431431  1
  H  H27  1  0.19912606  0.62569793  0.32431430  1
  H  H28  1  0.80087394  0.37430207  0.67568570  1
  H  H29  1  0.00050984  0.87430216  0.17568569  1
  H  H30  1  0.10621804  0.44708255  0.62593943  1
  H  H31  1  0.57263864  0.94708248  0.12593935  1
  H  H32  1  0.55118156  0.60099388  0.51173859  1
  H  H33  1  0.27227062  0.93392357  0.21386160  1
  H  H34  1  0.50766787  0.43392329  0.71386155  1
  H  H35  1  0.10323981  0.62522164  0.52356392  1
  H  H36  1  0.67517606  0.82431435  0.37430211  1
  H  H37  1  0.37481207  0.32431433  0.87430197  1
  H  H38  1  0.70619400  0.28613814  0.93392326  1
  H  H39  1  0.44159152  0.78613847  0.43392334  1
  H  H40  1  0.01972148  0.37406055  0.94708270  1
  H  H41  1  0.05330060  0.87406042  0.44708242  1
  H  H42  1  0.27039244  0.62527884  0.69164313  1
  H  H43  1  0.75918242  0.61782268  0.69967871  1
  H  H44  1  0.07967555  0.52356371  0.87477831  1
  H  H45  1  0.87700561  0.80032158  0.61782259  1
  H  H46  1  0.53944294  0.51173854  0.89900613  1
  H  H47  1  0.39567029  0.80835697  0.62527881  1
  H  H48  1  0.07874942  0.69164303  0.87472125  1
  H  H49  1  0.65217575  0.98826116  0.60099383  1
  H  H50  1  0.55950342  0.69967887  0.88217732  1
  H  H51  1  0.22846113  0.97643589  0.62522148  1
  H  H52  1  0.17732615  0.88217737  0.80032136  1
  H  H53  1  0.70402741  0.87472128  0.80835689  1
  H  H54  1  0.70489797  0.87477848  0.97643593  1
  H  H55  1  0.14043665  0.89900620  0.98826123  1
  S  S56  1  0.55659657  0.18031066  0.03044616  1
  S  S57  1  0.02614178  0.03044787  0.31968926  1
  S  S58  1  0.23690625  0.46955097  0.18031530  1
  S  S59  1  0.20645752  0.31968580  0.46954803  1
  S  S60  1  0.79354248  0.68031420  0.53045197  1
  S  S61  1  0.76309375  0.53044903  0.81968470  1
  S  S62  1  0.97385822  0.96955213  0.68031074  1
  S  S63  1  0.44340343  0.81968934  0.96955384  1
  I  I64  1  0.48392304  0.01499161  0.71221704  1
  I  I65  1  0.71330185  0.51498727  0.21222337  1
  I  I66  1  0.99891274  0.78778799  0.01498848  1
  I  I67  1  0.72828414  0.28778905  0.51499500  1
  I  I68  1  0.27171586  0.71221095  0.48500500  1
  I  I69  1  0.00108726  0.21221201  0.98501152  1
  I  I70  1  0.51607696  0.98500839  0.28778296  1
  I  I71  1  0.28669815  0.48501273  0.78777663  1
  O  O72  1  0.72163830  0.11040139  0.07195500  1
  O  O73  1  0.21391333  0.12856840  0.05907973  1
  O  O74  1  0.96478611  0.23411996  0.11336308  1
  O  O75  1  0.51134027  0.22819007  0.12740424  1
  O  O76  1  0.35142277  0.11336310  0.26588051  1
  O  O77  1  0.88393222  0.12740315  0.27181028  1
  O  O78  1  0.65483687  0.05907821  0.37143216  1
  O  O79  1  0.14968725  0.07195579  0.38959926  1
  O  O80  1  0.33204310  0.42804588  0.11039976  1
  O  O81  1  0.84248431  0.44092274  0.12856757  1
  O  O82  1  0.23952963  0.37259486  0.22819050  1
  O  O83  1  0.69890392  0.38663541  0.23412087  1
  O  O84  1  0.54274045  0.03546422  0.60031995  1
  O  O85  1  0.52211494  0.53546662  0.10032119  1
  O  O86  1  0.11212391  0.27180974  0.37259669  1
  O  O87  1  0.58554078  0.26587892  0.38663584  1
  O  O88  1  0.03792567  0.02331621  0.62741990  1
  O  O89  1  0.06617983  0.52331503  0.12742025  1
  O  O90  1  0.91253554  0.67984248  0.00001811  1
  O  O91  1  0.90763851  0.17984164  0.50001670  1
  O  O92  1  0.34131870  0.23853222  0.53080850  1
  O  O93  1  0.45096100  0.73853449  0.03080669  1
  O  O94  1  0.67820053  0.19607069  0.58188102  1
  O  O95  1  0.20760788  0.69607013  0.08188098  1
  O  O96  1  0.31050940  0.53080691  0.26146616  1
  O  O97  1  0.92015027  0.03080623  0.76146494  1
  O  O98  1  0.78340653  0.37143086  0.44092248  1
  O  O99  1  0.26008809  0.38960014  0.42804684  1
  O  O100  1  0.72759835  0.63807552  0.17807760  1
  O  O101  1  0.31240195  0.13807475  0.67807788  1
  O  O102  1  0.41251883  0.00001677  0.82015741  1
  O  O103  1  0.90762107  0.50001759  0.32015780  1
  O  O104  1  0.62572771  0.08188075  0.80392894  1
  O  O105  1  0.59631902  0.58188131  0.30392888  1
  O  O106  1  0.08949164  0.37258050  0.52331589  1
  O  O107  1  0.56123921  0.87258028  0.02331515  1
  O  O108  1  0.55758208  0.39967867  0.53546588  1
  O  O109  1  0.07820666  0.89967836  0.03546663  1
  O  O110  1  0.95047805  0.82192448  0.13807638  1
  O  O111  1  0.86567158  0.32192500  0.63807509  1
  O  O112  1  0.13432842  0.67807500  0.36192491  1
  O  O113  1  0.04952195  0.17807552  0.86192362  1
  O  O114  1  0.44241792  0.60032133  0.46453412  1
  O  O115  1  0.92179334  0.10032164  0.96453337  1
  O  O116  1  0.91050836  0.62741950  0.47668411  1
  O  O117  1  0.43876079  0.12741972  0.97668485  1
  O  O118  1  0.37427229  0.91811925  0.19607106  1
  O  O119  1  0.40368098  0.41811869  0.69607112  1
  O  O120  1  0.58748117  -0.00001677  0.17984259  1
  O  O121  1  0.09237893  0.49998241  0.67984220  1
  O  O122  1  0.68759805  0.86192525  0.32192212  1
  O  O123  1  0.27240165  0.36192448  0.82192240  1
  O  O124  1  0.73991191  0.61039986  0.57195316  1
  O  O125  1  0.21659347  0.62856914  0.55907752  1
  O  O126  1  0.07984973  0.96919377  0.23853506  1
  O  O127  1  0.68949060  0.46919309  0.73853384  1
  O  O128  1  0.32179947  0.80392931  0.41811898  1
  O  O129  1  0.79239212  0.30392987  0.91811902  1
  O  O130  1  0.65868130  0.76146778  0.46919150  1
  O  O131  1  0.54903900  0.26146551  0.96919331  1
  O  O132  1  0.08746446  0.32015752  -0.00001811  1
  O  O133  1  0.09236149  0.82015836  0.49998330  1
  O  O134  1  0.96207433  0.97668379  0.37258010  1
  O  O135  1  0.93382017  0.47668497  0.87257975  1
  O  O136  1  0.41445922  0.73412108  0.61336416  1
  O  O137  1  0.88787609  0.72819026  0.62740331  1
  O  O138  1  0.45725955  0.96453578  0.39968005  1
  O  O139  1  0.47788506  0.46453338  0.89967881  1
  O  O140  1  0.30109608  0.61336459  0.76587913  1
  O  O141  1  0.76047037  0.62740514  0.77180950  1
  O  O142  1  0.15751569  0.55907726  0.87143243  1
  O  O143  1  0.66795690  0.57195412  0.88960024  1
  O  O144  1  0.85031275  0.92804421  0.61040074  1
  O  O145  1  0.34516313  0.94092279  0.62856784  1
  O  O146  1  0.11606778  0.87259685  0.72818972  1
  O  O147  1  0.64857723  0.88663690  0.73411949  1
  O  O148  1  0.48865973  0.77180993  0.87259576  1
  O  O149  1  0.03521389  0.76588004  0.88663692  1
  O  O150  1  0.78608667  0.87143160  0.94092127  1
  O  O151  1  0.27836170  0.88959861  0.92804500  1
