# generated using pymatgen
data_Li3Mn(PO4)2
_symmetry_space_group_name_H-M   'P 1'
_cell_length_a   4.82884289
_cell_length_b   9.08845002
_cell_length_c   6.51764780
_cell_angle_alpha   90.00000000
_cell_angle_beta   93.95238171
_cell_angle_gamma   90.00000000
_symmetry_Int_Tables_number   1
_chemical_formula_structural   Li3Mn(PO4)2
_chemical_formula_sum   'Li6 Mn2 P4 O16'
_cell_volume   285.35774613
_cell_formula_units_Z   2
loop_
 _symmetry_equiv_pos_site_id
 _symmetry_equiv_pos_as_xyz
  1  'x, y, z'
loop_
 _atom_site_type_symbol
 _atom_site_label
 _atom_site_symmetry_multiplicity
 _atom_site_fract_x
 _atom_site_fract_y
 _atom_site_fract_z
 _atom_site_occupancy
  Li  Li0  1  0.01514847  0.14030533  0.67990749  1
  Li  Li1  1  0.00000000  0.50000000  0.00000000  1
  Li  Li2  1  0.48485153  0.64030533  0.82009251  1
  Li  Li3  1  0.50000000  0.00000000  0.50000000  1
  Li  Li4  1  0.51514847  0.35969467  0.17990749  1
  Li  Li5  1  0.98485153  0.85969467  0.32009251  1
  Mn  Mn6  1  0.00000000  0.50000000  0.50000000  1
  Mn  Mn7  1  0.50000000  0.00000000  0.00000000  1
  P  P8  1  0.03076393  0.17715544  0.20896080  1
  P  P9  1  0.46923607  0.67715544  0.29103920  1
  P  P10  1  0.53076393  0.32284456  0.70896080  1
  P  P11  1  0.96923607  0.82284456  0.79103920  1
  O  O12  1  0.08128186  0.34528463  0.22378954  1
  O  O13  1  0.15000032  0.09567600  0.39806902  1
  O  O14  1  0.20847054  0.35531194  0.68054265  1
  O  O15  1  0.16920051  0.12250994  0.00944123  1
  O  O16  1  0.29152946  0.85531194  0.81945735  1
  O  O17  1  0.33079949  0.62250994  0.49055977  1
  O  O18  1  0.34999968  0.59567600  0.10193098  1
  O  O19  1  0.41871814  0.84528463  0.27621046  1
  O  O20  1  0.58128186  0.15471537  0.72378954  1
  O  O21  1  0.65000032  0.40432400  0.89806902  1
  O  O22  1  0.66920051  0.37749006  0.50944023  1
  O  O23  1  0.70847054  0.14468806  0.18054265  1
  O  O24  1  0.83079949  0.87749006  0.99055977  1
  O  O25  1  0.79152946  0.64468806  0.31945735  1
  O  O26  1  0.84999968  0.90432400  0.60193098  1
  O  O27  1  0.91871814  0.65471537  0.77621046  1
