# generated using pymatgen
data_V3(PO4)2
_symmetry_space_group_name_H-M   'P 1'
_cell_length_a   6.15167195
_cell_length_b   4.89287991
_cell_length_c   10.68788721
_cell_angle_alpha   90.00000000
_cell_angle_beta   90.68787174
_cell_angle_gamma   90.00000000
_symmetry_Int_Tables_number   1
_chemical_formula_structural   V3(PO4)2
_chemical_formula_sum   'V6 P4 O16'
_cell_volume   321.67572375
_cell_formula_units_Z   2
loop_
 _symmetry_equiv_pos_site_id
 _symmetry_equiv_pos_as_xyz
  1  'x, y, z'
loop_
 _atom_site_type_symbol
 _atom_site_label
 _atom_site_symmetry_multiplicity
 _atom_site_fract_x
 _atom_site_fract_y
 _atom_site_fract_z
 _atom_site_occupancy
  V  V0  1  0.24543524  0.50531086  0.77698493  1
  V  V1  1  0.24543524  0.99468914  0.27698493  1
  V  V2  1  0.50000000  0.50000000  0.50000000  1
  V  V3  1  0.50000000  0.00000000  0.00000000  1
  V  V4  1  0.75456476  0.00531086  0.72301507  1
  V  V5  1  0.75456476  0.49468914  0.22301507  1
  P  P6  1  0.25497408  0.07166188  0.59860873  1
  P  P7  1  0.25497408  0.42833812  0.09860873  1
  P  P8  1  0.74502592  0.57166188  0.90139127  1
  P  P9  1  0.74502592  0.92833812  0.40139127  1
  O  O10  1  0.06294472  0.18099667  0.67607877  1
  O  O11  1  0.06294472  0.31900333  0.17607877  1
  O  O12  1  0.25569820  0.31866393  0.96254219  1
  O  O13  1  0.25569820  0.18133607  0.46254219  1
  O  O14  1  0.27598764  0.75807796  0.60553230  1
  O  O15  1  0.27598764  0.74192204  0.10553230  1
  O  O16  1  0.46020218  0.22679742  0.66126810  1
  O  O17  1  0.46020218  0.27320258  0.16126810  1
  O  O18  1  0.53979782  0.72679742  0.83873190  1
  O  O19  1  0.53979782  0.77320258  0.33873190  1
  O  O20  1  0.72401236  0.25807796  0.89446770  1
  O  O21  1  0.72401236  0.24192204  0.39446770  1
  O  O22  1  0.74430180  0.81866393  0.53745781  1
  O  O23  1  0.74430180  0.68133607  0.03745781  1
  O  O24  1  0.93705528  0.68099667  0.82392123  1
  O  O25  1  0.93705528  0.81900333  0.32392123  1
