# generated using pymatgen
data_Sm(BiSe2)2
_symmetry_space_group_name_H-M   'P 1'
_cell_length_a   4.54557877
_cell_length_b   11.11093193
_cell_length_c   17.13455143
_cell_angle_alpha   90.00000000
_cell_angle_beta   90.00000000
_cell_angle_gamma   90.00000000
_symmetry_Int_Tables_number   1
_chemical_formula_structural   Sm(BiSe2)2
_chemical_formula_sum   'Sm4 Bi8 Se16'
_cell_volume   865.39107993
_cell_formula_units_Z   4
loop_
 _symmetry_equiv_pos_site_id
 _symmetry_equiv_pos_as_xyz
  1  'x, y, z'
loop_
 _atom_site_type_symbol
 _atom_site_label
 _atom_site_symmetry_multiplicity
 _atom_site_fract_x
 _atom_site_fract_y
 _atom_site_fract_z
 _atom_site_occupancy
  Sm  Sm0  1  0.75000000  0.66774882  0.82901556  1
  Sm  Sm1  1  0.25000000  0.33225118  0.17098444  1
  Sm  Sm2  1  0.25000000  0.83225118  0.32901556  1
  Sm  Sm3  1  0.75000000  0.16774882  0.67098444  1
  Bi  Bi4  1  0.75000000  0.82711145  0.53666928  1
  Bi  Bi5  1  0.25000000  0.17288855  0.46333072  1
  Bi  Bi6  1  0.25000000  0.67288855  0.03666928  1
  Bi  Bi7  1  0.75000000  0.32711145  0.96333072  1
  Bi  Bi8  1  0.75000000  0.52244323  0.39404660  1
  Bi  Bi9  1  0.25000000  0.47755677  0.60595340  1
  Bi  Bi10  1  0.25000000  0.97755677  0.89404660  1
  Bi  Bi11  1  0.75000000  0.02244323  0.10595340  1
  Se  Se12  1  0.75000000  0.61047151  0.65980702  1
  Se  Se13  1  0.25000000  0.38952849  0.34019298  1
  Se  Se14  1  0.25000000  0.88952849  0.15980702  1
  Se  Se15  1  0.75000000  0.11047151  0.84019298  1
  Se  Se16  1  0.75000000  0.68796876  0.27429912  1
  Se  Se17  1  0.25000000  0.31203124  0.72570088  1
  Se  Se18  1  0.25000000  0.81203124  0.77429912  1
  Se  Se19  1  0.75000000  0.18796876  0.22570088  1
  Se  Se20  1  0.75000000  0.98018219  0.40408544  1
  Se  Se21  1  0.25000000  0.01981781  0.59591456  1
  Se  Se22  1  0.25000000  0.51981781  0.90408544  1
  Se  Se23  1  0.75000000  0.48018219  0.09591456  1
  Se  Se24  1  0.75000000  0.80865152  0.97433198  1
  Se  Se25  1  0.25000000  0.19134848  0.02566802  1
  Se  Se26  1  0.25000000  0.69134848  0.47433198  1
  Se  Se27  1  0.75000000  0.30865152  0.52566802  1
