# generated using pymatgen
data_Pr2Ta2O9
_symmetry_space_group_name_H-M   'P 1'
_cell_length_a   3.90824985
_cell_length_b   6.75478406
_cell_length_c   14.48431564
_cell_angle_alpha   93.08437597
_cell_angle_beta   90.00000000
_cell_angle_gamma   90.00000000
_symmetry_Int_Tables_number   1
_chemical_formula_structural   Pr2Ta2O9
_chemical_formula_sum   'Pr4 Ta4 O18'
_cell_volume   381.82308846
_cell_formula_units_Z   2
loop_
 _symmetry_equiv_pos_site_id
 _symmetry_equiv_pos_as_xyz
  1  'x, y, z'
loop_
 _atom_site_type_symbol
 _atom_site_label
 _atom_site_symmetry_multiplicity
 _atom_site_fract_x
 _atom_site_fract_y
 _atom_site_fract_z
 _atom_site_occupancy
  Pr  Pr0  1  0.00433763  0.00876824  0.69490639  1
  Pr  Pr1  1  0.99566237  0.99123176  0.30509361  1
  Pr  Pr2  1  0.50433763  0.49123176  0.80509361  1
  Pr  Pr3  1  0.49566237  0.50876824  0.19490639  1
  Ta  Ta4  1  0.00416363  0.26625998  0.96139255  1
  Ta  Ta5  1  0.99583637  0.73374002  0.03860745  1
  Ta  Ta6  1  0.50416363  0.23374002  0.53860745  1
  Ta  Ta7  1  0.49583637  0.76625998  0.46139255  1
  O  O8  1  0.00086050  0.57679512  0.91938286  1
  O  O9  1  0.99913950  0.42320488  0.08061714  1
  O  O10  1  0.50086050  0.92320488  0.58061714  1
  O  O11  1  0.49913950  0.07679512  0.41938286  1
  O  O12  1  0.50777128  0.84274484  0.78076869  1
  O  O13  1  0.49222872  0.15725516  0.21923131  1
  O  O14  1  0.00777128  0.65725516  0.71923131  1
  O  O15  1  0.99222872  0.34274484  0.28076869  1
  O  O16  1  -0.00000000  -0.00000000  -0.00000000  1
  O  O17  1  0.50000000  0.50000000  0.50000000  1
  O  O18  1  0.50215449  0.29312539  0.95268082  1
  O  O19  1  0.49784551  0.70687461  0.04731918  1
  O  O20  1  0.00215449  0.20687461  0.54731918  1
  O  O21  1  0.99784551  0.79312539  0.45268082  1
  O  O22  1  0.00259383  0.24455000  0.82474492  1
  O  O23  1  0.99740617  0.75545000  0.17525508  1
  O  O24  1  0.50259383  0.25545000  0.67525508  1
  O  O25  1  0.49740617  0.74455000  0.32474492  1
