# generated using pymatgen
data_TaAlO4
_symmetry_space_group_name_H-M   'P 1'
_cell_length_a   4.51341186
_cell_length_b   4.80667271
_cell_length_c   11.39524475
_cell_angle_alpha   90.00000000
_cell_angle_beta   90.00000000
_cell_angle_gamma   90.00000000
_symmetry_Int_Tables_number   1
_chemical_formula_structural   TaAlO4
_chemical_formula_sum   'Ta4 Al4 O16'
_cell_volume   247.21406449
_cell_formula_units_Z   4
loop_
 _symmetry_equiv_pos_site_id
 _symmetry_equiv_pos_as_xyz
  1  'x, y, z'
loop_
 _atom_site_type_symbol
 _atom_site_label
 _atom_site_symmetry_multiplicity
 _atom_site_fract_x
 _atom_site_fract_y
 _atom_site_fract_z
 _atom_site_occupancy
  O  O0  1  0.73299935  0.42274239  0.05766146  1
  O  O1  1  0.23299935  0.57725761  0.44233854  1
  O  O2  1  0.76700065  0.92274239  0.44233854  1
  O  O3  1  0.26700065  0.07725761  0.05766146  1
  O  O4  1  0.26700065  0.57725761  0.94233854  1
  O  O5  1  0.76700065  0.42274239  0.55766146  1
  O  O6  1  0.23299935  0.07725761  0.55766146  1
  O  O7  1  0.73299935  0.92274239  0.94233854  1
  O  O8  1  0.77433968  0.91936654  0.68728052  1
  O  O9  1  0.27433968  0.08063346  0.81271948  1
  O  O10  1  0.72566032  0.41936654  0.81271948  1
  O  O11  1  0.22566032  0.58063346  0.68728052  1
  O  O12  1  0.22566032  0.08063346  0.31271948  1
  O  O13  1  0.72566032  0.91936654  0.18728052  1
  O  O14  1  0.27433968  0.58063346  0.18728052  1
  O  O15  1  0.77433968  0.41936654  0.31271948  1
  Al  Al16  1  0.50000000  0.75000000  0.06506442  1
  Al  Al17  1  0.00000000  0.25000000  0.43493558  1
  Al  Al18  1  0.50000000  0.25000000  0.93493558  1
  Al  Al19  1  0.00000000  0.75000000  0.56506442  1
  Ta  Ta20  1  0.50000000  0.75000000  0.33147895  1
  Ta  Ta21  1  0.00000000  0.25000000  0.16852105  1
  Ta  Ta22  1  0.50000000  0.25000000  0.66852105  1
  Ta  Ta23  1  0.00000000  0.75000000  0.83147895  1
