# generated using pymatgen
data_BaCdS2
_symmetry_space_group_name_H-M   'P 1'
_cell_length_a   4.22594241
_cell_length_b   7.46260828
_cell_length_c   14.26382702
_cell_angle_alpha   90.00000000
_cell_angle_beta   90.00000000
_cell_angle_gamma   90.00000000
_symmetry_Int_Tables_number   1
_chemical_formula_structural   BaCdS2
_chemical_formula_sum   'Ba4 Cd4 S8'
_cell_volume   449.83193423
_cell_formula_units_Z   4
loop_
 _symmetry_equiv_pos_site_id
 _symmetry_equiv_pos_as_xyz
  1  'x, y, z'
loop_
 _atom_site_type_symbol
 _atom_site_label
 _atom_site_symmetry_multiplicity
 _atom_site_fract_x
 _atom_site_fract_y
 _atom_site_fract_z
 _atom_site_occupancy
  S  S0  1  0.75000000  0.76389923  0.46993698  1
  S  S1  1  0.25000000  0.23610077  0.53006302  1
  S  S2  1  0.75000000  0.26389923  0.03006302  1
  S  S3  1  0.25000000  0.73610077  0.96993698  1
  S  S4  1  0.25000000  0.92285456  0.23777640  1
  S  S5  1  0.75000000  0.57714544  0.73777640  1
  S  S6  1  0.25000000  0.42285456  0.26222360  1
  S  S7  1  0.75000000  0.07714544  0.76222360  1
  Cd  Cd8  1  0.75000000  0.82665805  0.88127903  1
  Cd  Cd9  1  0.75000000  0.32665805  0.61872097  1
  Cd  Cd10  1  0.25000000  0.17334195  0.11872097  1
  Cd  Cd11  1  0.25000000  0.67334195  0.38127903  1
  Ba  Ba12  1  0.75000000  0.65470034  0.14037041  1
  Ba  Ba13  1  0.25000000  0.34529966  0.85962959  1
  Ba  Ba14  1  0.75000000  0.15470034  0.35962959  1
  Ba  Ba15  1  0.25000000  0.84529966  0.64037041  1
