# generated using pymatgen
data_Eu2PtAu
_symmetry_space_group_name_H-M   'P 1'
_cell_length_a   5.21895800
_cell_length_b   5.21898710
_cell_length_c   5.21896010
_cell_angle_alpha   59.99988248
_cell_angle_beta   60.00017040
_cell_angle_gamma   60.00038670
_symmetry_Int_Tables_number   1
_chemical_formula_structural   Eu2PtAu
_chemical_formula_sum   'Eu2 Pt1 Au1'
_cell_volume   100.51721492
_cell_formula_units_Z   1
loop_
 _symmetry_equiv_pos_site_id
 _symmetry_equiv_pos_as_xyz
  1  'x, y, z'
loop_
 _atom_site_type_symbol
 _atom_site_label
 _atom_site_symmetry_multiplicity
 _atom_site_fract_x
 _atom_site_fract_y
 _atom_site_fract_z
 _atom_site_occupancy
  Eu  Eu0  1  0.00000008  0.00000032  -0.00000007  1
  Eu  Eu1  1  0.50000007  0.49999968  0.50000047  1
  Pt  Pt2  1  0.74999985  0.74999960  0.74999931  1
  Au  Au3  1  0.25000000  0.25000040  0.25000029  1
