# generated using pymatgen
data_TiZnH12(OF)6
_symmetry_space_group_name_H-M   'P 1'
_cell_length_a   6.28941462
_cell_length_b   6.28941592
_cell_length_c   6.28941463
_cell_angle_alpha   96.57231124
_cell_angle_beta   96.57231556
_cell_angle_gamma   96.57231116
_symmetry_Int_Tables_number   1
_chemical_formula_structural   TiZnH12(OF)6
_chemical_formula_sum   'Ti1 Zn1 H12 O6 F6'
_cell_volume   243.47001076
_cell_formula_units_Z   1
loop_
 _symmetry_equiv_pos_site_id
 _symmetry_equiv_pos_as_xyz
  1  'x, y, z'
loop_
 _atom_site_type_symbol
 _atom_site_label
 _atom_site_symmetry_multiplicity
 _atom_site_fract_x
 _atom_site_fract_y
 _atom_site_fract_z
 _atom_site_occupancy
  Ti  Ti0  1  0.50000100  0.50000100  0.50000100  1
  Zn  Zn1  1  0.00000000  0.00000000  0.00000000  1
  H  H2  1  0.41847009  0.18538446  0.05949596  1
  H  H3  1  0.69291659  0.75675207  0.16260118  1
  H  H4  1  0.05949696  0.41847209  0.18538246  1
  H  H5  1  0.83739782  0.30708341  0.24324893  1
  H  H6  1  0.24324693  0.83739882  0.30708341  1
  H  H7  1  0.18538446  0.05949696  0.41847009  1
  H  H8  1  0.81461554  0.94050504  0.58152991  1
  H  H9  1  0.75675307  0.16260118  0.69291659  1
  H  H10  1  0.16260118  0.69291759  0.75675107  1
  H  H11  1  0.94050304  0.58153091  0.81461754  1
  H  H12  1  0.30708241  0.24324893  0.83739782  1
  H  H13  1  0.58152991  0.81461754  0.94050404  1
  O  O14  1  0.69318373  0.86605835  0.06381666  1
  O  O15  1  0.93618634  0.30681427  0.13394265  1
  O  O16  1  0.13394165  0.93618534  0.30681627  1
  O  O17  1  0.86605935  0.06381566  0.69318473  1
  O  O18  1  0.06381466  0.69318573  0.86605835  1
  O  O19  1  0.30681727  0.13394265  0.93618434  1
  F  F20  1  0.34711725  0.56906040  0.24479421  1
  F  F21  1  0.56906240  0.24479421  0.34711525  1
  F  F22  1  0.75520679  0.65288475  0.43093960  1
  F  F23  1  0.24479321  0.34711825  0.56906040  1
  F  F24  1  0.43093860  0.75520679  0.65288575  1
  F  F25  1  0.65288375  0.43094060  0.75520679  1
