# generated using pymatgen
data_Ho2PdRh
_symmetry_space_group_name_H-M   'P 1'
_cell_length_a   4.88047822
_cell_length_b   4.88046794
_cell_length_c   4.88046215
_cell_angle_alpha   59.99911185
_cell_angle_beta   59.99802112
_cell_angle_gamma   59.99860147
_symmetry_Int_Tables_number   1
_chemical_formula_structural   Ho2PdRh
_chemical_formula_sum   'Ho2 Pd1 Rh1'
_cell_volume   82.19696715
_cell_formula_units_Z   1
loop_
 _symmetry_equiv_pos_site_id
 _symmetry_equiv_pos_as_xyz
  1  'x, y, z'
loop_
 _atom_site_type_symbol
 _atom_site_label
 _atom_site_symmetry_multiplicity
 _atom_site_fract_x
 _atom_site_fract_y
 _atom_site_fract_z
 _atom_site_occupancy
  Ho  Ho0  1  0.99999332  0.00001092  0.00000524  1
  Ho  Ho1  1  0.49999565  0.50000118  0.50000662  1
  Pd  Pd2  1  0.25000769  0.25000447  0.24999209  1
  Rh  Rh3  1  0.75000534  0.74998543  0.74999804  1
