# generated using pymatgen
data_Sm4CrS7
_symmetry_space_group_name_H-M   'P 1'
_cell_length_a   6.70130579
_cell_length_b   9.76547448
_cell_length_c   9.76547447
_cell_angle_alpha   120.00000031
_cell_angle_beta   90.00000000
_cell_angle_gamma   90.00000000
_symmetry_Int_Tables_number   1
_chemical_formula_structural   Sm4CrS7
_chemical_formula_sum   'Sm8 Cr2 S14'
_cell_volume   553.44792650
_cell_formula_units_Z   2
loop_
 _symmetry_equiv_pos_site_id
 _symmetry_equiv_pos_as_xyz
  1  'x, y, z'
loop_
 _atom_site_type_symbol
 _atom_site_label
 _atom_site_symmetry_multiplicity
 _atom_site_fract_x
 _atom_site_fract_y
 _atom_site_fract_z
 _atom_site_occupancy
  Sm  Sm0  1  0.82988772  0.66666700  0.33333300  1
  Sm  Sm1  1  0.32988772  0.33333300  0.66666700  1
  Sm  Sm2  1  0.77740846  0.62412160  0.84530571  1
  Sm  Sm3  1  0.77740846  0.22118411  0.37587840  1
  Sm  Sm4  1  0.27740846  0.37587840  0.15469429  1
  Sm  Sm5  1  0.77740846  0.15469429  0.77881589  1
  Sm  Sm6  1  0.27740846  0.77881589  0.62412160  1
  Sm  Sm7  1  0.27740846  0.84530571  0.22118411  1
  Cr  Cr8  1  0.96395252  0.00000000  0.00000000  1
  Cr  Cr9  1  0.46395252  0.00000000  0.00000000  1
  S  S10  1  0.54357619  0.49107165  0.56315641  1
  S  S11  1  0.54357619  0.07208476  0.50892835  1
  S  S12  1  0.04357619  0.50892835  0.43684359  1
  S  S13  1  0.54357619  0.43684359  0.92791524  1
  S  S14  1  0.04357619  0.92791524  0.49107165  1
  S  S15  1  0.04357619  0.56315641  0.07208476  1
  S  S16  1  0.43732994  0.66666700  0.33333300  1
  S  S17  1  0.93732994  0.33333300  0.66666700  1
  S  S18  1  0.70329196  0.90004656  0.13377259  1
  S  S19  1  0.70329196  0.23372602  0.09995344  1
  S  S20  1  0.20329196  0.09995344  0.86622741  1
  S  S21  1  0.70329196  0.86622741  0.76627398  1
  S  S22  1  0.20329196  0.76627398  0.90004656  1
  S  S23  1  0.20329196  0.13377259  0.23372602  1
