# generated using pymatgen
data_Rb2CuCl4
_symmetry_space_group_name_H-M   'P 1'
_cell_length_a   4.94745568
_cell_length_b   4.94745568
_cell_length_c   8.77766991
_cell_angle_alpha   106.37273524
_cell_angle_beta   106.37273524
_cell_angle_gamma   89.98691381
_symmetry_Int_Tables_number   1
_chemical_formula_structural   Rb2CuCl4
_chemical_formula_sum   'Rb2 Cu1 Cl4'
_cell_volume   197.04777684
_cell_formula_units_Z   1
loop_
 _symmetry_equiv_pos_site_id
 _symmetry_equiv_pos_as_xyz
  1  'x, y, z'
loop_
 _atom_site_type_symbol
 _atom_site_label
 _atom_site_symmetry_multiplicity
 _atom_site_fract_x
 _atom_site_fract_y
 _atom_site_fract_z
 _atom_site_occupancy
  Rb  Rb0  1  0.64198496  0.64198496  0.28396993  1
  Rb  Rb1  1  0.35801604  0.35801504  0.71603007  1
  Cu  Cu2  1  0.00000000  0.00000000  0.00000000  1
  Cl  Cl3  1  0.84925600  0.84925600  0.69851100  1
  Cl  Cl4  1  0.15074500  0.15074400  0.30148900  1
  Cl  Cl5  1  0.50000100  0.00000000  0.00000000  1
  Cl  Cl6  1  0.00000100  0.50000000  0.00000000  1
