# generated using pymatgen
data_Rb2TiSi3O10
_symmetry_space_group_name_H-M   'P 1'
_cell_length_a   7.31716958
_cell_length_b   10.20903119
_cell_length_c   13.07258233
_cell_angle_alpha   90.00000000
_cell_angle_beta   90.00000000
_cell_angle_gamma   90.00000000
_symmetry_Int_Tables_number   1
_chemical_formula_structural   Rb2TiSi3O10
_chemical_formula_sum   'Rb8 Ti4 Si12 O40'
_cell_volume   976.53775010
_cell_formula_units_Z   4
loop_
 _symmetry_equiv_pos_site_id
 _symmetry_equiv_pos_as_xyz
  1  'x, y, z'
loop_
 _atom_site_type_symbol
 _atom_site_label
 _atom_site_symmetry_multiplicity
 _atom_site_fract_x
 _atom_site_fract_y
 _atom_site_fract_z
 _atom_site_occupancy
  Rb  Rb0  1  0.19861227  0.28634952  0.37604065  1
  Rb  Rb1  1  0.30138773  0.71365048  0.87604065  1
  Rb  Rb2  1  0.80138773  0.78634952  0.12395935  1
  Rb  Rb3  1  0.69861227  0.21365048  0.62395935  1
  Rb  Rb4  1  0.23161378  0.43848499  0.08820996  1
  Rb  Rb5  1  0.26838622  0.56151501  0.58820996  1
  Rb  Rb6  1  0.76838622  0.93848499  0.41179004  1
  Rb  Rb7  1  0.73161378  0.06151501  0.91179004  1
  Ti  Ti8  1  0.25803095  0.05541498  0.78695134  1
  Ti  Ti9  1  0.24196905  0.94458502  0.28695134  1
  Ti  Ti10  1  0.74196905  0.55541498  0.71304866  1
  Ti  Ti11  1  0.75803095  0.44458502  0.21304866  1
  Si  Si12  1  0.52767547  0.16674819  0.17782889  1
  Si  Si13  1  0.97232453  0.83325181  0.67782889  1
  Si  Si14  1  0.47232453  0.66674819  0.32217111  1
  Si  Si15  1  0.02767547  0.33325181  0.82217111  1
  Si  Si16  1  0.06493751  0.64567604  0.32801294  1
  Si  Si17  1  0.43506249  0.35432396  0.82801294  1
  Si  Si18  1  0.93506249  0.14567604  0.17198706  1
  Si  Si19  1  0.56493751  0.85432396  0.67198706  1
  Si  Si20  1  0.24106779  0.04019573  0.04861687  1
  Si  Si21  1  0.25893221  0.95980427  0.54861687  1
  Si  Si22  1  0.75893221  0.54019573  0.45138313  1
  Si  Si23  1  0.74106779  0.45980427  0.95138313  1
  O  O24  1  0.06674497  0.80219499  0.30509142  1
  O  O25  1  0.43325503  0.19780501  0.80509142  1
  O  O26  1  0.93325503  0.30219499  0.19490858  1
  O  O27  1  0.56674497  0.69780501  0.69490858  1
  O  O28  1  0.23340536  0.00206901  0.43062375  1
  O  O29  1  0.26659464  0.99793099  0.93062375  1
  O  O30  1  0.76659464  0.50206901  0.06937625  1
  O  O31  1  0.73340536  0.49793099  0.56937625  1
  O  O32  1  0.03960943  0.11294538  0.06271589  1
  O  O33  1  0.46039057  0.88705462  0.56271589  1
  O  O34  1  0.96039057  0.61294538  0.43728411  1
  O  O35  1  0.53960943  0.38705462  0.93728411  1
  O  O36  1  0.07412292  0.29507298  0.58940663  1
  O  O37  1  0.42587708  0.70492702  0.08940663  1
  O  O38  1  0.92587708  0.79507298  0.91059337  1
  O  O39  1  0.57412292  0.20492702  0.41059337  1
  O  O40  1  0.42369785  0.09467393  0.27250731  1
  O  O41  1  0.07630215  0.90532607  0.77250731  1
  O  O42  1  0.57630215  0.59467393  0.22749269  1
  O  O43  1  0.92369785  0.40532607  0.72749269  1
  O  O44  1  0.03278241  0.06542350  0.26375930  1
  O  O45  1  0.46721759  0.93457650  0.76375930  1
  O  O46  1  0.96721759  0.56542350  0.23624070  1
  O  O47  1  0.53278241  0.43457650  0.73624070  1
  O  O48  1  0.55912621  0.32203567  0.19627586  1
  O  O49  1  0.94087379  0.67796433  0.69627586  1
  O  O50  1  0.44087379  0.82203567  0.30372414  1
  O  O51  1  0.05912621  0.17796433  0.80372414  1
  O  O52  1  0.39985763  0.15142067  0.07469119  1
  O  O53  1  0.10014237  0.84857933  0.57469119  1
  O  O54  1  0.60014237  0.65142067  0.42530881  1
  O  O55  1  0.89985763  0.34857933  0.92530881  1
  O  O56  1  0.72380227  0.09104857  0.15381712  1
  O  O57  1  0.77619773  0.90895143  0.65381712  1
  O  O58  1  0.27619773  0.59104857  0.34618288  1
  O  O59  1  0.22380227  0.40895143  0.84618288  1
  O  O60  1  0.24581167  0.07557201  0.63502013  1
  O  O61  1  0.25418833  0.92442799  0.13502013  1
  O  O62  1  0.75418833  0.57557201  0.86497987  1
  O  O63  1  0.74581167  0.42442799  0.36497987  1
