# generated using pymatgen
data_Tb3Nd
_symmetry_space_group_name_H-M   'P 1'
_cell_length_a   7.29697366
_cell_length_b   7.29697236
_cell_length_c   5.76971618
_cell_angle_alpha   90.00000000
_cell_angle_beta   90.00000000
_cell_angle_gamma   120.00000589
_symmetry_Int_Tables_number   1
_chemical_formula_structural   Tb3Nd
_chemical_formula_sum   'Tb6 Nd2'
_cell_volume   266.05445528
_cell_formula_units_Z   2
loop_
 _symmetry_equiv_pos_site_id
 _symmetry_equiv_pos_as_xyz
  1  'x, y, z'
loop_
 _atom_site_type_symbol
 _atom_site_label
 _atom_site_symmetry_multiplicity
 _atom_site_fract_x
 _atom_site_fract_y
 _atom_site_fract_z
 _atom_site_occupancy
  Tb  Tb0  1  0.66891916  0.83445908  0.25000000  1
  Tb  Tb1  1  0.16553992  0.33108084  0.25000000  1
  Tb  Tb2  1  0.83445908  0.16554192  0.74999900  1
  Tb  Tb3  1  0.33108184  0.16554192  0.74999900  1
  Tb  Tb4  1  0.83446008  0.66891916  0.74999900  1
  Tb  Tb5  1  0.16553992  0.83445908  0.25000000  1
  Nd  Nd6  1  0.66666700  0.33333400  0.25000000  1
  Nd  Nd7  1  0.33333400  0.66666800  0.74999900  1
