# generated using pymatgen
data_LaOsN3
_symmetry_space_group_name_H-M   'P 1'
_cell_length_a   3.83698255
_cell_length_b   4.76671901
_cell_length_c   7.40852670
_cell_angle_alpha   90.00000000
_cell_angle_beta   97.11513813
_cell_angle_gamma   90.00000000
_symmetry_Int_Tables_number   1
_chemical_formula_structural   LaOsN3
_chemical_formula_sum   'La2 Os2 N6'
_cell_volume   134.45714596
_cell_formula_units_Z   2
loop_
 _symmetry_equiv_pos_site_id
 _symmetry_equiv_pos_as_xyz
  1  'x, y, z'
loop_
 _atom_site_type_symbol
 _atom_site_label
 _atom_site_symmetry_multiplicity
 _atom_site_fract_x
 _atom_site_fract_y
 _atom_site_fract_z
 _atom_site_occupancy
  La  La0  1  0.08052592  0.75000000  0.28720694  1
  La  La1  1  0.91947408  0.25000000  0.71279306  1
  Os  Os2  1  0.51632095  0.25000000  0.09402921  1
  Os  Os3  1  0.48367905  0.75000000  0.90597079  1
  N  N4  1  0.46137486  0.75000000  0.63160493  1
  N  N5  1  0.53862514  0.25000000  0.36839507  1
  N  N6  1  0.01456915  0.25000000  0.09278467  1
  N  N7  1  0.70267341  0.75000000  0.53475170  1
  N  N8  1  0.29732659  0.25000000  0.46524830  1
  N  N9  1  0.98543085  0.75000000  0.90721533  1
