# generated using pymatgen
data_YTcN3
_symmetry_space_group_name_H-M   'P 1'
_cell_length_a   6.26996324
_cell_length_b   7.38838204
_cell_length_c   7.38838180
_cell_angle_alpha   97.72762214
_cell_angle_beta   107.20028008
_cell_angle_gamma   72.79971628
_symmetry_Int_Tables_number   1
_chemical_formula_structural   YTcN3
_chemical_formula_sum   'Y4 Tc4 N12'
_cell_volume   311.92128281
_cell_formula_units_Z   4
loop_
 _symmetry_equiv_pos_site_id
 _symmetry_equiv_pos_as_xyz
  1  'x, y, z'
loop_
 _atom_site_type_symbol
 _atom_site_label
 _atom_site_symmetry_multiplicity
 _atom_site_fract_x
 _atom_site_fract_y
 _atom_site_fract_z
 _atom_site_occupancy
  Y  Y0  1  0.25000000  0.09146004  0.09146004  1
  Y  Y1  1  0.25000000  0.70809152  0.70809152  1
  Y  Y2  1  0.75000000  0.90853996  0.90853996  1
  Y  Y3  1  0.75000000  0.29190848  0.29190848  1
  Tc  Tc4  1  0.28111924  0.62267970  0.20390419  1
  Tc  Tc5  1  0.21888076  0.20390419  0.62267970  1
  Tc  Tc6  1  0.71888076  0.37732030  0.79609581  1
  Tc  Tc7  1  0.78111924  0.79609581  0.37732030  1
  N  N8  1  0.66189805  0.99520948  0.21923762  1
  N  N9  1  0.83960277  0.86875246  0.62454820  1
  N  N10  1  0.58334301  0.63587909  0.33329639  1
  N  N11  1  0.66039723  0.62454820  0.86875246  1
  N  N12  1  0.16189805  0.78076238  0.00479052  1
  N  N13  1  0.33960277  0.37545180  0.13124754  1
  N  N14  1  0.91665699  0.33329639  0.63587909  1
  N  N15  1  0.08334301  0.66670361  0.36412091  1
  N  N16  1  0.41665699  0.36412091  0.66670361  1
  N  N17  1  0.33810195  0.00479052  0.78076238  1
  N  N18  1  0.83810195  0.21923762  0.99520948  1
  N  N19  1  0.16039723  0.13124754  0.37545180  1
