# generated using pymatgen
data_Re3(PbSe3)2
_symmetry_space_group_name_H-M   'P 1'
_cell_length_a   10.06769523
_cell_length_b   10.06769523
_cell_length_c   12.43697148
_cell_angle_alpha   91.39791567
_cell_angle_beta   91.39791567
_cell_angle_gamma   59.47336043
_symmetry_Int_Tables_number   1
_chemical_formula_structural   Re3(PbSe3)2
_chemical_formula_sum   'Re12 Pb8 Se24'
_cell_volume   1085.43710968
_cell_formula_units_Z   4
loop_
 _symmetry_equiv_pos_site_id
 _symmetry_equiv_pos_as_xyz
  1  'x, y, z'
loop_
 _atom_site_type_symbol
 _atom_site_label
 _atom_site_symmetry_multiplicity
 _atom_site_fract_x
 _atom_site_fract_y
 _atom_site_fract_z
 _atom_site_occupancy
  Re  Re0  1  0.48561598  0.10773041  0.87323460  1
  Re  Re1  1  0.51438402  0.89226959  0.12676540  1
  Re  Re2  1  0.89226959  0.51438402  0.62676540  1
  Re  Re3  1  0.10773041  0.48561598  0.37323460  1
  Re  Re4  1  0.60250932  0.81192367  0.92274012  1
  Re  Re5  1  0.39749068  0.18807633  0.07725988  1
  Re  Re6  1  0.18807633  0.39749068  0.57725988  1
  Re  Re7  1  0.81192367  0.60250932  0.42274012  1
  Re  Re8  1  0.31184413  0.01589915  0.96296220  1
  Re  Re9  1  0.68815587  0.98410085  0.03703780  1
  Re  Re10  1  0.98410085  0.68815587  0.53703780  1
  Re  Re11  1  0.01589915  0.31184413  0.46296220  1
  Pb  Pb12  1  0.41181662  0.58818338  0.75000000  1
  Pb  Pb13  1  0.58818338  0.41181662  0.25000000  1
  Pb  Pb14  1  0.66365917  0.11909931  0.49358966  1
  Pb  Pb15  1  0.33634083  0.88090069  0.50641034  1
  Pb  Pb16  1  0.88090069  0.33634083  0.00641034  1
  Pb  Pb17  1  0.11909931  0.66365917  0.99358966  1
  Pb  Pb18  1  0.81124472  0.18875528  0.75000000  1
  Pb  Pb19  1  0.18875528  0.81124472  0.25000000  1
  Se  Se20  1  0.40623965  0.93420532  0.77155984  1
  Se  Se21  1  0.59376035  0.06579468  0.22844016  1
  Se  Se22  1  0.06579468  0.59376035  0.72844016  1
  Se  Se23  1  0.93420532  0.40623965  0.27155984  1
  Se  Se24  1  0.45508996  0.26785176  0.69095389  1
  Se  Se25  1  0.54491004  0.73214824  0.30904611  1
  Se  Se26  1  0.73214824  0.54491004  0.80904611  1
  Se  Se27  1  0.26785176  0.45508996  0.19095389  1
  Se  Se28  1  0.76655279  0.90810332  0.84100594  1
  Se  Se29  1  0.23344721  0.09189668  0.15899406  1
  Se  Se30  1  0.09189668  0.23344721  0.65899406  1
  Se  Se31  1  0.90810332  0.76655279  0.34100594  1
  Se  Se32  1  0.57404645  0.26881990  0.98468224  1
  Se  Se33  1  0.42595355  0.73118010  0.01531776  1
  Se  Se34  1  0.73118010  0.42595355  0.51531776  1
  Se  Se35  1  0.26881990  0.57404645  0.48468224  1
  Se  Se36  1  0.69806354  0.79471437  0.57746435  1
  Se  Se37  1  0.30193646  0.20528563  0.42253565  1
  Se  Se38  1  0.20528563  0.30193646  0.92253565  1
  Se  Se39  1  0.79471437  0.69806354  0.07746435  1
  Se  Se40  1  0.05643992  0.03866261  0.89629033  1
  Se  Se41  1  0.94356008  0.96133739  0.10370967  1
  Se  Se42  1  0.96133739  0.94356008  0.60370967  1
  Se  Se43  1  0.03866261  0.05643992  0.39629033  1
