# generated using pymatgen
data_LaOsN3
_symmetry_space_group_name_H-M   'P 1'
_cell_length_a   4.84373756
_cell_length_b   7.21838451
_cell_length_c   10.24957687
_cell_angle_alpha   90.00000000
_cell_angle_beta   90.00000000
_cell_angle_gamma   108.73955584
_symmetry_Int_Tables_number   1
_chemical_formula_structural   LaOsN3
_chemical_formula_sum   'La4 Os4 N12'
_cell_volume   339.36836375
_cell_formula_units_Z   4
loop_
 _symmetry_equiv_pos_site_id
 _symmetry_equiv_pos_as_xyz
  1  'x, y, z'
loop_
 _atom_site_type_symbol
 _atom_site_label
 _atom_site_symmetry_multiplicity
 _atom_site_fract_x
 _atom_site_fract_y
 _atom_site_fract_z
 _atom_site_occupancy
  La  La0  1  0.75401941  0.47666767  0.33335138  1
  La  La1  1  0.24598059  0.52333233  0.66664862  1
  La  La2  1  0.75401941  0.97666767  0.16664862  1
  La  La3  1  0.24598059  0.02333233  0.83335138  1
  Os  Os4  1  0.30949771  0.34902403  0.07045292  1
  Os  Os5  1  0.69050229  0.15097597  0.57045292  1
  Os  Os6  1  0.30949771  0.84902403  0.42954708  1
  Os  Os7  1  0.69050229  0.65097597  0.92954708  1
  N  N8  1  0.69663123  0.90465526  0.91553479  1
  N  N9  1  0.30336877  0.09534474  0.08446521  1
  N  N10  1  0.98359013  0.83686849  0.34625563  1
  N  N11  1  0.38289618  0.40487026  0.88467351  1
  N  N12  1  0.61710382  0.09512974  0.38467351  1
  N  N13  1  0.61710382  0.59512974  0.11532649  1
  N  N14  1  0.01640987  0.16313151  0.65374437  1
  N  N15  1  0.69663123  0.40465526  0.58446521  1
  N  N16  1  0.38289618  0.90487026  0.61532649  1
  N  N17  1  0.98359013  0.33686849  0.15374437  1
  N  N18  1  0.30336877  0.59534474  0.41553479  1
  N  N19  1  0.01640987  0.66313151  0.84625563  1
