# generated using pymatgen
data_Sr2YCu3O7
_symmetry_space_group_name_H-M   'P 1'
_cell_length_a   3.73094972
_cell_length_b   3.89694740
_cell_length_c   11.54373348
_cell_angle_alpha   89.99990103
_cell_angle_beta   90.00022909
_cell_angle_gamma   90.00002624
_symmetry_Int_Tables_number   1
_chemical_formula_structural   Sr2YCu3O7
_chemical_formula_sum   'Sr2 Y1 Cu3 O7'
_cell_volume   167.83797516
_cell_formula_units_Z   1
loop_
 _symmetry_equiv_pos_site_id
 _symmetry_equiv_pos_as_xyz
  1  'x, y, z'
loop_
 _atom_site_type_symbol
 _atom_site_label
 _atom_site_symmetry_multiplicity
 _atom_site_fract_x
 _atom_site_fract_y
 _atom_site_fract_z
 _atom_site_occupancy
  Sr  Sr0  1  0.49999901  0.50000363  0.82131675  1
  Sr  Sr1  1  0.50000192  0.49999588  0.17861247  1
  Y  Y2  1  0.50000284  0.49999858  0.50003238  1
  Cu  Cu3  1  0.99999505  0.00000076  -0.00004279  1
  Cu  Cu4  1  -0.00000219  0.00000412  0.65285507  1
  Cu  Cu5  1  0.99999181  0.00000225  0.34716371  1
  O  O6  1  0.50000082  0.00000122  0.62263967  1
  O  O7  1  0.50000035  0.99999731  0.37730775  1
  O  O8  1  0.99999978  0.00000173  0.83748817  1
  O  O9  1  0.00000748  -0.00000327  0.16262706  1
  O  O10  1  -0.00000169  0.49999972  0.99998217  1
  O  O11  1  0.00000539  0.49999896  0.62856497  1
  O  O12  1  0.99999944  0.49999911  0.37145261  1
