# generated using pymatgen
data_TaAgO3
_symmetry_space_group_name_H-M   'P 1'
_cell_length_a   5.65097536
_cell_length_b   5.65097536
_cell_length_c   5.65097535
_cell_angle_alpha   59.12014221
_cell_angle_beta   59.12014221
_cell_angle_gamma   59.12014224
_symmetry_Int_Tables_number   1
_chemical_formula_structural   TaAgO3
_chemical_formula_sum   'Ta2 Ag2 O6'
_cell_volume   125.04219126
_cell_formula_units_Z   2
loop_
 _symmetry_equiv_pos_site_id
 _symmetry_equiv_pos_as_xyz
  1  'x, y, z'
loop_
 _atom_site_type_symbol
 _atom_site_label
 _atom_site_symmetry_multiplicity
 _atom_site_fract_x
 _atom_site_fract_y
 _atom_site_fract_z
 _atom_site_occupancy
  O  O0  1  0.30706260  0.75055332  0.19400983  1
  O  O1  1  0.75055332  0.19400983  0.30706260  1
  O  O2  1  0.19400983  0.30706260  0.75055332  1
  O  O3  1  0.69400983  0.25055332  0.80706260  1
  O  O4  1  0.80706260  0.69400983  0.25055332  1
  O  O5  1  0.25055332  0.80706260  0.69400983  1
  Ag  Ag6  1  0.25022431  0.25022431  0.25022431  1
  Ag  Ag7  1  0.75022431  0.75022431  0.75022431  1
  Ta  Ta8  1  0.00034994  0.00034994  0.00034994  1
  Ta  Ta9  1  0.50034994  0.50034994  0.50034994  1
