# generated using pymatgen
data_EuLu2O4
_symmetry_space_group_name_H-M   'P 1'
_cell_length_a   9.86387710
_cell_length_b   3.34884516
_cell_length_c   11.75743017
_cell_angle_alpha   90.00000000
_cell_angle_beta   90.00000000
_cell_angle_gamma   90.00000000
_symmetry_Int_Tables_number   1
_chemical_formula_structural   EuLu2O4
_chemical_formula_sum   'Eu4 Lu8 O16'
_cell_volume   388.37845356
_cell_formula_units_Z   4
loop_
 _symmetry_equiv_pos_site_id
 _symmetry_equiv_pos_as_xyz
  1  'x, y, z'
loop_
 _atom_site_type_symbol
 _atom_site_label
 _atom_site_symmetry_multiplicity
 _atom_site_fract_x
 _atom_site_fract_y
 _atom_site_fract_z
 _atom_site_occupancy
  Eu  Eu0  1  0.74774935  0.25000000  0.64982903  1
  Eu  Eu1  1  0.75225065  0.74999900  0.14982803  1
  Eu  Eu2  1  0.24774835  0.25000000  0.85017197  1
  Eu  Eu3  1  0.25225065  0.74999900  0.35017097  1
  Lu  Lu4  1  0.42759185  0.25000000  0.11127582  1
  Lu  Lu5  1  0.07240915  0.74999900  0.61127582  1
  Lu  Lu6  1  0.92759185  0.25000000  0.38872418  1
  Lu  Lu7  1  0.57240815  0.74999900  0.88872418  1
  Lu  Lu8  1  0.41780480  0.25000000  0.61084830  1
  Lu  Lu9  1  0.08219420  0.74999900  0.11085030  1
  Lu  Lu10  1  0.91780580  0.25000000  0.88915070  1
  Lu  Lu11  1  0.58219520  0.74999900  0.38915070  1
  O  O12  1  0.43048608  0.25000000  0.42189266  1
  O  O13  1  0.06951392  0.74999900  0.92189366  1
  O  O14  1  0.93048708  0.25000000  0.07810634  1
  O  O15  1  0.56951392  0.74999900  0.57810634  1
  O  O16  1  0.50726575  0.25000000  0.78356666  1
  O  O17  1  0.99273425  0.74999900  0.28356666  1
  O  O18  1  0.00726575  0.25000000  0.71643434  1
  O  O19  1  0.49273525  0.74999900  0.21643334  1
  O  O20  1  0.12735379  0.25000000  0.48464583  1
  O  O21  1  0.37264721  0.74999900  0.98464683  1
  O  O22  1  0.62735279  0.25000000  0.01535417  1
  O  O23  1  0.87264621  0.74999900  0.51535417  1
  O  O24  1  0.21673856  0.25000000  0.17458928  1
  O  O25  1  0.28326144  0.74999900  0.67458928  1
  O  O26  1  0.71673756  0.25000000  0.32541172  1
  O  O27  1  0.78326244  0.74999900  0.82541072  1
