# generated using pymatgen
data_Ac2Mg
_symmetry_space_group_name_H-M   'P 1'
_cell_length_a   4.10473234
_cell_length_b   4.10473234
_cell_length_c   7.46470271
_cell_angle_alpha   105.94262183
_cell_angle_beta   105.94262183
_cell_angle_gamma   90.05589818
_symmetry_Int_Tables_number   1
_chemical_formula_structural   Ac2Mg
_chemical_formula_sum   'Ac2 Mg1'
_cell_volume   115.88459649
_cell_formula_units_Z   1
loop_
 _symmetry_equiv_pos_site_id
 _symmetry_equiv_pos_as_xyz
  1  'x, y, z'
loop_
 _atom_site_type_symbol
 _atom_site_label
 _atom_site_symmetry_multiplicity
 _atom_site_fract_x
 _atom_site_fract_y
 _atom_site_fract_z
 _atom_site_occupancy
  Ac  Ac0  1  0.09818387  0.09818487  0.02970173  1
  Ac  Ac1  1  0.40181613  0.40181713  0.63696527  1
  Mg  Mg2  1  0.75000000  0.75000100  0.33333400  1
