# generated using pymatgen
data_PbAuO2
_symmetry_space_group_name_H-M   'P 1'
_cell_length_a   3.65254911
_cell_length_b   6.59227810
_cell_length_c   6.58967850
_cell_angle_alpha   98.78469522
_cell_angle_beta   90.00000040
_cell_angle_gamma   106.08317767
_symmetry_Int_Tables_number   1
_chemical_formula_structural   PbAuO2
_chemical_formula_sum   'Pb2 Au2 O4'
_cell_volume   150.52198392
_cell_formula_units_Z   2
loop_
 _symmetry_equiv_pos_site_id
 _symmetry_equiv_pos_as_xyz
  1  'x, y, z'
loop_
 _atom_site_type_symbol
 _atom_site_label
 _atom_site_symmetry_multiplicity
 _atom_site_fract_x
 _atom_site_fract_y
 _atom_site_fract_z
 _atom_site_occupancy
  Pb  Pb0  1  0.50000000  -0.00000000  -0.00000000  1
  Pb  Pb1  1  -0.00000000  0.00000000  0.50000000  1
  Au  Au2  1  0.25073198  0.50146395  0.21355662  1
  Au  Au3  1  0.74926802  0.49853605  0.78644338  1
  O  O4  1  0.58676176  0.17352351  0.73148453  1
  O  O5  1  0.91214815  0.82429629  0.82605324  1
  O  O6  1  0.41323824  0.82647649  0.26851547  1
  O  O7  1  0.08785185  0.17570371  0.17394676  1
