# generated using pymatgen
data_Mg(CrS2)4
_symmetry_space_group_name_H-M   'P 1'
_cell_length_a   7.15822781
_cell_length_b   7.15822758
_cell_length_c   7.15822872
_cell_angle_alpha   56.93655586
_cell_angle_beta   56.93655039
_cell_angle_gamma   56.93655688
_symmetry_Int_Tables_number   1
_chemical_formula_structural   Mg(CrS2)4
_chemical_formula_sum   'Mg1 Cr4 S8'
_cell_volume   241.03332402
_cell_formula_units_Z   1
loop_
 _symmetry_equiv_pos_site_id
 _symmetry_equiv_pos_as_xyz
  1  'x, y, z'
loop_
 _atom_site_type_symbol
 _atom_site_label
 _atom_site_symmetry_multiplicity
 _atom_site_fract_x
 _atom_site_fract_y
 _atom_site_fract_z
 _atom_site_occupancy
  Mg  Mg0  1  0.50000000  0.50000100  0.49999900  1
  Cr  Cr1  1  0.50000100  0.99999900  0.50000100  1
  Cr  Cr2  1  0.99999900  0.50000000  0.50000100  1
  Cr  Cr3  1  0.50000000  0.50000000  0.00000000  1
  Cr  Cr4  1  0.00000000  0.00000000  0.00000000  1
  S  S5  1  0.75907545  0.25695075  0.75907545  1
  S  S6  1  0.24092355  0.24092455  0.74304925  1
  S  S7  1  0.24092355  0.74305025  0.24092355  1
  S  S8  1  0.74304825  0.24092455  0.24092455  1
  S  S9  1  0.25954887  0.25954987  0.25954886  1
  S  S10  1  0.74045113  0.74045113  0.74045114  1
  S  S11  1  0.25695175  0.75907645  0.75907545  1
  S  S12  1  0.75907645  0.75907645  0.25695075  1
