# generated using pymatgen
data_CsCaI3
_symmetry_space_group_name_H-M   'P 1'
_cell_length_a   6.23149908
_cell_length_b   6.23346771
_cell_length_c   6.23579681
_cell_angle_alpha   89.99760405
_cell_angle_beta   90.00013930
_cell_angle_gamma   90.01464002
_symmetry_Int_Tables_number   1
_chemical_formula_structural   CsCaI3
_chemical_formula_sum   'Cs1 Ca1 I3'
_cell_volume   242.22233738
_cell_formula_units_Z   1
loop_
 _symmetry_equiv_pos_site_id
 _symmetry_equiv_pos_as_xyz
  1  'x, y, z'
loop_
 _atom_site_type_symbol
 _atom_site_label
 _atom_site_symmetry_multiplicity
 _atom_site_fract_x
 _atom_site_fract_y
 _atom_site_fract_z
 _atom_site_occupancy
  Cs  Cs0  1  0.99798039  0.99949225  0.99982867  1
  Ca  Ca1  1  0.48257542  0.49744064  0.49181978  1
  I  I2  1  0.48683249  0.99855497  0.49620056  1
  I  I3  1  0.98367002  0.50639416  0.50799746  1
  I  I4  1  0.48894468  0.49811798  0.99415554  1
