# generated using pymatgen
data_NaYbCl4
_symmetry_space_group_name_H-M   'P 1'
_cell_length_a   5.98583018
_cell_length_b   7.24118415
_cell_length_c   8.25943896
_cell_angle_alpha   90.00000000
_cell_angle_beta   90.00000000
_cell_angle_gamma   86.41791428
_symmetry_Int_Tables_number   1
_chemical_formula_structural   NaYbCl4
_chemical_formula_sum   'Na2 Yb2 Cl8'
_cell_volume   357.30181827
_cell_formula_units_Z   2
loop_
 _symmetry_equiv_pos_site_id
 _symmetry_equiv_pos_as_xyz
  1  'x, y, z'
loop_
 _atom_site_type_symbol
 _atom_site_label
 _atom_site_symmetry_multiplicity
 _atom_site_fract_x
 _atom_site_fract_y
 _atom_site_fract_z
 _atom_site_occupancy
  Na  Na0  1  -0.00000000  0.75000000  0.83563737  1
  Na  Na1  1  -0.00000000  0.25000000  0.16436263  1
  Yb  Yb2  1  0.50000000  0.75000000  0.38539301  1
  Yb  Yb3  1  0.50000000  0.25000000  0.61460699  1
  Cl  Cl4  1  0.80742542  0.35478544  0.85770938  1
  Cl  Cl5  1  0.19257458  0.64521456  0.14229062  1
  Cl  Cl6  1  0.19257458  0.14521456  0.85770938  1
  Cl  Cl7  1  0.80742542  0.85478544  0.14229062  1
  Cl  Cl8  1  0.72536185  0.91845406  0.61800955  1
  Cl  Cl9  1  0.27463815  0.08154594  0.38199045  1
  Cl  Cl10  1  0.27463815  0.58154594  0.61800955  1
  Cl  Cl11  1  0.72536185  0.41845406  0.38199045  1
