# generated using pymatgen
data_Sc2ZnSe4
_symmetry_space_group_name_H-M   'P 1'
_cell_length_a   7.82759771
_cell_length_b   7.82759771
_cell_length_c   7.82759771
_cell_angle_alpha   60.00000000
_cell_angle_beta   60.00000000
_cell_angle_gamma   60.00000000
_symmetry_Int_Tables_number   1
_chemical_formula_structural   Sc2ZnSe4
_chemical_formula_sum   'Sc4 Zn2 Se8'
_cell_volume   339.13334573
_cell_formula_units_Z   2
loop_
 _symmetry_equiv_pos_site_id
 _symmetry_equiv_pos_as_xyz
  1  'x, y, z'
loop_
 _atom_site_type_symbol
 _atom_site_label
 _atom_site_symmetry_multiplicity
 _atom_site_fract_x
 _atom_site_fract_y
 _atom_site_fract_z
 _atom_site_occupancy
  Sc  Sc0  1  0.00000000  0.00000000  0.50000000  1
  Sc  Sc1  1  0.00000000  0.50000000  0.00000000  1
  Sc  Sc2  1  0.50000000  0.00000000  0.00000000  1
  Sc  Sc3  1  0.00000000  0.00000000  0.00000000  1
  Zn  Zn4  1  0.37500000  0.37500000  0.37500000  1
  Zn  Zn5  1  0.62500000  0.62500000  0.62500000  1
  Se  Se6  1  0.24528257  0.24528257  0.76415229  1
  Se  Se7  1  0.24528257  0.76415229  0.24528257  1
  Se  Se8  1  0.76415229  0.24528257  0.24528257  1
  Se  Se9  1  0.24528257  0.24528257  0.24528257  1
  Se  Se10  1  0.75471743  0.75471743  0.23584771  1
  Se  Se11  1  0.75471743  0.23584771  0.75471743  1
  Se  Se12  1  0.23584771  0.75471743  0.75471743  1
  Se  Se13  1  0.75471743  0.75471743  0.75471743  1
