# generated using pymatgen
data_CaMnAsO5
_symmetry_space_group_name_H-M   'P 1'
_cell_length_a   7.70008094
_cell_length_b   5.93444854
_cell_length_c   9.07755246
_cell_angle_alpha   89.99804824
_cell_angle_beta   89.99846033
_cell_angle_gamma   89.99900694
_symmetry_Int_Tables_number   1
_chemical_formula_structural   CaMnAsO5
_chemical_formula_sum   'Ca4 Mn4 As4 O20'
_cell_volume   414.80542320
_cell_formula_units_Z   4
loop_
 _symmetry_equiv_pos_site_id
 _symmetry_equiv_pos_as_xyz
  1  'x, y, z'
loop_
 _atom_site_type_symbol
 _atom_site_label
 _atom_site_symmetry_multiplicity
 _atom_site_fract_x
 _atom_site_fract_y
 _atom_site_fract_z
 _atom_site_occupancy
  Ca  Ca0  1  0.89937941  0.77221881  0.08005718  1
  Ca  Ca1  1  0.60060938  0.22769962  0.58010906  1
  Ca  Ca2  1  0.39936008  0.72771305  0.91993679  1
  Ca  Ca3  1  0.10060004  0.27222982  0.41988639  1
  Mn  Mn4  1  0.99660300  0.49796810  0.75312442  1
  Mn  Mn5  1  0.50338083  0.50210042  0.25332457  1
  Mn  Mn6  1  0.49658341  0.00216065  0.24672663  1
  Mn  Mn7  1  0.00350427  0.99802237  0.74681046  1
  As  As8  1  0.63939158  0.26895965  0.93395654  1
  As  As9  1  0.86060476  0.73098164  0.43400233  1
  As  As10  1  0.13939412  0.23104404  0.06597323  1
  As  As11  1  0.36060286  0.76899638  0.56603170  1
  O  O12  1  0.82093608  0.24191574  0.81864053  1
  O  O13  1  0.67902278  0.75810509  0.31864857  1
  O  O14  1  0.32091508  0.25809193  0.18139566  1
  O  O15  1  0.17906511  0.74189826  0.68135457  1
  O  O16  1  0.47614992  0.33744222  0.81617412  1
  O  O17  1  0.02381727  0.66250644  0.31617820  1
  O  O18  1  0.97610440  0.16249518  0.18383502  1
  O  O19  1  0.52382315  0.83743626  0.68379705  1
  O  O20  1  0.61466280  0.01519575  0.02574612  1
  O  O21  1  0.88532346  0.98482245  0.52574014  1
  O  O22  1  0.11467203  0.48475047  0.97426488  1
  O  O23  1  0.38530425  0.51514006  0.47425543  1
  O  O24  1  0.65516049  0.49910338  0.05022659  1
  O  O25  1  0.84479498  0.50088602  0.55016832  1
  O  O26  1  0.15521134  0.00090630  0.94980943  1
  O  O27  1  0.34478913  0.99911540  0.44979864  1
  O  O28  1  0.88173853  0.75283465  0.82685798  1
  O  O29  1  0.61836744  0.24721006  0.32694459  1
  O  O30  1  0.38176405  0.74721931  0.17316768  1
  O  O31  1  0.11836198  0.25283248  0.67305715  1
