# generated using pymatgen
data_MgCoF5
_symmetry_space_group_name_H-M   'P 1'
_cell_length_a   5.18507424
_cell_length_b   7.35479195
_cell_length_c   9.59941317
_cell_angle_alpha   90.00000000
_cell_angle_beta   90.00000000
_cell_angle_gamma   109.96008184
_symmetry_Int_Tables_number   1
_chemical_formula_structural   MgCoF5
_chemical_formula_sum   'Mg4 Co4 F20'
_cell_volume   344.08511084
_cell_formula_units_Z   4
loop_
 _symmetry_equiv_pos_site_id
 _symmetry_equiv_pos_as_xyz
  1  'x, y, z'
loop_
 _atom_site_type_symbol
 _atom_site_label
 _atom_site_symmetry_multiplicity
 _atom_site_fract_x
 _atom_site_fract_y
 _atom_site_fract_z
 _atom_site_occupancy
  Mg  Mg0  1  0.47705290  0.74713539  0.01246727  1
  Mg  Mg1  1  0.52294710  0.75286461  0.51246727  1
  Mg  Mg2  1  0.52294710  0.25286461  0.98753273  1
  Mg  Mg3  1  0.47705290  0.24713539  0.48753273  1
  Co  Co4  1  0.89877115  0.60171650  0.75345045  1
  Co  Co5  1  0.10122885  0.89828350  0.25345045  1
  Co  Co6  1  0.10122885  0.39828350  0.24654955  1
  Co  Co7  1  0.89877115  0.10171650  0.74654955  1
  F  F8  1  0.60685012  0.57512310  0.88802810  1
  F  F9  1  0.39314988  0.92487690  0.38802810  1
  F  F10  1  0.39314988  0.42487690  0.11197190  1
  F  F11  1  0.60685012  0.07512310  0.61197190  1
  F  F12  1  0.64391196  0.48905736  0.60815168  1
  F  F13  1  0.35608804  0.01094264  0.10815168  1
  F  F14  1  0.35608804  0.51094264  0.39184832  1
  F  F15  1  0.64391196  0.98905736  0.89184832  1
  F  F16  1  0.85352135  0.80358860  0.39757411  1
  F  F17  1  0.14647865  0.69641140  0.89757411  1
  F  F18  1  0.14647865  0.19641140  0.60242589  1
  F  F19  1  0.85352135  0.30358860  0.10242589  1
  F  F20  1  0.79395384  0.84691038  0.13480173  1
  F  F21  1  0.20604616  0.65308962  0.63480173  1
  F  F22  1  0.20604616  0.15308962  0.86519827  1
  F  F23  1  0.79395384  0.34691038  0.36519827  1
  F  F24  1  0.82507327  0.83282041  0.67953282  1
  F  F25  1  0.17492673  0.66717959  0.17953282  1
  F  F26  1  0.17492673  0.16717959  0.32046718  1
  F  F27  1  0.82507327  0.33282041  0.82046718  1
