# generated using pymatgen
data_MnHO2
_symmetry_space_group_name_H-M   'P 1'
_cell_length_a   2.96253722
_cell_length_b   3.24110203
_cell_length_c   4.78250927
_cell_angle_alpha   105.80449794
_cell_angle_beta   90.12569278
_cell_angle_gamma   117.17158950
_symmetry_Int_Tables_number   1
_chemical_formula_structural   MnHO2
_chemical_formula_sum   'Mn1 H1 O2'
_cell_volume   38.87693812
_cell_formula_units_Z   1
loop_
 _symmetry_equiv_pos_site_id
 _symmetry_equiv_pos_as_xyz
  1  'x, y, z'
loop_
 _atom_site_type_symbol
 _atom_site_label
 _atom_site_symmetry_multiplicity
 _atom_site_fract_x
 _atom_site_fract_y
 _atom_site_fract_z
 _atom_site_occupancy
  Mn  Mn0  1  0.07484548  0.05224081  0.01825825  1
  H  H1  1  0.57981859  0.06315681  0.55211593  1
  O  O2  1  0.65280887  0.20954659  0.78335468  1
  O  O3  1  0.48775506  0.87685778  0.23105814  1
