# generated using pymatgen
data_Ba2MgV2CuF14
_symmetry_space_group_name_H-M   'P 1'
_cell_length_a   5.33865687
_cell_length_b   7.52291031
_cell_length_c   14.75538508
_cell_angle_alpha   91.99488408
_cell_angle_beta   90.17390071
_cell_angle_gamma   110.81654567
_symmetry_Int_Tables_number   1
_chemical_formula_structural   Ba2MgV2CuF14
_chemical_formula_sum   'Ba4 Mg2 V4 Cu2 F28'
_cell_volume   553.51456795
_cell_formula_units_Z   2
loop_
 _symmetry_equiv_pos_site_id
 _symmetry_equiv_pos_as_xyz
  1  'x, y, z'
loop_
 _atom_site_type_symbol
 _atom_site_label
 _atom_site_symmetry_multiplicity
 _atom_site_fract_x
 _atom_site_fract_y
 _atom_site_fract_z
 _atom_site_occupancy
  Ba  Ba0  1  0.10817260  0.36815431  0.62409395  1
  Ba  Ba1  1  0.25968775  0.36612160  0.12450891  1
  Ba  Ba2  1  0.89218994  0.62920986  0.37483822  1
  Ba  Ba3  1  0.74087821  0.63349544  0.87510321  1
  Mg  Mg4  1  0.43252603  0.99952232  0.74974100  1
  Mg  Mg5  1  0.55850635  0.99540332  0.25041559  1
  V  V6  1  0.09821054  0.24195725  0.87353570  1
  V  V7  1  0.90428688  0.76007511  0.12572023  1
  V  V8  1  0.14070149  0.23705112  0.37394392  1
  V  V9  1  0.85827807  0.76068033  0.62566305  1
  Cu  Cu10  1  0.50316260  0.00133221  0.00042187  1
  Cu  Cu11  1  0.49835796  0.99801551  0.50064231  1
  F  F12  1  0.89643598  0.98481403  0.33751026  1
  F  F13  1  0.87467317  0.27825292  0.45705976  1
  F  F14  1  0.12514235  0.71777955  0.54312291  1
  F  F15  1  0.64546116  0.49740630  0.59858055  1
  F  F16  1  0.59980867  0.09430687  0.62680019  1
  F  F17  1  0.50484362  0.90798563  0.87380659  1
  F  F18  1  0.40559228  0.28245194  0.95570119  1
  F  F19  1  0.91386313  0.01293751  0.15955054  1
  F  F20  1  0.36533441  0.32652508  0.77446471  1
  F  F21  1  0.35386966  0.50096245  0.40045068  1
  F  F22  1  0.80718752  0.22961402  0.79013035  1
  F  F23  1  0.15336670  0.50547211  0.90218924  1
  F  F24  1  0.42034146  0.22277232  0.28922993  1
  F  F25  1  0.19817712  0.77475889  0.21061953  1
  F  F26  1  0.49708067  0.09374372  0.12651902  1
  F  F27  1  0.63763239  0.67924580  0.22335738  1
  F  F28  1  0.12897421  0.83307950  0.01667882  1
  F  F29  1  0.10178881  0.01388088  0.66078620  1
  F  F30  1  0.87417793  0.16803229  0.98507454  1
  F  F31  1  0.71124495  0.83626594  0.51553709  1
  F  F32  1  0.59579981  0.71791046  0.04210607  1
  F  F33  1  0.58128904  0.77669716  0.71112454  1
  F  F34  1  0.96205967  0.32384714  0.27598030  1
  F  F35  1  0.28876543  0.16134823  0.48394410  1
  F  F36  1  0.39677159  0.90258766  0.37453503  1
  F  F37  1  0.08920681  0.98976110  0.83891195  1
  F  F38  1  0.04073972  0.67828454  0.72440606  1
  F  F39  1  0.84907232  0.49524158  0.10043849  1
