# generated using pymatgen
data_MgNiF5
_symmetry_space_group_name_H-M   'P 1'
_cell_length_a   5.06055733
_cell_length_b   7.35633912
_cell_length_c   9.54654704
_cell_angle_alpha   90.00000000
_cell_angle_beta   90.00000000
_cell_angle_gamma   110.60115463
_symmetry_Int_Tables_number   1
_chemical_formula_structural   MgNiF5
_chemical_formula_sum   'Mg4 Ni4 F20'
_cell_volume   332.66460067
_cell_formula_units_Z   4
loop_
 _symmetry_equiv_pos_site_id
 _symmetry_equiv_pos_as_xyz
  1  'x, y, z'
loop_
 _atom_site_type_symbol
 _atom_site_label
 _atom_site_symmetry_multiplicity
 _atom_site_fract_x
 _atom_site_fract_y
 _atom_site_fract_z
 _atom_site_occupancy
  Mg  Mg0  1  0.47018394  0.74797606  0.01357213  1
  Mg  Mg1  1  0.52981606  0.75202394  0.51357213  1
  Mg  Mg2  1  0.52981606  0.25202394  0.98642787  1
  Mg  Mg3  1  0.47018394  0.24797606  0.48642787  1
  Ni  Ni4  1  0.88781155  0.60216050  0.75196530  1
  Ni  Ni5  1  0.11218845  0.89783950  0.25196530  1
  Ni  Ni6  1  0.11218845  0.39783950  0.24803470  1
  Ni  Ni7  1  0.88781155  0.10216050  0.74803470  1
  F  F8  1  0.58558220  0.57197302  0.88284710  1
  F  F9  1  0.41441780  0.92802698  0.38284710  1
  F  F10  1  0.41441780  0.42802698  0.11715290  1
  F  F11  1  0.58558220  0.07197302  0.61715290  1
  F  F12  1  0.63169238  0.48806694  0.60807340  1
  F  F13  1  0.36830762  0.01193306  0.10807340  1
  F  F14  1  0.36830762  0.51193306  0.39192660  1
  F  F15  1  0.63169238  0.98806694  0.89192660  1
  F  F16  1  0.86665876  0.78611297  0.39609430  1
  F  F17  1  0.13334124  0.71388703  0.89609430  1
  F  F18  1  0.13334124  0.21388703  0.60390570  1
  F  F19  1  0.86665876  0.28611297  0.10390570  1
  F  F20  1  0.80877959  0.86168044  0.13058025  1
  F  F21  1  0.19122041  0.63831956  0.63058025  1
  F  F22  1  0.19122041  0.13831956  0.86941975  1
  F  F23  1  0.80877959  0.36168044  0.36941975  1
  F  F24  1  0.83341566  0.83846853  0.67496748  1
  F  F25  1  0.16658434  0.66153147  0.17496748  1
  F  F26  1  0.16658434  0.16153147  0.32503252  1
  F  F27  1  0.83341566  0.33846853  0.82503252  1
