# generated using pymatgen
data_Na3WO4
_symmetry_space_group_name_H-M   'P 1'
_cell_length_a   5.67052982
_cell_length_b   6.22390575
_cell_length_c   7.49801308
_cell_angle_alpha   90.00000000
_cell_angle_beta   90.00000000
_cell_angle_gamma   90.00000000
_symmetry_Int_Tables_number   1
_chemical_formula_structural   Na3WO4
_chemical_formula_sum   'Na6 W2 O8'
_cell_volume   264.62619959
_cell_formula_units_Z   2
loop_
 _symmetry_equiv_pos_site_id
 _symmetry_equiv_pos_as_xyz
  1  'x, y, z'
loop_
 _atom_site_type_symbol
 _atom_site_label
 _atom_site_symmetry_multiplicity
 _atom_site_fract_x
 _atom_site_fract_y
 _atom_site_fract_z
 _atom_site_occupancy
  Na  Na0  1  0.49920020  0.34225070  -0.00000000  1
  Na  Na1  1  0.99920020  0.65774930  0.50000000  1
  Na  Na2  1  0.50101945  0.83070927  0.74450949  1
  Na  Na3  1  0.00101945  0.16929073  0.75549051  1
  Na  Na4  1  0.00101945  0.16929073  0.24450949  1
  Na  Na5  1  0.50101945  0.83070927  0.25549051  1
  W  W6  1  0.01269193  0.67446347  -0.00000000  1
  W  W7  1  0.51269193  0.32553653  0.50000000  1
  O  O8  1  0.34506283  0.69487299  0.00000000  1
  O  O9  1  0.84506283  0.30512701  0.50000000  1
  O  O10  1  0.90003186  0.38845797  -0.00000000  1
  O  O11  1  0.40003186  0.61154203  0.50000000  1
  O  O12  1  0.92003714  0.80176331  0.78157720  1
  O  O13  1  0.42003714  0.19823669  0.71842280  1
  O  O14  1  0.42003714  0.19823669  0.28157720  1
  O  O15  1  0.92003714  0.80176331  0.21842280  1
