# generated using pymatgen
data_Ca2SbMoO6
_symmetry_space_group_name_H-M   'P 1'
_cell_length_a   5.55375170
_cell_length_b   5.75111277
_cell_length_c   8.03673977
_cell_angle_alpha   90.00000000
_cell_angle_beta   90.00000000
_cell_angle_gamma   89.90183601
_symmetry_Int_Tables_number   1
_chemical_formula_structural   Ca2SbMoO6
_chemical_formula_sum   'Ca4 Sb2 Mo2 O12'
_cell_volume   256.69511941
_cell_formula_units_Z   2
loop_
 _symmetry_equiv_pos_site_id
 _symmetry_equiv_pos_as_xyz
  1  'x, y, z'
loop_
 _atom_site_type_symbol
 _atom_site_label
 _atom_site_symmetry_multiplicity
 _atom_site_fract_x
 _atom_site_fract_y
 _atom_site_fract_z
 _atom_site_occupancy
  Ca  Ca0  1  0.51497773  0.56635840  0.75000000  1
  Ca  Ca1  1  0.48502227  0.43364160  0.25000000  1
  Ca  Ca2  1  0.99328614  0.04769185  0.75000000  1
  Ca  Ca3  1  0.00671386  0.95230815  0.25000000  1
  Sb  Sb4  1  0.00000000  0.50000000  0.50000000  1
  Sb  Sb5  1  0.00000000  0.50000000  0.00000000  1
  Mo  Mo6  1  0.50000000  0.00000000  0.50000000  1
  Mo  Mo7  1  0.50000000  0.00000000  0.00000000  1
  O  O8  1  0.29463657  0.68392053  0.44676005  1
  O  O9  1  0.18083008  0.20916684  0.05457853  1
  O  O10  1  0.70536343  0.31607947  0.94676005  1
  O  O11  1  0.81916992  0.79083316  0.55457853  1
  O  O12  1  0.18083008  0.20916684  0.44542147  1
  O  O13  1  0.81916992  0.79083316  0.94542147  1
  O  O14  1  0.89554391  0.53954278  0.25000000  1
  O  O15  1  0.29463657  0.68392053  0.05323995  1
  O  O16  1  0.39045055  0.95561378  0.75000000  1
  O  O17  1  0.70536343  0.31607947  0.55323995  1
  O  O18  1  0.10445609  0.46045722  0.75000000  1
  O  O19  1  0.60954945  0.04438622  0.25000000  1
