# generated using pymatgen
data_Sr2YbNbO6
_symmetry_space_group_name_H-M   'P 1'
_cell_length_a   5.83972685
_cell_length_b   6.01004623
_cell_length_c   8.31982508
_cell_angle_alpha   90.00000000
_cell_angle_beta   89.78655676
_cell_angle_gamma   90.00000000
_symmetry_Int_Tables_number   1
_chemical_formula_structural   Sr2YbNbO6
_chemical_formula_sum   'Sr4 Yb2 Nb2 O12'
_cell_volume   291.99911050
_cell_formula_units_Z   2
loop_
 _symmetry_equiv_pos_site_id
 _symmetry_equiv_pos_as_xyz
  1  'x, y, z'
loop_
 _atom_site_type_symbol
 _atom_site_label
 _atom_site_symmetry_multiplicity
 _atom_site_fract_x
 _atom_site_fract_y
 _atom_site_fract_z
 _atom_site_occupancy
  O  O0  1  0.90791574  0.46577785  0.23300085  1
  O  O1  1  0.59208426  0.96577785  0.26699915  1
  O  O2  1  0.09208426  0.53422215  0.76699915  1
  O  O3  1  0.40791574  0.03422215  0.73300085  1
  O  O4  1  0.77617388  0.19247628  0.54320639  1
  O  O5  1  0.72382612  0.69247628  0.95679361  1
  O  O6  1  0.22382612  0.80752372  0.45679361  1
  O  O7  1  0.27617388  0.30752372  0.04320639  1
  O  O8  1  0.18963914  0.77252677  0.05391503  1
  O  O9  1  0.31036086  0.27252677  0.44608497  1
  O  O10  1  0.81036086  0.22747323  0.94608497  1
  O  O11  1  0.68963914  0.72747323  0.55391503  1
  Sr  Sr12  1  0.01367409  0.04825346  0.25335751  1
  Sr  Sr13  1  0.48632591  0.54825346  0.24664249  1
  Sr  Sr14  1  0.51367409  0.45174654  0.75335751  1
  Sr  Sr15  1  0.98632591  0.95174654  0.74664249  1
  Nb  Nb16  1  0.00000000  0.50000000  0.00000000  1
  Nb  Nb17  1  0.50000000  0.00000000  0.50000000  1
  Yb  Yb18  1  0.00000000  0.50000000  0.50000000  1
  Yb  Yb19  1  0.50000000  0.00000000  0.00000000  1
