# generated using pymatgen
data_Na3Eu2(SiSe3)2
_symmetry_space_group_name_H-M   'P 1'
_cell_length_a   7.20567024
_cell_length_b   7.20567024
_cell_length_c   7.92978522
_cell_angle_alpha   98.70705731
_cell_angle_beta   98.70705731
_cell_angle_gamma   119.96492501
_symmetry_Int_Tables_number   1
_chemical_formula_structural   Na3Eu2(SiSe3)2
_chemical_formula_sum   'Na3 Eu2 Si2 Se6'
_cell_volume   339.96956124
_cell_formula_units_Z   1
loop_
 _symmetry_equiv_pos_site_id
 _symmetry_equiv_pos_as_xyz
  1  'x, y, z'
loop_
 _atom_site_type_symbol
 _atom_site_label
 _atom_site_symmetry_multiplicity
 _atom_site_fract_x
 _atom_site_fract_y
 _atom_site_fract_z
 _atom_site_occupancy
  Na  Na0  1  0.00000000  0.00000000  0.00000000  1
  Na  Na1  1  0.67261839  0.32738161  0.00000000  1
  Na  Na2  1  0.32738161  0.67261839  0.00000000  1
  Eu  Eu3  1  0.83375107  0.16624893  0.50000000  1
  Eu  Eu4  1  0.16624893  0.83375107  0.50000000  1
  Si  Si5  1  0.55116805  0.55116805  0.65625203  1
  Si  Si6  1  0.44883195  0.44883195  0.34374797  1
  Se  Se7  1  0.58140370  0.89458317  0.74537642  1
  Se  Se8  1  0.41859630  0.10541683  0.25462358  1
  Se  Se9  1  0.10541683  0.41859630  0.25462358  1
  Se  Se10  1  0.89458317  0.58140370  0.74537642  1
  Se  Se11  1  0.26899238  0.26899238  0.74506609  1
  Se  Se12  1  0.73100762  0.73100762  0.25493391  1
