# generated using pymatgen
data_CeGa4Co9
_symmetry_space_group_name_H-M   'P 1'
_cell_length_a   8.10432815
_cell_length_b   8.10432815
_cell_length_c   8.10432815
_cell_angle_alpha   121.16678479
_cell_angle_beta   121.16678479
_cell_angle_gamma   87.99067723
_symmetry_Int_Tables_number   1
_chemical_formula_structural   CeGa4Co9
_chemical_formula_sum   'Ce2 Ga8 Co18'
_cell_volume   369.50355445
_cell_formula_units_Z   2
loop_
 _symmetry_equiv_pos_site_id
 _symmetry_equiv_pos_as_xyz
  1  'x, y, z'
loop_
 _atom_site_type_symbol
 _atom_site_label
 _atom_site_symmetry_multiplicity
 _atom_site_fract_x
 _atom_site_fract_y
 _atom_site_fract_z
 _atom_site_occupancy
  Ce  Ce0  1  0.75000000  0.75000000  -0.00000000  1
  Ce  Ce1  1  0.25000000  0.25000000  -0.00000000  1
  Ga  Ga2  1  0.80492887  0.30492787  0.86144626  1
  Ga  Ga3  1  0.44348162  0.94348262  0.13855474  1
  Ga  Ga4  1  0.69507313  0.55651838  0.50000000  1
  Ga  Ga5  1  0.05651738  0.19507213  0.50000000  1
  Ga  Ga6  1  0.19507313  0.69507313  0.13855474  1
  Ga  Ga7  1  0.55651738  0.05651738  0.86144626  1
  Ga  Ga8  1  0.94348262  0.80492787  0.50000000  1
  Ga  Ga9  1  0.30492787  0.44348262  0.50000000  1
  Co  Co10  1  0.20081154  0.06160390  0.26241544  1
  Co  Co11  1  0.79918646  0.93839710  0.73758556  1
  Co  Co12  1  0.29918746  0.56160290  0.86079036  1
  Co  Co13  1  0.70081054  0.43839610  0.13920864  1
  Co  Co14  1  0.43839810  0.29918746  0.73758556  1
  Co  Co15  1  0.56160290  0.70081054  0.26241544  1
  Co  Co16  1  0.93839710  0.20081154  0.13921064  1
  Co  Co17  1  0.06160390  0.79918746  0.86079136  1
  Co  Co18  1  0.49999900  -0.00000000  0.49999900  1
  Co  Co19  1  -0.00000000  0.49999900  0.49999900  1
  Co  Co20  1  0.28864974  0.78864874  0.72666866  1
  Co  Co21  1  0.06198009  0.56198109  0.27333234  1
  Co  Co22  1  0.21135126  0.93801991  0.49999900  1
  Co  Co23  1  0.43802091  0.71135226  0.50000200  1
  Co  Co24  1  0.71135226  0.21135126  0.27333234  1
  Co  Co25  1  0.93801991  0.43802091  0.72666866  1
  Co  Co26  1  0.56198109  0.28864974  0.50000200  1
  Co  Co27  1  0.78864874  0.06198009  0.49999900  1
