# generated using pymatgen
data_Ba3MgGeN4
_symmetry_space_group_name_H-M   'P 1'
_cell_length_a   6.29723469
_cell_length_b   10.70242683
_cell_length_c   10.25436307
_cell_angle_alpha   90.00000000
_cell_angle_beta   90.00000000
_cell_angle_gamma   90.00000000
_symmetry_Int_Tables_number   1
_chemical_formula_structural   Ba3MgGeN4
_chemical_formula_sum   'Ba12 Mg4 Ge4 N16'
_cell_volume   691.09991051
_cell_formula_units_Z   4
loop_
 _symmetry_equiv_pos_site_id
 _symmetry_equiv_pos_as_xyz
  1  'x, y, z'
loop_
 _atom_site_type_symbol
 _atom_site_label
 _atom_site_symmetry_multiplicity
 _atom_site_fract_x
 _atom_site_fract_y
 _atom_site_fract_z
 _atom_site_occupancy
  Ba  Ba0  1  0.11450256  0.34441705  0.58974033  1
  Ba  Ba1  1  0.38549744  0.65558295  0.58974033  1
  Ba  Ba2  1  0.11450256  0.15558295  0.91025967  1
  Ba  Ba3  1  0.38549744  0.84441705  0.91025967  1
  Ba  Ba4  1  0.88549744  0.65558295  0.41025967  1
  Ba  Ba5  1  0.61450256  0.34441705  0.41025967  1
  Ba  Ba6  1  0.88549744  0.84441705  0.08974033  1
  Ba  Ba7  1  0.61450256  0.15558295  0.08974033  1
  Ba  Ba8  1  0.75000000  0.50000000  0.09114502  1
  Ba  Ba9  1  0.75000000  0.00000000  0.40885498  1
  Ba  Ba10  1  0.25000000  0.50000000  0.90885498  1
  Ba  Ba11  1  0.25000000  0.00000000  0.59114502  1
  Mg  Mg12  1  0.66187151  0.25000000  0.75000000  1
  Mg  Mg13  1  0.83812849  0.75000000  0.75000000  1
  Mg  Mg14  1  0.33812849  0.75000000  0.25000000  1
  Mg  Mg15  1  0.16187151  0.25000000  0.25000000  1
  Ge  Ge16  1  0.75000000  0.50000000  0.76726751  1
  Ge  Ge17  1  0.75000000  0.00000000  0.73273249  1
  Ge  Ge18  1  0.25000000  0.50000000  0.23273249  1
  Ge  Ge19  1  0.25000000  0.00000000  0.26726751  1
  N  N20  1  0.52724098  0.41639276  0.66706061  1
  N  N21  1  0.97275902  0.58360724  0.66706061  1
  N  N22  1  0.52724098  0.08360724  0.83293939  1
  N  N23  1  0.97275902  0.91639276  0.83293939  1
  N  N24  1  0.47275902  0.58360724  0.33293939  1
  N  N25  1  0.02724098  0.41639276  0.33293939  1
  N  N26  1  0.47275902  0.91639276  0.16706061  1
  N  N27  1  0.02724098  0.08360724  0.16706061  1
  N  N28  1  0.86823821  0.13527222  0.63328350  1
  N  N29  1  0.63176179  0.86472778  0.63328350  1
  N  N30  1  0.86823821  0.36472778  0.86671650  1
  N  N31  1  0.63176179  0.63527222  0.86671650  1
  N  N32  1  0.13176179  0.86472778  0.36671650  1
  N  N33  1  0.36823821  0.13527222  0.36671650  1
  N  N34  1  0.13176179  0.63527222  0.13328350  1
  N  N35  1  0.36823821  0.36472778  0.13328350  1
