# generated using pymatgen
data_Ba(CrN2)2
_symmetry_space_group_name_H-M   'P 1'
_cell_length_a   10.84417642
_cell_length_b   10.84417642
_cell_length_c   10.84417642
_cell_angle_alpha   90.00000000
_cell_angle_beta   90.00000000
_cell_angle_gamma   90.00000000
_symmetry_Int_Tables_number   1
_chemical_formula_structural   Ba(CrN2)2
_chemical_formula_sum   'Ba12 Cr24 N48'
_cell_volume   1275.23352952
_cell_formula_units_Z   12
loop_
 _symmetry_equiv_pos_site_id
 _symmetry_equiv_pos_as_xyz
  1  'x, y, z'
loop_
 _atom_site_type_symbol
 _atom_site_label
 _atom_site_symmetry_multiplicity
 _atom_site_fract_x
 _atom_site_fract_y
 _atom_site_fract_z
 _atom_site_occupancy
  Ba  Ba0  1  0.50000000  0.50000000  -0.00000000  1
  Ba  Ba1  1  0.50000000  0.00000000  0.50000000  1
  Ba  Ba2  1  -0.00000000  0.50000000  0.50000000  1
  Ba  Ba3  1  -0.00000000  0.00000000  -0.00000000  1
  Ba  Ba4  1  0.12669119  0.87330881  0.37330881  1
  Ba  Ba5  1  0.87330881  0.37330881  0.12669119  1
  Ba  Ba6  1  0.37330881  0.12669119  0.87330881  1
  Ba  Ba7  1  0.62669119  0.62669119  0.62669119  1
  Ba  Ba8  1  0.87330881  0.12669119  0.62669119  1
  Ba  Ba9  1  0.12669119  0.62669119  0.87330881  1
  Ba  Ba10  1  0.62669119  0.87330881  0.12669119  1
  Ba  Ba11  1  0.37330881  0.37330881  0.37330881  1
  Cr  Cr12  1  0.38797979  0.69195252  0.34468765  1
  Cr  Cr13  1  0.61202021  0.19195252  0.15531235  1
  Cr  Cr14  1  0.11202021  0.30804748  0.84468765  1
  Cr  Cr15  1  0.88797979  0.80804748  0.65531235  1
  Cr  Cr16  1  0.34468765  0.38797979  0.69195252  1
  Cr  Cr17  1  0.15531235  0.61202021  0.19195252  1
  Cr  Cr18  1  0.84468765  0.11202021  0.30804748  1
  Cr  Cr19  1  0.65531235  0.88797979  0.80804748  1
  Cr  Cr20  1  0.69195252  0.34468765  0.38797979  1
  Cr  Cr21  1  0.19195252  0.15531235  0.61202021  1
  Cr  Cr22  1  0.30804748  0.84468765  0.11202021  1
  Cr  Cr23  1  0.80804748  0.65531235  0.88797979  1
  Cr  Cr24  1  0.61202021  0.30804748  0.65531235  1
  Cr  Cr25  1  0.38797979  0.80804748  0.84468765  1
  Cr  Cr26  1  0.88797979  0.69195252  0.15531235  1
  Cr  Cr27  1  0.11202021  0.19195252  0.34468765  1
  Cr  Cr28  1  0.65531235  0.61202021  0.30804748  1
  Cr  Cr29  1  0.84468765  0.38797979  0.80804748  1
  Cr  Cr30  1  0.15531235  0.88797979  0.69195252  1
  Cr  Cr31  1  0.34468765  0.11202021  0.19195252  1
  Cr  Cr32  1  0.30804748  0.65531235  0.61202021  1
  Cr  Cr33  1  0.80804748  0.84468765  0.38797979  1
  Cr  Cr34  1  0.69195252  0.15531235  0.88797979  1
  Cr  Cr35  1  0.19195252  0.34468765  0.11202021  1
  N  N36  1  0.37760987  0.83194954  0.25937477  1
  N  N37  1  0.62239013  0.33194954  0.24062523  1
  N  N38  1  0.12239013  0.16805046  0.75937477  1
  N  N39  1  0.87760987  0.66805046  0.74062523  1
  N  N40  1  0.25937477  0.37760987  0.83194954  1
  N  N41  1  0.24062523  0.62239013  0.33194954  1
  N  N42  1  0.75937477  0.12239013  0.16805046  1
  N  N43  1  0.74062523  0.87760987  0.66805046  1
  N  N44  1  0.83194954  0.25937477  0.37760987  1
  N  N45  1  0.33194954  0.24062523  0.62239013  1
  N  N46  1  0.16805046  0.75937477  0.12239013  1
  N  N47  1  0.66805046  0.74062523  0.87760987  1
  N  N48  1  0.62239013  0.16805046  0.74062523  1
  N  N49  1  0.37760987  0.66805046  0.75937477  1
  N  N50  1  0.87760987  0.83194954  0.24062523  1
  N  N51  1  0.12239013  0.33194954  0.25937477  1
  N  N52  1  0.74062523  0.62239013  0.16805046  1
  N  N53  1  0.75937477  0.37760987  0.66805046  1
  N  N54  1  0.24062523  0.87760987  0.83194954  1
  N  N55  1  0.25937477  0.12239013  0.33194954  1
  N  N56  1  0.16805046  0.74062523  0.62239013  1
  N  N57  1  0.66805046  0.75937477  0.37760987  1
  N  N58  1  0.83194954  0.24062523  0.87760987  1
  N  N59  1  0.33194954  0.25937477  0.12239013  1
  N  N60  1  0.41423321  0.72535071  0.50242030  1
  N  N61  1  0.58576679  0.22535071  0.99757970  1
  N  N62  1  0.08576679  0.27464929  0.00242030  1
  N  N63  1  0.91423321  0.77464929  0.49757970  1
  N  N64  1  0.50242030  0.41423321  0.72535071  1
  N  N65  1  0.99757970  0.58576679  0.22535071  1
  N  N66  1  0.00242030  0.08576679  0.27464929  1
  N  N67  1  0.49757970  0.91423321  0.77464929  1
  N  N68  1  0.72535071  0.50242030  0.41423321  1
  N  N69  1  0.22535071  0.99757970  0.58576679  1
  N  N70  1  0.27464929  0.00242030  0.08576679  1
  N  N71  1  0.77464929  0.49757970  0.91423321  1
  N  N72  1  0.58576679  0.27464929  0.49757970  1
  N  N73  1  0.41423321  0.77464929  0.00242030  1
  N  N74  1  0.91423321  0.72535071  0.99757970  1
  N  N75  1  0.08576679  0.22535071  0.50242030  1
  N  N76  1  0.49757970  0.58576679  0.27464929  1
  N  N77  1  0.00242030  0.41423321  0.77464929  1
  N  N78  1  0.99757970  0.91423321  0.72535071  1
  N  N79  1  0.50242030  0.08576679  0.22535071  1
  N  N80  1  0.27464929  0.49757970  0.58576679  1
  N  N81  1  0.77464929  0.00242030  0.41423321  1
  N  N82  1  0.72535071  0.99757970  0.91423321  1
  N  N83  1  0.22535071  0.50242030  0.08576679  1
