# generated using pymatgen
data_Ce2B8O15
_symmetry_space_group_name_H-M   'P 1'
_cell_length_a   9.21382280
_cell_length_b   4.24397325
_cell_length_c   12.57220196
_cell_angle_alpha   90.00000000
_cell_angle_beta   116.52946734
_cell_angle_gamma   90.00000000
_symmetry_Int_Tables_number   1
_chemical_formula_structural   Ce2B8O15
_chemical_formula_sum   'Ce4 B16 O30'
_cell_volume   439.84898270
_cell_formula_units_Z   2
loop_
 _symmetry_equiv_pos_site_id
 _symmetry_equiv_pos_as_xyz
  1  'x, y, z'
loop_
 _atom_site_type_symbol
 _atom_site_label
 _atom_site_symmetry_multiplicity
 _atom_site_fract_x
 _atom_site_fract_y
 _atom_site_fract_z
 _atom_site_occupancy
  Ce  Ce0  1  0.14220591  0.73567057  0.94768712  1
  Ce  Ce1  1  0.85779409  0.73567057  0.55231288  1
  Ce  Ce2  1  0.85779409  0.26432943  0.05231288  1
  Ce  Ce3  1  0.14220591  0.26432943  0.44768712  1
  B  B4  1  0.10726318  0.78477746  0.20438287  1
  B  B5  1  0.89273682  0.78477746  0.29561713  1
  B  B6  1  0.89273682  0.21522254  0.79561713  1
  B  B7  1  0.10726318  0.21522254  0.70438287  1
  B  B8  1  0.28372147  0.26900650  0.23436486  1
  B  B9  1  0.71627853  0.26900650  0.26563514  1
  B  B10  1  0.71627853  0.73099350  0.76563514  1
  B  B11  1  0.28372147  0.73099350  0.73436486  1
  B  B12  1  0.59454660  0.78306742  0.12673273  1
  B  B13  1  0.40545340  0.78306742  0.37326727  1
  B  B14  1  0.40545340  0.21693258  0.87326727  1
  B  B15  1  0.59454660  0.21693258  0.62673273  1
  B  B16  1  0.41399818  0.29188155  0.08597013  1
  B  B17  1  0.58600182  0.29188155  0.41402987  1
  B  B18  1  0.58600182  0.70811845  0.91402987  1
  B  B19  1  0.41399818  0.70811845  0.58597013  1
  O  O20  1  0.02851219  0.74026473  0.07846184  1
  O  O21  1  0.97148781  0.74026473  0.42153816  1
  O  O22  1  0.97148781  0.25973527  0.92153816  1
  O  O23  1  0.02851219  0.25973527  0.57846184  1
  O  O24  1  0.14074491  0.12053862  0.23553378  1
  O  O25  1  0.85925509  0.12053862  0.26446622  1
  O  O26  1  0.85925509  0.87946138  0.76446622  1
  O  O27  1  0.14074491  0.87946138  0.73553378  1
  O  O28  1  0.27624278  0.38143183  0.76380084  1
  O  O29  1  0.72375722  0.38143183  0.73619916  1
  O  O30  1  0.72375722  0.61856817  0.23619916  1
  O  O31  1  0.27624278  0.61856817  0.26380084  1
  O  O32  1  0.28696564  0.22542377  0.12215730  1
  O  O33  1  0.71303436  0.22542377  0.37784270  1
  O  O34  1  0.71303436  0.77457623  0.87784270  1
  O  O35  1  0.28696564  0.77457623  0.62215730  1
  O  O36  1  0.33882581  0.18944750  0.95991720  1
  O  O37  1  0.66117419  0.18944750  0.54008280  1
  O  O38  1  0.66117419  0.81055250  0.04008280  1
  O  O39  1  0.33882581  0.81055250  0.45991720  1
  O  O40  1  0.57268877  0.12219914  0.16132180  1
  O  O41  1  0.42731123  0.12219914  0.33867820  1
  O  O42  1  0.42731123  0.87780086  0.83867820  1
  O  O43  1  0.57268877  0.87780086  0.66132180  1
  O  O44  1  0.44356503  0.62803541  0.09018208  1
  O  O45  1  0.55643497  0.62803541  0.40981792  1
  O  O46  1  0.55643497  0.37196459  0.90981792  1
  O  O47  1  0.44356503  0.37196459  0.59018208  1
  O  O48  1  -0.00000000  0.64908781  0.25000000  1
  O  O49  1  -0.00000000  0.35091219  0.75000000  1
