# generated using pymatgen
data_MgSiO3
_symmetry_space_group_name_H-M   'P 1'
_cell_length_a   18.80092414
_cell_length_b   8.99049213
_cell_length_c   5.19804542
_cell_angle_alpha   90.00027825
_cell_angle_beta   83.89327594
_cell_angle_gamma   90.00020607
_symmetry_Int_Tables_number   1
_chemical_formula_structural   MgSiO3
_chemical_formula_sum   'Mg16 Si16 O48'
_cell_volume   873.63755458
_cell_formula_units_Z   16
loop_
 _symmetry_equiv_pos_site_id
 _symmetry_equiv_pos_as_xyz
  1  'x, y, z'
loop_
 _atom_site_type_symbol
 _atom_site_label
 _atom_site_symmetry_multiplicity
 _atom_site_fract_x
 _atom_site_fract_y
 _atom_site_fract_z
 _atom_site_occupancy
  Mg  Mg0  1  0.00000020  0.59870122  0.74999900  1
  Mg  Mg1  1  0.99999980  0.40129878  0.25000100  1
  Mg  Mg2  1  0.99999890  0.76068204  0.25000037  1
  Mg  Mg3  1  0.00000110  0.23931796  0.74999963  1
  Mg  Mg4  1  0.25085954  0.09921045  0.60587943  1
  Mg  Mg5  1  0.74914014  0.09920527  0.89411793  1
  Mg  Mg6  1  0.74914046  0.90078955  0.39412057  1
  Mg  Mg7  1  0.25085986  0.90079473  0.10588207  1
  Mg  Mg8  1  0.25372589  0.73934059  0.60875595  1
  Mg  Mg9  1  0.74626985  0.73933840  0.89124500  1
  Mg  Mg10  1  0.74627411  0.26065941  0.39124405  1
  Mg  Mg11  1  0.25373015  0.26066160  0.10875500  1
  Mg  Mg12  1  0.50000083  0.40154477  0.24999928  1
  Mg  Mg13  1  0.49999917  0.59845523  0.75000072  1
  Mg  Mg14  1  0.50000093  0.76158383  0.25000305  1
  Mg  Mg15  1  0.49999907  0.23841617  0.74999695  1
  Si  Si16  1  0.89456497  0.09048566  0.49794805  1
  Si  Si17  1  0.10543637  0.09049259  0.00205563  1
  Si  Si18  1  0.10543503  0.90951434  0.50205195  1
  Si  Si19  1  0.89456363  0.90950741  0.99794437  1
  Si  Si20  1  0.85219825  0.59052810  0.46310900  1
  Si  Si21  1  0.14780091  0.59053459  0.03689305  1
  Si  Si22  1  0.14780175  0.40947190  0.53689100  1
  Si  Si23  1  0.85219909  0.40946541  0.96310695  1
  Si  Si24  1  0.39980930  0.08875435  0.21359734  1
  Si  Si25  1  0.60019169  0.08875414  0.28640310  1
  Si  Si26  1  0.60019070  0.91124565  0.78640266  1
  Si  Si27  1  0.39980831  0.91124586  0.71359690  1
  Si  Si28  1  0.35201507  0.41125895  0.64244216  1
  Si  Si29  1  0.64798524  0.41125483  0.85755580  1
  Si  Si30  1  0.64798493  0.58874105  0.35755784  1
  Si  Si31  1  0.35201476  0.58874517  0.14244420  1
  O  O32  1  0.80701252  0.09213438  0.53316550  1
  O  O33  1  0.19298886  0.09213960  0.96683409  1
  O  O34  1  0.19298748  0.90786562  0.46683450  1
  O  O35  1  0.80701114  0.90786040  0.03316591  1
  O  O36  1  0.93877629  0.24202868  0.45004456  1
  O  O37  1  0.06122601  0.24203414  0.04995592  1
  O  O38  1  0.06122371  0.75797132  0.54995544  1
  O  O39  1  0.93877399  0.75796586  0.95004408  1
  O  O40  1  0.92221248  0.96204899  0.28046352  1
  O  O41  1  0.07778742  0.96205583  0.21953530  1
  O  O42  1  0.07778752  0.03795101  0.71953648  1
  O  O43  1  0.92221258  0.03794417  0.78046470  1
  O  O44  1  0.93973346  0.59259999  0.43792222  1
  O  O45  1  0.06026563  0.59260398  0.06207778  1
  O  O46  1  0.06026654  0.40740001  0.56207778  1
  O  O47  1  0.93973437  0.40739602  0.93792222  1
  O  O48  1  0.81073275  0.74160127  0.55837676  1
  O  O49  1  0.18926534  0.74160919  0.94162769  1
  O  O50  1  0.18926725  0.25839873  0.44162324  1
  O  O51  1  0.81073466  0.25839081  0.05837231  1
  O  O52  1  0.82441113  0.46105479  0.68265568  1
  O  O53  1  0.17558966  0.46106439  0.81734109  1
  O  O54  1  0.17558887  0.53894521  0.31734432  1
  O  O55  1  0.82441034  0.53893561  0.18265891  1
  O  O56  1  0.31220755  0.09105592  0.24941709  1
  O  O57  1  0.68779329  0.09105435  0.25058265  1
  O  O58  1  0.68779245  0.90894408  0.75058291  1
  O  O59  1  0.31220671  0.90894565  0.74941735  1
  O  O60  1  0.44022903  0.23548021  0.09563254  1
  O  O61  1  0.55977193  0.23547940  0.40436726  1
  O  O62  1  0.55977097  0.76451979  0.90436746  1
  O  O63  1  0.44022807  0.76452060  0.59563274  1
  O  O64  1  0.42594165  0.05026092  0.50668154  1
  O  O65  1  0.57405800  0.05025978  0.99332081  1
  O  O66  1  0.57405835  0.94973908  0.49331846  1
  O  O67  1  0.42594200  0.94974022  0.00667919  1
  O  O68  1  0.43985672  0.40860682  0.60845526  1
  O  O69  1  0.56014368  0.40860432  0.89154274  1
  O  O70  1  0.56014328  0.59139318  0.39154474  1
  O  O71  1  0.43985632  0.59139568  0.10845726  1
  O  O72  1  0.31091956  0.26533868  0.75961948  1
  O  O73  1  0.68908169  0.26533565  0.74037654  1
  O  O74  1  0.68908044  0.73466132  0.24038052  1
  O  O75  1  0.31091831  0.73466435  0.25962346  1
  O  O76  1  0.32610780  0.44918928  0.34877629  1
  O  O77  1  0.67389206  0.44918723  0.15122228  1
  O  O78  1  0.67389220  0.55081072  0.65122371  1
  O  O79  1  0.32610794  0.55081377  0.84877772  1
