# generated using pymatgen
data_LiMg14AlO16
_symmetry_space_group_name_H-M   'P 1'
_cell_length_a   8.46575560
_cell_length_b   8.48997111
_cell_length_c   4.23090108
_cell_angle_alpha   90.00000000
_cell_angle_beta   90.00000000
_cell_angle_gamma   90.00000000
_symmetry_Int_Tables_number   1
_chemical_formula_structural   LiMg14AlO16
_chemical_formula_sum   'Li1 Mg14 Al1 O16'
_cell_volume   304.09187082
_cell_formula_units_Z   1
loop_
 _symmetry_equiv_pos_site_id
 _symmetry_equiv_pos_as_xyz
  1  'x, y, z'
loop_
 _atom_site_type_symbol
 _atom_site_label
 _atom_site_symmetry_multiplicity
 _atom_site_fract_x
 _atom_site_fract_y
 _atom_site_fract_z
 _atom_site_occupancy
  Li  Li0  1  -0.00000000  0.50000000  -0.00000000  1
  Mg  Mg1  1  0.50000000  -0.00000000  -0.00000000  1
  Mg  Mg2  1  0.50000000  0.50000000  -0.00000000  1
  Mg  Mg3  1  -0.00000000  0.25755389  0.50000000  1
  Mg  Mg4  1  -0.00000000  0.74244611  0.50000000  1
  Mg  Mg5  1  0.50000000  0.25246451  0.50000000  1
  Mg  Mg6  1  0.50000000  0.74753549  0.50000000  1
  Mg  Mg7  1  0.24974674  -0.00000000  0.50000000  1
  Mg  Mg8  1  0.24451059  0.50000000  0.50000000  1
  Mg  Mg9  1  0.75025326  -0.00000000  0.50000000  1
  Mg  Mg10  1  0.75548941  0.50000000  0.50000000  1
  Mg  Mg11  1  0.24782240  0.25554955  0.00000000  1
  Mg  Mg12  1  0.24782240  0.74445045  0.00000000  1
  Mg  Mg13  1  0.75217760  0.25554955  -0.00000000  1
  Mg  Mg14  1  0.75217760  0.74445045  -0.00000000  1
  Al  Al15  1  -0.00000000  -0.00000000  -0.00000000  1
  O  O16  1  0.23477690  -0.00000000  -0.00000000  1
  O  O17  1  0.25443910  0.50000000  -0.00000000  1
  O  O18  1  0.76522310  -0.00000000  0.00000000  1
  O  O19  1  0.74556090  0.50000000  0.00000000  1
  O  O20  1  0.24954701  0.24844520  0.50000000  1
  O  O21  1  0.24954701  0.75155480  0.50000000  1
  O  O22  1  0.75045299  0.24844520  0.50000000  1
  O  O23  1  0.75045299  0.75155480  0.50000000  1
  O  O24  1  -0.00000000  -0.00000000  0.50000000  1
  O  O25  1  -0.00000000  0.50000000  0.50000000  1
  O  O26  1  0.50000000  -0.00000000  0.50000000  1
  O  O27  1  0.50000000  0.50000000  0.50000000  1
  O  O28  1  -0.00000000  0.22224950  -0.00000000  1
  O  O29  1  -0.00000000  0.77775050  -0.00000000  1
  O  O30  1  0.50000000  0.24498881  0.00000000  1
  O  O31  1  0.50000000  0.75501119  -0.00000000  1
