# generated using pymatgen
data_MgCoP2O7
_symmetry_space_group_name_H-M   'P 1'
_cell_length_a   5.65697689
_cell_length_b   6.36011422
_cell_length_c   7.36579139
_cell_angle_alpha   83.56934772
_cell_angle_beta   87.27849298
_cell_angle_gamma   71.74384557
_symmetry_Int_Tables_number   1
_chemical_formula_structural   MgCoP2O7
_chemical_formula_sum   'Mg2 Co2 P4 O14'
_cell_volume   250.06952498
_cell_formula_units_Z   2
loop_
 _symmetry_equiv_pos_site_id
 _symmetry_equiv_pos_as_xyz
  1  'x, y, z'
loop_
 _atom_site_type_symbol
 _atom_site_label
 _atom_site_symmetry_multiplicity
 _atom_site_fract_x
 _atom_site_fract_y
 _atom_site_fract_z
 _atom_site_occupancy
  Mg  Mg0  1  0.33583920  0.66130419  0.65824503  1
  Mg  Mg1  1  0.66391388  0.33874532  0.34178671  1
  Co  Co2  1  0.24471073  0.15831692  0.21218577  1
  Co  Co3  1  0.75420544  0.84232877  0.78725924  1
  P  P4  1  0.18612889  0.67743918  0.09940373  1
  P  P5  1  0.81409687  0.32247906  0.90053284  1
  P  P6  1  0.22750716  0.20484137  0.61151782  1
  P  P7  1  0.77261242  0.79516555  0.38844631  1
  O  O8  1  0.11286367  0.69684073  0.89908255  1
  O  O9  1  0.88724587  0.30296686  0.10097375  1
  O  O10  1  0.29144794  0.85536535  0.14558885  1
  O  O11  1  0.70856873  0.14453045  0.85456237  1
  O  O12  1  0.35313492  0.43867905  0.16464479  1
  O  O13  1  0.64727499  0.56131929  0.83544294  1
  O  O14  1  0.61636583  0.63933858  0.43696415  1
  O  O15  1  0.38375848  0.36064927  0.56309172  1
  O  O16  1  0.04980108  0.21589926  0.45399591  1
  O  O17  1  0.95040438  0.78389462  0.54609871  1
  O  O18  1  0.07100919  0.29926974  0.78726062  1
  O  O19  1  0.61878916  0.03540828  0.32799634  1
  O  O20  1  0.38119845  0.96458872  0.67212535  1
  O  O21  1  0.92912771  0.70062841  0.21279550  1
