# generated using pymatgen
data_Mg2Ta2NiO8
_symmetry_space_group_name_H-M   'P 1'
_cell_length_a   5.19330746
_cell_length_b   5.98193207
_cell_length_c   9.95640489
_cell_angle_alpha   107.47358728
_cell_angle_beta   90.30677936
_cell_angle_gamma   90.00523838
_symmetry_Int_Tables_number   1
_chemical_formula_structural   Mg2Ta2NiO8
_chemical_formula_sum   'Mg4 Ta4 Ni2 O16'
_cell_volume   295.02833054
_cell_formula_units_Z   2
loop_
 _symmetry_equiv_pos_site_id
 _symmetry_equiv_pos_as_xyz
  1  'x, y, z'
loop_
 _atom_site_type_symbol
 _atom_site_label
 _atom_site_symmetry_multiplicity
 _atom_site_fract_x
 _atom_site_fract_y
 _atom_site_fract_z
 _atom_site_occupancy
  Mg  Mg0  1  0.75508967  0.41599439  0.54493092  1
  Mg  Mg1  1  0.74579558  0.87028141  0.45327609  1
  Mg  Mg2  1  0.24583257  0.58351484  0.45326551  1
  Mg  Mg3  1  0.25511671  0.12930202  0.54508290  1
  Ta  Ta4  1  0.74299728  0.27957733  0.22917213  1
  Ta  Ta5  1  0.75765162  0.04907512  0.76912227  1
  Ta  Ta6  1  0.25762483  0.72021241  0.76901246  1
  Ta  Ta7  1  0.24300918  0.95062513  0.22923588  1
  Ni  Ni8  1  0.75029666  0.64105491  0.99907059  1
  Ni  Ni9  1  0.25025780  0.35889722  0.99923711  1
  O  O10  1  0.07940678  0.18376473  0.13988039  1
  O  O11  1  0.42128329  0.04260251  0.85845891  1
  O  O12  1  0.92112997  0.81577781  0.85835838  1
  O  O13  1  0.57932932  0.95724296  0.13979911  1
  O  O14  1  0.58624418  0.43333937  0.11457483  1
  O  O15  1  0.91429533  0.31731459  0.88387619  1
  O  O16  1  0.41427267  0.56662594  0.88374675  1
  O  O17  1  0.08623104  0.68242887  0.11449552  1
  O  O18  1  0.45571971  0.28908685  0.37061359  1
  O  O19  1  0.04528841  0.91739415  0.62778490  1
  O  O20  1  0.38021804  0.83696359  0.38115599  1
  O  O21  1  0.12060764  0.45467792  0.61706162  1
  O  O22  1  0.62072224  0.16262564  0.61710295  1
  O  O23  1  0.88028902  0.54493678  0.38117213  1
  O  O24  1  0.95566303  0.08229901  0.37064703  1
  O  O25  1  0.54513844  0.71055349  0.62763383  1
