# generated using pymatgen
data_Ti2Zn(PO4)3
_symmetry_space_group_name_H-M   'P 1'
_cell_length_a   8.56747521
_cell_length_b   8.56747502
_cell_length_c   8.56747524
_cell_angle_alpha   60.84559654
_cell_angle_beta   60.84559750
_cell_angle_gamma   60.84559749
_symmetry_Int_Tables_number   1
_chemical_formula_structural   Ti2Zn(PO4)3
_chemical_formula_sum   'Ti4 Zn2 P6 O24'
_cell_volume   453.15440624
_cell_formula_units_Z   2
loop_
 _symmetry_equiv_pos_site_id
 _symmetry_equiv_pos_as_xyz
  1  'x, y, z'
loop_
 _atom_site_type_symbol
 _atom_site_label
 _atom_site_symmetry_multiplicity
 _atom_site_fract_x
 _atom_site_fract_y
 _atom_site_fract_z
 _atom_site_occupancy
  Ti  Ti0  1  0.35488017  0.35488017  0.35488017  1
  Ti  Ti1  1  0.85488017  0.85488017  0.85488017  1
  Ti  Ti2  1  0.14519041  0.14519041  0.14519041  1
  Ti  Ti3  1  0.64519041  0.64519041  0.64519041  1
  Zn  Zn4  1  0.00000697  0.00000697  0.00000697  1
  Zn  Zn5  1  0.50000697  0.50000697  0.50000697  1
  P  P6  1  0.04543137  0.45444387  0.75012763  1
  P  P7  1  0.45444387  0.75012763  0.04543137  1
  P  P8  1  0.75012763  0.04543137  0.45444387  1
  P  P9  1  0.25012763  0.95444387  0.54543137  1
  P  P10  1  0.54543137  0.25012763  0.95444387  1
  P  P11  1  0.95444387  0.54543137  0.25012763  1
  O  O12  1  0.11488757  0.50150598  0.31442618  1
  O  O13  1  0.31442618  0.11488757  0.50150598  1
  O  O14  1  0.05851176  0.26025454  0.91219125  1
  O  O15  1  0.50150598  0.31442618  0.11488757  1
  O  O16  1  0.00150598  0.61488757  0.81442618  1
  O  O17  1  0.24023695  0.44006909  0.58889845  1
  O  O18  1  0.26025454  0.91219125  0.05851176  1
  O  O19  1  0.44006909  0.58889845  0.24023695  1
  O  O20  1  0.18507665  0.99833386  0.38552629  1
  O  O21  1  0.58889845  0.24023695  0.44006909  1
  O  O22  1  0.08889845  0.94006909  0.74023695  1
  O  O23  1  0.38552629  0.18507665  0.99833386  1
  O  O24  1  0.61488757  0.81442618  0.00150598  1
  O  O25  1  0.91219125  0.05851176  0.26025454  1
  O  O26  1  0.41219125  0.76025454  0.55851176  1
  O  O27  1  0.81442618  0.00150598  0.61488757  1
  O  O28  1  0.55851176  0.41219125  0.76025454  1
  O  O29  1  0.74023695  0.08889845  0.94006909  1
  O  O30  1  0.76025454  0.55851176  0.41219125  1
  O  O31  1  0.99833386  0.38552629  0.18507665  1
  O  O32  1  0.49833386  0.68507665  0.88552629  1
  O  O33  1  0.94006909  0.74023695  0.08889845  1
  O  O34  1  0.68507665  0.88552629  0.49833386  1
  O  O35  1  0.88552629  0.49833386  0.68507665  1
