# generated using pymatgen
data_CaLaFeSnO6
_symmetry_space_group_name_H-M   'P 1'
_cell_length_a   5.71182012
_cell_length_b   5.61802255
_cell_length_c   8.00045599
_cell_angle_alpha   89.76471992
_cell_angle_beta   90.00000000
_cell_angle_gamma   90.00000000
_symmetry_Int_Tables_number   1
_chemical_formula_structural   CaLaFeSnO6
_chemical_formula_sum   'Ca2 La2 Fe2 Sn2 O12'
_cell_volume   256.72554164
_cell_formula_units_Z   2
loop_
 _symmetry_equiv_pos_site_id
 _symmetry_equiv_pos_as_xyz
  1  'x, y, z'
loop_
 _atom_site_type_symbol
 _atom_site_label
 _atom_site_symmetry_multiplicity
 _atom_site_fract_x
 _atom_site_fract_y
 _atom_site_fract_z
 _atom_site_occupancy
  Ca  Ca0  1  0.54514558  0.51414776  0.25055437  1
  Ca  Ca1  1  0.95485442  0.01414776  0.75055437  1
  La  La2  1  0.03931229  0.98844220  0.24974788  1
  La  La3  1  0.46068771  0.48844220  0.74974788  1
  Fe  Fe4  1  0.50061362  0.99955425  0.00106595  1
  Fe  Fe5  1  0.99938638  0.49955425  0.50106595  1
  Sn  Sn6  1  0.50023104  0.99957588  0.49887750  1
  Sn  Sn7  1  0.99976896  0.49957588  0.99887750  1
  O  O8  1  0.02812807  0.59965569  0.74723058  1
  O  O9  1  0.21185624  0.20450961  0.94733820  1
  O  O10  1  0.20619345  0.21003462  0.55255357  1
  O  O11  1  0.29380655  0.71003462  0.05255357  1
  O  O12  1  0.28814376  0.70450961  0.44733820  1
  O  O13  1  0.47187193  0.09965569  0.24722958  1
  O  O14  1  0.53137222  0.90689215  0.75254388  1
  O  O15  1  0.71482011  0.29150620  0.55097791  1
  O  O16  1  0.70953356  0.28567965  0.94910917  1
  O  O17  1  0.79046644  0.78567965  0.44910917  1
  O  O18  1  0.78517989  0.79150620  0.05097791  1
  O  O19  1  0.96862778  0.40689215  0.25254388  1
