# generated using pymatgen
data_ZnCo(GeO3)2
_symmetry_space_group_name_H-M   'P 1'
_cell_length_a   5.39734569
_cell_length_b   6.88776934
_cell_length_c   6.88776908
_cell_angle_alpha   85.21906022
_cell_angle_beta   76.83427417
_cell_angle_gamma   76.83427307
_symmetry_Int_Tables_number   1
_chemical_formula_structural   ZnCo(GeO3)2
_chemical_formula_sum   'Zn2 Co2 Ge4 O12'
_cell_volume   242.63982669
_cell_formula_units_Z   2
loop_
 _symmetry_equiv_pos_site_id
 _symmetry_equiv_pos_as_xyz
  1  'x, y, z'
loop_
 _atom_site_type_symbol
 _atom_site_label
 _atom_site_symmetry_multiplicity
 _atom_site_fract_x
 _atom_site_fract_y
 _atom_site_fract_z
 _atom_site_occupancy
  Zn  Zn0  1  0.75000000  0.24471974  0.75528026  1
  Zn  Zn1  1  0.25000000  0.75528026  0.24471974  1
  Co  Co2  1  0.75000000  0.90210313  0.09789687  1
  Co  Co3  1  0.25000000  0.09789687  0.90210313  1
  Ge  Ge4  1  0.75514867  0.38957413  0.20997218  1
  Ge  Ge5  1  0.74485133  0.79002782  0.61042587  1
  Ge  Ge6  1  0.24485133  0.61042587  0.79002782  1
  Ge  Ge7  1  0.25514867  0.20997218  0.38957413  1
  O  O8  1  0.53004922  0.30294026  0.41346789  1
  O  O9  1  0.96995078  0.58653211  0.69705974  1
  O  O10  1  0.46995078  0.69705974  0.58653211  1
  O  O11  1  0.03004922  0.41346789  0.30294026  1
  O  O12  1  0.11199055  0.13386772  0.62955978  1
  O  O13  1  0.38800945  0.37044022  0.86613228  1
  O  O14  1  0.88800945  0.86613228  0.37044022  1
  O  O15  1  0.61199055  0.62955978  0.13386772  1
  O  O16  1  0.86484059  0.20136528  0.02919052  1
  O  O17  1  0.63515941  0.97080948  0.79863472  1
  O  O18  1  0.13515941  0.79863472  0.97080948  1
  O  O19  1  0.36484059  0.02919052  0.20136528  1
