# generated using pymatgen
data_Cu3(MoO3)4
_symmetry_space_group_name_H-M   'P 1'
_cell_length_a   6.55941547
_cell_length_b   6.57547877
_cell_length_c   6.57972631
_cell_angle_alpha   109.55034619
_cell_angle_beta   109.49788522
_cell_angle_gamma   109.41174667
_symmetry_Int_Tables_number   1
_chemical_formula_structural   Cu3(MoO3)4
_chemical_formula_sum   'Cu3 Mo4 O12'
_cell_volume   218.33807609
_cell_formula_units_Z   1
loop_
 _symmetry_equiv_pos_site_id
 _symmetry_equiv_pos_as_xyz
  1  'x, y, z'
loop_
 _atom_site_type_symbol
 _atom_site_label
 _atom_site_symmetry_multiplicity
 _atom_site_fract_x
 _atom_site_fract_y
 _atom_site_fract_z
 _atom_site_occupancy
  Cu  Cu0  1  0.49999909  0.50000004  0.00000225  1
  Cu  Cu1  1  0.00000156  0.50000100  0.49999803  1
  Cu  Cu2  1  0.50000031  0.99999838  0.49999814  1
  Mo  Mo3  1  0.00000059  0.00000002  0.50000035  1
  Mo  Mo4  1  0.99999942  0.49999994  0.99999917  1
  Mo  Mo5  1  0.50000035  0.49999965  0.50000073  1
  Mo  Mo6  1  0.50000019  0.00000012  0.99999957  1
  O  O7  1  0.81410145  0.30771181  0.13247594  1
  O  O8  1  0.18589936  0.69228825  0.86752248  1
  O  O9  1  0.82222537  0.69136441  0.50761245  1
  O  O10  1  0.32003898  0.49260790  0.18561275  1
  O  O11  1  0.49206863  0.18830285  0.32092463  1
  O  O12  1  0.13047291  0.81584011  0.30800459  1
  O  O13  1  0.69646024  0.86959599  0.18916444  1
  O  O14  1  0.50793197  0.81169746  0.67907436  1
  O  O15  1  0.17777560  0.30863582  0.49238739  1
  O  O16  1  0.67995818  0.50739176  0.81438942  1
  O  O17  1  0.86952730  0.18416060  0.69199516  1
  O  O18  1  0.30353851  0.13040588  0.81083815  1
