# generated using pymatgen
data_CeMg
_symmetry_space_group_name_H-M   'P 1'
_cell_length_a   12.78909591
_cell_length_b   3.39761915
_cell_length_c   5.95061318
_cell_angle_alpha   90.00000000
_cell_angle_beta   126.30633344
_cell_angle_gamma   90.00000000
_symmetry_Int_Tables_number   1
_chemical_formula_structural   CeMg
_chemical_formula_sum   'Ce4 Mg4'
_cell_volume   208.37105372
_cell_formula_units_Z   4
loop_
 _symmetry_equiv_pos_site_id
 _symmetry_equiv_pos_as_xyz
  1  'x, y, z'
loop_
 _atom_site_type_symbol
 _atom_site_label
 _atom_site_symmetry_multiplicity
 _atom_site_fract_x
 _atom_site_fract_y
 _atom_site_fract_z
 _atom_site_occupancy
  Ce  Ce0  1  0.64344079  0.50000000  0.84092946  1
  Ce  Ce1  1  0.85655921  -0.00000000  0.15907054  1
  Ce  Ce2  1  0.14344079  0.00000000  0.84092946  1
  Ce  Ce3  1  0.35655921  0.50000000  0.15907054  1
  Mg  Mg4  1  0.87275581  0.50000000  0.68531227  1
  Mg  Mg5  1  0.62724419  -0.00000000  0.31468773  1
  Mg  Mg6  1  0.37275581  0.00000000  0.68531227  1
  Mg  Mg7  1  0.12724419  0.50000000  0.31468773  1
