# generated using pymatgen
data_CaTiV(PO4)3
_symmetry_space_group_name_H-M   'P 1'
_cell_length_a   8.87059218
_cell_length_b   8.87059170
_cell_length_c   8.87059181
_cell_angle_alpha   58.46359993
_cell_angle_beta   58.46360373
_cell_angle_gamma   58.46360450
_symmetry_Int_Tables_number   1
_chemical_formula_structural   CaTiV(PO4)3
_chemical_formula_sum   'Ca2 Ti2 V2 P6 O24'
_cell_volume   476.21271993
_cell_formula_units_Z   2
loop_
 _symmetry_equiv_pos_site_id
 _symmetry_equiv_pos_as_xyz
  1  'x, y, z'
loop_
 _atom_site_type_symbol
 _atom_site_label
 _atom_site_symmetry_multiplicity
 _atom_site_fract_x
 _atom_site_fract_y
 _atom_site_fract_z
 _atom_site_occupancy
  Ca  Ca0  1  0.99832384  0.99832384  0.99832384  1
  Ca  Ca1  1  0.49832384  0.49832384  0.49832384  1
  Ti  Ti2  1  0.14737508  0.14737508  0.14737508  1
  Ti  Ti3  1  0.64737508  0.64737508  0.64737508  1
  V  V4  1  0.35441324  0.35441324  0.35441324  1
  V  V5  1  0.85441324  0.85441324  0.85441324  1
  P  P6  1  0.04032938  0.45957171  0.75195089  1
  P  P7  1  0.45957171  0.75195089  0.04032938  1
  P  P8  1  0.75195089  0.04032938  0.45957171  1
  P  P9  1  0.25195089  0.95957171  0.54032938  1
  P  P10  1  0.54032938  0.25195089  0.95957171  1
  P  P11  1  0.95957171  0.54032938  0.25195089  1
  O  O12  1  0.11999522  0.50851692  0.29613516  1
  O  O13  1  0.29613516  0.11999522  0.50851692  1
  O  O14  1  0.05613625  0.27166094  0.92237249  1
  O  O15  1  0.50851692  0.29613516  0.11999522  1
  O  O16  1  0.00851692  0.61999522  0.79613516  1
  O  O17  1  0.22636620  0.43512867  0.58452219  1
  O  O18  1  0.27166094  0.92237249  0.05613625  1
  O  O19  1  0.43512867  0.58452219  0.22636620  1
  O  O20  1  0.20603283  0.99883336  0.37233364  1
  O  O21  1  0.58452219  0.22636620  0.43512867  1
  O  O22  1  0.08452219  0.93512867  0.72636620  1
  O  O23  1  0.37233364  0.20603283  0.99883336  1
  O  O24  1  0.61999522  0.79613516  0.00851692  1
  O  O25  1  0.92237249  0.05613625  0.27166094  1
  O  O26  1  0.42237249  0.77166094  0.55613625  1
  O  O27  1  0.79613516  0.00851692  0.61999522  1
  O  O28  1  0.55613625  0.42237249  0.77166094  1
  O  O29  1  0.72636620  0.08452219  0.93512867  1
  O  O30  1  0.77166094  0.55613625  0.42237249  1
  O  O31  1  0.99883336  0.37233364  0.20603283  1
  O  O32  1  0.49883336  0.70603283  0.87233364  1
  O  O33  1  0.93512867  0.72636620  0.08452219  1
  O  O34  1  0.70603283  0.87233364  0.49883336  1
  O  O35  1  0.87233364  0.49883336  0.70603283  1
