# generated using pymatgen
data_SrMgMn(PO4)2
_symmetry_space_group_name_H-M   'P 1'
_cell_length_a   5.56536820
_cell_length_b   7.00574778
_cell_length_c   9.53612460
_cell_angle_alpha   110.95375781
_cell_angle_beta   101.53567554
_cell_angle_gamma   97.82172123
_symmetry_Int_Tables_number   1
_chemical_formula_structural   SrMgMn(PO4)2
_chemical_formula_sum   'Sr2 Mg2 Mn2 P4 O16'
_cell_volume   331.33509293
_cell_formula_units_Z   2
loop_
 _symmetry_equiv_pos_site_id
 _symmetry_equiv_pos_as_xyz
  1  'x, y, z'
loop_
 _atom_site_type_symbol
 _atom_site_label
 _atom_site_symmetry_multiplicity
 _atom_site_fract_x
 _atom_site_fract_y
 _atom_site_fract_z
 _atom_site_occupancy
  Sr  Sr0  1  0.24916943  0.80238893  0.04898514  1
  Sr  Sr1  1  0.75083057  0.19761107  0.95101486  1
  Mg  Mg2  1  0.99171948  0.38189217  0.65205373  1
  Mg  Mg3  1  0.00828052  0.61810783  0.34794627  1
  Mn  Mn4  1  0.63052448  0.83800295  0.55890649  1
  Mn  Mn5  1  0.36947552  0.16199705  0.44109351  1
  P  P6  1  0.38925703  0.42117219  0.22942337  1
  P  P7  1  0.61074297  0.57882781  0.77057663  1
  P  P8  1  0.84012502  0.02256296  0.30110060  1
  P  P9  1  0.15987498  0.97743704  0.69889940  1
  O  O10  1  0.81753627  0.54888506  0.89146380  1
  O  O11  1  0.65863812  0.47436611  0.21148495  1
  O  O12  1  0.66844957  0.80294784  0.77590551  1
  O  O13  1  0.96174946  0.11864962  0.69571142  1
  O  O14  1  0.34136188  0.52563389  0.78851505  1
  O  O15  1  0.01063217  0.75107680  0.57654318  1
  O  O16  1  0.98936783  0.24892320  0.42345682  1
  O  O17  1  0.25508038  0.99326630  0.86456768  1
  O  O18  1  0.33155043  0.19705216  0.22409449  1
  O  O19  1  0.74491962  0.00673370  0.13543232  1
  O  O20  1  0.18246373  0.45111494  0.10853620  1
  O  O21  1  0.36412988  0.57737987  0.39044781  1
  O  O22  1  0.63587012  0.42262013  0.60955219  1
  O  O23  1  0.61609029  0.94838978  0.35998950  1
  O  O24  1  0.03825054  0.88135038  0.30428858  1
  O  O25  1  0.38390971  0.05161022  0.64001050  1
