# generated using pymatgen
data_BaZnWF7
_symmetry_space_group_name_H-M   'P 1'
_cell_length_a   5.82437243
_cell_length_b   9.99559677
_cell_length_c   10.32691067
_cell_angle_alpha   90.00000000
_cell_angle_beta   90.00000000
_cell_angle_gamma   92.56323391
_symmetry_Int_Tables_number   1
_chemical_formula_structural   BaZnWF7
_chemical_formula_sum   'Ba4 Zn4 W4 F28'
_cell_volume   600.61136398
_cell_formula_units_Z   4
loop_
 _symmetry_equiv_pos_site_id
 _symmetry_equiv_pos_as_xyz
  1  'x, y, z'
loop_
 _atom_site_type_symbol
 _atom_site_label
 _atom_site_symmetry_multiplicity
 _atom_site_fract_x
 _atom_site_fract_y
 _atom_site_fract_z
 _atom_site_occupancy
  Ba  Ba0  1  0.26446167  0.49621892  0.32688117  1
  Ba  Ba1  1  0.73553833  0.00378108  0.82688117  1
  Ba  Ba2  1  0.73553833  0.50378108  0.67311883  1
  Ba  Ba3  1  0.26446167  0.99621892  0.17311883  1
  Zn  Zn4  1  0.68781143  0.81075904  0.39667338  1
  Zn  Zn5  1  0.31218857  0.68924096  0.89667338  1
  Zn  Zn6  1  0.68781143  0.31075904  0.10332662  1
  Zn  Zn7  1  0.31218857  0.18924096  0.60332662  1
  W  W8  1  0.19521415  0.81611082  0.61159510  1
  W  W9  1  0.80478585  0.18388918  0.38840490  1
  W  W10  1  0.19521415  0.31611082  0.88840490  1
  W  W11  1  0.80478585  0.68388918  0.11159510  1
  F  F12  1  0.12966063  0.12039825  0.44973731  1
  F  F13  1  0.36879315  0.37654522  0.06037979  1
  F  F14  1  0.49083989  0.75215685  0.71170419  1
  F  F15  1  0.50916011  0.24784315  0.28829581  1
  F  F16  1  0.89860799  0.37474413  0.46025698  1
  F  F17  1  0.26406880  0.50776478  0.80173970  1
  F  F18  1  0.02665678  0.75096869  0.78483078  1
  F  F19  1  0.10139201  0.12525587  0.96025698  1
  F  F20  1  0.36879315  0.87654522  0.43962021  1
  F  F21  1  0.50916011  0.74784315  0.21170419  1
  F  F22  1  0.12966063  0.62039825  0.05026269  1
  F  F23  1  0.87033937  0.87960175  0.55026269  1
  F  F24  1  0.97334322  0.74903131  0.28483078  1
  F  F25  1  0.39939134  0.87048009  0.95778365  1
  F  F26  1  0.10139201  0.62525587  0.53974302  1
  F  F27  1  0.89860799  0.87474413  0.03974302  1
  F  F28  1  0.97334322  0.24903131  0.21516922  1
  F  F29  1  0.87033937  0.37960175  0.94973731  1
  F  F30  1  0.60060866  0.62951991  0.45778365  1
  F  F31  1  0.63120685  0.62345478  0.93962021  1
  F  F32  1  0.60060866  0.12951991  0.04221635  1
  F  F33  1  0.02665678  0.25096869  0.71516922  1
  F  F34  1  0.39939134  0.37048009  0.54221635  1
  F  F35  1  0.73593120  0.99223522  0.30173970  1
  F  F36  1  0.73593120  0.49223522  0.19826030  1
  F  F37  1  0.26406880  0.00776478  0.69826030  1
  F  F38  1  0.63120685  0.12345478  0.56037979  1
  F  F39  1  0.49083989  0.25215685  0.78829581  1
