# generated using pymatgen
data_SrMgCr(PO4)2
_symmetry_space_group_name_H-M   'P 1'
_cell_length_a   5.65949078
_cell_length_b   6.84778275
_cell_length_c   9.37502107
_cell_angle_alpha   109.69987829
_cell_angle_beta   102.23009588
_cell_angle_gamma   98.62017766
_symmetry_Int_Tables_number   1
_chemical_formula_structural   SrMgCr(PO4)2
_chemical_formula_sum   'Sr2 Mg2 Cr2 P4 O16'
_cell_volume   324.48753041
_cell_formula_units_Z   2
loop_
 _symmetry_equiv_pos_site_id
 _symmetry_equiv_pos_as_xyz
  1  'x, y, z'
loop_
 _atom_site_type_symbol
 _atom_site_label
 _atom_site_symmetry_multiplicity
 _atom_site_fract_x
 _atom_site_fract_y
 _atom_site_fract_z
 _atom_site_occupancy
  Sr  Sr0  1  0.25713093  0.80246169  0.05456911  1
  Sr  Sr1  1  0.74286907  0.19753831  0.94543089  1
  Mg  Mg2  1  0.99272787  0.39199827  0.64843485  1
  Mg  Mg3  1  0.00727213  0.60800173  0.35156515  1
  Cr  Cr4  1  0.64096798  0.84355681  0.54846206  1
  Cr  Cr5  1  0.35903202  0.15644319  0.45153794  1
  P  P6  1  0.39082039  0.42344232  0.23518504  1
  P  P7  1  0.60917961  0.57655768  0.76481496  1
  P  P8  1  0.83770004  0.02281752  0.29825598  1
  P  P9  1  0.16229996  0.97718248  0.70174402  1
  O  O10  1  0.82054111  0.55524712  0.88996162  1
  O  O11  1  0.65330059  0.47770758  0.21276356  1
  O  O12  1  0.66152920  0.80229657  0.76016485  1
  O  O13  1  0.95324542  0.10788289  0.68779055  1
  O  O14  1  0.34669941  0.52229242  0.78723644  1
  O  O15  1  0.03603991  0.74089727  0.58572784  1
  O  O16  1  0.96396009  0.25910273  0.41427216  1
  O  O17  1  0.26169867  0.00214429  0.87277638  1
  O  O18  1  0.33847080  0.19770343  0.23983515  1
  O  O19  1  0.73830133  0.99785571  0.12722362  1
  O  O20  1  0.17945889  0.44475288  0.11003838  1
  O  O21  1  0.36683772  0.58407174  0.39524180  1
  O  O22  1  0.63316228  0.41592826  0.60475820  1
  O  O23  1  0.62135412  0.92892950  0.35319860  1
  O  O24  1  0.04675458  0.89211711  0.31220945  1
  O  O25  1  0.37864588  0.07107050  0.64680140  1
