# generated using pymatgen
data_YbHg2
_symmetry_space_group_name_H-M   'P 1'
_cell_length_a   3.56519972
_cell_length_b   4.96763381
_cell_length_c   4.96866547
_cell_angle_alpha   120.00686286
_cell_angle_beta   89.99999997
_cell_angle_gamma   89.98231915
_symmetry_Int_Tables_number   1
_chemical_formula_structural   YbHg2
_chemical_formula_sum   'Yb1 Hg2'
_cell_volume   76.20329694
_cell_formula_units_Z   1
loop_
 _symmetry_equiv_pos_site_id
 _symmetry_equiv_pos_as_xyz
  1  'x, y, z'
loop_
 _atom_site_type_symbol
 _atom_site_label
 _atom_site_symmetry_multiplicity
 _atom_site_fract_x
 _atom_site_fract_y
 _atom_site_fract_z
 _atom_site_occupancy
  Yb  Yb0  1  -0.00000000  0.00000000  0.00000000  1
  Hg  Hg1  1  0.48526132  0.33339490  0.66669745  1
  Hg  Hg2  1  0.51473868  0.66660510  0.33330255  1
