# generated using pymatgen
data_K2PdO4
_symmetry_space_group_name_H-M   'P 1'
_cell_length_a   5.37679446
_cell_length_b   6.92791109
_cell_length_c   7.29594401
_cell_angle_alpha   90.00000000
_cell_angle_beta   107.23055026
_cell_angle_gamma   90.00000000
_symmetry_Int_Tables_number   1
_chemical_formula_structural   K2PdO4
_chemical_formula_sum   'K4 Pd2 O8'
_cell_volume   259.57653108
_cell_formula_units_Z   2
loop_
 _symmetry_equiv_pos_site_id
 _symmetry_equiv_pos_as_xyz
  1  'x, y, z'
loop_
 _atom_site_type_symbol
 _atom_site_label
 _atom_site_symmetry_multiplicity
 _atom_site_fract_x
 _atom_site_fract_y
 _atom_site_fract_z
 _atom_site_occupancy
  K  K0  1  0.32133516  0.03144619  0.42119243  1
  K  K1  1  0.67866484  0.53144619  0.57880757  1
  K  K2  1  0.67135510  0.15224676  0.08804285  1
  K  K3  1  0.32864490  0.65224676  0.91195715  1
  Pd  Pd4  1  0.01147766  0.58054813  0.24085944  1
  Pd  Pd5  1  0.98852234  0.08054813  0.75914056  1
  O  O6  1  0.29186043  0.41212197  0.25839326  1
  O  O7  1  0.70813957  0.91212197  0.74160674  1
  O  O8  1  0.14842747  0.66056613  0.50341490  1
  O  O9  1  0.85157253  0.16056613  0.49658510  1
  O  O10  1  0.17203260  0.02067022  0.01583498  1
  O  O11  1  0.82796740  0.52067022  0.98416502  1
  O  O12  1  0.25397707  0.26240059  0.74745962  1
  O  O13  1  0.74602293  0.76240059  0.25254038  1
