# generated using pymatgen
data_Mg2Nb2NiO8
_symmetry_space_group_name_H-M   'P 1'
_cell_length_a   5.17976248
_cell_length_b   6.00259857
_cell_length_c   9.96792454
_cell_angle_alpha   107.52120226
_cell_angle_beta   89.66741573
_cell_angle_gamma   89.99731519
_symmetry_Int_Tables_number   1
_chemical_formula_structural   Mg2Nb2NiO8
_chemical_formula_sum   'Mg4 Nb4 Ni2 O16'
_cell_volume   295.53886397
_cell_formula_units_Z   2
loop_
 _symmetry_equiv_pos_site_id
 _symmetry_equiv_pos_as_xyz
  1  'x, y, z'
loop_
 _atom_site_type_symbol
 _atom_site_label
 _atom_site_symmetry_multiplicity
 _atom_site_fract_x
 _atom_site_fract_y
 _atom_site_fract_z
 _atom_site_occupancy
  Mg  Mg0  1  0.75537912  0.41399337  0.54298620  1
  Mg  Mg1  1  0.74974274  0.87120286  0.45720375  1
  Mg  Mg2  1  0.24981964  0.58789533  0.45724099  1
  Mg  Mg3  1  0.25517833  0.13065183  0.54310349  1
  Nb  Nb4  1  0.74557843  0.28486940  0.22905954  1
  Nb  Nb5  1  0.75892238  0.05547070  0.77115226  1
  Nb  Nb6  1  0.25902866  0.71725291  0.77115357  1
  Nb  Nb7  1  0.24566421  0.94639219  0.22914074  1
  Ni  Ni8  1  0.75224392  0.64610871  0.00012001  1
  Ni  Ni9  1  0.25212510  0.35589422  0.00007375  1
  O  O10  1  0.08434693  0.18431587  0.13986618  1
  O  O11  1  0.42009028  0.04447638  0.86035543  1
  O  O12  1  0.92007285  0.81729950  0.86028470  1
  O  O13  1  0.58457845  0.95749520  0.14006526  1
  O  O14  1  0.58608036  0.43536608  0.11463128  1
  O  O15  1  0.91811051  0.32055920  0.88561817  1
  O  O16  1  0.41824823  0.56666453  0.88561937  1
  O  O17  1  0.08631219  0.68144697  0.11464357  1
  O  O18  1  0.46150814  0.29298094  0.37456908  1
  O  O19  1  0.04349110  0.91825835  0.62574879  1
  O  O20  1  0.38708536  0.83676593  0.38148976  1
  O  O21  1  0.11798767  0.45530390  0.61874497  1
  O  O22  1  0.61783322  0.16519825  0.61879809  1
  O  O23  1  0.88720457  0.54665475  0.38137616  1
  O  O24  1  0.96157705  0.08380579  0.37477960  1
  O  O25  1  0.54358355  0.70909383  0.62571129  1
