# generated using pymatgen
data_Mg4Co5(TeO6)3
_symmetry_space_group_name_H-M   'P 1'
_cell_length_a   8.74098431
_cell_length_b   8.74098423
_cell_length_c   10.49541665
_cell_angle_alpha   85.89988059
_cell_angle_beta   85.89987923
_cell_angle_gamma   61.39033551
_symmetry_Int_Tables_number   1
_chemical_formula_structural   Mg4Co5(TeO6)3
_chemical_formula_sum   'Mg8 Co10 Te6 O36'
_cell_volume   701.55219346
_cell_formula_units_Z   2
loop_
 _symmetry_equiv_pos_site_id
 _symmetry_equiv_pos_as_xyz
  1  'x, y, z'
loop_
 _atom_site_type_symbol
 _atom_site_label
 _atom_site_symmetry_multiplicity
 _atom_site_fract_x
 _atom_site_fract_y
 _atom_site_fract_z
 _atom_site_occupancy
  Mg  Mg0  1  0.87033980  0.53601959  0.32428264  1
  Mg  Mg1  1  0.48247439  0.56333752  0.20873614  1
  Mg  Mg2  1  0.46398041  0.12966020  0.67571736  1
  Mg  Mg3  1  0.43666248  0.51752561  0.79126386  1
  Mg  Mg4  1  0.17153242  0.87427182  0.70874374  1
  Mg  Mg5  1  0.14433608  0.26212726  0.82435412  1
  Mg  Mg6  1  0.73787274  0.85566392  0.17564588  1
  Mg  Mg7  1  0.12572818  0.82846758  0.29125626  1
  Co  Co8  1  0.79203568  0.48952667  0.98019436  1
  Co  Co9  1  0.09759796  0.18369958  0.48019775  1
  Co  Co10  1  0.34286670  0.32330521  0.30662538  1
  Co  Co11  1  0.93114416  0.73630993  0.80654431  1
  Co  Co12  1  0.67669479  0.65713330  0.69337462  1
  Co  Co13  1  0.98740200  0.01259800  0.00000000  1
  Co  Co14  1  0.62068140  0.37931860  0.50000000  1
  Co  Co15  1  0.26369007  0.06885684  0.19345569  1
  Co  Co16  1  0.81630042  0.90240204  0.51980225  1
  Co  Co17  1  0.51047333  0.20796432  0.01980564  1
  Te  Te18  1  0.45974570  0.86249680  0.94760983  1
  Te  Te19  1  0.80421262  0.19574613  0.24995507  1
  Te  Te20  1  0.80425387  0.19578738  0.75004493  1
  Te  Te21  1  0.47074301  0.85132342  0.44755827  1
  Te  Te22  1  0.14867658  0.52925699  0.55244173  1
  Te  Te23  1  0.13750320  0.54025430  0.05239017  1
  O  O24  1  0.38997196  0.08279507  0.85086397  1
  O  O25  1  0.71256274  0.43410951  0.81265526  1
  O  O26  1  0.56333543  0.62733117  0.54524125  1
  O  O27  1  0.72820524  0.13332233  0.41359343  1
  O  O28  1  0.56589049  0.28743726  0.18734474  1
  O  O29  1  0.86667767  0.27179476  0.58640657  1
  O  O30  1  0.37547153  0.77955506  0.31564116  1
  O  O31  1  0.03933939  0.10591992  0.81225840  1
  O  O32  1  0.56899108  0.28587525  0.68761654  1
  O  O33  1  0.08223684  0.41621551  0.42178817  1
  O  O34  1  0.56000640  0.64940547  0.05324457  1
  O  O35  1  0.52605146  0.97547549  0.07801937  1
  O  O36  1  0.89601630  0.95728640  0.68712987  1
  O  O37  1  0.69134002  0.75783357  0.86023581  1
  O  O38  1  0.35059453  0.43999360  0.94675543  1
  O  O39  1  0.23284313  0.61232949  0.18429247  1
  O  O40  1  0.04816405  0.74231850  0.44675145  1
  O  O41  1  0.24216643  0.30865998  0.13976419  1
  O  O42  1  0.37266883  0.43666457  0.45475875  1
  O  O43  1  0.25768150  0.95183595  0.55324855  1
  O  O44  1  0.69095347  0.78162049  0.35093376  1
  O  O45  1  0.91731958  0.63322971  0.64014368  1
  O  O46  1  0.89408008  0.96066061  0.18774160  1
  O  O47  1  0.38767051  0.76715687  0.81570753  1
  O  O48  1  0.04521819  0.76388577  0.95456500  1
  O  O49  1  0.74192080  0.11959488  0.91352931  1
  O  O50  1  0.02452451  0.47394854  0.92198063  1
  O  O51  1  0.22044494  0.62452847  0.68435884  1
  O  O52  1  0.04271360  0.10398370  0.31287013  1
  O  O53  1  0.36677029  0.08268042  0.35985632  1
  O  O54  1  0.21837951  0.30904653  0.64906624  1
  O  O55  1  0.88040512  0.25807920  0.08647069  1
  O  O56  1  0.71412475  0.43100892  0.31238346  1
  O  O57  1  0.58378449  0.91776316  0.57821183  1
  O  O58  1  0.23611423  0.95478181  0.04543500  1
  O  O59  1  0.91720493  0.61002804  0.14913603  1
