# generated using pymatgen
data_La3Cu2S7
_symmetry_space_group_name_H-M   'P 1'
_cell_length_a   5.75760251
_cell_length_b   10.34667898
_cell_length_c   10.34667898
_cell_angle_alpha   119.99999895
_cell_angle_beta   90.00000000
_cell_angle_gamma   90.00000000
_symmetry_Int_Tables_number   1
_chemical_formula_structural   La3Cu2S7
_chemical_formula_sum   'La6 Cu4 S14'
_cell_volume   533.79470853
_cell_formula_units_Z   2
loop_
 _symmetry_equiv_pos_site_id
 _symmetry_equiv_pos_as_xyz
  1  'x, y, z'
loop_
 _atom_site_type_symbol
 _atom_site_label
 _atom_site_symmetry_multiplicity
 _atom_site_fract_x
 _atom_site_fract_y
 _atom_site_fract_z
 _atom_site_occupancy
  La  La0  1  0.97419506  0.86358748  0.23343949  1
  La  La1  1  0.97419506  0.36985201  0.13641252  1
  La  La2  1  0.47419506  0.13641252  0.76656051  1
  La  La3  1  0.97419506  0.76656051  0.63014799  1
  La  La4  1  0.47419506  0.63014799  0.86358748  1
  La  La5  1  0.47419506  0.23343949  0.36985201  1
  Cu  Cu6  1  0.36690176  0.66666700  0.33333300  1
  Cu  Cu7  1  0.86690176  0.33333300  0.66666700  1
  Cu  Cu8  1  0.99004437  -0.00000000  -0.00000000  1
  Cu  Cu9  1  0.49004437  -0.00000000  -0.00000000  1
  S  S10  1  0.98093015  0.75223272  0.91086304  1
  S  S11  1  0.98093015  0.15863031  0.24776728  1
  S  S12  1  0.48093015  0.24776728  0.08913696  1
  S  S13  1  0.98093015  0.08913696  0.84136969  1
  S  S14  1  0.48093015  0.84136969  0.75223272  1
  S  S15  1  0.48093015  0.91086304  0.15863031  1
  S  S16  1  0.75290004  0.66666700  0.33333300  1
  S  S17  1  0.25290004  0.33333300  0.66666700  1
  S  S18  1  0.75225940  0.48492218  0.57972813  1
  S  S19  1  0.75225940  0.09480595  0.51507782  1
  S  S20  1  0.25225940  0.51507782  0.42027187  1
  S  S21  1  0.75225940  0.42027187  0.90519405  1
  S  S22  1  0.25225940  0.90519405  0.48492218  1
  S  S23  1  0.25225940  0.57972813  0.09480595  1
