# generated using pymatgen
data_Sr2Ca2Fe3CoO10
_symmetry_space_group_name_H-M   'P 1'
_cell_length_a   10.90556767
_cell_length_b   11.33985558
_cell_length_c   17.42703760
_cell_angle_alpha   109.20253118
_cell_angle_beta   108.34373780
_cell_angle_gamma   89.81298170
_symmetry_Int_Tables_number   1
_chemical_formula_structural   Sr2Ca2Fe3CoO10
_chemical_formula_sum   'Sr16 Ca16 Fe24 Co8 O80'
_cell_volume   1919.71047002
_cell_formula_units_Z   8
loop_
 _symmetry_equiv_pos_site_id
 _symmetry_equiv_pos_as_xyz
  1  'x, y, z'
loop_
 _atom_site_type_symbol
 _atom_site_label
 _atom_site_symmetry_multiplicity
 _atom_site_fract_x
 _atom_site_fract_y
 _atom_site_fract_z
 _atom_site_occupancy
  Sr  Sr0  1  0.30701896  0.56501836  0.61125310  1
  Sr  Sr1  1  0.80203489  0.06243334  0.60938545  1
  Sr  Sr2  1  0.80792124  0.56474727  0.61136902  1
  Sr  Sr3  1  0.19441530  0.43311312  0.38579589  1
  Sr  Sr4  1  0.19617253  0.43934718  0.89394237  1
  Sr  Sr5  1  0.69379123  0.43332726  0.38569396  1
  Sr  Sr6  1  0.69025893  0.93322069  0.38567466  1
  Sr  Sr7  1  0.70185504  0.93556350  0.89389118  1
  Sr  Sr8  1  0.05824342  0.29419038  0.61063481  1
  Sr  Sr9  1  0.05765053  0.79894366  0.61010798  1
  Sr  Sr10  1  0.55727619  0.29486139  0.61131903  1
  Sr  Sr11  1  0.55654626  0.79836968  0.61000448  1
  Sr  Sr12  1  0.44403731  0.19958023  0.38621877  1
  Sr  Sr13  1  0.45176140  0.20684674  0.89283902  1
  Sr  Sr14  1  0.94508332  0.20051225  0.38645580  1
  Sr  Sr15  1  0.94496708  0.20669227  0.89378472  1
  Ca  Ca16  1  0.30265629  0.06858490  0.10601959  1
  Ca  Ca17  1  0.30839284  0.06406483  0.60490087  1
  Ca  Ca18  1  0.29915012  0.56893423  0.10791562  1
  Ca  Ca19  1  0.80455668  0.06926320  0.10560956  1
  Ca  Ca20  1  0.79956371  0.56723260  0.10704413  1
  Ca  Ca21  1  0.20305436  0.93143578  0.39088247  1
  Ca  Ca22  1  0.19873397  0.93392210  0.89682799  1
  Ca  Ca23  1  0.69478568  0.43493323  0.89796829  1
  Ca  Ca24  1  0.04903790  0.28694779  0.10669446  1
  Ca  Ca25  1  0.05143786  0.78772722  0.10655875  1
  Ca  Ca26  1  0.55529716  0.28833759  0.10527607  1
  Ca  Ca27  1  0.55313964  0.78643146  0.10469519  1
  Ca  Ca28  1  0.44392398  0.71259705  0.39031921  1
  Ca  Ca29  1  0.44764512  0.71227097  0.89576220  1
  Ca  Ca30  1  0.94518975  0.71022310  0.39035397  1
  Ca  Ca31  1  0.94881549  0.71365899  0.89751646  1
  Fe  Fe32  1  0.00497355  0.99772097  0.49705877  1
  Fe  Fe33  1  0.00211370  0.49916824  0.49660549  1
  Fe  Fe34  1  0.50230105  0.49912492  0.49707407  1
  Fe  Fe35  1  0.25746070  0.25296217  0.00470464  1
  Fe  Fe36  1  0.25435231  0.24676610  0.49803324  1
  Fe  Fe37  1  0.25360176  0.74970595  0.49636820  1
  Fe  Fe38  1  0.75224525  0.24843125  0.49915570  1
  Fe  Fe39  1  0.75116711  0.74819267  0.49569458  1
  Fe  Fe40  1  0.10481145  0.08507694  0.24728032  1
  Fe  Fe41  1  0.11314897  0.09061985  0.75416799  1
  Fe  Fe42  1  0.10412519  0.59412097  0.24821244  1
  Fe  Fe43  1  0.10903869  0.59740707  0.75440880  1
  Fe  Fe44  1  0.60334992  0.08519688  0.24484581  1
  Fe  Fe45  1  0.60543383  0.09416962  0.75234734  1
  Fe  Fe46  1  0.60301830  0.59057004  0.24708665  1
  Fe  Fe47  1  0.60942637  0.59261077  0.75583832  1
  Fe  Fe48  1  0.35232586  0.41120080  0.24536201  1
  Fe  Fe49  1  0.36061414  0.41070981  0.75154855  1
  Fe  Fe50  1  0.34928513  0.90294928  0.24345664  1
  Fe  Fe51  1  0.35630830  0.90824048  0.75083480  1
  Fe  Fe52  1  0.85399672  0.41252210  0.24657141  1
  Fe  Fe53  1  0.85612488  0.41428293  0.75431641  1
  Fe  Fe54  1  0.85601509  0.90339250  0.24416963  1
  Fe  Fe55  1  0.86165435  0.90718228  0.75072294  1
  Co  Co56  1  0.01052435  0.00124831  0.00503673  1
  Co  Co57  1  0.00519364  0.50315994  0.00427350  1
  Co  Co58  1  0.50899117  0.00201367  0.00475534  1
  Co  Co59  1  0.50269207  0.99889799  0.49839134  1
  Co  Co60  1  0.50738852  0.50320269  0.00461259  1
  Co  Co61  1  0.25660554  0.75135957  0.00377507  1
  Co  Co62  1  0.75900283  0.25513375  0.00545742  1
  Co  Co63  1  0.75786954  0.74891397  0.00221950  1
  O  O64  1  0.12687297  0.11678082  0.48918809  1
  O  O65  1  0.12786423  0.11727331  0.99228765  1
  O  O66  1  0.11963663  0.62243932  0.48627176  1
  O  O67  1  0.11815466  0.62280622  0.99179412  1
  O  O68  1  0.62123532  0.11994816  0.49012950  1
  O  O69  1  0.62332878  0.11680587  0.99539334  1
  O  O70  1  0.62027141  0.62158151  0.48739116  1
  O  O71  1  0.61940615  0.61752755  0.98737317  1
  O  O72  1  0.13674223  0.38232166  0.01835428  1
  O  O73  1  0.13198554  0.37768384  0.50769012  1
  O  O74  1  0.14307034  0.87749562  0.01311558  1
  O  O75  1  0.13501995  0.87883335  0.50543213  1
  O  O76  1  0.63640221  0.38653485  0.01769293  1
  O  O77  1  0.63157102  0.37777001  0.50647914  1
  O  O78  1  0.64223185  0.87220145  0.01447657  1
  O  O79  1  0.62705468  0.87551860  0.50366884  1
  O  O80  1  0.37135465  0.11230699  0.48817315  1
  O  O81  1  0.37295074  0.11707475  0.99132008  1
  O  O82  1  0.37385739  0.62043961  0.48789492  1
  O  O83  1  0.37434553  0.62658249  0.99188583  1
  O  O84  1  0.87467151  0.11863163  0.49145338  1
  O  O85  1  0.88004259  0.11781785  0.99549309  1
  O  O86  1  0.87397062  0.61935124  0.48802316  1
  O  O87  1  0.87079512  0.62183400  0.98961199  1
  O  O88  1  0.38836219  0.38823599  0.01709295  1
  O  O89  1  0.38171663  0.37928152  0.50716247  1
  O  O90  1  0.39483241  0.88917936  0.01454881  1
  O  O91  1  0.38188544  0.88342448  0.50726529  1
  O  O92  1  0.88768220  0.39334306  0.01624948  1
  O  O93  1  0.88132376  0.37969125  0.50635935  1
  O  O94  1  0.89528488  0.88565928  0.01745451  1
  O  O95  1  0.88288775  0.87769079  0.50478945  1
  O  O96  1  0.10255754  0.11092247  0.14711686  1
  O  O97  1  0.09095761  0.09001515  0.64123850  1
  O  O98  1  0.09313853  0.61387605  0.14503360  1
  O  O99  1  0.07832253  0.59658885  0.64056619  1
  O  O100  1  0.59599588  0.11097461  0.14394822  1
  O  O101  1  0.58355011  0.09779868  0.64238673  1
  O  O102  1  0.59319897  0.61473402  0.14535769  1
  O  O103  1  0.58065088  0.59352269  0.64191113  1
  O  O104  1  0.43597111  0.40285161  0.35651473  1
  O  O105  1  0.44847493  0.39678779  0.85712357  1
  O  O106  1  0.43636464  0.89246625  0.35198212  1
  O  O107  1  0.44956240  0.89128375  0.85624142  1
  O  O108  1  0.93731011  0.40350726  0.35749341  1
  O  O109  1  0.94678966  0.39652569  0.85797785  1
  O  O110  1  0.94331651  0.89994051  0.35699336  1
  O  O111  1  0.95090030  0.88887111  0.85577404  1
  O  O112  1  0.34171696  0.28753365  0.13960574  1
  O  O113  1  0.33099012  0.29017762  0.63866760  1
  O  O114  1  0.33598394  0.78289348  0.13720561  1
  O  O115  1  0.32617647  0.79400013  0.63693570  1
  O  O116  1  0.84517869  0.28848492  0.14284250  1
  O  O117  1  0.82830454  0.30003982  0.63979577  1
  O  O118  1  0.84066618  0.78080247  0.13842655  1
  O  O119  1  0.82695903  0.79593444  0.63582144  1
  O  O120  1  0.18860717  0.20109519  0.36024457  1
  O  O121  1  0.19549067  0.20953992  0.86467884  1
  O  O122  1  0.19751854  0.70949893  0.35991381  1
  O  O123  1  0.20387998  0.71501125  0.86279384  1
  O  O124  1  0.68711114  0.19787851  0.35952475  1
  O  O125  1  0.68820238  0.21364303  0.86150874  1
  O  O126  1  0.69706263  0.70130531  0.35957992  1
  O  O127  1  0.70518665  0.70952326  0.86301467  1
  O  O128  1  0.42385191  0.05604622  0.23979694  1
  O  O129  1  0.42432522  0.06079331  0.74429826  1
  O  O130  1  0.42486039  0.56916532  0.24848366  1
  O  O131  1  0.43346646  0.57130976  0.75830751  1
  O  O132  1  0.92362505  0.05779367  0.23959579  1
  O  O133  1  0.93638811  0.06163715  0.75113785  1
  O  O134  1  0.92615936  0.57095170  0.24954783  1
  O  O135  1  0.93481496  0.57201564  0.75991031  1
  O  O136  1  0.17275604  0.43361399  0.24042196  1
  O  O137  1  0.18450526  0.44213755  0.75182095  1
  O  O138  1  0.17307132  0.92748226  0.24760586  1
  O  O139  1  0.18412686  0.93595657  0.76011453  1
  O  O140  1  0.67279581  0.43093374  0.23957856  1
  O  O141  1  0.68071015  0.43752472  0.75944921  1
  O  O142  1  0.67658430  0.92851549  0.23988892  1
  O  O143  1  0.68747615  0.94244122  0.75320479  1
