# generated using pymatgen
data_PrAsSe
_symmetry_space_group_name_H-M   'P 1'
_cell_length_a   4.02938177
_cell_length_b   4.02928576
_cell_length_c   9.18223687
_cell_angle_alpha   90.00000000
_cell_angle_beta   90.00000000
_cell_angle_gamma   89.94872257
_symmetry_Int_Tables_number   1
_chemical_formula_structural   PrAsSe
_chemical_formula_sum   'Pr2 As2 Se2'
_cell_volume   149.07842809
_cell_formula_units_Z   2
loop_
 _symmetry_equiv_pos_site_id
 _symmetry_equiv_pos_as_xyz
  1  'x, y, z'
loop_
 _atom_site_type_symbol
 _atom_site_label
 _atom_site_symmetry_multiplicity
 _atom_site_fract_x
 _atom_site_fract_y
 _atom_site_fract_z
 _atom_site_occupancy
  Pr  Pr0  1  0.75000000  0.25000000  0.72309467  1
  Pr  Pr1  1  0.25000000  0.75000000  0.27690533  1
  As  As2  1  0.25000000  0.25000000  0.00000326  1
  As  As3  1  0.75000000  0.75000000  0.99999674  1
  Se  Se4  1  0.75000000  0.25000000  0.37535472  1
  Se  Se5  1  0.25000000  0.75000000  0.62464528  1
