# generated using pymatgen
data_BaSr7MnFe7O24
_symmetry_space_group_name_H-M   'P 1'
_cell_length_a   7.85490360
_cell_length_b   7.85490360
_cell_length_c   7.85490360
_cell_angle_alpha   89.99514081
_cell_angle_beta   89.99514081
_cell_angle_gamma   90.00485919
_symmetry_Int_Tables_number   1
_chemical_formula_structural   BaSr7MnFe7O24
_chemical_formula_sum   'Ba1 Sr7 Mn1 Fe7 O24'
_cell_volume   484.64370319
_cell_formula_units_Z   1
loop_
 _symmetry_equiv_pos_site_id
 _symmetry_equiv_pos_as_xyz
  1  'x, y, z'
loop_
 _atom_site_type_symbol
 _atom_site_label
 _atom_site_symmetry_multiplicity
 _atom_site_fract_x
 _atom_site_fract_y
 _atom_site_fract_z
 _atom_site_occupancy
  Ba  Ba0  1  0.24967321  0.74967321  0.25032679  1
  Sr  Sr1  1  0.24971505  0.25026453  0.25028495  1
  Sr  Sr2  1  0.24973534  0.25029796  0.74970204  1
  Sr  Sr3  1  0.24971505  0.74971505  0.74973547  1
  Sr  Sr4  1  0.75029796  0.25029796  0.25026466  1
  Sr  Sr5  1  0.75021806  0.25021806  0.74978194  1
  Sr  Sr6  1  0.75026453  0.74971505  0.25028495  1
  Sr  Sr7  1  0.75029796  0.74973534  0.74970204  1
  Mn  Mn8  1  0.99907717  0.49907717  0.50092283  1
  Fe  Fe9  1  0.99900672  0.00098357  0.99901643  1
  Fe  Fe10  1  0.99916740  0.00095730  0.50083260  1
  Fe  Fe11  1  0.99916740  0.49916740  0.99904270  1
  Fe  Fe12  1  0.50084955  0.00084955  0.99915045  1
  Fe  Fe13  1  0.50098357  0.00098357  0.50099328  1
  Fe  Fe14  1  0.50098357  0.49900672  0.99901643  1
  Fe  Fe15  1  0.50095730  0.49916740  0.50083260  1
  O  O16  1  0.24952091  0.00379332  0.99620668  1
  O  O17  1  0.25171265  0.00375429  0.50384596  1
  O  O18  1  0.25171265  0.49615404  0.99624571  1
  O  O19  1  0.24518789  0.49604927  0.50395073  1
  O  O20  1  0.75036511  0.00091933  0.99908067  1
  O  O21  1  0.74845059  0.00091015  0.50086653  1
  O  O22  1  0.74845059  0.49913347  0.99908985  1
  O  O23  1  0.75448340  0.49928930  0.50071070  1
  O  O24  1  0.99913347  0.24845059  0.99908985  1
  O  O25  1  0.99928930  0.25448340  0.50071070  1
  O  O26  1  0.99615404  0.75171265  0.99624571  1
  O  O27  1  0.99604927  0.74518789  0.50395073  1
  O  O28  1  0.50091933  0.25036511  0.99908067  1
  O  O29  1  0.50091015  0.24845059  0.50086653  1
  O  O30  1  0.50379332  0.74952091  0.99620668  1
  O  O31  1  0.50375429  0.75171265  0.50384596  1
  O  O32  1  0.99615404  0.00375429  0.24828735  1
  O  O33  1  0.99913347  0.00091015  0.75154941  1
  O  O34  1  0.99604927  0.49604927  0.25481211  1
  O  O35  1  0.99928930  0.49928930  0.74551660  1
  O  O36  1  0.50379332  0.00379332  0.25047909  1
  O  O37  1  0.50091933  0.00091933  0.74963489  1
  O  O38  1  0.50375429  0.49615404  0.24828735  1
  O  O39  1  0.50091015  0.49913347  0.75154941  1
