# generated using pymatgen
data_K5Na3Nb5(WO8)3
_symmetry_space_group_name_H-M   'P 1'
_cell_length_a   8.05585895
_cell_length_b   8.05674008
_cell_length_c   8.05741459
_cell_angle_alpha   89.99199757
_cell_angle_beta   89.70143476
_cell_angle_gamma   89.98043853
_symmetry_Int_Tables_number   1
_chemical_formula_structural   K5Na3Nb5(WO8)3
_chemical_formula_sum   'K5 Na3 Nb5 W3 O24'
_cell_volume   522.95099189
_cell_formula_units_Z   1
loop_
 _symmetry_equiv_pos_site_id
 _symmetry_equiv_pos_as_xyz
  1  'x, y, z'
loop_
 _atom_site_type_symbol
 _atom_site_label
 _atom_site_symmetry_multiplicity
 _atom_site_fract_x
 _atom_site_fract_y
 _atom_site_fract_z
 _atom_site_occupancy
  K  K0  1  0.24909407  0.25025169  0.24896884  1
  K  K1  1  0.24901266  0.74966294  0.24896519  1
  K  K2  1  0.75104886  0.25087898  0.24911724  1
  K  K3  1  0.75109884  0.74909806  0.24913599  1
  K  K4  1  0.75089211  0.74975294  0.75109608  1
  Na  Na5  1  0.24881268  0.25068707  0.75104817  1
  Na  Na6  1  0.24884234  0.74926104  0.75105954  1
  Na  Na7  1  0.75107041  0.25058905  0.75113557  1
  Nb  Nb8  1  0.00055073  0.49900222  0.99874370  1
  Nb  Nb9  1  0.00032886  0.49961302  0.50134504  1
  Nb  Nb10  1  0.49905221  0.00030715  0.50252869  1
  Nb  Nb11  1  0.49976943  0.49962719  0.99855049  1
  Nb  Nb12  1  0.49952166  0.49946415  0.50109109  1
  W  W13  1  0.00039973  0.00001045  0.99859239  1
  W  W14  1  -0.00002594  0.00039054  0.50111890  1
  W  W15  1  0.49965705  0.00038387  0.99980025  1
  O  O16  1  0.25168488  0.00033463  0.99420196  1
  O  O17  1  0.24700105  0.00045583  0.50448221  1
  O  O18  1  0.24845164  0.49952365  0.99577713  1
  O  O19  1  0.25091525  0.49946352  0.50411705  1
  O  O20  1  0.74816337  0.00208556  0.99866457  1
  O  O21  1  0.75372108  0.00174029  0.50154041  1
  O  O22  1  0.75148787  0.49835991  0.99751304  1
  O  O23  1  0.74904673  0.49827733  0.50267059  1
  O  O24  1  0.00058419  0.24546073  0.99650644  1
  O  O25  1  0.00036649  0.25220835  0.50415243  1
  O  O26  1  0.00164939  0.75516983  0.99725283  1
  O  O27  1  0.00186845  0.74763799  0.50257096  1
  O  O28  1  0.49975726  0.25202705  0.99568788  1
  O  O29  1  0.49948294  0.24716265  0.50372682  1
  O  O30  1  0.49803881  0.74778275  0.99739163  1
  O  O31  1  0.49823360  0.75303408  0.50267970  1
  O  O32  1  0.99947384  0.00047164  0.25100060  1
  O  O33  1  0.00282397  0.00185859  0.74912457  1
  O  O34  1  0.00031851  0.49957368  0.24841487  1
  O  O35  1  0.00187611  0.49841894  0.75158624  1
  O  O36  1  0.50109812  0.00030395  0.24670333  1
  O  O37  1  0.49706328  0.00178778  0.75176861  1
  O  O38  1  0.49969369  0.49946573  0.25106873  1
  O  O39  1  0.49807377  0.49841516  0.74910021  1
