# generated using pymatgen
data_Sr7CaTi5Mn3O24
_symmetry_space_group_name_H-M   'P 1'
_cell_length_a   7.79353846
_cell_length_b   7.84769669
_cell_length_c   7.84769669
_cell_angle_alpha   89.98895295
_cell_angle_beta   89.98944527
_cell_angle_gamma   90.01055473
_symmetry_Int_Tables_number   1
_chemical_formula_structural   Sr7CaTi5Mn3O24
_chemical_formula_sum   'Sr7 Ca1 Ti5 Mn3 O24'
_cell_volume   479.97550994
_cell_formula_units_Z   1
loop_
 _symmetry_equiv_pos_site_id
 _symmetry_equiv_pos_as_xyz
  1  'x, y, z'
loop_
 _atom_site_type_symbol
 _atom_site_label
 _atom_site_symmetry_multiplicity
 _atom_site_fract_x
 _atom_site_fract_y
 _atom_site_fract_z
 _atom_site_occupancy
  Sr  Sr0  1  0.24521788  0.24812302  0.24834449  1
  Sr  Sr1  1  0.24522857  0.24835537  0.75164463  1
  Sr  Sr2  1  0.24521788  0.75165551  0.75187698  1
  Sr  Sr3  1  0.75471729  0.24832944  0.24827534  1
  Sr  Sr4  1  0.75462572  0.24835670  0.75164330  1
  Sr  Sr5  1  0.75507090  0.75170693  0.24829307  1
  Sr  Sr6  1  0.75471729  0.75172466  0.75167056  1
  Ca  Ca7  1  0.24418448  0.75217156  0.24782844  1
  Ti  Ti8  1  0.00077007  0.50107008  0.49892992  1
  Ti  Ti9  1  0.49883703  0.99920741  0.00079259  1
  Ti  Ti10  1  0.49899606  0.99919920  0.49920862  1
  Ti  Ti11  1  0.49899606  0.50079138  0.00080080  1
  Ti  Ti12  1  0.49922891  0.50079525  0.49920475  1
  Mn  Mn13  1  0.00031670  0.99935434  0.00064566  1
  Mn  Mn14  1  0.00051326  0.99944386  0.49924620  1
  Mn  Mn15  1  0.00051326  0.50075380  0.00055614  1
  O  O16  1  0.24732714  0.99770388  0.00229612  1
  O  O17  1  0.24729229  0.99785692  0.49782842  1
  O  O18  1  0.24729229  0.50217158  0.00214308  1
  O  O19  1  0.24946361  0.50175612  0.49824388  1
  O  O20  1  0.75255848  0.99962389  0.00037611  1
  O  O21  1  0.75271244  0.99941720  0.49951011  1
  O  O22  1  0.75271244  0.50048989  0.00058280  1
  O  O23  1  0.75067074  0.50060305  0.49939695  1
  O  O24  1  0.00016462  0.25089646  0.00048416  1
  O  O25  1  0.00049768  0.24741518  0.49946538  1
  O  O26  1  0.00332175  0.74917459  0.00301382  1
  O  O27  1  0.00235681  0.75262231  0.49772795  1
  O  O28  1  0.49939053  0.24986887  0.00060303  1
  O  O29  1  0.49939229  0.24989999  0.49939177  1
  O  O30  1  0.49814614  0.75013404  0.00192593  1
  O  O31  1  0.49813979  0.75003335  0.49809380  1
  O  O32  1  0.00332175  0.99698618  0.25082541  1
  O  O33  1  0.00016462  0.99951584  0.74910354  1
  O  O34  1  0.00235681  0.50227205  0.24737769  1
  O  O35  1  0.00049768  0.50053462  0.75258482  1
  O  O36  1  0.49814614  0.99807407  0.24986596  1
  O  O37  1  0.49939053  0.99939697  0.75013113  1
  O  O38  1  0.49813979  0.50190620  0.24996665  1
  O  O39  1  0.49939229  0.50060823  0.75010001  1
