# generated using pymatgen
data_Cu2GeS3
_symmetry_space_group_name_H-M   'P 1'
_cell_length_a   3.80202341
_cell_length_b   5.26629918
_cell_length_c   6.49112142
_cell_angle_alpha   113.93211879
_cell_angle_beta   107.02945997
_cell_angle_gamma   90.00000000
_symmetry_Int_Tables_number   1
_chemical_formula_structural   Cu2GeS3
_chemical_formula_sum   'Cu2 Ge1 S3'
_cell_volume   112.53219945
_cell_formula_units_Z   1
loop_
 _symmetry_equiv_pos_site_id
 _symmetry_equiv_pos_as_xyz
  1  'x, y, z'
loop_
 _atom_site_type_symbol
 _atom_site_label
 _atom_site_symmetry_multiplicity
 _atom_site_fract_x
 _atom_site_fract_y
 _atom_site_fract_z
 _atom_site_occupancy
  Cu  Cu0  1  0.16932743  0.42850624  0.33865486  1
  Cu  Cu1  1  0.83067257  0.08985138  0.66134514  1
  Ge  Ge2  1  0.50000000  0.73294688  0.00000000  1
  S  S3  1  0.33275474  0.33306619  0.66550948  1
  S  S4  1  0.66724526  0.66755671  0.33449052  1
  S  S5  1  -0.00000000  0.00707260  0.00000000  1
