# generated using pymatgen
data_K5Na3Ta3Nb5O24
_symmetry_space_group_name_H-M   'P 1'
_cell_length_a   8.05293394
_cell_length_b   8.05372392
_cell_length_c   8.05231600
_cell_angle_alpha   89.99834581
_cell_angle_beta   90.00148130
_cell_angle_gamma   89.99859560
_symmetry_Int_Tables_number   1
_chemical_formula_structural   K5Na3Ta3Nb5O24
_chemical_formula_sum   'K5 Na3 Ta3 Nb5 O24'
_cell_volume   522.24186539
_cell_formula_units_Z   1
loop_
 _symmetry_equiv_pos_site_id
 _symmetry_equiv_pos_as_xyz
  1  'x, y, z'
loop_
 _atom_site_type_symbol
 _atom_site_label
 _atom_site_symmetry_multiplicity
 _atom_site_fract_x
 _atom_site_fract_y
 _atom_site_fract_z
 _atom_site_occupancy
  K  K0  1  0.25004560  0.25012969  0.25004801  1
  K  K1  1  0.25004835  0.74987052  0.25004905  1
  K  K2  1  0.74994753  0.25012643  0.25005178  1
  K  K3  1  0.74996040  0.74986903  0.25005398  1
  K  K4  1  0.74994879  0.74986758  0.74993892  1
  Na  Na5  1  0.25000622  0.25001405  0.74999479  1
  Na  Na6  1  0.25000628  0.74998319  0.74999517  1
  Na  Na7  1  0.74999293  0.25001453  0.74999547  1
  Ta  Ta8  1  0.00023493  0.00023886  0.99929419  1
  Ta  Ta9  1  0.00024348  0.00023818  0.50071019  1
  Ta  Ta10  1  0.49976412  0.00023922  0.99926846  1
  Nb  Nb11  1  0.00022721  0.49977608  0.99931023  1
  Nb  Nb12  1  0.00022655  0.49977775  0.50069071  1
  Nb  Nb13  1  0.49977861  0.00022270  0.50066976  1
  Nb  Nb14  1  0.49977064  0.49977752  0.99931493  1
  Nb  Nb15  1  0.49977201  0.49976811  0.50068939  1
  O  O16  1  0.24991604  0.00007293  0.99846693  1
  O  O17  1  0.24892617  0.00007120  0.50152295  1
  O  O18  1  0.24999123  0.49992967  0.99848930  1
  O  O19  1  0.24991820  0.49993158  0.50151721  1
  O  O20  1  0.75008550  0.00073397  0.99911030  1
  O  O21  1  0.75108615  0.00073287  0.50088132  1
  O  O22  1  0.75000775  0.49927430  0.99913347  1
  O  O23  1  0.75008407  0.49927106  0.50086886  1
  O  O24  1  0.00007079  0.24875841  0.99847591  1
  O  O25  1  0.00006946  0.24883787  0.50152928  1
  O  O26  1  0.00073493  0.75125770  0.99912059  1
  O  O27  1  0.00073728  0.75117607  0.50088256  1
  O  O28  1  0.49992976  0.24883780  0.99847319  1
  O  O29  1  0.49993255  0.24982811  0.50151180  1
  O  O30  1  0.49926522  0.75117714  0.99911973  1
  O  O31  1  0.49927069  0.75017828  0.50086931  1
  O  O32  1  0.00007890  0.00007770  0.24991263  1
  O  O33  1  0.00072288  0.00072210  0.75008321  1
  O  O34  1  0.00007036  0.49992633  0.24999366  1
  O  O35  1  0.00071315  0.49928628  0.75000902  1
  O  O36  1  0.49992453  0.00007317  0.24890329  1
  O  O37  1  0.49927983  0.00072143  0.75105697  1
  O  O38  1  0.49992926  0.49992871  0.24991316  1
  O  O39  1  0.49928162  0.49928187  0.75008032  1
