# generated using pymatgen
data_Nb3Si2
_symmetry_space_group_name_H-M   'P 1'
_cell_length_a   3.51124001
_cell_length_b   6.76111074
_cell_length_c   6.76111074
_cell_angle_alpha   90.00000000
_cell_angle_beta   90.00000000
_cell_angle_gamma   90.00000000
_symmetry_Int_Tables_number   1
_chemical_formula_structural   Nb3Si2
_chemical_formula_sum   'Nb6 Si4'
_cell_volume   160.50797482
_cell_formula_units_Z   2
loop_
 _symmetry_equiv_pos_site_id
 _symmetry_equiv_pos_as_xyz
  1  'x, y, z'
loop_
 _atom_site_type_symbol
 _atom_site_label
 _atom_site_symmetry_multiplicity
 _atom_site_fract_x
 _atom_site_fract_y
 _atom_site_fract_z
 _atom_site_occupancy
  Nb  Nb0  1  0.00000000  0.50000000  0.50000000  1
  Nb  Nb1  1  -0.00000000  -0.00000000  -0.00000000  1
  Nb  Nb2  1  0.50000000  0.17214152  0.67214152  1
  Nb  Nb3  1  0.50000000  0.82785848  0.32785848  1
  Nb  Nb4  1  0.50000000  0.32785848  0.17214152  1
  Nb  Nb5  1  0.50000000  0.67214152  0.82785848  1
  Si  Si6  1  0.00000000  0.62757015  0.12757015  1
  Si  Si7  1  -0.00000000  0.37242985  0.87242985  1
  Si  Si8  1  -0.00000000  0.87242985  0.62757015  1
  Si  Si9  1  0.00000000  0.12757015  0.37242985  1
