# generated using pymatgen
data_KI
_symmetry_space_group_name_H-M   'P 1'
_cell_length_a   8.51045441
_cell_length_b   5.02531931
_cell_length_c   8.67658868
_cell_angle_alpha   90.00000000
_cell_angle_beta   90.00000000
_cell_angle_gamma   90.00000000
_symmetry_Int_Tables_number   1
_chemical_formula_structural   KI
_chemical_formula_sum   'K4 I4'
_cell_volume   371.07818318
_cell_formula_units_Z   4
loop_
 _symmetry_equiv_pos_site_id
 _symmetry_equiv_pos_as_xyz
  1  'x, y, z'
loop_
 _atom_site_type_symbol
 _atom_site_label
 _atom_site_symmetry_multiplicity
 _atom_site_fract_x
 _atom_site_fract_y
 _atom_site_fract_z
 _atom_site_occupancy
  K  K0  1  0.75013529  0.25000000  0.50205236  1
  K  K1  1  0.74986471  0.25000000  0.00205236  1
  K  K2  1  0.24986471  0.75000000  0.49794764  1
  K  K3  1  0.25013529  0.75000000  0.99794764  1
  I  I4  1  0.40977049  0.25000000  0.74884192  1
  I  I5  1  0.09022951  0.25000000  0.24884192  1
  I  I6  1  0.59022951  0.75000000  0.25115808  1
  I  I7  1  0.90977049  0.75000000  0.75115808  1
