# generated using pymatgen
data_Mn8Si6ClO24
_symmetry_space_group_name_H-M   'P 1'
_cell_length_a   7.67788040
_cell_length_b   12.91518583
_cell_length_c   12.91518583
_cell_angle_alpha   120.00000106
_cell_angle_beta   90.00000000
_cell_angle_gamma   90.00000000
_symmetry_Int_Tables_number   1
_chemical_formula_structural   Mn8Si6ClO24
_chemical_formula_sum   'Mn16 Si12 Cl2 O48'
_cell_volume   1109.10659665
_cell_formula_units_Z   2
loop_
 _symmetry_equiv_pos_site_id
 _symmetry_equiv_pos_as_xyz
  1  'x, y, z'
loop_
 _atom_site_type_symbol
 _atom_site_label
 _atom_site_symmetry_multiplicity
 _atom_site_fract_x
 _atom_site_fract_y
 _atom_site_fract_z
 _atom_site_occupancy
  Mn  Mn0  1  0.05597862  0.75220853  0.50441706  1
  Mn  Mn1  1  0.94402138  0.24779147  0.49558294  1
  Mn  Mn2  1  0.05597862  0.75220853  0.24779147  1
  Mn  Mn3  1  0.94402138  0.24779147  0.75220853  1
  Mn  Mn4  1  0.05597862  0.49558294  0.24779147  1
  Mn  Mn5  1  0.94402138  0.50441706  0.75220853  1
  Mn  Mn6  1  -0.00000000  0.50000000  0.50000000  1
  Mn  Mn7  1  0.00000000  -0.00000000  0.50000000  1
  Mn  Mn8  1  0.00000000  0.50000000  0.00000000  1
  Mn  Mn9  1  0.00000000  0.76103582  0.76103582  1
  Mn  Mn10  1  -0.00000000  0.23896418  0.23896418  1
  Mn  Mn11  1  -0.00000000  1.00000000  0.23896418  1
  Mn  Mn12  1  -0.00000000  0.00000000  0.76103582  1
  Mn  Mn13  1  0.00000000  0.23896418  1.00000000  1
  Mn  Mn14  1  -0.00000000  0.76103582  0.00000000  1
  Mn  Mn15  1  -0.00000000  -0.00000000  0.00000000  1
  Si  Si16  1  0.64213025  0.90937582  0.33231361  1
  Si  Si17  1  0.35786975  0.09062418  0.66768639  1
  Si  Si18  1  0.64213025  0.42293779  0.09062418  1
  Si  Si19  1  0.35786975  0.57706221  0.66768639  1
  Si  Si20  1  0.35786975  0.57706221  0.90937582  1
  Si  Si21  1  0.64213025  0.42293779  0.33231361  1
  Si  Si22  1  0.64213025  0.66768639  0.57706221  1
  Si  Si23  1  0.35786975  0.33231361  0.90937582  1
  Si  Si24  1  0.35786975  0.33231361  0.42293779  1
  Si  Si25  1  0.64213025  0.66768639  0.09062418  1
  Si  Si26  1  0.35786975  0.09062418  0.42293779  1
  Si  Si27  1  0.64213025  0.90937582  0.57706221  1
  Cl  Cl28  1  0.83372242  0.66666700  0.33333300  1
  Cl  Cl29  1  0.16627758  0.33333300  0.66666700  1
  O  O30  1  0.60510353  0.55188971  0.10377942  1
  O  O31  1  0.39489647  0.44811029  0.89622058  1
  O  O32  1  0.60510353  0.55188971  0.44811029  1
  O  O33  1  0.39489647  0.44811029  0.55188971  1
  O  O34  1  0.60510353  0.89622058  0.44811029  1
  O  O35  1  0.39489647  0.10377942  0.55188971  1
  O  O36  1  0.88129582  0.92120835  0.84241670  1
  O  O37  1  0.11870418  0.07879165  0.15758330  1
  O  O38  1  0.88129582  0.92120835  0.07879165  1
  O  O39  1  0.11870418  0.07879165  0.92120835  1
  O  O40  1  0.88129582  0.15758330  0.07879165  1
  O  O41  1  0.11870418  0.84241670  0.92120835  1
  O  O42  1  0.50000000  0.67200735  0.67200735  1
  O  O43  1  0.50000000  0.32799265  0.32799265  1
  O  O44  1  0.50000000  1.00000000  0.32799265  1
  O  O45  1  0.50000000  0.00000000  0.67200735  1
  O  O46  1  0.50000000  0.32799265  1.00000000  1
  O  O47  1  0.50000000  0.67200735  0.00000000  1
  O  O48  1  0.89261848  0.15957346  0.31914692  1
  O  O49  1  0.10738152  0.84042654  0.68085308  1
  O  O50  1  0.89261848  0.15957346  0.84042654  1
  O  O51  1  0.10738152  0.84042654  0.15957346  1
  O  O52  1  0.89261848  0.68085308  0.84042654  1
  O  O53  1  0.10738152  0.31914692  0.15957346  1
  O  O54  1  0.59966691  0.78405866  0.56811732  1
  O  O55  1  0.40033309  0.21594134  0.43188268  1
  O  O56  1  0.59966691  0.78405866  0.21594134  1
  O  O57  1  0.40033309  0.21594134  0.78405866  1
  O  O58  1  0.59966691  0.43188268  0.21594134  1
  O  O59  1  0.40033309  0.56811732  0.78405866  1
  O  O60  1  0.88556866  0.42391213  0.84782426  1
  O  O61  1  0.11443134  0.57608787  0.15217574  1
  O  O62  1  0.88556866  0.42391213  0.57608787  1
  O  O63  1  0.11443134  0.57608787  0.42391213  1
  O  O64  1  0.88556866  0.15217574  0.57608787  1
  O  O65  1  0.11443134  0.84782426  0.42391213  1
  O  O66  1  0.85000050  0.94405356  0.33490324  1
  O  O67  1  0.14999950  0.05594644  0.66509676  1
  O  O68  1  0.85000050  0.39084968  0.05594644  1
  O  O69  1  0.14999950  0.60915032  0.66509676  1
  O  O70  1  0.14999950  0.60915032  0.94405356  1
  O  O71  1  0.85000050  0.39084968  0.33490324  1
  O  O72  1  0.85000050  0.66509676  0.60915032  1
  O  O73  1  0.14999950  0.33490324  0.94405356  1
  O  O74  1  0.14999950  0.33490324  0.39084968  1
  O  O75  1  0.85000050  0.66509676  0.05594644  1
  O  O76  1  0.14999950  0.05594644  0.39084968  1
  O  O77  1  0.85000050  0.94405356  0.60915032  1
