# generated using pymatgen
data_Sr7CaMn2(FeO4)6
_symmetry_space_group_name_H-M   'P 1'
_cell_length_a   7.77962955
_cell_length_b   7.82344986
_cell_length_c   7.82344986
_cell_angle_alpha   89.99037079
_cell_angle_beta   90.00000000
_cell_angle_gamma   90.00000000
_symmetry_Int_Tables_number   1
_chemical_formula_structural   Sr7CaMn2(FeO4)6
_chemical_formula_sum   'Sr7 Ca1 Mn2 Fe6 O24'
_cell_volume   476.16285989
_cell_formula_units_Z   1
loop_
 _symmetry_equiv_pos_site_id
 _symmetry_equiv_pos_as_xyz
  1  'x, y, z'
loop_
 _atom_site_type_symbol
 _atom_site_label
 _atom_site_symmetry_multiplicity
 _atom_site_fract_x
 _atom_site_fract_y
 _atom_site_fract_z
 _atom_site_occupancy
  Sr  Sr0  1  0.25000000  0.25062044  0.25059013  1
  Sr  Sr1  1  0.25000000  0.25059053  0.74940947  1
  Sr  Sr2  1  0.25000000  0.74940987  0.74937956  1
  Sr  Sr3  1  0.75000000  0.25057852  0.25061345  1
  Sr  Sr4  1  0.75000000  0.25057614  0.74942386  1
  Sr  Sr5  1  0.75000000  0.74942038  0.25057962  1
  Sr  Sr6  1  0.75000000  0.74938655  0.74942148  1
  Ca  Ca7  1  0.25000000  0.74935531  0.25064469  1
  Mn  Mn8  1  0.00056155  0.50049789  0.49950211  1
  Mn  Mn9  1  0.49943845  0.50049789  0.49950211  1
  Fe  Fe10  1  0.00057732  0.99942793  0.00057207  1
  Fe  Fe11  1  0.00055545  0.99938790  0.49943545  1
  Fe  Fe12  1  0.00055545  0.50056455  0.00061210  1
  Fe  Fe13  1  0.49942268  0.99942793  0.00057207  1
  Fe  Fe14  1  0.49944455  0.99938790  0.49943545  1
  Fe  Fe15  1  0.49944455  0.50056455  0.00061210  1
  O  O16  1  0.25000000  0.99735362  0.00264638  1
  O  O17  1  0.25000000  0.99737865  0.49739390  1
  O  O18  1  0.25000000  0.50260610  0.00262135  1
  O  O19  1  0.25000000  0.50277151  0.49722849  1
  O  O20  1  0.75000000  -0.00033863  0.00033863  1
  O  O21  1  0.75000000  0.99966601  0.49966092  1
  O  O22  1  0.75000000  0.50033908  0.00033399  1
  O  O23  1  0.75000000  0.50025100  0.49974900  1
  O  O24  1  0.00034045  0.24905637  0.00035930  1
  O  O25  1  0.00032010  0.25448046  0.49965223  1
  O  O26  1  0.00266739  0.75094220  0.00262875  1
  O  O27  1  0.00272370  0.74555819  0.49725774  1
  O  O28  1  0.49965955  0.24905637  0.00035930  1
  O  O29  1  0.49967990  0.25448046  0.49965223  1
  O  O30  1  0.49733261  0.75094220  0.00262875  1
  O  O31  1  0.49727630  0.74555819  0.49725774  1
  O  O32  1  0.00266739  0.99737125  0.24905780  1
  O  O33  1  0.00034045  -0.00035930  0.75094363  1
  O  O34  1  0.00272370  0.50274226  0.25444181  1
  O  O35  1  0.00032010  0.50034777  0.74551954  1
  O  O36  1  0.49733261  0.99737125  0.24905780  1
  O  O37  1  0.49965955  -0.00035930  0.75094363  1
  O  O38  1  0.49727630  0.50274226  0.25444181  1
  O  O39  1  0.49967990  0.50034777  0.74551954  1
