# generated using pymatgen
data_Zr
_symmetry_space_group_name_H-M   'P 1'
_cell_length_a   5.49986675
_cell_length_b   5.87559873
_cell_length_c   5.87559873
_cell_angle_alpha   90.15022447
_cell_angle_beta   62.00839024
_cell_angle_gamma   62.00839024
_symmetry_Int_Tables_number   1
_chemical_formula_structural   Zr
_chemical_formula_sum   Zr6
_cell_volume   141.86654905
_cell_formula_units_Z   6
loop_
 _symmetry_equiv_pos_site_id
 _symmetry_equiv_pos_as_xyz
  1  'x, y, z'
loop_
 _atom_site_type_symbol
 _atom_site_label
 _atom_site_symmetry_multiplicity
 _atom_site_fract_x
 _atom_site_fract_y
 _atom_site_fract_z
 _atom_site_occupancy
  Zr  Zr0  1  0.75000000  0.75011019  0.24988981  1
  Zr  Zr1  1  0.25000000  0.24988981  0.75011019  1
  Zr  Zr2  1  0.41657532  0.32398449  0.17797885  1
  Zr  Zr3  1  0.08342468  0.82202115  0.67601551  1
  Zr  Zr4  1  0.58342468  0.67601551  0.82202115  1
  Zr  Zr5  1  0.91657532  0.17797885  0.32398449  1
