# generated using pymatgen
data_Zn(GaS2)2
_symmetry_space_group_name_H-M   'P 1'
_cell_length_a   3.72765166
_cell_length_b   3.72765200
_cell_length_c   12.63204599
_cell_angle_alpha   81.51517646
_cell_angle_beta   81.51517800
_cell_angle_gamma   59.99999701
_symmetry_Int_Tables_number   1
_chemical_formula_structural   Zn(GaS2)2
_chemical_formula_sum   'Zn1 Ga2 S4'
_cell_volume   149.78853728
_cell_formula_units_Z   1
loop_
 _symmetry_equiv_pos_site_id
 _symmetry_equiv_pos_as_xyz
  1  'x, y, z'
loop_
 _atom_site_type_symbol
 _atom_site_label
 _atom_site_symmetry_multiplicity
 _atom_site_fract_x
 _atom_site_fract_y
 _atom_site_fract_z
 _atom_site_occupancy
  Zn  Zn0  1  0.76899292  0.76899292  0.69302124  1
  Ga  Ga1  1  0.00126786  0.00126786  0.99619641  1
  Ga  Ga2  1  0.23509978  0.23509978  0.29470067  1
  S  S3  1  0.11993862  0.11993862  0.64018415  1
  S  S4  1  0.87600414  0.87600414  0.37198759  1
  S  S5  1  0.69886543  0.69886543  0.90340371  1
  S  S6  1  0.29583125  0.29583125  0.11250624  1
