# generated using pymatgen
data_Rb3NbF12
_symmetry_space_group_name_H-M   'P 1'
_cell_length_a   7.75197575
_cell_length_b   8.03963263
_cell_length_c   7.27469495
_cell_angle_alpha   92.10446277
_cell_angle_beta   85.63164277
_cell_angle_gamma   118.82330999
_symmetry_Int_Tables_number   1
_chemical_formula_structural   Rb3NbF12
_chemical_formula_sum   'Rb3 Nb1 F12'
_cell_volume   396.05806643
_cell_formula_units_Z   1
loop_
 _symmetry_equiv_pos_site_id
 _symmetry_equiv_pos_as_xyz
  1  'x, y, z'
loop_
 _atom_site_type_symbol
 _atom_site_label
 _atom_site_symmetry_multiplicity
 _atom_site_fract_x
 _atom_site_fract_y
 _atom_site_fract_z
 _atom_site_occupancy
  Rb  Rb0  1  -0.00000000  -0.00000000  0.50000000  1
  Rb  Rb1  1  0.50000000  0.50000000  0.00000000  1
  Rb  Rb2  1  -0.00000000  0.50000000  0.00000000  1
  Nb  Nb3  1  -0.00000000  -0.00000000  0.00000000  1
  F  F4  1  0.75174632  0.83459859  0.85503696  1
  F  F5  1  0.24825368  0.16540141  0.14496304  1
  F  F6  1  0.89456404  0.48097781  0.51218897  1
  F  F7  1  0.08285228  0.83459859  0.14496303  1
  F  F8  1  0.10543596  0.51902219  0.48781103  1
  F  F9  1  0.91714772  0.16540141  0.85503697  1
  F  F10  1  0.77261353  0.82739090  0.18282030  1
  F  F11  1  0.58641376  0.48097781  0.48781103  1
  F  F12  1  0.22738647  0.17260910  0.81717970  1
  F  F13  1  0.41358624  0.51902219  0.51218897  1
  F  F14  1  0.05477737  0.82739090  0.81717970  1
  F  F15  1  0.94522263  0.17260910  0.18282030  1
