# generated using pymatgen
data_TiCrAs
_symmetry_space_group_name_H-M   'P 1'
_cell_length_a   3.33175734
_cell_length_b   6.62416768
_cell_length_c   6.62503720
_cell_angle_alpha   119.99566158
_cell_angle_beta   90.00000000
_cell_angle_gamma   90.00000000
_symmetry_Int_Tables_number   1
_chemical_formula_structural   TiCrAs
_chemical_formula_sum   'Ti3 Cr3 As3'
_cell_volume   126.63175270
_cell_formula_units_Z   3
loop_
 _symmetry_equiv_pos_site_id
 _symmetry_equiv_pos_as_xyz
  1  'x, y, z'
loop_
 _atom_site_type_symbol
 _atom_site_label
 _atom_site_symmetry_multiplicity
 _atom_site_fract_x
 _atom_site_fract_y
 _atom_site_fract_z
 _atom_site_occupancy
  Ti  Ti0  1  0.50000000  0.59509012  0.00000000  1
  Ti  Ti1  1  0.50000000  0.40467006  0.40460816  1
  Ti  Ti2  1  0.50000000  0.00006190  0.59539184  1
  Cr  Cr3  1  -0.00000000  0.25725945  0.00000000  1
  Cr  Cr4  1  0.00000000  0.74276897  0.74281712  1
  Cr  Cr5  1  -0.00000000  0.99995186  0.25718288  1
  As  As6  1  0.00000000  0.33329655  0.66667484  1
  As  As7  1  0.00000000  0.66662171  0.33332516  1
  As  As8  1  0.50000000  0.00017939  1.00000000  1
