# generated using pymatgen
data_Mn12HO24
_symmetry_space_group_name_H-M   'P 1'
_cell_length_a   5.91434217
_cell_length_b   14.01222319
_cell_length_c   9.14116619
_cell_angle_alpha   92.08725417
_cell_angle_beta   89.99911788
_cell_angle_gamma   89.99891400
_symmetry_Int_Tables_number   1
_chemical_formula_structural   Mn12HO24
_chemical_formula_sum   'Mn24 H2 O48'
_cell_volume   757.05399645
_cell_formula_units_Z   2
loop_
 _symmetry_equiv_pos_site_id
 _symmetry_equiv_pos_as_xyz
  1  'x, y, z'
loop_
 _atom_site_type_symbol
 _atom_site_label
 _atom_site_symmetry_multiplicity
 _atom_site_fract_x
 _atom_site_fract_y
 _atom_site_fract_z
 _atom_site_occupancy
  Mn  Mn0  1  0.74986442  0.50110776  0.50222653  1
  Mn  Mn1  1  0.75140401  0.50051459  0.99990944  1
  Mn  Mn2  1  0.25010118  0.49979558  0.49981380  1
  Mn  Mn3  1  0.24848606  0.50112390  0.00103585  1
  Mn  Mn4  1  0.74998348  0.15867404  0.76160845  1
  Mn  Mn5  1  0.74962172  0.15962972  0.26046595  1
  Mn  Mn6  1  0.24990607  0.15791744  0.75716870  1
  Mn  Mn7  1  0.25000333  0.15505706  0.26194822  1
  Mn  Mn8  1  0.75510123  0.84365516  0.74167431  1
  Mn  Mn9  1  0.74983618  0.84218778  0.23976570  1
  Mn  Mn10  1  0.24534455  0.84401211  0.74105528  1
  Mn  Mn11  1  0.25006854  0.84208544  0.23987711  1
  Mn  Mn12  1  0.49987628  0.99991183  0.99990401  1
  Mn  Mn13  1  0.50149404  0.00112859  0.50092281  1
  Mn  Mn14  1  0.00003974  0.00106533  0.00220164  1
  Mn  Mn15  1  0.99859752  0.00050032  0.49984865  1
  Mn  Mn16  1  0.49998180  0.65459298  0.76141560  1
  Mn  Mn17  1  0.50015120  0.65785201  0.25729712  1
  Mn  Mn18  1  0.00047634  0.65920801  0.75999444  1
  Mn  Mn19  1  -0.00009649  0.65866395  0.26181271  1
  Mn  Mn20  1  0.50005250  0.34215583  0.73973972  1
  Mn  Mn21  1  0.50487432  0.34433925  0.24144250  1
  Mn  Mn22  1  0.00002823  0.34224818  0.73962594  1
  Mn  Mn23  1  0.99481880  0.34401998  0.24217423  1
  H  H24  1  0.24993481  0.26642353  0.02760070  1
  H  H25  1  0.50009508  0.76578506  0.52687708  1
  O  O26  1  0.75173023  0.93863000  0.59475832  1
  O  O27  1  0.74914671  0.93800716  0.09438859  1
  O  O28  1  0.24906110  0.93927078  0.59458307  1
  O  O29  1  0.25075955  0.93842524  0.09479588  1
  O  O30  1  0.74970785  0.06228929  0.90672861  1
  O  O31  1  0.74920314  0.06193939  0.40516409  1
  O  O32  1  0.25018660  0.06244123  0.90583870  1
  O  O33  1  0.25005517  0.06220468  0.40583221  1
  O  O34  1  0.00032158  0.43823988  0.59467078  1
  O  O35  1  0.99822266  0.43874555  0.09492534  1
  O  O36  1  0.49959059  0.43860917  0.59507649  1
  O  O37  1  0.50105987  0.43930875  0.09470174  1
  O  O38  1  0.49984720  0.56213907  0.90555542  1
  O  O39  1  0.50009500  0.56217338  0.40546581  1
  O  O40  1  0.00083956  0.56187001  0.90509059  1
  O  O41  1  -0.00014397  0.56200634  0.40632586  1
  O  O42  1  0.00039951  0.89919945  0.84779468  1
  O  O43  1  0.99991476  0.89873599  0.34673455  1
  O  O44  1  0.50007185  0.89850648  0.84492326  1
  O  O45  1  0.50004570  0.89643717  0.35045984  1
  O  O46  1  0.99815462  0.10238177  0.65289144  1
  O  O47  1  0.00010470  0.10204289  0.15554212  1
  O  O48  1  0.50187280  0.10222732  0.65364031  1
  O  O49  1  0.49946280  0.10133370  0.15362940  1
  O  O50  1  0.75006984  0.39875521  0.84665664  1
  O  O51  1  0.74963894  0.39925699  0.34840733  1
  O  O52  1  0.24991679  0.39642859  0.85021902  1
  O  O53  1  0.24991421  0.39849776  0.34539505  1
  O  O54  1  0.74989359  0.60172850  0.65507590  1
  O  O55  1  0.75186487  0.60234499  0.15311867  1
  O  O56  1  0.25045657  0.60122260  0.65309257  1
  O  O57  1  0.24815640  0.60213138  0.15412315  1
  O  O58  1  0.00006972  0.77401446  0.64377938  1
  O  O59  1  0.00016420  0.77277388  0.14515071  1
  O  O60  1  0.49983491  0.77242281  0.63482432  1
  O  O61  1  0.49994721  0.77312341  0.14308334  1
  O  O62  1  0.00413663  0.22787122  0.85729359  1
  O  O63  1  0.00202845  0.22798146  0.35476122  1
  O  O64  1  0.49567907  0.22798610  0.85730223  1
  O  O65  1  0.49798820  0.22847688  0.35415398  1
  O  O66  1  0.74987762  0.27265652  0.64506703  1
  O  O67  1  0.75020479  0.27444454  0.14416873  1
  O  O68  1  0.25005014  0.27313778  0.64301956  1
  O  O69  1  0.25016672  0.27309221  0.13551773  1
  O  O70  1  0.74786727  0.72743182  0.85406357  1
  O  O71  1  0.74578070  0.72799087  0.35741960  1
  O  O72  1  0.25214494  0.72787971  0.85378728  1
  O  O73  1  0.25430469  0.72802021  0.35743384  1
