# generated using pymatgen
data_Li2Mg
_symmetry_space_group_name_H-M   'P 1'
_cell_length_a   5.03214190
_cell_length_b   3.05399621
_cell_length_c   15.85891138
_cell_angle_alpha   90.00000000
_cell_angle_beta   90.00000000
_cell_angle_gamma   90.00000000
_symmetry_Int_Tables_number   1
_chemical_formula_structural   Li2Mg
_chemical_formula_sum   'Li8 Mg4'
_cell_volume   243.72200666
_cell_formula_units_Z   4
loop_
 _symmetry_equiv_pos_site_id
 _symmetry_equiv_pos_as_xyz
  1  'x, y, z'
loop_
 _atom_site_type_symbol
 _atom_site_label
 _atom_site_symmetry_multiplicity
 _atom_site_fract_x
 _atom_site_fract_y
 _atom_site_fract_z
 _atom_site_occupancy
  Li  Li0  1  -0.00000000  0.50000000  0.50049867  1
  Li  Li1  1  0.00000000  0.50000000  0.16670763  1
  Li  Li2  1  -0.00000000  -0.00000000  0.33339728  1
  Li  Li3  1  0.50000000  0.50000000  0.05557258  1
  Li  Li4  1  -0.00000000  -0.00000000  0.00049867  1
  Li  Li5  1  0.00000000  -0.00000000  0.66670763  1
  Li  Li6  1  -0.00000000  0.50000000  0.83339728  1
  Li  Li7  1  0.50000000  0.00000000  0.55557258  1
  Mg  Mg8  1  0.50000000  0.50000000  0.39017725  1
  Mg  Mg9  1  0.50000000  -0.00000000  0.22031359  1
  Mg  Mg10  1  0.50000000  0.00000000  0.89017725  1
  Mg  Mg11  1  0.50000000  0.50000000  0.72031359  1
