# generated using pymatgen
data_NpB2C
_symmetry_space_group_name_H-M   'P 1'
_cell_length_a   5.18845545
_cell_length_b   5.18845545
_cell_length_c   5.18845502
_cell_angle_alpha   78.20114970
_cell_angle_beta   78.20114970
_cell_angle_gamma   78.20116037
_symmetry_Int_Tables_number   1
_chemical_formula_structural   NpB2C
_chemical_formula_sum   'Np3 B6 C3'
_cell_volume   131.89111555
_cell_formula_units_Z   3
loop_
 _symmetry_equiv_pos_site_id
 _symmetry_equiv_pos_as_xyz
  1  'x, y, z'
loop_
 _atom_site_type_symbol
 _atom_site_label
 _atom_site_symmetry_multiplicity
 _atom_site_fract_x
 _atom_site_fract_y
 _atom_site_fract_z
 _atom_site_occupancy
  Np  Np0  1  -0.00000000  -0.00000000  -0.00000000  1
  Np  Np1  1  0.68888894  0.68888894  0.68888894  1
  Np  Np2  1  0.31111106  0.31111106  0.31111106  1
  B  B3  1  0.77146849  0.22853151  0.50000000  1
  B  B4  1  0.22853151  0.50000000  0.77146849  1
  B  B5  1  0.50000000  0.77146849  0.22853151  1
  B  B6  1  0.77146849  0.50000000  0.22853151  1
  B  B7  1  0.50000000  0.22853151  0.77146849  1
  B  B8  1  0.22853151  0.77146849  0.50000000  1
  C  C9  1  -0.00000000  -0.00000000  0.50000000  1
  C  C10  1  -0.00000000  0.50000000  -0.00000000  1
  C  C11  1  0.50000000  -0.00000000  -0.00000000  1
