# generated using pymatgen
data_HC4NCl2O3
_symmetry_space_group_name_H-M   'P 1'
_cell_length_a   5.63141203
_cell_length_b   10.68939004
_cell_length_c   12.85742106
_cell_angle_alpha   108.55107594
_cell_angle_beta   90.00000000
_cell_angle_gamma   90.00000000
_symmetry_Int_Tables_number   1
_chemical_formula_structural   HC4NCl2O3
_chemical_formula_sum   'H4 C16 N4 Cl8 O12'
_cell_volume   733.75478858
_cell_formula_units_Z   4
loop_
 _symmetry_equiv_pos_site_id
 _symmetry_equiv_pos_as_xyz
  1  'x, y, z'
loop_
 _atom_site_type_symbol
 _atom_site_label
 _atom_site_symmetry_multiplicity
 _atom_site_fract_x
 _atom_site_fract_y
 _atom_site_fract_z
 _atom_site_occupancy
  H  H0  1  0.88769932  0.60615684  0.00110539  1
  H  H1  1  0.11230068  0.39384316  0.99889461  1
  H  H2  1  0.38769932  0.39384316  0.49889461  1
  H  H3  1  0.61230068  0.60615684  0.50110539  1
  C  C4  1  0.64634240  0.43231589  0.61801847  1
  C  C5  1  0.35365760  0.56768411  0.38198153  1
  C  C6  1  0.14634240  0.56768411  0.88198153  1
  C  C7  1  0.85365760  0.43231589  0.11801847  1
  C  C8  1  0.65787953  0.27598095  0.72487931  1
  C  C9  1  0.34212047  0.72401905  0.27512069  1
  C  C10  1  0.15787953  0.72401905  0.77512069  1
  C  C11  1  0.84212047  0.27598095  0.22487931  1
  C  C12  1  0.87113120  0.74971466  0.92174121  1
  C  C13  1  0.12886880  0.25028534  0.07825879  1
  C  C14  1  0.37113120  0.25028534  0.57825879  1
  C  C15  1  0.62886880  0.74971466  0.42174121  1
  C  C16  1  0.96535002  0.79548229  0.84275885  1
  C  C17  1  0.03464998  0.20451771  0.15724115  1
  C  C18  1  0.46535002  0.20451771  0.65724115  1
  C  C19  1  0.53464998  0.79548229  0.34275885  1
  N  N20  1  0.95864681  0.63861479  0.93963697  1
  N  N21  1  0.04135319  0.36138521  0.06036303  1
  N  N22  1  0.45864681  0.36138521  0.56036303  1
  N  N23  1  0.54135319  0.63861479  0.43963697  1
  Cl  Cl24  1  0.86412263  0.93401842  0.81888588  1
  Cl  Cl25  1  0.13587737  0.06598158  0.18111412  1
  Cl  Cl26  1  0.36412263  0.06598158  0.68111412  1
  Cl  Cl27  1  0.63587737  0.93401842  0.31888588  1
  Cl  Cl28  1  0.85694812  0.82511600  0.50371599  1
  Cl  Cl29  1  0.14305188  0.17488400  0.49628401  1
  Cl  Cl30  1  0.35694812  0.17488400  0.99628401  1
  Cl  Cl31  1  0.64305188  0.82511600  0.00371599  1
  O  O32  1  0.73148836  0.52906741  0.60060613  1
  O  O33  1  0.26851164  0.47093259  0.39939387  1
  O  O34  1  0.23148836  0.47093259  0.89939387  1
  O  O35  1  0.76851164  0.52906741  0.10060613  1
  O  O36  1  0.73929424  0.38906239  0.69877827  1
  O  O37  1  0.26070576  0.61093761  0.30122173  1
  O  O38  1  0.23929424  0.61093761  0.80122173  1
  O  O39  1  0.76070576  0.38906239  0.19877827  1
  O  O40  1  0.75763343  0.25052031  0.79912193  1
  O  O41  1  0.24236657  0.74947969  0.20087807  1
  O  O42  1  0.25763343  0.74947969  0.70087807  1
  O  O43  1  0.74236657  0.25052031  0.29912193  1
