# generated using pymatgen
data_CaSeO4
_symmetry_space_group_name_H-M   'P 1'
_cell_length_a   5.11071094
_cell_length_b   5.11071094
_cell_length_c   6.98240202
_cell_angle_alpha   111.46734151
_cell_angle_beta   111.46734151
_cell_angle_gamma   90.00000000
_symmetry_Int_Tables_number   1
_chemical_formula_structural   CaSeO4
_chemical_formula_sum   'Ca2 Se2 O8'
_cell_volume   156.04928974
_cell_formula_units_Z   2
loop_
 _symmetry_equiv_pos_site_id
 _symmetry_equiv_pos_as_xyz
  1  'x, y, z'
loop_
 _atom_site_type_symbol
 _atom_site_label
 _atom_site_symmetry_multiplicity
 _atom_site_fract_x
 _atom_site_fract_y
 _atom_site_fract_z
 _atom_site_occupancy
  Ca  Ca0  1  0.62500000  0.87500000  0.25000000  1
  Ca  Ca1  1  0.37500000  0.12500000  0.75000000  1
  Se  Se2  1  0.12500000  0.37500000  0.25000000  1
  Se  Se3  1  0.87500000  0.62500000  0.75000000  1
  O  O4  1  0.29379677  0.43104059  0.09943210  1
  O  O5  1  0.80563534  0.16839151  0.09943210  1
  O  O6  1  0.93104059  0.30563534  0.59943210  1
  O  O7  1  0.66839151  0.79379677  0.59943210  1
  O  O8  1  0.70620323  0.56895941  0.90056790  1
  O  O9  1  0.19436466  0.83160849  0.90056790  1
  O  O10  1  0.06895941  0.69436466  0.40056790  1
  O  O11  1  0.33160849  0.20620323  0.40056790  1
