# generated using pymatgen
data_MgCd2
_symmetry_space_group_name_H-M   'P 1'
_cell_length_a   9.56873699
_cell_length_b   5.25345230
_cell_length_c   6.29212075
_cell_angle_alpha   90.00000000
_cell_angle_beta   123.36228641
_cell_angle_gamma   90.00000000
_symmetry_Int_Tables_number   1
_chemical_formula_structural   MgCd2
_chemical_formula_sum   'Mg4 Cd8'
_cell_volume   264.17526797
_cell_formula_units_Z   4
loop_
 _symmetry_equiv_pos_site_id
 _symmetry_equiv_pos_as_xyz
  1  'x, y, z'
loop_
 _atom_site_type_symbol
 _atom_site_label
 _atom_site_symmetry_multiplicity
 _atom_site_fract_x
 _atom_site_fract_y
 _atom_site_fract_z
 _atom_site_occupancy
  Mg  Mg0  1  -0.00000000  0.91620986  0.25000000  1
  Mg  Mg1  1  -0.00000000  0.08379014  0.75000000  1
  Mg  Mg2  1  0.50000000  0.41620986  0.25000000  1
  Mg  Mg3  1  0.50000000  0.58379014  0.75000000  1
  Cd  Cd4  1  0.66621282  0.08610418  0.74368648  1
  Cd  Cd5  1  0.33378718  0.08610418  0.75631352  1
  Cd  Cd6  1  0.66621282  0.91389582  0.24368648  1
  Cd  Cd7  1  0.83378718  0.41389582  0.25631352  1
  Cd  Cd8  1  0.16621282  0.58610418  0.74368648  1
  Cd  Cd9  1  0.83378718  0.58610418  0.75631352  1
  Cd  Cd10  1  0.16621282  0.41389582  0.24368648  1
  Cd  Cd11  1  0.33378718  0.91389582  0.25631352  1
