# generated using pymatgen
data_Sr2Mg
_symmetry_space_group_name_H-M   'P 1'
_cell_length_a   15.31325675
_cell_length_b   4.26599501
_cell_length_c   8.06143540
_cell_angle_alpha   90.00000000
_cell_angle_beta   104.39919898
_cell_angle_gamma   90.00000000
_symmetry_Int_Tables_number   1
_chemical_formula_structural   Sr2Mg
_chemical_formula_sum   'Sr8 Mg4'
_cell_volume   510.08054439
_cell_formula_units_Z   4
loop_
 _symmetry_equiv_pos_site_id
 _symmetry_equiv_pos_as_xyz
  1  'x, y, z'
loop_
 _atom_site_type_symbol
 _atom_site_label
 _atom_site_symmetry_multiplicity
 _atom_site_fract_x
 _atom_site_fract_y
 _atom_site_fract_z
 _atom_site_occupancy
  Sr  Sr0  1  0.14339112  0.00000000  0.07067428  1
  Sr  Sr1  1  0.35661826  0.50000000  0.42999072  1
  Sr  Sr2  1  0.14338174  0.00000000  0.57000928  1
  Sr  Sr3  1  0.35660888  0.50000000  0.92932572  1
  Sr  Sr4  1  0.64339112  0.50000000  0.07067428  1
  Sr  Sr5  1  0.85661826  0.00000000  0.42999072  1
  Sr  Sr6  1  0.64338174  0.50000000  0.57000928  1
  Sr  Sr7  1  0.85660888  0.00000000  0.92932572  1
  Mg  Mg8  1  0.49973855  0.00000000  0.25178045  1
  Mg  Mg9  1  0.00026145  0.50000000  0.74821955  1
  Mg  Mg10  1  0.99973855  0.50000000  0.25178045  1
  Mg  Mg11  1  0.50026145  0.00000000  0.74821955  1
