# generated using pymatgen
data_BaSr7Fe6(CoO10)2
_symmetry_space_group_name_H-M   'P 1'
_cell_length_a   11.08007480
_cell_length_b   11.46336411
_cell_length_c   17.94244350
_cell_angle_alpha   108.61192466
_cell_angle_beta   107.76847287
_cell_angle_gamma   90.28652599
_symmetry_Int_Tables_number   1
_chemical_formula_structural   BaSr7Fe6(CoO10)2
_chemical_formula_sum   'Ba4 Sr28 Fe24 Co8 O80'
_cell_volume   2043.46498687
_cell_formula_units_Z   4
loop_
 _symmetry_equiv_pos_site_id
 _symmetry_equiv_pos_as_xyz
  1  'x, y, z'
loop_
 _atom_site_type_symbol
 _atom_site_label
 _atom_site_symmetry_multiplicity
 _atom_site_fract_x
 _atom_site_fract_y
 _atom_site_fract_z
 _atom_site_occupancy
  Ba  Ba0  1  0.30867429  0.06293128  0.11477763  1
  Ba  Ba1  1  0.30972703  0.56175911  0.11357927  1
  Ba  Ba2  1  0.80825120  0.06121084  0.11424022  1
  Ba  Ba3  1  0.05613199  0.79977142  0.11373620  1
  Sr  Sr4  1  0.30932788  0.06299313  0.60818442  1
  Sr  Sr5  1  0.30578092  0.56406166  0.60888535  1
  Sr  Sr6  1  0.80252746  0.06227614  0.60823873  1
  Sr  Sr7  1  0.80679684  0.56329790  0.10920044  1
  Sr  Sr8  1  0.80586949  0.56409868  0.60891921  1
  Sr  Sr9  1  0.19837172  0.43801443  0.39196000  1
  Sr  Sr10  1  0.19795378  0.43619325  0.88919349  1
  Sr  Sr11  1  0.20287043  0.93748181  0.39447074  1
  Sr  Sr12  1  0.19951531  0.93575506  0.88881753  1
  Sr  Sr13  1  0.69711574  0.43659532  0.39135703  1
  Sr  Sr14  1  0.69642045  0.43547752  0.88846809  1
  Sr  Sr15  1  0.69537629  0.93868112  0.39314497  1
  Sr  Sr16  1  0.69215308  0.93335015  0.88832349  1
  Sr  Sr17  1  0.05699716  0.29553363  0.10872560  1
  Sr  Sr18  1  0.05561279  0.29396264  0.60924770  1
  Sr  Sr19  1  0.05532614  0.79653513  0.60913307  1
  Sr  Sr20  1  0.55640729  0.29771868  0.10812542  1
  Sr  Sr21  1  0.55634643  0.29084304  0.60820438  1
  Sr  Sr22  1  0.55849534  0.79405109  0.10943111  1
  Sr  Sr23  1  0.55705910  0.79813779  0.60888409  1
  Sr  Sr24  1  0.44804134  0.20480542  0.39527885  1
  Sr  Sr25  1  0.45026246  0.20785863  0.88868212  1
  Sr  Sr26  1  0.44803166  0.70780998  0.39461455  1
  Sr  Sr27  1  0.44721559  0.70436733  0.88853471  1
  Sr  Sr28  1  0.94954875  0.20688116  0.39392929  1
  Sr  Sr29  1  0.94423785  0.20577071  0.88763844  1
  Sr  Sr30  1  0.94911696  0.70431690  0.39279845  1
  Sr  Sr31  1  0.94239007  0.69923334  0.88805634  1
  Fe  Fe32  1  0.00365401  0.99898839  0.49928523  1
  Fe  Fe33  1  0.00470237  0.50077876  0.50128409  1
  Fe  Fe34  1  0.50486930  0.50051117  0.50148299  1
  Fe  Fe35  1  0.25151870  0.24699658  0.99213241  1
  Fe  Fe36  1  0.25589216  0.24955311  0.50085370  1
  Fe  Fe37  1  0.25647339  0.75230451  0.50196776  1
  Fe  Fe38  1  0.75295858  0.24848390  0.49968807  1
  Fe  Fe39  1  0.75254392  0.75106210  0.49877708  1
  Fe  Fe40  1  0.11488852  0.09720091  0.25891753  1
  Fe  Fe41  1  0.10715615  0.08983983  0.74806452  1
  Fe  Fe42  1  0.10611100  0.58895463  0.25242039  1
  Fe  Fe43  1  0.10671463  0.58878719  0.74776379  1
  Fe  Fe44  1  0.61483176  0.09510612  0.25600917  1
  Fe  Fe45  1  0.60643215  0.08882535  0.74715266  1
  Fe  Fe46  1  0.61507352  0.59312915  0.25524954  1
  Fe  Fe47  1  0.60519559  0.58769923  0.74620403  1
  Fe  Fe48  1  0.36056722  0.41020819  0.25380064  1
  Fe  Fe49  1  0.35636367  0.40810102  0.74658031  1
  Fe  Fe50  1  0.36821183  0.91348015  0.25854257  1
  Fe  Fe51  1  0.35620782  0.90910022  0.74720091  1
  Fe  Fe52  1  0.85864808  0.41170716  0.25143011  1
  Fe  Fe53  1  0.85577827  0.40737363  0.74676102  1
  Fe  Fe54  1  0.85920433  0.90724208  0.25633795  1
  Fe  Fe55  1  0.85642125  0.90889784  0.74762468  1
  Co  Co56  1  0.99817660  0.99452611  0.98526622  1
  Co  Co57  1  0.00112775  0.49582688  0.99620085  1
  Co  Co58  1  0.50004455  0.99759074  0.99332021  1
  Co  Co59  1  0.50482401  0.99915173  0.50001331  1
  Co  Co60  1  0.50361970  0.49835809  0.99557232  1
  Co  Co61  1  0.25271544  0.74149479  0.98929448  1
  Co  Co62  1  0.75141797  0.25341602  0.99856199  1
  Co  Co63  1  0.74682511  0.74417527  0.99172972  1
  O  O64  1  0.12537207  0.12280289  0.49321439  1
  O  O65  1  0.12400591  0.12404018  0.98768271  1
  O  O66  1  0.12488940  0.62241413  0.49315670  1
  O  O67  1  0.12966316  0.63032178  0.98830108  1
  O  O68  1  0.62358060  0.12118101  0.49329710  1
  O  O69  1  0.63274913  0.13218662  0.98989804  1
  O  O70  1  0.62516855  0.62227828  0.49251354  1
  O  O71  1  0.62874509  0.62744597  0.99096106  1
  O  O72  1  0.12772952  0.37188974  0.00113489  1
  O  O73  1  0.13210155  0.37951012  0.50903586  1
  O  O74  1  0.11453531  0.88477747  0.99925483  1
  O  O75  1  0.13356718  0.87738007  0.50883477  1
  O  O76  1  0.62991542  0.38497684  0.00682722  1
  O  O77  1  0.63327270  0.37795418  0.50877152  1
  O  O78  1  0.62395376  0.87439046  0.00302674  1
  O  O79  1  0.63125102  0.87894907  0.50865278  1
  O  O80  1  0.37707290  0.11850354  0.49358162  1
  O  O81  1  0.37501728  0.12163456  0.98903359  1
  O  O82  1  0.37466366  0.62045044  0.49311775  1
  O  O83  1  0.37961267  0.61503735  0.98838639  1
  O  O84  1  0.87517278  0.12034581  0.49365426  1
  O  O85  1  0.88195381  0.10636109  0.98823215  1
  O  O86  1  0.87560450  0.61954362  0.49345561  1
  O  O87  1  0.87038101  0.61202569  0.98729459  1
  O  O88  1  0.38021280  0.37425720  0.00133445  1
  O  O89  1  0.38374789  0.38198013  0.51064359  1
  O  O90  1  0.36961198  0.86778583  0.00184598  1
  O  O91  1  0.38447638  0.88131685  0.50879436  1
  O  O92  1  0.87487453  0.36625324  0.00328642  1
  O  O93  1  0.88372265  0.38196232  0.50942188  1
  O  O94  1  0.86676172  0.86445080  0.99919093  1
  O  O95  1  0.88313299  0.88087274  0.51025293  1
  O  O96  1  0.08473152  0.10681737  0.15300097  1
  O  O97  1  0.08214779  0.09329661  0.63969135  1
  O  O98  1  0.07435114  0.58703210  0.14304051  1
  O  O99  1  0.08096778  0.59464898  0.63938531  1
  O  O100  1  0.58307685  0.10630491  0.14966383  1
  O  O101  1  0.57765540  0.08837799  0.63667415  1
  O  O102  1  0.58995204  0.60220683  0.14909128  1
  O  O103  1  0.58027421  0.59437363  0.63801225  1
  O  O104  1  0.44067693  0.40357852  0.36246168  1
  O  O105  1  0.44162410  0.40063011  0.85230105  1
  O  O106  1  0.44560803  0.91015900  0.36866540  1
  O  O107  1  0.43937613  0.90103037  0.85358019  1
  O  O108  1  0.94225282  0.40642578  0.36041780  1
  O  O109  1  0.93945627  0.40062659  0.85277027  1
  O  O110  1  0.94148145  0.90579671  0.36606997  1
  O  O111  1  0.93870672  0.90047213  0.85475410  1
  O  O112  1  0.33418289  0.30807732  0.14242038  1
  O  O113  1  0.32963073  0.29524240  0.63757174  1
  O  O114  1  0.34226491  0.80722215  0.14988962  1
  O  O115  1  0.32991544  0.79656107  0.63782453  1
  O  O116  1  0.83487329  0.30548238  0.14153415  1
  O  O117  1  0.82942299  0.29425210  0.63799723  1
  O  O118  1  0.82923409  0.79629971  0.14797969  1
  O  O119  1  0.82957418  0.79598317  0.63917191  1
  O  O120  1  0.19611010  0.21064882  0.36792617  1
  O  O121  1  0.19128314  0.20281875  0.85661680  1
  O  O122  1  0.19205175  0.70394154  0.36081024  1
  O  O123  1  0.19066426  0.70312686  0.85569003  1
  O  O124  1  0.69912141  0.20687681  0.36592037  1
  O  O125  1  0.68948036  0.20405560  0.85339599  1
  O  O126  1  0.69756967  0.70656167  0.36526574  1
  O  O127  1  0.68749885  0.70198836  0.85383340  1
  O  O128  1  0.44768239  0.06528006  0.26231745  1
  O  O129  1  0.43357054  0.06118052  0.74822537  1
  O  O130  1  0.44602577  0.56265804  0.26108531  1
  O  O131  1  0.43230433  0.56115890  0.74730985  1
  O  O132  1  0.94585326  0.05713567  0.26079720  1
  O  O133  1  0.93354254  0.06074014  0.74821822  1
  O  O134  1  0.93210932  0.56584160  0.25313312  1
  O  O135  1  0.93334152  0.56033939  0.74767531  1
  O  O136  1  0.18556403  0.43830097  0.25161671  1
  O  O137  1  0.18318077  0.43774657  0.74817115  1
  O  O138  1  0.19904509  0.95051735  0.26039880  1
  O  O139  1  0.18332767  0.93813004  0.74854074  1
  O  O140  1  0.68539997  0.43776498  0.25164311  1
  O  O141  1  0.68221003  0.43718274  0.74731272  1
  O  O142  1  0.68612701  0.94078274  0.25285717  1
  O  O143  1  0.68385645  0.93839877  0.74890876  1
