# generated using pymatgen
data_K5Na3Nb4(WO6)4
_symmetry_space_group_name_H-M   'P 1'
_cell_length_a   8.04315590
_cell_length_b   8.04315590
_cell_length_c   8.03730596
_cell_angle_alpha   90.08824321
_cell_angle_beta   90.08824321
_cell_angle_gamma   90.10539785
_symmetry_Int_Tables_number   1
_chemical_formula_structural   K5Na3Nb4(WO6)4
_chemical_formula_sum   'K5 Na3 Nb4 W4 O24'
_cell_volume   519.95015000
_cell_formula_units_Z   1
loop_
 _symmetry_equiv_pos_site_id
 _symmetry_equiv_pos_as_xyz
  1  'x, y, z'
loop_
 _atom_site_type_symbol
 _atom_site_label
 _atom_site_symmetry_multiplicity
 _atom_site_fract_x
 _atom_site_fract_y
 _atom_site_fract_z
 _atom_site_occupancy
  K  K0  1  0.25101566  0.25101566  0.24985245  1
  K  K1  1  0.25068194  0.74868032  0.25040669  1
  K  K2  1  0.74868032  0.25068194  0.25040669  1
  K  K3  1  0.74933997  0.74933997  0.25026397  1
  K  K4  1  0.74892341  0.74892341  0.75014284  1
  Na  Na5  1  0.25100133  0.25100133  0.74978544  1
  Na  Na6  1  0.25125362  0.74895722  0.74981612  1
  Na  Na7  1  0.74895722  0.25125362  0.74981612  1
  Nb  Nb8  1  0.00049552  0.49924644  0.50182503  1
  Nb  Nb9  1  0.49924644  0.00049552  0.50182503  1
  Nb  Nb10  1  0.49936884  0.49936884  0.99832714  1
  Nb  Nb11  1  0.49948815  0.49948815  0.50144929  1
  W  W12  1  0.00033477  0.00033477  0.99831613  1
  W  W13  1  0.00048633  0.00048633  0.50145419  1
  W  W14  1  0.00050693  0.49946012  0.99873891  1
  W  W15  1  0.49946012  0.00050693  0.99873891  1
  O  O16  1  0.24738212  0.99856057  0.99676030  1
  O  O17  1  0.24401931  0.00033502  0.50325144  1
  O  O18  1  0.24709902  0.49956050  0.99483225  1
  O  O19  1  0.24875764  0.49970777  0.50321349  1
  O  O20  1  0.75264658  0.00339926  0.99732832  1
  O  O21  1  0.75637041  0.00153578  0.50211206  1
  O  O22  1  0.75326415  0.49851036  0.99941885  1
  O  O23  1  0.75126026  0.49834491  0.50249644  1
  O  O24  1  0.99856057  0.24738212  0.99676030  1
  O  O25  1  0.00033502  0.24401931  0.50325144  1
  O  O26  1  0.00339926  0.75264658  0.99732832  1
  O  O27  1  0.00153578  0.75637041  0.50211206  1
  O  O28  1  0.49956050  0.24709902  0.99483225  1
  O  O29  1  0.49970777  0.24875764  0.50321349  1
  O  O30  1  0.49851036  0.75326415  0.99941885  1
  O  O31  1  0.49834491  0.75126026  0.50249644  1
  O  O32  1  0.00087673  0.00087673  0.25678031  1
  O  O33  1  0.00097775  0.00097775  0.74408656  1
  O  O34  1  0.99883433  0.49986932  0.24922467  1
  O  O35  1  0.00292009  0.49829488  0.75036136  1
  O  O36  1  0.49986932  0.99883433  0.24922467  1
  O  O37  1  0.49829488  0.00292009  0.75036136  1
  O  O38  1  0.49947950  0.49947950  0.24862720  1
  O  O39  1  0.49875318  0.49875318  0.75134263  1
