# generated using pymatgen
data_Li9Mn7O16
_symmetry_space_group_name_H-M   'P 1'
_cell_length_a   5.74549161
_cell_length_b   10.13929171
_cell_length_c   6.06568040
_cell_angle_alpha   92.27732021
_cell_angle_beta   118.26865899
_cell_angle_gamma   73.54106573
_symmetry_Int_Tables_number   1
_chemical_formula_structural   Li9Mn7O16
_chemical_formula_sum   'Li9 Mn7 O16'
_cell_volume   296.59037919
_cell_formula_units_Z   1
loop_
 _symmetry_equiv_pos_site_id
 _symmetry_equiv_pos_as_xyz
  1  'x, y, z'
loop_
 _atom_site_type_symbol
 _atom_site_label
 _atom_site_symmetry_multiplicity
 _atom_site_fract_x
 _atom_site_fract_y
 _atom_site_fract_z
 _atom_site_occupancy
  Li  Li0  1  0.00786469  0.24314792  0.75887729  1
  Li  Li1  1  0.49692747  0.75996520  0.25382015  1
  Li  Li2  1  0.00503780  0.24980423  0.24730841  1
  Li  Li3  1  0.50753362  0.75019577  0.75269159  1
  Li  Li4  1  0.49246638  0.24980423  0.24730841  1
  Li  Li5  1  0.99496220  0.75019577  0.75269159  1
  Li  Li6  1  0.50307253  0.24003480  0.74617985  1
  Li  Li7  1  0.99213531  0.75685208  0.24112271  1
  Li  Li8  1  0.50000000  0.00000000  0.50000000  1
  Mn  Mn9  1  -0.00000000  0.00000000  -0.00000000  1
  Mn  Mn10  1  -0.00000000  0.00000000  0.50000000  1
  Mn  Mn11  1  0.50000000  0.50000000  0.50000000  1
  Mn  Mn12  1  0.50000000  0.50000000  -0.00000000  1
  Mn  Mn13  1  -0.00000000  0.50000000  -0.00000000  1
  Mn  Mn14  1  0.50000000  0.00000000  -0.00000000  1
  Mn  Mn15  1  -0.00000000  0.50000000  0.50000000  1
  O  O16  1  0.24927741  0.11384202  0.11239683  1
  O  O17  1  0.73962241  0.62113759  0.60038240  1
  O  O18  1  0.26824104  0.10313193  0.66208418  1
  O  O19  1  0.74444960  0.61693555  0.10504918  1
  O  O20  1  0.79071120  0.10313193  0.66208418  1
  O  O21  1  0.24366403  0.61693555  0.10504918  1
  O  O22  1  0.74144160  0.11809958  0.10098278  1
  O  O23  1  0.24101319  0.61956728  0.60159366  1
  O  O24  1  0.75898681  0.38043272  0.39840634  1
  O  O25  1  0.25855840  0.88190042  0.89901722  1
  O  O26  1  0.75633597  0.38306445  0.89495082  1
  O  O27  1  0.20928880  0.89686807  0.33791582  1
  O  O28  1  0.25555040  0.38306445  0.89495082  1
  O  O29  1  0.73175896  0.89686807  0.33791582  1
  O  O30  1  0.26037759  0.37886241  0.39961760  1
  O  O31  1  0.75072259  0.88615798  0.88760317  1
