# generated using pymatgen
data_SiGe
_symmetry_space_group_name_H-M   'P 1'
_cell_length_a   11.20083417
_cell_length_b   11.19939671
_cell_length_c   5.60063796
_cell_angle_alpha   90.00000000
_cell_angle_beta   90.00000000
_cell_angle_gamma   90.00604260
_symmetry_Int_Tables_number   1
_chemical_formula_structural   SiGe
_chemical_formula_sum   'Si16 Ge16'
_cell_volume   702.55850086
_cell_formula_units_Z   16
loop_
 _symmetry_equiv_pos_site_id
 _symmetry_equiv_pos_as_xyz
  1  'x, y, z'
loop_
 _atom_site_type_symbol
 _atom_site_label
 _atom_site_symmetry_multiplicity
 _atom_site_fract_x
 _atom_site_fract_y
 _atom_site_fract_z
 _atom_site_occupancy
  Si  Si0  1  0.00221068  0.00231214  0.99478721  1
  Si  Si1  1  0.99779521  0.49770627  0.00520286  1
  Si  Si2  1  0.99778932  0.24768786  0.49478721  1
  Si  Si3  1  0.00220479  0.75229373  0.50520286  1
  Si  Si4  1  0.75468508  0.25234198  0.99458456  1
  Si  Si5  1  0.75005653  0.74767759  0.00542793  1
  Si  Si6  1  0.24531492  0.99765802  0.49458456  1
  Si  Si7  1  0.24994347  0.50232241  0.50542793  1
  Si  Si8  1  0.87885726  0.12832705  0.75412999  1
  Si  Si9  1  0.37349280  0.62393432  0.74587475  1
  Si  Si10  1  0.12114274  0.12167295  0.25412999  1
  Si  Si11  1  0.62650720  0.62606568  0.24587475  1
  Si  Si12  1  0.62888158  0.37405411  0.75443524  1
  Si  Si13  1  0.12339700  0.87818883  0.74578865  1
  Si  Si14  1  0.87660300  0.37181117  0.24578865  1
  Si  Si15  1  0.37111842  0.87594589  0.25443524  1
  Ge  Ge16  1  0.49760485  0.99768450  0.00557913  1
  Ge  Ge17  1  0.50240707  0.50231346  0.99442907  1
  Ge  Ge18  1  0.50239515  0.25231550  0.50557913  1
  Ge  Ge19  1  0.49759293  0.74768654  0.49442907  1
  Ge  Ge20  1  0.24544802  0.24770864  0.00534078  1
  Ge  Ge21  1  0.25010540  0.75228693  0.99462114  1
  Ge  Ge22  1  0.75455198  0.00229136  0.50534078  1
  Ge  Ge23  1  0.74989460  0.49771307  0.49462114  1
  Ge  Ge24  1  0.37124654  0.12169909  0.74528644  1
  Ge  Ge25  1  0.87659657  0.62605905  0.75450226  1
  Ge  Ge26  1  0.62875346  0.12830091  0.24528644  1
  Ge  Ge27  1  0.12340343  0.62394095  0.25450226  1
  Ge  Ge28  1  0.12124799  0.37618491  0.74559852  1
  Ge  Ge29  1  0.62654492  0.87160265  0.75440948  1
  Ge  Ge30  1  0.37345508  0.37839735  0.25440948  1
  Ge  Ge31  1  0.87875201  0.87381509  0.24559852  1
