# generated using pymatgen
data_ZrTi2Ni9
_symmetry_space_group_name_H-M   'P 1'
_cell_length_a   5.16099974
_cell_length_b   5.16099974
_cell_length_c   6.99672107
_cell_angle_alpha   68.35740912
_cell_angle_beta   68.35740912
_cell_angle_gamma   59.99999924
_symmetry_Int_Tables_number   1
_chemical_formula_structural   ZrTi2Ni9
_chemical_formula_sum   'Zr1 Ti2 Ni9'
_cell_volume   146.02849002
_cell_formula_units_Z   1
loop_
 _symmetry_equiv_pos_site_id
 _symmetry_equiv_pos_as_xyz
  1  'x, y, z'
loop_
 _atom_site_type_symbol
 _atom_site_label
 _atom_site_symmetry_multiplicity
 _atom_site_fract_x
 _atom_site_fract_y
 _atom_site_fract_z
 _atom_site_occupancy
  Zr  Zr0  1  0.00000000  -0.00000000  0.00000000  1
  Ti  Ti1  1  0.21912427  0.21912427  0.34262719  1
  Ti  Ti2  1  0.78087573  0.78087573  0.65737281  1
  Ni  Ni3  1  0.50000000  0.50000000  0.00000000  1
  Ni  Ni4  1  0.50000000  -0.00000000  0.00000000  1
  Ni  Ni5  1  0.00000000  0.50000000  0.00000000  1
  Ni  Ni6  1  0.76408097  0.28650841  0.66290220  1
  Ni  Ni7  1  0.28650841  0.28650841  0.66290220  1
  Ni  Ni8  1  0.28650841  0.76408097  0.66290220  1
  Ni  Ni9  1  0.23591903  0.71349159  0.33709780  1
  Ni  Ni10  1  0.71349159  0.71349159  0.33709780  1
  Ni  Ni11  1  0.71349159  0.23591903  0.33709780  1
