# generated using pymatgen
data_Li9Mn7O16
_symmetry_space_group_name_H-M   'P 1'
_cell_length_a   5.74669628
_cell_length_b   9.73266986
_cell_length_c   6.06109943
_cell_angle_alpha   95.76521490
_cell_angle_beta   61.70158567
_cell_angle_gamma   90.00000158
_symmetry_Int_Tables_number   1
_chemical_formula_structural   Li9Mn7O16
_chemical_formula_sum   'Li9 Mn7 O16'
_cell_volume   296.53872249
_cell_formula_units_Z   1
loop_
 _symmetry_equiv_pos_site_id
 _symmetry_equiv_pos_as_xyz
  1  'x, y, z'
loop_
 _atom_site_type_symbol
 _atom_site_label
 _atom_site_symmetry_multiplicity
 _atom_site_fract_x
 _atom_site_fract_y
 _atom_site_fract_z
 _atom_site_occupancy
  Li  Li0  1  0.61808532  0.24959013  0.25167943  1
  Li  Li1  1  0.38191468  0.75040987  0.74832057  1
  Li  Li2  1  0.13023525  0.24959013  0.25167943  1
  Li  Li3  1  0.12864561  0.24360512  0.74270878  1
  Li  Li4  1  0.87135439  0.75639488  0.25729122  1
  Li  Li5  1  0.62294270  0.24079096  0.75411460  1
  Li  Li6  1  0.37705730  0.75920904  0.24588540  1
  Li  Li7  1  0.86976475  0.75040987  0.74832057  1
  Li  Li8  1  0.50000000  -0.00000000  -0.00000000  1
  Mn  Mn9  1  0.00000000  -0.00000000  -0.00000000  1
  Mn  Mn10  1  0.50000000  -0.00000000  0.50000000  1
  Mn  Mn11  1  0.75036901  0.49917980  0.49926198  1
  Mn  Mn12  1  0.24963099  0.50082020  0.50073802  1
  Mn  Mn13  1  0.24991875  0.50000000  1.00000000  1
  Mn  Mn14  1  0.00000000  -0.00000000  0.50000000  1
  Mn  Mn15  1  0.75008125  0.50000000  0.00000000  1
  O  O16  1  0.84160980  0.10342971  0.83900769  1
  O  O17  1  0.55333133  0.61663507  0.39435374  1
  O  O18  1  0.31938252  0.10342971  0.83900769  1
  O  O19  1  0.30613489  0.11364625  0.38773022  1
  O  O20  1  0.05136260  0.61938443  0.89727481  1
  O  O21  1  0.80050482  0.11786476  0.39899035  1
  O  O22  1  0.55063871  0.62026903  0.89872257  1
  O  O23  1  0.05231493  0.61663507  0.39435374  1
  O  O24  1  0.44666867  0.38336493  0.60564626  1
  O  O25  1  0.15839020  0.89657029  0.16099231  1
  O  O26  1  0.94768507  0.38336493  0.60564626  1
  O  O27  1  0.94863740  0.38061557  0.10272519  1
  O  O28  1  0.69386511  0.88635375  0.61226978  1
  O  O29  1  0.44936129  0.37973097  0.10127743  1
  O  O30  1  0.19949518  0.88213524  0.60100965  1
  O  O31  1  0.68061748  0.89657029  0.16099231  1
