# generated using pymatgen
data_H2C3NClOF4
_symmetry_space_group_name_H-M   'P 1'
_cell_length_a   5.80008333
_cell_length_b   12.61603082
_cell_length_c   10.35287019
_cell_angle_alpha   99.54236208
_cell_angle_beta   90.00000000
_cell_angle_gamma   90.00000000
_symmetry_Int_Tables_number   1
_chemical_formula_structural   H2C3NClOF4
_chemical_formula_sum   'H8 C12 N4 Cl4 O4 F16'
_cell_volume   747.07908883
_cell_formula_units_Z   4
loop_
 _symmetry_equiv_pos_site_id
 _symmetry_equiv_pos_as_xyz
  1  'x, y, z'
loop_
 _atom_site_type_symbol
 _atom_site_label
 _atom_site_symmetry_multiplicity
 _atom_site_fract_x
 _atom_site_fract_y
 _atom_site_fract_z
 _atom_site_occupancy
  H  H0  1  0.97207502  0.97251990  0.86887854  1
  H  H1  1  0.02792498  0.02748010  0.13112146  1
  H  H2  1  0.47207502  0.02748010  0.63112146  1
  H  H3  1  0.52792498  0.97251990  0.36887854  1
  H  H4  1  0.79129105  0.89712927  0.75179506  1
  H  H5  1  0.20870895  0.10287073  0.24820494  1
  H  H6  1  0.29129105  0.10287073  0.74820494  1
  H  H7  1  0.70870895  0.89712927  0.25179506  1
  C  C8  1  0.72530083  0.88824780  0.94698740  1
  C  C9  1  0.27469917  0.11175220  0.05301260  1
  C  C10  1  0.22530083  0.11175220  0.55301260  1
  C  C11  1  0.77469917  0.88824780  0.44698740  1
  C  C12  1  0.59319892  0.68763512  0.89361674  1
  C  C13  1  0.40680108  0.31236488  0.10638326  1
  C  C14  1  0.09319892  0.31236488  0.60638326  1
  C  C15  1  0.90680108  0.68763512  0.39361674  1
  C  C16  1  0.52116915  0.80820411  0.90685122  1
  C  C17  1  0.47883085  0.19179589  0.09314878  1
  C  C18  1  0.02116915  0.19179589  0.59314878  1
  C  C19  1  0.97883085  0.80820411  0.40685122  1
  N  N20  1  0.83767339  0.91961196  0.84765578  1
  N  N21  1  0.16232661  0.08038804  0.15234422  1
  N  N22  1  0.33767339  0.08038804  0.65234422  1
  N  N23  1  0.66232661  0.91961196  0.34765578  1
  Cl  Cl24  1  0.85996417  0.40044656  0.64546856  1
  Cl  Cl25  1  0.14003583  0.59955344  0.35453144  1
  Cl  Cl26  1  0.35996417  0.59955344  0.85453144  1
  Cl  Cl27  1  0.64003583  0.40044656  0.14546856  1
  O  O28  1  0.73043145  0.91686003  0.56498703  1
  O  O29  1  0.26956855  0.08313997  0.43501297  1
  O  O30  1  0.23043145  0.08313997  0.93501297  1
  O  O31  1  0.76956855  0.91686003  0.06498703  1
  F  F32  1  0.75699374  0.66741565  0.79783923  1
  F  F33  1  0.24300626  0.33258435  0.20216077  1
  F  F34  1  0.25699374  0.33258435  0.70216077  1
  F  F35  1  0.74300626  0.66741565  0.29783923  1
  F  F36  1  0.43001565  0.82329937  0.78864234  1
  F  F37  1  0.56998435  0.17670063  0.21135766  1
  F  F38  1  0.93001565  0.17670063  0.71135766  1
  F  F39  1  0.06998435  0.82329937  0.28864234  1
  F  F40  1  0.80942555  0.67101784  0.50825101  1
  F  F41  1  0.19057445  0.32898216  0.49174899  1
  F  F42  1  0.30942555  0.32898216  0.99174899  1
  F  F43  1  0.69057445  0.67101784  0.00825101  1
  F  F44  1  0.35145879  0.82770200  0.99911038  1
  F  F45  1  0.64854121  0.17229800  0.00088962  1
  F  F46  1  0.85145879  0.17229800  0.50088962  1
  F  F47  1  0.14854121  0.82770200  0.49911038  1
