# generated using pymatgen
data_Li9Mn7O16
_symmetry_space_group_name_H-M   'P 1'
_cell_length_a   5.33918954
_cell_length_b   5.74093091
_cell_length_c   10.15418013
_cell_angle_alpha   73.57930001
_cell_angle_beta   96.29954882
_cell_angle_gamma   90.00000588
_symmetry_Int_Tables_number   1
_chemical_formula_structural   Li9Mn7O16
_chemical_formula_sum   'Li9 Mn7 O16'
_cell_volume   296.59021993
_cell_formula_units_Z   1
loop_
 _symmetry_equiv_pos_site_id
 _symmetry_equiv_pos_as_xyz
  1  'x, y, z'
loop_
 _atom_site_type_symbol
 _atom_site_label
 _atom_site_symmetry_multiplicity
 _atom_site_fract_x
 _atom_site_fract_y
 _atom_site_fract_z
 _atom_site_occupancy
  Li  Li0  1  0.25168289  0.62074169  0.24976430  1
  Li  Li1  1  0.74831711  0.37925831  0.75023570  1
  Li  Li2  1  0.25168289  0.12949401  0.24976430  1
  Li  Li3  1  0.75221221  0.38025268  0.23949464  1
  Li  Li4  1  0.25608557  0.12227640  0.75544720  1
  Li  Li5  1  0.74391443  0.87772360  0.24455280  1
  Li  Li6  1  0.74831711  0.87050599  0.75023570  1
  Li  Li7  1  0.24778779  0.61974732  0.76050536  1
  Li  Li8  1  0.00000000  0.50000000  0.00000000  1
  Mn  Mn9  1  0.00000000  -0.00000000  0.00000000  1
  Mn  Mn10  1  0.50000000  0.25127189  0.00000000  1
  Mn  Mn11  1  0.49954730  0.74998185  0.50003630  1
  Mn  Mn12  1  0.50045270  0.25001815  0.49996370  1
  Mn  Mn13  1  0.00000000  0.50000000  0.50000000  1
  Mn  Mn14  1  0.00000000  -0.00000000  0.50000000  1
  Mn  Mn15  1  0.50000000  0.74872811  1.00000000  1
  O  O16  1  0.83813735  0.70775693  0.10288599  1
  O  O17  1  0.39503062  0.44150644  0.61665268  1
  O  O18  1  0.83813735  0.18935708  0.10288599  1
  O  O19  1  0.39807403  0.44215855  0.11568290  1
  O  O20  1  0.89889612  0.19033596  0.61932808  1
  O  O21  1  0.38985647  0.94176835  0.11646329  1
  O  O22  1  0.39503062  0.94184088  0.61665268  1
  O  O23  1  0.89919381  0.68965287  0.62069427  1
  O  O24  1  0.60496938  0.55849356  0.38334732  1
  O  O25  1  0.16186265  0.29224307  0.89711401  1
  O  O26  1  0.60496938  0.05815912  0.38334732  1
  O  O27  1  0.10080619  0.31034713  0.37930573  1
  O  O28  1  0.61014353  0.05823165  0.88353671  1
  O  O29  1  0.10110388  0.80966404  0.38067192  1
  O  O30  1  0.16186265  0.81064292  0.89711401  1
  O  O31  1  0.60192597  0.55784145  0.88431710  1
