# generated using pymatgen
data_Li2MnCrO4
_symmetry_space_group_name_H-M   'P 1'
_cell_length_a   5.23603678
_cell_length_b   10.26122332
_cell_length_c   9.83385533
_cell_angle_alpha   16.59425644
_cell_angle_beta   29.91994276
_cell_angle_gamma   33.83698648
_symmetry_Int_Tables_number   1
_chemical_formula_structural   Li2MnCrO4
_chemical_formula_sum   'Li2 Mn1 Cr1 O4'
_cell_volume   75.26436357
_cell_formula_units_Z   1
loop_
 _symmetry_equiv_pos_site_id
 _symmetry_equiv_pos_as_xyz
  1  'x, y, z'
loop_
 _atom_site_type_symbol
 _atom_site_label
 _atom_site_symmetry_multiplicity
 _atom_site_fract_x
 _atom_site_fract_y
 _atom_site_fract_z
 _atom_site_occupancy
  Li  Li0  1  -0.00000000  -0.00000000  0.00000000  1
  Li  Li1  1  -0.00000000  0.50000000  0.00000000  1
  Mn  Mn2  1  0.50000000  0.50000000  0.50000000  1
  Cr  Cr3  1  0.50000000  -0.00000000  0.50000000  1
  O  O4  1  0.23219519  0.00000000  0.23975397  1
  O  O5  1  0.28149495  0.50000000  0.22980414  1
  O  O6  1  0.76780481  1.00000000  0.76024603  1
  O  O7  1  0.71850505  0.50000000  0.77019586  1
