# generated using pymatgen
data_YCuTe2
_symmetry_space_group_name_H-M   'P 1'
_cell_length_a   4.35815831
_cell_length_b   4.35824881
_cell_length_c   6.90056928
_cell_angle_alpha   90.00026368
_cell_angle_beta   89.99772258
_cell_angle_gamma   120.00208607
_symmetry_Int_Tables_number   1
_chemical_formula_structural   YCuTe2
_chemical_formula_sum   'Y1 Cu1 Te2'
_cell_volume   113.50668609
_cell_formula_units_Z   1
loop_
 _symmetry_equiv_pos_site_id
 _symmetry_equiv_pos_as_xyz
  1  'x, y, z'
loop_
 _atom_site_type_symbol
 _atom_site_label
 _atom_site_symmetry_multiplicity
 _atom_site_fract_x
 _atom_site_fract_y
 _atom_site_fract_z
 _atom_site_occupancy
  Y  Y0  1  0.00001700  0.00001178  0.99056150  1
  Cu  Cu1  1  0.33334091  0.66666124  0.36532579  1
  Te  Te2  1  0.33338722  0.66669806  0.74513851  1
  Te  Te3  1  0.66665487  0.33332892  0.26497421  1
