# generated using pymatgen
data_ZrCl3
_symmetry_space_group_name_H-M   'P 1'
_cell_length_a   6.29111255
_cell_length_b   6.27820410
_cell_length_c   7.57210938
_cell_angle_alpha   65.85726467
_cell_angle_beta   90.06822795
_cell_angle_gamma   118.28741348
_symmetry_Int_Tables_number   1
_chemical_formula_structural   ZrCl3
_chemical_formula_sum   'Zr2 Cl6'
_cell_volume   233.31546054
_cell_formula_units_Z   2
loop_
 _symmetry_equiv_pos_site_id
 _symmetry_equiv_pos_as_xyz
  1  'x, y, z'
loop_
 _atom_site_type_symbol
 _atom_site_label
 _atom_site_symmetry_multiplicity
 _atom_site_fract_x
 _atom_site_fract_y
 _atom_site_fract_z
 _atom_site_occupancy
  Zr  Zr0  1  -0.02451780  0.02366904  -0.00003196  1
  Zr  Zr1  1  0.69118480  0.30966396  0.00003196  1
  Cl  Cl2  1  0.90797838  0.52120295  0.21486247  1
  Cl  Cl3  1  0.59391734  0.84337101  0.25035866  1
  Cl  Cl4  1  0.26055423  0.17227189  0.21240215  1
  Cl  Cl5  1  0.40611277  0.16106111  0.78759785  1
  Cl  Cl6  1  0.07274966  0.48996199  0.74964134  1
  Cl  Cl7  1  0.75868762  0.81213105  0.78513753  1
