# generated using pymatgen
data_V16Bi3O32
_symmetry_space_group_name_H-M   'P 1'
_cell_length_a   12.32920234
_cell_length_b   12.88130184
_cell_length_c   10.44930294
_cell_angle_alpha   52.14920740
_cell_angle_beta   42.72517851
_cell_angle_gamma   33.06153959
_symmetry_Int_Tables_number   1
_chemical_formula_structural   V16Bi3O32
_chemical_formula_sum   'V16 Bi3 O32'
_cell_volume   614.24298413
_cell_formula_units_Z   1
loop_
 _symmetry_equiv_pos_site_id
 _symmetry_equiv_pos_as_xyz
  1  'x, y, z'
loop_
 _atom_site_type_symbol
 _atom_site_label
 _atom_site_symmetry_multiplicity
 _atom_site_fract_x
 _atom_site_fract_y
 _atom_site_fract_z
 _atom_site_occupancy
  V  V0  1  0.01482113  0.18825207  0.51762981  1
  V  V1  1  0.08634444  0.48224653  0.18351008  1
  V  V2  1  0.25712441  0.19005525  0.52596099  1
  V  V3  1  0.33996865  0.47855848  0.18453110  1
  V  V4  1  0.51292446  0.18622617  0.52143601  1
  V  V5  1  0.15952326  0.51785476  0.81917679  1
  V  V6  1  0.59125316  0.47815050  0.18331041  1
  V  V7  1  0.23822702  0.81017505  0.48332782  1
  V  V8  1  0.76546086  0.18569899  0.51248886  1
  V  V9  1  0.40564100  0.52470147  0.81164909  1
  V  V10  1  0.84012908  0.47908528  0.18057430  1
  V  V11  1  0.48875075  0.81456208  0.47758465  1
  V  V12  1  0.65348653  0.52337869  0.81750180  1
  V  V13  1  0.73768908  0.81179879  0.47921267  1
  V  V14  1  0.91014684  0.51920362  0.81742716  1
  V  V15  1  0.98597845  0.81116077  0.48052719  1
  Bi  Bi16  1  0.27705174  0.98362474  0.01775119  1
  Bi  Bi17  1  0.73883788  0.01474199  0.97940854  1
  Bi  Bi18  1  0.99373578  0.00771883  0.00259335  1
  O  O19  1  0.16127122  0.36256258  0.03752786  1
  O  O20  1  0.17549633  0.04509823  0.65806452  1
  O  O21  1  0.12532886  0.29513786  0.38745000  1
  O  O22  1  0.01165795  0.62803540  0.29696945  1
  O  O23  1  0.42597665  0.34491594  0.03493646  1
  O  O24  1  0.43545301  0.03959400  0.64940748  1
  O  O25  1  0.38207550  0.28775928  0.38376954  1
  O  O26  1  0.24067458  0.36993642  0.70222284  1
  O  O27  1  0.26490962  0.62492422  0.29699906  1
  O  O28  1  0.67630794  0.33895449  0.04158397  1
  O  O29  1  0.11609823  0.70221763  0.62492579  1
  O  O30  1  0.08348163  0.95185352  0.33379393  1
  O  O31  1  0.69873233  0.03370428  0.63080170  1
  O  O32  1  0.63365157  0.28782194  0.37848615  1
  O  O33  1  0.07741901  0.66057818  0.95139619  1
  O  O34  1  0.47004313  0.38520276  0.70802200  1
  O  O35  1  0.53204874  0.61514477  0.29247377  1
  O  O36  1  0.92731108  0.33755488  0.04535220  1
  O  O37  1  0.36979561  0.70444744  0.62999201  1
  O  O38  1  0.29894055  0.96172168  0.37282534  1
  O  O39  1  0.91748497  0.04707642  0.66184149  1
  O  O40  1  0.89127867  0.29694537  0.36972288  1
  O  O41  1  0.32846926  0.65333051  0.95499795  1
  O  O42  1  0.72674308  0.37345290  0.70472875  1
  O  O43  1  0.75504042  0.63269299  0.29853105  1
  O  O44  1  0.61422988  0.71234089  0.61772173  1
  O  O45  1  0.55763405  0.96203044  0.35554495  1
  O  O46  1  0.56784724  0.66437369  0.96027023  1
  O  O47  1  0.97976906  0.37328516  0.70744321  1
  O  O48  1  0.87080125  0.70616950  0.61398756  1
  O  O49  1  0.81969214  0.95615624  0.34300625  1
  O  O50  1  0.84111891  0.63778634  0.95960186  1
