# generated using pymatgen
data_Li9Mn7O16
_symmetry_space_group_name_H-M   'P 1'
_cell_length_a   6.47606057
_cell_length_b   6.53306574
_cell_length_c   8.05343342
_cell_angle_alpha   87.42641488
_cell_angle_beta   112.84789723
_cell_angle_gamma   107.69903138
_symmetry_Int_Tables_number   1
_chemical_formula_structural   Li9Mn7O16
_chemical_formula_sum   'Li9 Mn7 O16'
_cell_volume   298.09252521
_cell_formula_units_Z   1
loop_
 _symmetry_equiv_pos_site_id
 _symmetry_equiv_pos_as_xyz
  1  'x, y, z'
loop_
 _atom_site_type_symbol
 _atom_site_label
 _atom_site_symmetry_multiplicity
 _atom_site_fract_x
 _atom_site_fract_y
 _atom_site_fract_z
 _atom_site_occupancy
  Li  Li0  1  0.87467695  0.06343102  0.31332163  1
  Li  Li1  1  0.89203483  0.55988369  0.81831305  1
  Li  Li2  1  0.13730773  0.94858232  0.70786597  1
  Li  Li3  1  0.13039575  0.44214378  0.18844692  1
  Li  Li4  1  0.36269227  0.80141768  0.04213403  1
  Li  Li5  1  0.36960425  0.30785622  0.56155308  1
  Li  Li6  1  0.62532305  0.68656898  0.43667837  1
  Li  Li7  1  0.60796517  0.19011631  0.93168695  1
  Li  Li8  1  0.25000000  0.37500000  0.87500000  1
  Mn  Mn9  1  0.00337293  0.99997365  0.99760870  1
  Mn  Mn10  1  0.49662707  0.75002635  0.75239130  1
  Mn  Mn11  1  0.00426374  0.49935148  0.50633578  1
  Mn  Mn12  1  0.25000000  0.87500000  0.37500000  1
  Mn  Mn13  1  0.49573626  0.25064852  0.24366422  1
  Mn  Mn14  1  0.74457045  0.62223960  0.11818472  1
  Mn  Mn15  1  0.75542955  0.12776040  0.63181528  1
  O  O16  1  0.71062432  0.89898258  0.04581642  1
  O  O17  1  0.71052293  0.39983034  0.54449139  1
  O  O18  1  0.93153859  0.75595749  0.37922620  1
  O  O19  1  0.91799224  0.24785214  0.87983448  1
  O  O20  1  0.20088175  0.66407914  0.77399762  1
  O  O21  1  0.20648283  0.15236850  0.29046994  1
  O  O22  1  0.45924791  0.53095368  0.16493625  1
  O  O23  1  0.45578486  0.03114541  0.66203051  1
  O  O24  1  0.04075209  0.21904632  0.58506275  1
  O  O25  1  0.04421514  0.71885559  0.08796949  1
  O  O26  1  0.29911825  0.08592086  0.97600238  1
  O  O27  1  0.29351717  0.59763250  0.45953006  1
  O  O28  1  0.56846141  0.99404351  0.37077480  1
  O  O29  1  0.58200776  0.50214886  0.87016552  1
  O  O30  1  0.78937568  0.85101842  0.70418458  1
  O  O31  1  0.78947707  0.35017066  0.20550961  1
