# generated using pymatgen
data_V16Ag7O40
_symmetry_space_group_name_H-M   'P 1'
_cell_length_a   3.67242382
_cell_length_b   12.52799383
_cell_length_c   18.46534818
_cell_angle_alpha   81.46010048
_cell_angle_beta   91.53977123
_cell_angle_gamma   106.30707745
_symmetry_Int_Tables_number   1
_chemical_formula_structural   V16Ag7O40
_chemical_formula_sum   'V16 Ag7 O40'
_cell_volume   806.23981653
_cell_formula_units_Z   1
loop_
 _symmetry_equiv_pos_site_id
 _symmetry_equiv_pos_as_xyz
  1  'x, y, z'
loop_
 _atom_site_type_symbol
 _atom_site_label
 _atom_site_symmetry_multiplicity
 _atom_site_fract_x
 _atom_site_fract_y
 _atom_site_fract_z
 _atom_site_occupancy
  V  V0  1  0.26303459  0.75299349  0.08328009  1
  V  V1  1  0.23972661  0.74350708  0.58263206  1
  V  V2  1  0.40798130  0.94966289  0.42574210  1
  V  V3  1  0.44905535  0.95415831  0.92035435  1
  V  V4  1  0.26214309  0.25694008  0.08395094  1
  V  V5  1  0.26120553  0.24673755  0.57965531  1
  V  V6  1  0.44308820  0.45382719  0.41643175  1
  V  V7  1  0.43461203  0.45292844  0.91759213  1
  V  V8  1  0.57003740  0.55213170  0.08010791  1
  V  V9  1  0.54600464  0.53841574  0.57616961  1
  V  V10  1  0.71869162  0.74638051  0.42041054  1
  V  V11  1  0.74514246  0.74603198  0.91643198  1
  V  V12  1  0.57195244  0.04690234  0.07724845  1
  V  V13  1  0.56216744  0.03920468  0.58188442  1
  V  V14  1  0.74467474  0.24351126  0.42138602  1
  V  V15  1  0.74497798  0.24761403  0.91050192  1
  Ag  Ag16  1  0.06332198  0.59685028  0.26585367  1
  Ag  Ag17  1  0.08225284  0.61437382  0.77874546  1
  Ag  Ag18  1  0.15342307  0.14231574  0.28684766  1
  Ag  Ag19  1  0.10463211  0.11357565  0.77556917  1
  Ag  Ag20  1  0.87993348  0.91181262  0.24563454  1
  Ag  Ag21  1  0.94463126  0.88088438  0.72131774  1
  Ag  Ag22  1  0.90492556  0.37617818  0.70801268  1
  O  O23  1  0.10191946  0.58878697  0.06644932  1
  O  O24  1  0.08342821  0.57944675  0.57046679  1
  O  O25  1  0.24707276  0.77323385  0.44803267  1
  O  O26  1  0.27856552  0.77733053  0.93996762  1
  O  O27  1  0.26979067  0.75131097  0.17396402  1
  O  O28  1  0.23992168  0.74589538  0.67467612  1
  O  O29  1  0.40882371  0.90650063  0.55302321  1
  O  O30  1  0.42326465  0.91386948  0.04789961  1
  O  O31  1  0.47104069  0.99522762  0.82922894  1
  O  O32  1  0.41318811  0.98469464  0.33357520  1
  O  O33  1  0.11530724  0.09292794  0.06833147  1
  O  O34  1  0.10092086  0.08081637  0.57440970  1
  O  O35  1  0.27732831  0.27469630  0.44384575  1
  O  O36  1  0.27405671  0.27648031  0.93712888  1
  O  O37  1  0.25183276  0.24627656  0.17295428  1
  O  O38  1  0.26860558  0.25046585  0.67187515  1
  O  O39  1  0.41661476  0.40765140  0.05368678  1
  O  O40  1  0.41517180  0.40751789  0.54404397  1
  O  O41  1  0.47445578  0.49893333  0.32575204  1
  O  O42  1  0.45675311  0.49480504  0.82678792  1
  O  O43  1  0.56527660  0.53479958  0.16968085  1
  O  O44  1  0.51871483  0.49591788  0.66792598  1
  O  O45  1  0.56976231  0.58350211  0.45120222  1
  O  O46  1  0.57405806  0.58251720  0.95201093  1
  O  O47  1  0.72352260  0.75300271  0.32852592  1
  O  O48  1  0.73992784  0.74170732  0.82479537  1
  O  O49  1  0.73263332  0.72473937  0.05571712  1
  O  O50  1  0.70917536  0.71513225  0.55775741  1
  O  O51  1  0.87265279  0.90967049  0.43533094  1
  O  O52  1  0.90817000  0.91205886  0.92717409  1
  O  O53  1  0.56477163  0.01225157  0.16851560  1
  O  O54  1  0.55086477  0.00347506  0.67437233  1
  O  O55  1  0.56407940  0.08058132  0.45766067  1
  O  O56  1  0.59631207  0.08788196  0.95204625  1
  O  O57  1  0.74550297  0.23041636  0.33163121  1
  O  O58  1  0.74261133  0.24317685  0.81938110  1
  O  O59  1  0.73080786  0.21791681  0.55563687  1
  O  O60  1  0.73826325  0.22884333  0.06225207  1
  O  O61  1  0.90414987  0.41164812  0.42255996  1
  O  O62  1  0.89686503  0.41075509  0.92621315  1
