# generated using pymatgen
data_Li9Mn7O16
_symmetry_space_group_name_H-M   'P 1'
_cell_length_a   5.33925834
_cell_length_b   9.75916097
_cell_length_c   5.76037712
_cell_angle_alpha   90.00000000
_cell_angle_beta   90.00000000
_cell_angle_gamma   96.83586351
_symmetry_Int_Tables_number   1
_chemical_formula_structural   Li9Mn7O16
_chemical_formula_sum   'Li9 Mn7 O16'
_cell_volume   298.02040087
_cell_formula_units_Z   1
loop_
 _symmetry_equiv_pos_site_id
 _symmetry_equiv_pos_as_xyz
  1  'x, y, z'
loop_
 _atom_site_type_symbol
 _atom_site_label
 _atom_site_symmetry_multiplicity
 _atom_site_fract_x
 _atom_site_fract_y
 _atom_site_fract_z
 _atom_site_occupancy
  Li  Li0  1  0.25138815  0.24966780  0.25403666  1
  Li  Li1  1  0.74861185  0.75033220  0.25403666  1
  Li  Li2  1  0.75242201  0.23984847  0.50000000  1
  Li  Li3  1  0.24757799  0.76015153  0.50000000  1
  Li  Li4  1  0.25138815  0.24966780  0.74596334  1
  Li  Li5  1  0.74861185  0.75033220  0.74596334  1
  Li  Li6  1  0.74461260  0.24461051  -0.00000000  1
  Li  Li7  1  0.25538740  0.75538949  0.00000000  1
  Li  Li8  1  0.00000000  0.00000000  0.50000000  1
  Mn  Mn9  1  0.00000000  0.00000000  0.00000000  1
  Mn  Mn10  1  0.50000000  0.00000000  0.74825433  1
  Mn  Mn11  1  0.50000000  0.50000000  0.00000000  1
  Mn  Mn12  1  0.50000000  0.00000000  0.25174567  1
  Mn  Mn13  1  0.00000000  0.50000000  0.24999283  1
  Mn  Mn14  1  0.50000000  0.50000000  0.50000000  1
  Mn  Mn15  1  0.00000000  0.50000000  0.75000717  1
  O  O16  1  0.83947688  0.10379877  0.24029725  1
  O  O17  1  0.39440069  0.61660891  0.25021669  1
  O  O18  1  0.39804630  0.11545538  0.50000000  1
  O  O19  1  0.89794455  0.62014636  0.50000000  1
  O  O20  1  0.83947688  0.10379877  0.75970275  1
  O  O21  1  0.39440069  0.61660891  0.74978331  1
  O  O22  1  0.39003233  0.11630221  -0.00000000  1
  O  O23  1  0.89717978  0.61914855  -0.00000000  1
  O  O24  1  0.60559931  0.38339109  0.25021669  1
  O  O25  1  0.16052312  0.89620123  0.24029725  1
  O  O26  1  0.10205545  0.37985364  0.50000000  1
  O  O27  1  0.60195370  0.88454462  0.50000000  1
  O  O28  1  0.60559931  0.38339109  0.74978331  1
  O  O29  1  0.16052312  0.89620123  0.75970275  1
  O  O30  1  0.10282022  0.38085145  -0.00000000  1
  O  O31  1  0.60996767  0.88369779  -0.00000000  1
