# generated using pymatgen
data_Li9Mn7O16
_symmetry_space_group_name_H-M   'P 1'
_cell_length_a   5.29085834
_cell_length_b   7.66642805
_cell_length_c   7.77196056
_cell_angle_alpha   95.00269075
_cell_angle_beta   105.71489885
_cell_angle_gamma   98.38993046
_symmetry_Int_Tables_number   1
_chemical_formula_structural   Li9Mn7O16
_chemical_formula_sum   'Li9 Mn7 O16'
_cell_volume   297.54521756
_cell_formula_units_Z   1
loop_
 _symmetry_equiv_pos_site_id
 _symmetry_equiv_pos_as_xyz
  1  'x, y, z'
loop_
 _atom_site_type_symbol
 _atom_site_label
 _atom_site_symmetry_multiplicity
 _atom_site_fract_x
 _atom_site_fract_y
 _atom_site_fract_z
 _atom_site_occupancy
  Li  Li0  1  0.54857782  0.18562943  0.05616930  1
  Li  Li1  1  0.93725427  0.31231432  0.43879453  1
  Li  Li2  1  0.31274573  0.43768568  0.81120547  1
  Li  Li3  1  0.70142218  0.56437057  0.19383070  1
  Li  Li4  1  0.04372838  0.69517843  0.55763314  1
  Li  Li5  1  0.43927644  0.81680621  0.92446518  1
  Li  Li6  1  0.81072356  0.93319379  0.32553482  1
  Li  Li7  1  0.20627162  0.05482157  0.69236686  1
  Li  Li8  1  0.62500000  0.87500000  0.62500000  1
  Mn  Mn9  1  0.99065560  0.99760454  0.99332580  1
  Mn  Mn10  1  0.50666940  0.50366124  0.50007115  1
  Mn  Mn11  1  0.38131168  0.12471294  0.37971330  1
  Mn  Mn12  1  0.74333060  0.24633876  0.74992885  1
  Mn  Mn13  1  0.12500000  0.37500000  0.12500000  1
  Mn  Mn14  1  0.86868832  0.62528706  0.87028670  1
  Mn  Mn15  1  0.25934440  0.75239546  0.25667420  1
  O  O16  1  0.15323232  0.21543876  0.92191288  1
  O  O17  1  0.52805612  0.33728288  0.29374445  1
  O  O18  1  0.91188545  0.46774681  0.67729766  1
  O  O19  1  0.23439351  0.59565759  0.02860824  1
  O  O20  1  0.64751981  0.70488102  0.40672513  1
  O  O21  1  0.03471996  0.83728879  0.79702661  1
  O  O22  1  0.41099145  0.96765631  0.17928353  1
  O  O23  1  0.73290540  0.10575781  0.52448808  1
  O  O24  1  0.01560649  0.15434141  0.22139176  1
  O  O25  1  0.33811355  0.28225319  0.57270234  1
  O  O26  1  0.72194388  0.41271612  0.95625455  1
  O  O27  1  0.09676768  0.53456124  0.32808612  1
  O  O28  1  0.51709460  0.64424119  0.72551092  1
  O  O29  1  0.83900855  0.78234269  0.07071547  1
  O  O30  1  0.21528004  0.91271021  0.45297239  1
  O  O31  1  0.60247919  0.04511798  0.84327387  1
