# generated using pymatgen
data_NdTa3O9
_symmetry_space_group_name_H-M   'P 1'
_cell_length_a   8.81985371
_cell_length_b   5.58708303
_cell_length_c   8.88405953
_cell_angle_alpha   71.67273251
_cell_angle_beta   66.56948801
_cell_angle_gamma   71.53451571
_symmetry_Int_Tables_number   1
_chemical_formula_structural   NdTa3O9
_chemical_formula_sum   'Nd2 Ta6 O18'
_cell_volume   371.95897171
_cell_formula_units_Z   2
loop_
 _symmetry_equiv_pos_site_id
 _symmetry_equiv_pos_as_xyz
  1  'x, y, z'
loop_
 _atom_site_type_symbol
 _atom_site_label
 _atom_site_symmetry_multiplicity
 _atom_site_fract_x
 _atom_site_fract_y
 _atom_site_fract_z
 _atom_site_occupancy
  Nd  Nd0  1  0.33509093  0.33221642  0.00047622  1
  Nd  Nd1  1  0.66490907  0.66778358  0.99952378  1
  Ta  Ta2  1  0.08383019  0.58407275  0.74802530  1
  Ta  Ta3  1  0.23971518  0.74953212  0.26122057  1
  Ta  Ta4  1  0.58777885  0.07732634  0.25756946  1
  Ta  Ta5  1  0.91616981  0.41592725  0.25197470  1
  Ta  Ta6  1  0.76028482  0.25046788  0.73877943  1
  Ta  Ta7  1  0.41222115  0.92267366  0.74243054  1
  O  O8  1  0.09827746  0.09625410  0.23113827  1
  O  O9  1  0.00000000  0.50000000  -0.00000000  1
  O  O10  1  0.09827746  0.57433017  0.23113827  1
  O  O11  1  0.25221030  0.25056750  0.76886027  1
  O  O12  1  0.50000000  -0.00000000  0.50000000  1
  O  O13  1  0.16665774  0.66576202  0.50181722  1
  O  O14  1  0.42575969  0.42621523  0.22210367  1
  O  O15  1  0.34741767  0.82623647  0.00010940  1
  O  O16  1  0.65258133  0.17376353  0.99989060  1
  O  O17  1  0.57424031  0.07407859  0.77789633  1
  O  O18  1  0.74778970  0.27163707  0.23113973  1
  O  O19  1  0.25221030  0.72836293  0.76886027  1
  O  O20  1  0.42575969  0.92592141  0.22210367  1
  O  O21  1  0.83334226  0.33423798  0.49818278  1
  O  O22  1  0.74778970  0.74943250  0.23113973  1
  O  O23  1  0.57424031  0.57378477  0.77789633  1
  O  O24  1  0.90172254  0.42566983  0.76886173  1
  O  O25  1  0.90172254  0.90374590  0.76886173  1
