# generated using pymatgen
data_Ga3O5
_symmetry_space_group_name_H-M   'P 1'
_cell_length_a   6.05204081
_cell_length_b   8.70221901
_cell_length_c   8.04601098
_cell_angle_alpha   90.00000000
_cell_angle_beta   90.00000000
_cell_angle_gamma   90.00000000
_symmetry_Int_Tables_number   1
_chemical_formula_structural   Ga3O5
_chemical_formula_sum   'Ga12 O20'
_cell_volume   423.75269945
_cell_formula_units_Z   4
loop_
 _symmetry_equiv_pos_site_id
 _symmetry_equiv_pos_as_xyz
  1  'x, y, z'
loop_
 _atom_site_type_symbol
 _atom_site_label
 _atom_site_symmetry_multiplicity
 _atom_site_fract_x
 _atom_site_fract_y
 _atom_site_fract_z
 _atom_site_occupancy
  Ga  Ga0  1  0.75000000  0.79491265  0.68775113  1
  Ga  Ga1  1  0.25000000  0.20508735  0.31224887  1
  Ga  Ga2  1  0.25000000  0.70508735  0.18775113  1
  Ga  Ga3  1  0.75000000  0.29491265  0.81224887  1
  Ga  Ga4  1  0.00000000  -0.00000000  0.00000000  1
  Ga  Ga5  1  -0.00000000  0.50000000  0.50000000  1
  Ga  Ga6  1  0.50000000  0.00000000  0.00000000  1
  Ga  Ga7  1  0.50000000  0.50000000  0.50000000  1
  Ga  Ga8  1  0.75000000  0.80148175  0.30430216  1
  Ga  Ga9  1  0.25000000  0.19851825  0.69569784  1
  Ga  Ga10  1  0.25000000  0.69851825  0.80430216  1
  Ga  Ga11  1  0.75000000  0.30148175  0.19569784  1
  O  O12  1  0.99897349  0.66785241  0.67558709  1
  O  O13  1  0.00102651  0.33214759  0.32441291  1
  O  O14  1  0.00102651  0.83214759  0.17558709  1
  O  O15  1  0.49897349  0.33214759  0.32441291  1
  O  O16  1  0.99897349  0.16785241  0.82441291  1
  O  O17  1  0.50102651  0.66785241  0.67558709  1
  O  O18  1  0.50102651  0.16785241  0.82441291  1
  O  O19  1  0.49897349  0.83214759  0.17558709  1
  O  O20  1  0.75000000  0.89818243  0.88631771  1
  O  O21  1  0.25000000  0.10181757  0.11368229  1
  O  O22  1  0.25000000  0.60181757  0.38631771  1
  O  O23  1  0.75000000  0.39818243  0.61368229  1
  O  O24  1  0.75000000  0.59852883  0.38130444  1
  O  O25  1  0.25000000  0.40147117  0.61869556  1
  O  O26  1  0.25000000  0.90147117  0.88130444  1
  O  O27  1  0.75000000  0.09852883  0.11869556  1
  O  O28  1  0.75000000  0.91949564  0.49873382  1
  O  O29  1  0.25000000  0.08050436  0.50126618  1
  O  O30  1  0.25000000  0.58050436  0.99873382  1
  O  O31  1  0.75000000  0.41949564  0.00126618  1
