# generated using pymatgen
data_V3Cu2Sn(PO4)6
_symmetry_space_group_name_H-M   'P 1'
_cell_length_a   8.66465127
_cell_length_b   8.63352974
_cell_length_c   8.63352895
_cell_angle_alpha   59.99999770
_cell_angle_beta   60.11875290
_cell_angle_gamma   60.11874797
_symmetry_Int_Tables_number   1
_chemical_formula_structural   V3Cu2Sn(PO4)6
_chemical_formula_sum   'V3 Cu2 Sn1 P6 O24'
_cell_volume   457.49885829
_cell_formula_units_Z   1
loop_
 _symmetry_equiv_pos_site_id
 _symmetry_equiv_pos_as_xyz
  1  'x, y, z'
loop_
 _atom_site_type_symbol
 _atom_site_label
 _atom_site_symmetry_multiplicity
 _atom_site_fract_x
 _atom_site_fract_y
 _atom_site_fract_z
 _atom_site_occupancy
  V  V0  1  0.07102444  0.64299152  0.64299152  1
  V  V1  1  0.42689476  0.85770175  0.85770175  1
  V  V2  1  0.92604219  0.35798627  0.35798627  1
  Cu  Cu3  1  0.00743051  0.99752316  0.99752316  1
  Cu  Cu4  1  0.49829553  0.50056816  0.50056816  1
  Sn  Sn5  1  0.57169068  0.14277011  0.14277011  1
  P  P6  1  0.24567125  0.25114468  0.54580467  1
  P  P7  1  0.24567125  0.95737940  0.25114468  1
  P  P8  1  0.24567125  0.54580467  0.95737940  1
  P  P9  1  0.75119457  0.46294013  0.04001762  1
  P  P10  1  0.75119457  0.04001762  0.74584768  1
  P  P11  1  0.75119457  0.74584768  0.46294013  1
  O  O12  1  0.06970367  0.12298827  0.30238449  1
  O  O13  1  0.06970367  0.50492356  0.12298827  1
  O  O14  1  0.06970367  0.30238449  0.50492356  1
  O  O15  1  0.24080436  0.08294394  0.73626012  1
  O  O16  1  0.43062129  0.20000032  0.38709955  1
  O  O17  1  0.25066064  0.41786820  0.56603845  1
  O  O18  1  0.24080436  0.93999258  0.08294394  1
  O  O19  1  0.25066064  0.76543271  0.41786820  1
  O  O20  1  0.56950392  0.62078642  0.00545620  1
  O  O21  1  0.25066064  0.56603845  0.76543271  1
  O  O22  1  0.76686576  0.26833219  0.05369417  1
  O  O23  1  0.56950392  0.00545620  0.80425347  1
  O  O24  1  0.43062129  0.98227784  0.20000032  1
  O  O25  1  0.24080436  0.73626012  0.93999258  1
  O  O26  1  0.74342596  0.44381877  0.23288050  1
  O  O27  1  0.43062129  0.38709955  0.98227784  1
  O  O28  1  0.74342596  0.23288050  0.57987577  1
  O  O29  1  0.76686576  0.05369417  0.91110789  1
  O  O30  1  0.74342596  0.57987577  0.44381877  1
  O  O31  1  0.56950392  0.80425346  0.62078642  1
  O  O32  1  0.76686576  0.91110789  0.26833219  1
  O  O33  1  0.93108955  0.68884793  0.50033118  1
  O  O34  1  0.93108955  0.50033118  0.87973133  1
  O  O35  1  0.93108955  0.87973133  0.68884793  1
