# generated using pymatgen
data_NaMnPCO7
_symmetry_space_group_name_H-M   'P 1'
_cell_length_a   9.01970145
_cell_length_b   8.17963449
_cell_length_c   8.20810071
_cell_angle_alpha   99.86134296
_cell_angle_beta   89.93270502
_cell_angle_gamma   87.62465415
_symmetry_Int_Tables_number   1
_chemical_formula_structural   NaMnPCO7
_chemical_formula_sum   'Na4 Mn4 P4 C4 O28'
_cell_volume   596.09508752
_cell_formula_units_Z   4
loop_
 _symmetry_equiv_pos_site_id
 _symmetry_equiv_pos_as_xyz
  1  'x, y, z'
loop_
 _atom_site_type_symbol
 _atom_site_label
 _atom_site_symmetry_multiplicity
 _atom_site_fract_x
 _atom_site_fract_y
 _atom_site_fract_z
 _atom_site_occupancy
  Na  Na0  1  0.76608653  0.37268861  0.37906757  1
  Na  Na1  1  0.76656080  0.62465322  0.12517794  1
  Na  Na2  1  0.23799879  0.10611361  0.12827737  1
  Na  Na3  1  0.24055013  0.61135878  0.63431761  1
  Mn  Mn4  1  0.65608129  0.48300170  0.73399637  1
  Mn  Mn5  1  0.65638568  0.98418565  0.23432368  1
  Mn  Mn6  1  0.34414474  0.52386270  0.26090744  1
  Mn  Mn7  1  0.34254836  0.02223311  0.75891468  1
  P  P8  1  0.56940484  0.26963183  0.01956205  1
  P  P9  1  0.56686590  0.76355728  0.51240076  1
  P  P10  1  0.43157611  0.23701530  0.48243862  1
  P  P11  1  0.43203082  0.73810749  0.98080690  1
  C  C12  1  0.92416870  0.00308865  0.26687424  1
  C  C13  1  0.92386589  0.50718595  0.76058227  1
  C  C14  1  0.07967763  0.48881114  0.23830946  1
  C  C15  1  0.07156569  0.99282494  0.74086208  1
  O  O16  1  0.94344312  0.46924058  0.22927437  1
  O  O17  1  0.93648816  0.97606365  0.73106655  1
  O  O18  1  0.85811094  0.39636537  0.65168256  1
  O  O19  1  0.85860258  0.89301738  0.15701019  1
  O  O20  1  0.82251638  0.09593309  0.36207487  1
  O  O21  1  0.82233489  0.60311160  0.85301089  1
  O  O22  1  0.67570619  0.14681958  0.09301801  1
  O  O23  1  0.66985044  0.62670555  0.57039337  1
  O  O24  1  0.66833948  0.34007462  0.89608931  1
  O  O25  1  0.66396739  0.81806740  0.37620684  1
  O  O26  1  0.53055982  0.41800843  0.16678999  1
  O  O27  1  0.57470348  0.31267959  0.55863601  1
  O  O28  1  0.57475378  0.81065926  0.06082756  1
  O  O29  1  0.52300621  0.90598449  0.65392886  1
  O  O30  1  0.47289194  0.09605194  0.33367985  1
  O  O31  1  0.42844694  0.19077102  0.94612577  1
  O  O32  1  0.42221144  0.68592847  0.43829854  1
  O  O33  1  0.47311131  0.59819303  0.83103952  1
  O  O34  1  0.33148189  0.17546092  0.60951337  1
  O  O35  1  0.32916267  0.37068329  0.41844759  1
  O  O36  1  0.33122380  0.67248163  0.10618752  1
  O  O37  1  0.33010133  0.87224206  0.91926516  1
  O  O38  1  0.18023334  0.39689089  0.14271468  1
  O  O39  1  0.17064789  0.89781018  0.64365698  1
  O  O40  1  0.13826372  0.10531143  0.84733633  1
  O  O41  1  0.14241117  0.60376450  0.34455955  1
  O  O42  1  0.05902151  0.02034659  0.27878143  1
  O  O43  1  0.05889330  0.52091448  0.77566632  1
