# generated using pymatgen
data_Fe2Te4HClO12
_symmetry_space_group_name_H-M   'P 1'
_cell_length_a   5.24844110
_cell_length_b   6.59828537
_cell_length_c   9.11962714
_cell_angle_alpha   75.27730085
_cell_angle_beta   83.22374411
_cell_angle_gamma   72.32106183
_symmetry_Int_Tables_number   1
_chemical_formula_structural   Fe2Te4HClO12
_chemical_formula_sum   'Fe2 Te4 H1 Cl1 O12'
_cell_volume   290.73891086
_cell_formula_units_Z   1
loop_
 _symmetry_equiv_pos_site_id
 _symmetry_equiv_pos_as_xyz
  1  'x, y, z'
loop_
 _atom_site_type_symbol
 _atom_site_label
 _atom_site_symmetry_multiplicity
 _atom_site_fract_x
 _atom_site_fract_y
 _atom_site_fract_z
 _atom_site_occupancy
  Fe  Fe0  1  0.70554134  0.13671343  0.43371838  1
  Fe  Fe1  1  0.29445866  0.86328657  0.56628162  1
  Te  Te2  1  0.15345501  0.34113314  0.69374788  1
  Te  Te3  1  0.84654499  0.65886686  0.30625212  1
  Te  Te4  1  0.28573935  0.12172290  0.17143843  1
  Te  Te5  1  0.71426065  0.87827710  0.82856157  1
  H  H6  1  -0.00000000  0.50000000  0.00000000  1
  Cl  Cl7  1  -0.00000000  -0.00000000  0.00000000  1
  O  O8  1  0.23599942  0.58841414  0.56728144  1
  O  O9  1  0.76400058  0.41158586  0.43271856  1
  O  O10  1  0.04272184  0.41847940  0.13276647  1
  O  O11  1  0.95727816  0.58152060  0.86723353  1
  O  O12  1  0.10326715  0.00960808  0.35596966  1
  O  O13  1  0.89673285  0.99039192  0.64403034  1
  O  O14  1  0.54854481  0.79426664  0.16923393  1
  O  O15  1  0.45145519  0.20573336  0.83076607  1
  O  O16  1  0.54988299  0.21676456  0.23315865  1
  O  O17  1  0.45011701  0.78323544  0.76684135  1
  O  O18  1  0.34845516  0.16657100  0.54879972  1
  O  O19  1  0.65154484  0.83342900  0.45120028  1
