# generated using pymatgen
data_NbP6(WO8)3
_symmetry_space_group_name_H-M   'P 1'
_cell_length_a   9.01588786
_cell_length_b   9.01588782
_cell_length_c   9.01588785
_cell_angle_alpha   58.86660160
_cell_angle_beta   58.86660242
_cell_angle_gamma   58.86660461
_symmetry_Int_Tables_number   1
_chemical_formula_structural   NbP6(WO8)3
_chemical_formula_sum   'Nb1 P6 W3 O24'
_cell_volume   504.80764662
_cell_formula_units_Z   1
loop_
 _symmetry_equiv_pos_site_id
 _symmetry_equiv_pos_as_xyz
  1  'x, y, z'
loop_
 _atom_site_type_symbol
 _atom_site_label
 _atom_site_symmetry_multiplicity
 _atom_site_fract_x
 _atom_site_fract_y
 _atom_site_fract_z
 _atom_site_occupancy
  Nb  Nb0  1  0.85924244  0.85924244  0.85924244  1
  P  P1  1  0.03518889  0.74746205  0.46497688  1
  P  P2  1  0.46497688  0.03518889  0.74746205  1
  P  P3  1  0.74746205  0.46497688  0.03518889  1
  P  P4  1  0.25231396  0.53669165  0.96333787  1
  P  P5  1  0.53669165  0.96333787  0.25231396  1
  P  P6  1  0.96333787  0.25231396  0.53669165  1
  W  W7  1  0.14189977  0.14189977  0.14189977  1
  W  W8  1  0.35759181  0.35759181  0.35759181  1
  W  W9  1  0.64374738  0.64374738  0.64374738  1
  O  O10  1  0.13289188  0.28113099  0.51027738  1
  O  O11  1  0.28113099  0.51027738  0.13289188  1
  O  O12  1  0.05586708  0.91037508  0.29176242  1
  O  O13  1  0.51027738  0.13289188  0.28113099  1
  O  O14  1  0.20907315  0.57203543  0.44528129  1
  O  O15  1  0.00051586  0.77613843  0.63792374  1
  O  O16  1  0.29176242  0.05586708  0.91037508  1
  O  O17  1  0.44528129  0.20907315  0.57203543  1
  O  O18  1  0.57203543  0.44528129  0.20907315  1
  O  O19  1  0.22988965  0.37331759  0.98240463  1
  O  O20  1  0.08120574  0.71439060  0.93518311  1
  O  O21  1  0.37331759  0.98240463  0.22988965  1
  O  O22  1  0.63792374  0.00051586  0.77613843  1
  O  O23  1  0.91037508  0.29176242  0.05586708  1
  O  O24  1  0.77613843  0.63792374  0.00051586  1
  O  O25  1  0.41976888  0.57373092  0.78794956  1
  O  O26  1  0.57373092  0.78794956  0.41976888  1
  O  O27  1  0.71439060  0.93518311  0.08120574  1
  O  O28  1  0.98240463  0.22988965  0.37331759  1
  O  O29  1  0.78794956  0.41976888  0.57373092  1
  O  O30  1  0.49946871  0.87032111  0.70664304  1
  O  O31  1  0.93518311  0.08120574  0.71439060  1
  O  O32  1  0.70664304  0.49946871  0.87032111  1
  O  O33  1  0.87032111  0.70664304  0.49946871  1
