# generated using pymatgen
data_Bi2Pt3Se2
_symmetry_space_group_name_H-M   'P 1'
_cell_length_a   7.51029290
_cell_length_b   7.51029290
_cell_length_c   7.51029290
_cell_angle_alpha   109.47122063
_cell_angle_beta   109.47122063
_cell_angle_gamma   109.47122063
_symmetry_Int_Tables_number   1
_chemical_formula_structural   Bi2Pt3Se2
_chemical_formula_sum   'Bi4 Pt6 Se4'
_cell_volume   326.09844975
_cell_formula_units_Z   2
loop_
 _symmetry_equiv_pos_site_id
 _symmetry_equiv_pos_as_xyz
  1  'x, y, z'
loop_
 _atom_site_type_symbol
 _atom_site_label
 _atom_site_symmetry_multiplicity
 _atom_site_fract_x
 _atom_site_fract_y
 _atom_site_fract_z
 _atom_site_occupancy
  Bi  Bi0  1  0.53286220  -0.00000000  0.50000000  1
  Bi  Bi1  1  0.50000000  0.53286220  0.00000000  1
  Bi  Bi2  1  -0.00000000  0.50000000  0.53286220  1
  Bi  Bi3  1  0.96713780  0.96713780  0.96713780  1
  Pt  Pt4  1  0.04373093  0.25000000  0.79373093  1
  Pt  Pt5  1  0.75000000  0.70626907  0.45626907  1
  Pt  Pt6  1  0.79373093  0.04373093  0.25000000  1
  Pt  Pt7  1  0.45626907  0.75000000  0.70626907  1
  Pt  Pt8  1  0.25000000  0.79373093  0.04373093  1
  Pt  Pt9  1  0.70626907  0.45626907  0.75000000  1
  Se  Se10  1  0.06506195  0.00000000  0.50000000  1
  Se  Se11  1  0.50000000  0.06506195  0.00000000  1
  Se  Se12  1  0.00000000  0.50000000  0.06506195  1
  Se  Se13  1  0.43493805  0.43493805  0.43493805  1
