# generated using pymatgen
data_ErFe2
_symmetry_space_group_name_H-M   'P 1'
_cell_length_a   5.13032557
_cell_length_b   5.13032557
_cell_length_c   8.30292361
_cell_angle_alpha   90.00000000
_cell_angle_beta   90.00000000
_cell_angle_gamma   120.03618281
_symmetry_Int_Tables_number   1
_chemical_formula_structural   ErFe2
_chemical_formula_sum   'Er4 Fe8'
_cell_volume   189.18777331
_cell_formula_units_Z   4
loop_
 _symmetry_equiv_pos_site_id
 _symmetry_equiv_pos_as_xyz
  1  'x, y, z'
loop_
 _atom_site_type_symbol
 _atom_site_label
 _atom_site_symmetry_multiplicity
 _atom_site_fract_x
 _atom_site_fract_y
 _atom_site_fract_z
 _atom_site_occupancy
  Er  Er0  1  0.66667978  0.33332022  0.56214116  1
  Er  Er1  1  0.33332022  0.66667978  0.43785884  1
  Er  Er2  1  0.33332022  0.66667978  0.06214116  1
  Er  Er3  1  0.66667978  0.33332022  0.93785884  1
  Fe  Fe4  1  -0.00000000  -0.00000000  0.50000000  1
  Fe  Fe5  1  -0.00000000  -0.00000000  -0.00000000  1
  Fe  Fe6  1  0.16565236  0.33113042  0.75000000  1
  Fe  Fe7  1  0.16560348  0.83439652  0.75000000  1
  Fe  Fe8  1  0.66886958  0.83434764  0.75000000  1
  Fe  Fe9  1  0.83434764  0.66886958  0.25000000  1
  Fe  Fe10  1  0.83439652  0.16560348  0.25000000  1
  Fe  Fe11  1  0.33113042  0.16565236  0.25000000  1
