# generated using pymatgen
data_Fe2P5O16
_symmetry_space_group_name_H-M   'P 1'
_cell_length_a   18.97942428
_cell_length_b   6.84945878
_cell_length_c   5.14819807
_cell_angle_alpha   90.00000000
_cell_angle_beta   89.59140468
_cell_angle_gamma   90.00000000
_symmetry_Int_Tables_number   1
_chemical_formula_structural   Fe2P5O16
_chemical_formula_sum   'Fe4 P10 O32'
_cell_volume   669.24247302
_cell_formula_units_Z   2
loop_
 _symmetry_equiv_pos_site_id
 _symmetry_equiv_pos_as_xyz
  1  'x, y, z'
loop_
 _atom_site_type_symbol
 _atom_site_label
 _atom_site_symmetry_multiplicity
 _atom_site_fract_x
 _atom_site_fract_y
 _atom_site_fract_z
 _atom_site_occupancy
  Fe  Fe0  1  0.09397429  0.81729154  0.26007843  1
  Fe  Fe1  1  0.90602571  0.18270846  0.73992157  1
  Fe  Fe2  1  0.59397429  0.18270846  0.26007843  1
  Fe  Fe3  1  0.40602571  0.81729154  0.73992157  1
  P  P4  1  0.57809489  0.87133302  0.76614263  1
  P  P5  1  0.07809489  0.12866698  0.76614263  1
  P  P6  1  0.36973330  0.53734853  0.24674003  1
  P  P7  1  0.75000000  0.26212566  -0.00000000  1
  P  P8  1  0.92190511  0.87133302  0.23385737  1
  P  P9  1  0.86973330  0.46265147  0.24674003  1
  P  P10  1  0.25000000  0.73787434  -0.00000000  1
  P  P11  1  0.42190511  0.12866698  0.23385737  1
  P  P12  1  0.63026670  0.46265147  0.75325997  1
  P  P13  1  0.13026670  0.53734853  0.75325997  1
  O  O14  1  0.11174854  0.98376497  0.57851053  1
  O  O15  1  0.50920575  0.78693972  0.66419368  1
  O  O16  1  0.91661308  0.36938086  0.04481379  1
  O  O17  1  0.99079425  0.78693972  0.33580632  1
  O  O18  1  0.30352250  0.85117329  0.84608778  1
  O  O19  1  0.21168275  0.58951877  0.80433244  1
  O  O20  1  0.88825146  0.01623503  0.42148947  1
  O  O21  1  0.00920575  0.21306028  0.66419368  1
  O  O22  1  0.61174854  0.01623503  0.57851053  1
  O  O23  1  0.38825146  0.98376497  0.42148947  1
  O  O24  1  0.19647750  0.85117329  0.15391222  1
  O  O25  1  0.63458272  0.69321955  0.78840921  1
  O  O26  1  0.38578568  0.57933271  0.52691303  1
  O  O27  1  0.58338692  0.36938086  0.95518621  1
  O  O28  1  0.11421432  0.57933271  0.47308697  1
  O  O29  1  0.42754681  0.05344723  0.95592464  1
  O  O30  1  0.92754681  0.94655277  0.95592464  1
  O  O31  1  0.08338692  0.63061914  0.95518621  1
  O  O32  1  0.69647750  0.14882671  0.15391222  1
  O  O33  1  0.71168275  0.41048123  0.80433244  1
  O  O34  1  0.61421432  0.42066729  0.47308697  1
  O  O35  1  0.49079425  0.21306028  0.33580632  1
  O  O36  1  0.80352250  0.14882671  0.84608778  1
  O  O37  1  0.57245319  0.94655277  0.04407536  1
  O  O38  1  0.07245319  0.05344723  0.04407536  1
  O  O39  1  0.28831725  0.58951877  0.19566756  1
  O  O40  1  0.78831725  0.41048123  0.19566756  1
  O  O41  1  0.88578568  0.42066729  0.52691303  1
  O  O42  1  0.86541728  0.69321955  0.21159079  1
  O  O43  1  0.13458272  0.30678045  0.78840921  1
  O  O44  1  0.41661308  0.63061914  0.04481379  1
  O  O45  1  0.36541728  0.30678045  0.21159079  1
