# generated using pymatgen
data_Sm2Ga8Co
_symmetry_space_group_name_H-M   'P 1'
_cell_length_a   4.29916969
_cell_length_b   4.29916969
_cell_length_c   11.25397265
_cell_angle_alpha   90.00000000
_cell_angle_beta   90.00000000
_cell_angle_gamma   90.00000000
_symmetry_Int_Tables_number   1
_chemical_formula_structural   Sm2Ga8Co
_chemical_formula_sum   'Sm2 Ga8 Co1'
_cell_volume   208.00560120
_cell_formula_units_Z   1
loop_
 _symmetry_equiv_pos_site_id
 _symmetry_equiv_pos_as_xyz
  1  'x, y, z'
loop_
 _atom_site_type_symbol
 _atom_site_label
 _atom_site_symmetry_multiplicity
 _atom_site_fract_x
 _atom_site_fract_y
 _atom_site_fract_z
 _atom_site_occupancy
  Sm  Sm0  1  0.00000000  -0.00000000  0.69618473  1
  Sm  Sm1  1  0.00000000  -0.00000000  0.30381527  1
  Ga  Ga2  1  0.50000000  -0.00000000  0.88596228  1
  Ga  Ga3  1  0.00000000  0.50000000  0.88596228  1
  Ga  Ga4  1  0.50000000  -0.00000000  0.11403772  1
  Ga  Ga5  1  -0.00000000  0.50000000  0.11403772  1
  Ga  Ga6  1  0.50000000  -0.00000000  0.50000000  1
  Ga  Ga7  1  0.00000000  0.50000000  0.50000000  1
  Ga  Ga8  1  0.50000000  0.50000000  0.70055033  1
  Ga  Ga9  1  0.50000000  0.50000000  0.29944967  1
  Co  Co10  1  0.00000000  -0.00000000  0.00000000  1
