# generated using pymatgen
data_HoFe2
_symmetry_space_group_name_H-M   'P 1'
_cell_length_a   5.15753344
_cell_length_b   5.15753344
_cell_length_c   8.30362377
_cell_angle_alpha   90.00000000
_cell_angle_beta   90.00000000
_cell_angle_gamma   120.05923087
_symmetry_Int_Tables_number   1
_chemical_formula_structural   HoFe2
_chemical_formula_sum   'Ho4 Fe8'
_cell_volume   191.17138274
_cell_formula_units_Z   4
loop_
 _symmetry_equiv_pos_site_id
 _symmetry_equiv_pos_as_xyz
  1  'x, y, z'
loop_
 _atom_site_type_symbol
 _atom_site_label
 _atom_site_symmetry_multiplicity
 _atom_site_fract_x
 _atom_site_fract_y
 _atom_site_fract_z
 _atom_site_occupancy
  Ho  Ho0  1  0.66631521  0.33368479  0.56190934  1
  Ho  Ho1  1  0.33368479  0.66631521  0.43809066  1
  Ho  Ho2  1  0.33368479  0.66631521  0.06190934  1
  Ho  Ho3  1  0.66631521  0.33368479  0.93809066  1
  Fe  Fe4  1  0.00000000  -0.00000000  0.50000000  1
  Fe  Fe5  1  0.00000000  -0.00000000  -0.00000000  1
  Fe  Fe6  1  0.16590651  0.33141880  0.75000000  1
  Fe  Fe7  1  0.16560550  0.83439450  0.75000000  1
  Fe  Fe8  1  0.66858120  0.83409349  0.75000000  1
  Fe  Fe9  1  0.83409349  0.66858120  0.25000000  1
  Fe  Fe10  1  0.83439450  0.16560550  0.25000000  1
  Fe  Fe11  1  0.33141880  0.16590651  0.25000000  1
