# generated using pymatgen
data_Ho(CoGe)6
_symmetry_space_group_name_H-M   'P 1'
_cell_length_a   5.08255203
_cell_length_b   5.08521692
_cell_length_c   7.86648163
_cell_angle_alpha   90.00000000
_cell_angle_beta   90.00000000
_cell_angle_gamma   119.98265522
_symmetry_Int_Tables_number   1
_chemical_formula_structural   Ho(CoGe)6
_chemical_formula_sum   'Ho1 Co6 Ge6'
_cell_volume   176.10770574
_cell_formula_units_Z   1
loop_
 _symmetry_equiv_pos_site_id
 _symmetry_equiv_pos_as_xyz
  1  'x, y, z'
loop_
 _atom_site_type_symbol
 _atom_site_label
 _atom_site_symmetry_multiplicity
 _atom_site_fract_x
 _atom_site_fract_y
 _atom_site_fract_z
 _atom_site_occupancy
  Ho  Ho0  1  0.99997931  0.00000000  -0.00000000  1
  Co  Co1  1  0.49999354  0.00000000  0.25056242  1
  Co  Co2  1  0.49999033  0.50000291  0.25056333  1
  Co  Co3  1  0.99998742  0.49999709  0.25056333  1
  Co  Co4  1  0.49999354  0.00000000  0.74943758  1
  Co  Co5  1  0.49999033  0.50000291  0.74943667  1
  Co  Co6  1  0.99998742  0.49999709  0.74943667  1
  Ge  Ge7  1  0.33324788  0.66654066  -0.00000000  1
  Ge  Ge8  1  0.66670721  0.33345934  -0.00000000  1
  Ge  Ge9  1  0.33326366  0.66658759  0.50000000  1
  Ge  Ge10  1  0.66667607  0.33341241  0.50000000  1
  Ge  Ge11  1  0.99999164  0.00000000  0.34444330  1
  Ge  Ge12  1  0.99999164  0.00000000  0.65555670  1
