# generated using pymatgen
data_Er3Ga9Pt2
_symmetry_space_group_name_H-M   'P 1'
_cell_length_a   4.24246610
_cell_length_b   8.15267110
_cell_length_c   8.15267110
_cell_angle_alpha   73.50067203
_cell_angle_beta   74.91874304
_cell_angle_gamma   74.91874304
_symmetry_Int_Tables_number   1
_chemical_formula_structural   Er3Ga9Pt2
_chemical_formula_sum   'Er3 Ga9 Pt2'
_cell_volume   255.71686852
_cell_formula_units_Z   1
loop_
 _symmetry_equiv_pos_site_id
 _symmetry_equiv_pos_as_xyz
  1  'x, y, z'
loop_
 _atom_site_type_symbol
 _atom_site_label
 _atom_site_symmetry_multiplicity
 _atom_site_fract_x
 _atom_site_fract_y
 _atom_site_fract_z
 _atom_site_occupancy
  Er  Er0  1  0.00000000  -0.00000000  0.00000000  1
  Er  Er1  1  0.30615877  0.69384123  0.69384123  1
  Er  Er2  1  0.69384123  0.30615877  0.30615877  1
  Ga  Ga3  1  0.00000000  0.50000000  0.50000000  1
  Ga  Ga4  1  0.34349482  0.28637966  0.02663071  1
  Ga  Ga5  1  0.65650518  0.71362034  0.97336929  1
  Ga  Ga6  1  0.34349482  0.02663071  0.28637966  1
  Ga  Ga7  1  0.65650518  0.97336929  0.71362034  1
  Ga  Ga8  1  0.13728320  0.57932746  0.14610615  1
  Ga  Ga9  1  0.86271680  0.42067254  0.85389385  1
  Ga  Ga10  1  0.13728320  0.14610615  0.57932746  1
  Ga  Ga11  1  0.86271680  0.85389385  0.42067254  1
  Pt  Pt12  1  0.50000000  0.30710367  0.69289633  1
  Pt  Pt13  1  0.50000000  0.69289633  0.30710367  1
