# generated using pymatgen
data_Dy(CrGe)6
_symmetry_space_group_name_H-M   'P 1'
_cell_length_a   5.11104278
_cell_length_b   5.11088899
_cell_length_c   8.32365461
_cell_angle_alpha   90.00000000
_cell_angle_beta   90.00000000
_cell_angle_gamma   120.00100527
_symmetry_Int_Tables_number   1
_chemical_formula_structural   Dy(CrGe)6
_chemical_formula_sum   'Dy1 Cr6 Ge6'
_cell_volume   188.29823443
_cell_formula_units_Z   1
loop_
 _symmetry_equiv_pos_site_id
 _symmetry_equiv_pos_as_xyz
  1  'x, y, z'
loop_
 _atom_site_type_symbol
 _atom_site_label
 _atom_site_symmetry_multiplicity
 _atom_site_fract_x
 _atom_site_fract_y
 _atom_site_fract_z
 _atom_site_occupancy
  Dy  Dy0  1  0.99996979  1.00000000  -0.00000000  1
  Cr  Cr1  1  0.49999541  0.00000000  0.25047150  1
  Cr  Cr2  1  0.49999111  0.50000575  0.25052363  1
  Cr  Cr3  1  0.99998536  0.49999425  0.25052363  1
  Cr  Cr4  1  0.49999541  0.00000000  0.74952850  1
  Cr  Cr5  1  0.49999111  0.50000575  0.74947637  1
  Cr  Cr6  1  0.99998536  0.49999425  0.74947637  1
  Ge  Ge7  1  0.33330000  0.66665322  0.00000000  1
  Ge  Ge8  1  0.66664679  0.33334678  0.00000000  1
  Ge  Ge9  1  0.33330225  0.66665453  0.50000000  1
  Ge  Ge10  1  0.66664772  0.33334547  0.50000000  1
  Ge  Ge11  1  0.99999485  0.00000000  0.34576275  1
  Ge  Ge12  1  0.99999485  0.00000000  0.65423725  1
