# generated using pymatgen
data_VZn2BiO6
_symmetry_space_group_name_H-M   'P 1'
_cell_length_a   5.79875506
_cell_length_b   6.93664789
_cell_length_c   7.03207820
_cell_angle_alpha   80.78058562
_cell_angle_beta   79.04789552
_cell_angle_gamma   80.80639393
_symmetry_Int_Tables_number   1
_chemical_formula_structural   VZn2BiO6
_chemical_formula_sum   'V2 Zn4 Bi2 O12'
_cell_volume   271.66646442
_cell_formula_units_Z   2
loop_
 _symmetry_equiv_pos_site_id
 _symmetry_equiv_pos_as_xyz
  1  'x, y, z'
loop_
 _atom_site_type_symbol
 _atom_site_label
 _atom_site_symmetry_multiplicity
 _atom_site_fract_x
 _atom_site_fract_y
 _atom_site_fract_z
 _atom_site_occupancy
  V  V0  1  0.77373358  0.19598703  0.38573014  1
  V  V1  1  0.22626642  0.80401297  0.61426986  1
  Zn  Zn2  1  0.72640169  0.09065960  0.90807472  1
  Zn  Zn3  1  0.27359831  0.90934040  0.09192528  1
  Zn  Zn4  1  0.28138016  0.38814544  0.17334503  1
  Zn  Zn5  1  0.71861984  0.61185456  0.82665497  1
  Bi  Bi6  1  0.78224400  0.70229902  0.28470717  1
  Bi  Bi7  1  0.21775600  0.29770098  0.71529283  1
  O  O8  1  0.86535992  0.34029625  0.87967696  1
  O  O9  1  0.13464008  0.65970375  0.12032304  1
  O  O10  1  0.86227730  0.01447025  0.22146811  1
  O  O11  1  0.13772270  0.98552975  0.77853189  1
  O  O12  1  0.35906497  0.19109954  0.99343101  1
  O  O13  1  0.64093503  0.80890046  0.00656899  1
  O  O14  1  0.33749492  0.90624592  0.38276928  1
  O  O15  1  0.66250508  0.09375408  0.61723072  1
  O  O16  1  0.01172546  0.31677624  0.39716279  1
  O  O17  1  0.98827454  0.68322376  0.60283721  1
  O  O18  1  0.44508372  0.61830996  0.69064526  1
  O  O19  1  0.55491628  0.38169004  0.30935474  1
