# generated using pymatgen
data_KAsO3
_symmetry_space_group_name_H-M   'P 1'
_cell_length_a   4.78157171
_cell_length_b   6.10477475
_cell_length_c   13.53870916
_cell_angle_alpha   90.00000000
_cell_angle_beta   90.00000000
_cell_angle_gamma   90.00000000
_symmetry_Int_Tables_number   1
_chemical_formula_structural   KAsO3
_chemical_formula_sum   'K4 As4 O12'
_cell_volume   395.20058282
_cell_formula_units_Z   4
loop_
 _symmetry_equiv_pos_site_id
 _symmetry_equiv_pos_as_xyz
  1  'x, y, z'
loop_
 _atom_site_type_symbol
 _atom_site_label
 _atom_site_symmetry_multiplicity
 _atom_site_fract_x
 _atom_site_fract_y
 _atom_site_fract_z
 _atom_site_occupancy
  K  K0  1  0.80137667  0.28633071  0.64795015  1
  K  K1  1  0.19862333  0.78633071  0.85204985  1
  K  K2  1  0.69862333  0.71366929  0.14795015  1
  K  K3  1  0.30137667  0.21366929  0.35204985  1
  As  As4  1  0.31066928  0.79618586  0.57852579  1
  As  As5  1  0.68933072  0.29618586  0.92147421  1
  As  As6  1  0.18933072  0.20381414  0.07852579  1
  As  As7  1  0.81066928  0.70381414  0.42147421  1
  O  O8  1  0.20812384  0.60061720  0.65682183  1
  O  O9  1  0.79187616  0.10061720  0.84317817  1
  O  O10  1  0.29187616  0.39938280  0.15682183  1
  O  O11  1  0.70812384  0.89938280  0.34317817  1
  O  O12  1  0.31181287  0.05998450  0.61112309  1
  O  O13  1  0.68818713  0.55998450  0.88887691  1
  O  O14  1  0.18818713  0.94001550  0.11112309  1
  O  O15  1  0.81181287  0.44001550  0.38887691  1
  O  O16  1  0.16314212  0.78150573  0.45572775  1
  O  O17  1  0.83685788  0.28150573  0.04427225  1
  O  O18  1  0.33685788  0.21849427  0.95572775  1
  O  O19  1  0.66314212  0.71849427  0.54427225  1
