# generated using pymatgen
data_SrIrO3
_symmetry_space_group_name_H-M   'P 1'
_cell_length_a   5.64167724
_cell_length_b   5.68886731
_cell_length_c   7.94354649
_cell_angle_alpha   90.00000000
_cell_angle_beta   90.00000000
_cell_angle_gamma   90.00000000
_symmetry_Int_Tables_number   1
_chemical_formula_structural   SrIrO3
_chemical_formula_sum   'Sr4 Ir4 O12'
_cell_volume   254.94616432
_cell_formula_units_Z   4
loop_
 _symmetry_equiv_pos_site_id
 _symmetry_equiv_pos_as_xyz
  1  'x, y, z'
loop_
 _atom_site_type_symbol
 _atom_site_label
 _atom_site_symmetry_multiplicity
 _atom_site_fract_x
 _atom_site_fract_y
 _atom_site_fract_z
 _atom_site_occupancy
  Sr  Sr0  1  0.98990069  0.04165398  0.25000000  1
  Sr  Sr1  1  0.51009931  0.54165398  0.25000000  1
  Sr  Sr2  1  0.01009931  0.95834602  0.75000000  1
  Sr  Sr3  1  0.48990069  0.45834602  0.75000000  1
  Ir  Ir4  1  0.50000000  0.00000000  0.00000000  1
  Ir  Ir5  1  -0.00000000  0.50000000  0.50000000  1
  Ir  Ir6  1  0.50000000  0.00000000  0.50000000  1
  Ir  Ir7  1  0.00000000  0.50000000  -0.00000000  1
  O  O8  1  0.41727195  0.98439152  0.25000000  1
  O  O9  1  0.08272805  0.48439152  0.25000000  1
  O  O10  1  0.58272805  0.01560848  0.75000000  1
  O  O11  1  0.91727195  0.51560848  0.75000000  1
  O  O12  1  0.78829114  0.78772564  0.04452952  1
  O  O13  1  0.71170886  0.28772564  0.45547048  1
  O  O14  1  0.21170886  0.21227436  0.54452952  1
  O  O15  1  0.28829114  0.71227436  0.95547048  1
  O  O16  1  0.21170886  0.21227436  0.95547048  1
  O  O17  1  0.28829114  0.71227436  0.54452952  1
  O  O18  1  0.78829114  0.78772564  0.45547048  1
  O  O19  1  0.71170886  0.28772564  0.04452952  1
