# generated using pymatgen
data_MnFe4B2P
_symmetry_space_group_name_H-M   'P 1'
_cell_length_a   5.49913751
_cell_length_b   5.49913751
_cell_length_c   6.41905513
_cell_angle_alpha   115.36256142
_cell_angle_beta   115.36256142
_cell_angle_gamma   90.00000000
_symmetry_Int_Tables_number   1
_chemical_formula_structural   MnFe4B2P
_chemical_formula_sum   'Mn2 Fe8 B4 P2'
_cell_volume   154.44589025
_cell_formula_units_Z   2
loop_
 _symmetry_equiv_pos_site_id
 _symmetry_equiv_pos_as_xyz
  1  'x, y, z'
loop_
 _atom_site_type_symbol
 _atom_site_label
 _atom_site_symmetry_multiplicity
 _atom_site_fract_x
 _atom_site_fract_y
 _atom_site_fract_z
 _atom_site_occupancy
  Mn  Mn0  1  0.50000000  0.50000000  0.00000000  1
  Mn  Mn1  1  0.00000000  0.00000000  0.00000000  1
  Fe  Fe2  1  0.03017349  0.53017349  0.72168058  1
  Fe  Fe3  1  0.69150709  0.19150709  0.72168058  1
  Fe  Fe4  1  0.19150709  0.03017349  0.72168058  1
  Fe  Fe5  1  0.53017349  0.69150709  0.72168058  1
  Fe  Fe6  1  0.96982651  0.46982651  0.27831942  1
  Fe  Fe7  1  0.30849291  0.80849291  0.27831942  1
  Fe  Fe8  1  0.80849291  0.96982651  0.27831942  1
  Fe  Fe9  1  0.46982651  0.30849291  0.27831942  1
  B  B10  1  0.38156417  0.88156417  0.00000000  1
  B  B11  1  0.61843583  0.11843583  0.00000000  1
  B  B12  1  0.11843583  0.38156417  0.00000000  1
  B  B13  1  0.88156417  0.61843583  0.00000000  1
  P  P14  1  0.25000000  0.25000000  0.50000000  1
  P  P15  1  0.75000000  0.75000000  0.50000000  1
