# generated using pymatgen
data_CsSm2I5
_symmetry_space_group_name_H-M   'P 1'
_cell_length_a   9.17317402
_cell_length_b   9.99396357
_cell_length_c   13.86498889
_cell_angle_alpha   92.46187124
_cell_angle_beta   90.00000000
_cell_angle_gamma   90.00000000
_symmetry_Int_Tables_number   1
_chemical_formula_structural   CsSm2I5
_chemical_formula_sum   'Cs4 Sm8 I20'
_cell_volume   1269.91862639
_cell_formula_units_Z   4
loop_
 _symmetry_equiv_pos_site_id
 _symmetry_equiv_pos_as_xyz
  1  'x, y, z'
loop_
 _atom_site_type_symbol
 _atom_site_label
 _atom_site_symmetry_multiplicity
 _atom_site_fract_x
 _atom_site_fract_y
 _atom_site_fract_z
 _atom_site_occupancy
  Cs  Cs0  1  0.91820324  0.49370682  0.66857759  1
  Cs  Cs1  1  0.08179676  0.50629318  0.33142241  1
  Cs  Cs2  1  0.41820324  0.50629318  0.83142241  1
  Cs  Cs3  1  0.58179676  0.49370682  0.16857759  1
  Sm  Sm4  1  0.89638550  0.99712059  0.68531906  1
  Sm  Sm5  1  0.10361450  0.00287941  0.31468094  1
  Sm  Sm6  1  0.39638550  0.00287941  0.81468094  1
  Sm  Sm7  1  0.60361450  0.99712059  0.18531906  1
  Sm  Sm8  1  0.89839288  0.77700952  0.00137704  1
  Sm  Sm9  1  0.10160712  0.22299048  0.99862296  1
  Sm  Sm10  1  0.39839288  0.22299048  0.49862296  1
  Sm  Sm11  1  0.60160712  0.77700952  0.50137704  1
  I  I12  1  0.81747002  0.47237985  0.93609270  1
  I  I13  1  0.18252998  0.52762015  0.06390730  1
  I  I14  1  0.31747002  0.52762015  0.56390730  1
  I  I15  1  0.68252998  0.47237985  0.43609270  1
  I  I16  1  0.11747073  0.79637084  0.80914059  1
  I  I17  1  0.88252927  0.20362916  0.19085941  1
  I  I18  1  0.61747073  0.20362916  0.69085941  1
  I  I19  1  0.38252927  0.79637084  0.30914059  1
  I  I20  1  0.65298306  0.78262878  0.72660239  1
  I  I21  1  0.34701694  0.21737122  0.27339761  1
  I  I22  1  0.15298306  0.21737122  0.77339761  1
  I  I23  1  0.84701694  0.78262878  0.22660239  1
  I  I24  1  0.54443090  0.80318607  0.99894528  1
  I  I25  1  0.45556910  0.19681393  0.00105472  1
  I  I26  1  0.04443090  0.19681393  0.50105472  1
  I  I27  1  0.95556910  0.80318607  0.49894528  1
  I  I28  1  0.33387047  0.94265275  0.58759169  1
  I  I29  1  0.66612953  0.05734725  0.41240831  1
  I  I30  1  0.83387047  0.05734725  0.91240831  1
  I  I31  1  0.16612953  0.94265275  0.08759169  1
