# generated using pymatgen
data_RbBi2Br7
_symmetry_space_group_name_H-M   'P 1'
_cell_length_a   7.81959836
_cell_length_b   9.84903829
_cell_length_c   10.70384955
_cell_angle_alpha   75.94300561
_cell_angle_beta   83.93770336
_cell_angle_gamma   76.55232263
_symmetry_Int_Tables_number   1
_chemical_formula_structural   RbBi2Br7
_chemical_formula_sum   'Rb2 Bi4 Br14'
_cell_volume   776.69671703
_cell_formula_units_Z   2
loop_
 _symmetry_equiv_pos_site_id
 _symmetry_equiv_pos_as_xyz
  1  'x, y, z'
loop_
 _atom_site_type_symbol
 _atom_site_label
 _atom_site_symmetry_multiplicity
 _atom_site_fract_x
 _atom_site_fract_y
 _atom_site_fract_z
 _atom_site_occupancy
  Rb  Rb0  1  0.38839196  0.86028348  0.30670546  1
  Rb  Rb1  1  0.61160804  0.13971652  0.69329454  1
  Bi  Bi2  1  0.87064160  0.64252426  0.62444238  1
  Bi  Bi3  1  0.12935840  0.35747574  0.37555762  1
  Bi  Bi4  1  0.30835070  0.70525305  0.93363029  1
  Bi  Bi5  1  0.69164930  0.29474695  0.06636971  1
  Br  Br6  1  0.87440637  0.86881338  0.42502200  1
  Br  Br7  1  0.12559363  0.13118662  0.57497800  1
  Br  Br8  1  0.96554096  0.79279271  0.79248181  1
  Br  Br9  1  0.03445904  0.20720729  0.20751819  1
  Br  Br10  1  0.50527897  0.77284749  0.66793422  1
  Br  Br11  1  0.49472103  0.22715251  0.33206578  1
  Br  Br12  1  0.76564780  0.48450385  0.45154045  1
  Br  Br13  1  0.23435220  0.51549615  0.54845955  1
  Br  Br14  1  0.88354369  0.34880156  0.83263633  1
  Br  Br15  1  0.11645631  0.65119844  0.16736367  1
  Br  Br16  1  0.27724430  0.97829226  0.94559252  1
  Br  Br17  1  0.72275570  0.02170774  0.05440748  1
  Br  Br18  1  0.61817664  0.62256926  0.06690736  1
  Br  Br19  1  0.38182336  0.37743074  0.93309264  1
