# generated using pymatgen
data_Ho5(MoO6)2
_symmetry_space_group_name_H-M   'P 1'
_cell_length_a   5.99055486
_cell_length_b   6.85065097
_cell_length_c   7.31161021
_cell_angle_alpha   105.57274508
_cell_angle_beta   90.00000000
_cell_angle_gamma   115.92697330
_symmetry_Int_Tables_number   1
_chemical_formula_structural   Ho5(MoO6)2
_chemical_formula_sum   'Ho5 Mo2 O12'
_cell_volume   257.55836863
_cell_formula_units_Z   1
loop_
 _symmetry_equiv_pos_site_id
 _symmetry_equiv_pos_as_xyz
  1  'x, y, z'
loop_
 _atom_site_type_symbol
 _atom_site_label
 _atom_site_symmetry_multiplicity
 _atom_site_fract_x
 _atom_site_fract_y
 _atom_site_fract_z
 _atom_site_occupancy
  Ho  Ho0  1  0.30016227  0.60032454  0.63611951  1
  Ho  Ho1  1  0.69983773  0.39967546  0.36388049  1
  Ho  Ho2  1  0.30897487  0.61794974  0.17713010  1
  Ho  Ho3  1  0.69102513  0.38205026  0.82286990  1
  Ho  Ho4  1  -0.00000000  -0.00000000  0.50000000  1
  Mo  Mo5  1  0.75274229  -0.00000000  0.00000000  1
  Mo  Mo6  1  0.24725771  -0.00000000  0.00000000  1
  O  O7  1  0.89925205  0.33324824  0.08691272  1
  O  O8  1  0.43399618  0.33324824  0.08691272  1
  O  O9  1  0.10074795  0.66675176  0.91308728  1
  O  O10  1  0.56600382  0.66675176  0.91308728  1
  O  O11  1  0.09645608  0.69361486  0.42758887  1
  O  O12  1  0.59715878  0.69361486  0.42758887  1
  O  O13  1  0.90354392  0.30638514  0.57241113  1
  O  O14  1  0.40284122  0.30638514  0.57241113  1
  O  O15  1  0.99653860  0.99307720  0.18681915  1
  O  O16  1  0.00346140  0.00692280  0.81318085  1
  O  O17  1  0.49858797  -0.00282405  0.19734175  1
  O  O18  1  0.50141203  0.00282405  0.80265825  1
