# generated using pymatgen
data_CaMn7O12
_symmetry_space_group_name_H-M   'P 1'
_cell_length_a   6.47855161
_cell_length_b   6.50756808
_cell_length_c   6.50756782
_cell_angle_alpha   109.56136800
_cell_angle_beta   109.38091968
_cell_angle_gamma   109.38091884
_symmetry_Int_Tables_number   1
_chemical_formula_structural   CaMn7O12
_chemical_formula_sum   'Ca1 Mn7 O12'
_cell_volume   211.43469459
_cell_formula_units_Z   1
loop_
 _symmetry_equiv_pos_site_id
 _symmetry_equiv_pos_as_xyz
  1  'x, y, z'
loop_
 _atom_site_type_symbol
 _atom_site_label
 _atom_site_symmetry_multiplicity
 _atom_site_fract_x
 _atom_site_fract_y
 _atom_site_fract_z
 _atom_site_occupancy
  Ca  Ca0  1  0.00000000  0.00000000  0.00000000  1
  Mn  Mn1  1  0.50000000  0.00000000  0.50000000  1
  Mn  Mn2  1  0.00000000  0.50000000  0.50000000  1
  Mn  Mn3  1  0.50000000  0.50000000  0.00000000  1
  Mn  Mn4  1  0.00000000  0.00000000  0.50000000  1
  Mn  Mn5  1  0.50000000  0.50000000  0.50000000  1
  Mn  Mn6  1  0.00000000  0.50000000  0.00000000  1
  Mn  Mn7  1  0.50000000  0.00000000  0.00000000  1
  O  O8  1  0.12986617  0.82440413  0.31967444  1
  O  O9  1  0.81019173  0.68032556  0.50472970  1
  O  O10  1  0.30546203  0.49527030  0.17559587  1
  O  O11  1  0.87013383  0.17559587  0.68032556  1
  O  O12  1  0.18980827  0.31967444  0.49527030  1
  O  O13  1  0.69453797  0.50472970  0.82440413  1
  O  O14  1  0.52155102  0.83190583  0.69988899  1
  O  O15  1  0.82166203  0.30011101  0.13201684  1
  O  O16  1  0.68964519  0.86798316  0.16809417  1
  O  O17  1  0.47844898  0.16809417  0.30011101  1
  O  O18  1  0.17833797  0.69988899  0.86798316  1
  O  O19  1  0.31035481  0.13201684  0.83190583  1
