# generated using pymatgen
data_K2CuSbBr6
_symmetry_space_group_name_H-M   'P 1'
_cell_length_a   7.73135741
_cell_length_b   7.73135722
_cell_length_c   7.73135731
_cell_angle_alpha   59.99940871
_cell_angle_beta   59.99940556
_cell_angle_gamma   59.99940790
_symmetry_Int_Tables_number   1
_chemical_formula_structural   K2CuSbBr6
_chemical_formula_sum   'K2 Cu1 Sb1 Br6'
_cell_volume   326.77317824
_cell_formula_units_Z   1
loop_
 _symmetry_equiv_pos_site_id
 _symmetry_equiv_pos_as_xyz
  1  'x, y, z'
loop_
 _atom_site_type_symbol
 _atom_site_label
 _atom_site_symmetry_multiplicity
 _atom_site_fract_x
 _atom_site_fract_y
 _atom_site_fract_z
 _atom_site_occupancy
  K  K0  1  0.24999949  0.24999953  0.24999941  1
  K  K1  1  0.75000056  0.75000050  0.75000053  1
  Cu  Cu2  1  0.50000002  0.49999994  0.50000008  1
  Sb  Sb3  1  -0.00000000  -0.00000001  0.00000002  1
  Br  Br4  1  0.25839164  0.74160931  0.25839166  1
  Br  Br5  1  0.74160837  0.74160832  0.25839069  1
  Br  Br6  1  0.74160834  0.25839067  0.74160835  1
  Br  Br7  1  0.74160930  0.25839166  0.25839163  1
  Br  Br8  1  0.25839069  0.74160838  0.74160835  1
  Br  Br9  1  0.25839160  0.25839170  0.74160929  1
