# generated using pymatgen
data_PuReB2
_symmetry_space_group_name_H-M   'P 1'
_cell_length_a   5.37345865
_cell_length_b   5.78738014
_cell_length_c   6.46330330
_cell_angle_alpha   90.00000000
_cell_angle_beta   90.00000000
_cell_angle_gamma   90.00000000
_symmetry_Int_Tables_number   1
_chemical_formula_structural   PuReB2
_chemical_formula_sum   'Pu4 Re4 B8'
_cell_volume   200.99740811
_cell_formula_units_Z   4
loop_
 _symmetry_equiv_pos_site_id
 _symmetry_equiv_pos_as_xyz
  1  'x, y, z'
loop_
 _atom_site_type_symbol
 _atom_site_label
 _atom_site_symmetry_multiplicity
 _atom_site_fract_x
 _atom_site_fract_y
 _atom_site_fract_z
 _atom_site_occupancy
  Pu  Pu0  1  0.75000000  0.49729582  0.16364537  1
  Pu  Pu1  1  0.75000000  0.99729582  0.33635463  1
  Pu  Pu2  1  0.25000000  0.50270418  0.83635463  1
  Pu  Pu3  1  0.25000000  0.00270418  0.66364537  1
  Re  Re4  1  0.75000000  0.31567844  0.68701837  1
  Re  Re5  1  0.75000000  0.81567844  0.81298163  1
  Re  Re6  1  0.25000000  0.68432156  0.31298163  1
  Re  Re7  1  0.25000000  0.18432156  0.18701837  1
  B  B8  1  0.92037947  0.13388435  0.96518668  1
  B  B9  1  0.57962053  0.63388435  0.53481332  1
  B  B10  1  0.42037947  0.86611565  0.03481332  1
  B  B11  1  0.07962053  0.36611565  0.46518668  1
  B  B12  1  0.07962053  0.86611565  0.03481332  1
  B  B13  1  0.42037947  0.36611565  0.46518668  1
  B  B14  1  0.57962053  0.13388435  0.96518668  1
  B  B15  1  0.92037947  0.63388435  0.53481332  1
