# generated using pymatgen
data_Cs2WO8
_symmetry_space_group_name_H-M   'P 1'
_cell_length_a   7.24555892
_cell_length_b   9.30992435
_cell_length_c   12.78965469
_cell_angle_alpha   90.00000000
_cell_angle_beta   94.31739223
_cell_angle_gamma   90.00000000
_symmetry_Int_Tables_number   1
_chemical_formula_structural   Cs2WO8
_chemical_formula_sum   'Cs8 W4 O32'
_cell_volume   860.28574453
_cell_formula_units_Z   4
loop_
 _symmetry_equiv_pos_site_id
 _symmetry_equiv_pos_as_xyz
  1  'x, y, z'
loop_
 _atom_site_type_symbol
 _atom_site_label
 _atom_site_symmetry_multiplicity
 _atom_site_fract_x
 _atom_site_fract_y
 _atom_site_fract_z
 _atom_site_occupancy
  Cs  Cs0  1  0.25364764  0.48570079  0.26474665  1
  Cs  Cs1  1  0.74635236  0.51429921  0.73525335  1
  Cs  Cs2  1  0.24635236  0.98570079  0.23525335  1
  Cs  Cs3  1  0.75364764  0.01429921  0.76474665  1
  Cs  Cs4  1  0.74984970  0.30659908  0.08735002  1
  Cs  Cs5  1  0.25015030  0.69340092  0.91264998  1
  Cs  Cs6  1  0.75015030  0.80659908  0.41264998  1
  Cs  Cs7  1  0.24984970  0.19340092  0.58735002  1
  W  W8  1  0.75454940  0.78768095  0.08307118  1
  W  W9  1  0.24545060  0.21231905  0.91692882  1
  W  W10  1  0.74545060  0.28768095  0.41692882  1
  W  W11  1  0.25454940  0.71231905  0.58307118  1
  O  O12  1  0.87044005  0.63571298  0.17723123  1
  O  O13  1  0.12955995  0.36428702  0.82276877  1
  O  O14  1  0.62955995  0.13571298  0.32276877  1
  O  O15  1  0.37044005  0.86428702  0.67723123  1
  O  O16  1  0.86839549  0.98354216  0.07791598  1
  O  O17  1  0.13160451  0.01645784  0.92208402  1
  O  O18  1  0.63160451  0.48354216  0.42208402  1
  O  O19  1  0.36839549  0.51645784  0.57791598  1
  O  O20  1  0.82812319  0.94284489  0.18764503  1
  O  O21  1  0.17187681  0.05715511  0.81235497  1
  O  O22  1  0.67187681  0.44284489  0.31235497  1
  O  O23  1  0.32812319  0.55715511  0.68764503  1
  O  O24  1  0.26718251  0.72631641  0.42725752  1
  O  O25  1  0.73281749  0.27368359  0.57274248  1
  O  O26  1  0.23281749  0.22631641  0.07274248  1
  O  O27  1  0.76718251  0.77368359  0.92725752  1
  O  O28  1  0.00851672  0.70014054  0.10858018  1
  O  O29  1  -0.00851672  0.29985946  0.89141982  1
  O  O30  1  0.49148328  0.20014054  0.39141982  1
  O  O31  1  0.50851672  0.79985946  0.60858018  1
  O  O32  1  0.49495577  0.86600197  0.06804679  1
  O  O33  1  0.50504423  0.13399803  0.93195321  1
  O  O34  1  0.00504423  0.36600197  0.43195321  1
  O  O35  1  -0.00504423  0.63399803  0.56804679  1
  O  O36  1  0.51895777  0.75225912  0.15128128  1
  O  O37  1  0.48104223  0.24774088  0.84871872  1
  O  O38  1  0.98104223  0.25225912  0.34871872  1
  O  O39  1  0.01895777  0.74774088  0.65128128  1
  O  O40  1  0.18074035  0.85805895  0.47024022  1
  O  O41  1  0.81925965  0.14194105  0.52975978  1
  O  O42  1  0.31925965  0.35805895  0.02975978  1
  O  O43  1  0.68074035  0.64194105  0.97024022  1
