# generated using pymatgen
data_Te2Mo
_symmetry_space_group_name_H-M   'P 1'
_cell_length_a   6.38513239
_cell_length_b   3.45986367
_cell_length_c   36.46140464
_cell_angle_alpha   90.00000000
_cell_angle_beta   89.99690311
_cell_angle_gamma   90.00000000
_symmetry_Int_Tables_number   1
_chemical_formula_structural   Te2Mo
_chemical_formula_sum   'Te4 Mo2'
_cell_volume   805.49395906
_cell_formula_units_Z   2
loop_
 _symmetry_equiv_pos_site_id
 _symmetry_equiv_pos_as_xyz
  1  'x, y, z'
loop_
 _atom_site_type_symbol
 _atom_site_label
 _atom_site_symmetry_multiplicity
 _atom_site_fract_x
 _atom_site_fract_y
 _atom_site_fract_z
 _atom_site_occupancy
  Te  Te0  1  0.57854751  0.25000000  0.44312832  1
  Te  Te1  1  0.42144949  0.75000000  0.55687368  1
  Te  Te2  1  0.07019556  0.75000000  0.45938410  1
  Te  Te3  1  0.92980144  0.25000000  0.54061690  1
  Mo  Mo4  1  0.31886513  0.25000000  0.50259826  1
  Mo  Mo5  1  0.68113387  0.75000000  0.49740074  1
