# generated using pymatgen
data_Sr2SmTa(CuO4)2
_symmetry_space_group_name_H-M   'P 1'
_cell_length_a   5.52101853
_cell_length_b   5.52101855
_cell_length_c   12.50890550
_cell_angle_alpha   102.65165708
_cell_angle_beta   102.65165737
_cell_angle_gamma   89.96489997
_symmetry_Int_Tables_number   1
_chemical_formula_structural   Sr2SmTa(CuO4)2
_chemical_formula_sum   'Sr4 Sm2 Ta2 Cu4 O16'
_cell_volume   362.55162315
_cell_formula_units_Z   2
loop_
 _symmetry_equiv_pos_site_id
 _symmetry_equiv_pos_as_xyz
  1  'x, y, z'
loop_
 _atom_site_type_symbol
 _atom_site_label
 _atom_site_symmetry_multiplicity
 _atom_site_fract_x
 _atom_site_fract_y
 _atom_site_fract_z
 _atom_site_occupancy
  Sr  Sr0  1  0.59796928  0.09796928  0.20179356  1
  Sr  Sr1  1  0.90222892  0.40222892  0.79897256  1
  Sr  Sr2  1  0.09777108  0.59777108  0.20102744  1
  Sr  Sr3  1  0.40203072  0.90203072  0.79820644  1
  Sm  Sm4  1  0.24952946  0.74952946  0.49993165  1
  Sm  Sm5  1  0.75047054  0.25047054  0.50006835  1
  Ta  Ta6  1  -0.00000000  -0.00000000  -0.00000000  1
  Ta  Ta7  1  0.50000000  0.50000000  -0.00000000  1
  Cu  Cu8  1  0.67451742  0.67488473  0.35565854  1
  Cu  Cu9  1  0.82511527  0.82548258  0.64434146  1
  Cu  Cu10  1  0.17488473  0.17451742  0.35565854  1
  Cu  Cu11  1  0.32548258  0.32511527  0.64434146  1
  O  O12  1  0.18874459  0.31125541  1.00000000  1
  O  O13  1  0.43956749  0.42729744  0.37196447  1
  O  O14  1  0.58550459  0.57461622  0.16580566  1
  O  O15  1  0.57240490  0.07240490  0.62840016  1
  O  O16  1  0.68667485  0.18667485  0.99544764  1
  O  O17  1  0.94164789  0.44164789  0.37462980  1
  O  O18  1  0.92538378  0.91449541  0.83419434  1
  O  O19  1  0.07461622  0.08550459  0.16580566  1
  O  O20  1  0.07270256  0.06043251  0.62803553  1
  O  O21  1  0.31332515  0.81332515  0.00455236  1
  O  O22  1  0.42759510  0.92759510  0.37159984  1
  O  O23  1  0.41449541  0.42538378  0.83419434  1
  O  O24  1  0.56043251  0.57270256  0.62803553  1
  O  O25  1  0.81125541  0.68874459  0.00000000  1
  O  O26  1  0.92729744  0.93956749  0.37196447  1
  O  O27  1  0.05835211  0.55835211  0.62537020  1
