# generated using pymatgen
data_Nd2TeMo6H38O43
_symmetry_space_group_name_H-M   'P 1'
_cell_length_a   9.55267534
_cell_length_b   10.25075986
_cell_length_c   10.79953047
_cell_angle_alpha   95.77710651
_cell_angle_beta   105.04148697
_cell_angle_gamma   112.44461899
_symmetry_Int_Tables_number   1
_chemical_formula_structural   Nd2TeMo6H38O43
_chemical_formula_sum   'Nd2 Te1 Mo6 H38 O43'
_cell_volume   919.98050790
_cell_formula_units_Z   1
loop_
 _symmetry_equiv_pos_site_id
 _symmetry_equiv_pos_as_xyz
  1  'x, y, z'
loop_
 _atom_site_type_symbol
 _atom_site_label
 _atom_site_symmetry_multiplicity
 _atom_site_fract_x
 _atom_site_fract_y
 _atom_site_fract_z
 _atom_site_occupancy
  Nd  Nd0  1  0.17143535  0.90435172  0.73504689  1
  Nd  Nd1  1  0.82986379  0.09665147  0.26512467  1
  Te  Te2  1  0.49946148  0.50018307  0.49830812  1
  Mo  Mo3  1  0.52190320  0.81030115  0.63878261  1
  Mo  Mo4  1  0.46208159  0.73516027  0.31457978  1
  Mo  Mo5  1  0.57172140  0.58275781  0.82514583  1
  Mo  Mo6  1  0.42533620  0.41818250  0.17145315  1
  Mo  Mo7  1  0.54119304  0.26777367  0.68214151  1
  Mo  Mo8  1  0.47438807  0.18834285  0.35644798  1
  H  H9  1  0.02555016  0.86329680  0.96845310  1
  H  H10  1  0.01463679  0.57017265  0.64942159  1
  H  H11  1  0.04212959  0.74617577  0.43698864  1
  H  H12  1  0.20891927  0.73108036  0.97518438  1
  H  H13  1  0.22644147  0.83674705  0.46621102  1
  H  H14  1  0.16168075  0.90018847  0.20100164  1
  H  H15  1  0.07489002  0.73640350  0.12940406  1
  H  H16  1  0.14222231  0.43674296  0.75847011  1
  H  H17  1  0.31035773  0.70448758  0.89087637  1
  H  H18  1  0.19840122  0.47066381  0.63738978  1
  H  H19  1  0.10470115  0.17244806  0.82901005  1
  H  H20  1  0.13668147  0.40533637  0.34554511  1
  H  H21  1  0.07119801  0.48708544  0.04354676  1
  H  H22  1  0.60322741  0.99645284  0.97160792  1
  H  H23  1  0.08835553  0.00162439  0.41889191  1
  H  H24  1  0.26853132  0.23976697  0.79284365  1
  H  H25  1  0.11678151  0.15876221  0.15793464  1
  H  H26  1  0.58570237  0.84575979  0.00628717  1
  H  H27  1  0.18356770  0.17246740  0.44203386  1
  H  H28  1  0.81702282  0.82817001  0.55810985  1
  H  H29  1  0.41061296  0.15397930  0.99315880  1
  H  H30  1  0.88292361  0.83976184  0.83989638  1
  H  H31  1  0.73482789  0.76091943  0.20654054  1
  H  H32  1  0.91199199  0.99868891  0.57908791  1
  H  H33  1  0.41679661  0.00964332  0.02844290  1
  H  H34  1  0.90401544  0.49049013  0.97209076  1
  H  H35  1  0.86306262  0.59650586  0.65218101  1
  H  H36  1  0.89871483  0.83160527  0.17054228  1
  H  H37  1  0.80127099  0.52924779  0.35466578  1
  H  H38  1  0.68697586  0.28270228  0.10772926  1
  H  H39  1  0.87165837  0.55795418  0.23840550  1
  H  H40  1  0.88687999  0.24143664  0.86873553  1
  H  H41  1  0.84082983  0.08782902  0.79614183  1
  H  H42  1  0.77352197  0.16366805  0.53267139  1
  H  H43  1  0.85389617  0.32927764  0.08675555  1
  H  H44  1  0.95855593  0.25447514  0.56328372  1
  H  H45  1  0.98665456  0.43230072  0.35330781  1
  H  H46  1  0.97242277  0.13572938  0.03026017  1
  O  O47  1  0.13275472  0.84051325  0.48681591  1
  O  O48  1  0.22612026  0.73878107  0.89058300  1
  O  O49  1  0.06539726  0.82866323  0.12888053  1
  O  O50  1  0.10160971  0.43454246  0.66530774  1
  O  O51  1  0.03166291  0.35933526  0.35923437  1
  O  O52  1  0.38609485  0.82935329  0.71614170  1
  O  O53  1  0.17739736  0.14949095  0.78910168  1
  O  O54  1  0.99908519  0.12423978  0.12280129  1
  O  O55  1  0.07569498  0.09040288  0.40387497  1
  O  O56  1  0.38710255  0.78086685  0.45866186  1
  O  O57  1  0.45544468  0.63254232  0.90662568  1
  O  O58  1  0.29939616  0.71239941  0.18212915  1
  O  O59  1  0.40202059  0.56630780  0.61541816  1
  O  O60  1  0.34456122  0.50069578  0.33820737  1
  O  O61  1  0.25657847  0.40637605  0.05168843  1
  O  O62  1  0.44849767  0.37299200  0.77354825  1
  O  O63  1  0.66762247  0.98443035  0.65998436  1
  O  O64  1  0.37273871  0.04984055  0.95822500  1
  O  O65  1  0.38105924  0.29443612  0.49336645  1
  O  O66  1  0.66839756  0.76881781  0.77799292  1
  O  O67  1  0.61647740  0.90422566  0.32562067  1
  O  O68  1  0.39228556  0.09843526  0.67929880  1
  O  O69  1  0.32834026  0.23251938  0.21925464  1
  O  O70  1  0.61889544  0.70593888  0.50567523  1
  O  O71  1  0.61550669  0.94772385  0.04409070  1
  O  O72  1  0.32799452  0.01437862  0.33511392  1
  O  O73  1  0.55365738  0.62727506  0.22526852  1
  O  O74  1  0.74140471  0.59887550  0.94547041  1
  O  O75  1  0.65469280  0.50114422  0.65869011  1
  O  O76  1  0.59557650  0.43282803  0.38085767  1
  O  O77  1  0.71502064  0.29976863  0.80778878  1
  O  O78  1  0.53983717  0.36626563  0.08970288  1
  O  O79  1  0.61037377  0.21789397  0.53551293  1
  O  O80  1  0.92455772  0.91061179  0.59714721  1
  O  O81  1  0.00054813  0.87492011  0.87603450  1
  O  O82  1  0.82382751  0.85231593  0.20962291  1
  O  O83  1  0.60829820  0.16715264  0.27822474  1
  O  O84  1  0.96816555  0.64159213  0.63840978  1
  O  O85  1  0.90234819  0.56414461  0.33305276  1
  O  O86  1  0.92827536  0.16685358  0.86876225  1
  O  O87  1  0.76854171  0.24719633  0.10394948  1
  O  O88  1  0.86770170  0.16049763  0.51262768  1
  O  O89  1  0.97524141  0.49246350  0.05659538  1
