# generated using pymatgen
data_Li12MnCo(Ni5O12)2
_symmetry_space_group_name_H-M   'P 1'
_cell_length_a   5.80371111
_cell_length_b   5.79684675
_cell_length_c   14.28257261
_cell_angle_alpha   89.99953865
_cell_angle_beta   89.73033036
_cell_angle_gamma   119.96090350
_symmetry_Int_Tables_number   1
_chemical_formula_structural   Li12MnCo(Ni5O12)2
_chemical_formula_sum   'Li12 Mn1 Co1 Ni10 O24'
_cell_volume   416.29310639
_cell_formula_units_Z   1
loop_
 _symmetry_equiv_pos_site_id
 _symmetry_equiv_pos_as_xyz
  1  'x, y, z'
loop_
 _atom_site_type_symbol
 _atom_site_label
 _atom_site_symmetry_multiplicity
 _atom_site_fract_x
 _atom_site_fract_y
 _atom_site_fract_z
 _atom_site_occupancy
  Li  Li0  1  0.00241674  0.00120689  0.49927967  1
  Li  Li1  1  0.00474645  0.50237504  0.50155932  1
  Li  Li2  1  0.49702110  0.00177230  0.49954340  1
  Li  Li3  1  0.49702012  0.49524654  0.49954372  1
  Li  Li4  1  0.32858655  0.16429196  0.83177368  1
  Li  Li5  1  0.33091626  0.66546011  0.83405333  1
  Li  Li6  1  0.83631288  0.17142046  0.83378928  1
  Li  Li7  1  0.83631190  0.66489470  0.83378960  1
  Li  Li8  1  0.16666700  0.33333300  0.16666700  1
  Li  Li9  1  0.16666700  0.83333300  0.16666700  1
  Li  Li10  1  0.66666700  0.33333300  0.16666700  1
  Li  Li11  1  0.66666700  0.83333300  0.16666700  1
  Mn  Mn12  1  0.66666700  0.33333300  0.66666700  1
  Co  Co13  1  0.66666700  0.83333300  0.66666700  1
  Ni  Ni14  1  0.00039460  0.00019743  0.99989794  1
  Ni  Ni15  1  0.00080709  0.50040370  0.00098912  1
  Ni  Ni16  1  0.49935546  0.99975762  0.00026707  1
  Ni  Ni17  1  0.49935287  0.49959613  0.00026657  1
  Ni  Ni18  1  0.33252591  0.16626330  0.33234388  1
  Ni  Ni19  1  0.33293840  0.66646957  0.33343506  1
  Ni  Ni20  1  0.83398013  0.16707087  0.33306643  1
  Ni  Ni21  1  0.83397754  0.66690938  0.33306593  1
  Ni  Ni22  1  0.16666700  0.33333300  0.66666700  1
  Ni  Ni23  1  0.16666700  0.83333300  0.66666700  1
  O  O24  1  0.02130100  0.01065175  0.25705467  1
  O  O25  1  0.98357988  0.49179035  0.26336905  1
  O  O26  1  0.49261672  0.01099291  0.25747895  1
  O  O27  1  0.49261539  0.48162459  0.25747898  1
  O  O28  1  0.98499570  0.99252172  0.74422347  1
  O  O29  1  0.98587205  0.49293538  0.74157455  1
  O  O30  1  0.51100862  0.01663634  0.74564571  1
  O  O31  1  0.51099955  0.49436284  0.74564447  1
  O  O32  1  0.34746095  0.17373162  0.59175945  1
  O  O33  1  0.34833730  0.67414528  0.58911053  1
  O  O34  1  0.82233345  0.17230416  0.58768953  1
  O  O35  1  0.82232438  0.65003066  0.58768829  1
  O  O36  1  0.34975312  0.17487665  0.06996395  1
  O  O37  1  0.31203200  0.65601525  0.07627833  1
  O  O38  1  0.84071761  0.18504241  0.07585402  1
  O  O39  1  0.84071628  0.65567409  0.07585405  1
  O  O40  1  0.15911954  0.34641215  0.92552631  1
  O  O41  1  0.15911653  0.81270803  0.92552515  1
  O  O42  1  0.69077590  0.34539034  0.92657185  1
  O  O43  1  0.64992801  0.82496304  0.92963607  1
  O  O44  1  0.17421446  0.32025385  0.40780669  1
  O  O45  1  0.17421747  0.85395797  0.40780785  1
  O  O46  1  0.64255810  0.32127566  0.40676115  1
  O  O47  1  0.68340599  0.84170296  0.40369693  1
