# generated using pymatgen
data_Ce2WO6
_symmetry_space_group_name_H-M   'P 1'
_cell_length_a   5.03714537
_cell_length_b   5.03714537
_cell_length_c   10.48461375
_cell_angle_alpha   90.00000000
_cell_angle_beta   90.00000000
_cell_angle_gamma   90.00000000
_symmetry_Int_Tables_number   1
_chemical_formula_structural   Ce2WO6
_chemical_formula_sum   'Ce4 W2 O12'
_cell_volume   266.02435877
_cell_formula_units_Z   2
loop_
 _symmetry_equiv_pos_site_id
 _symmetry_equiv_pos_as_xyz
  1  'x, y, z'
loop_
 _atom_site_type_symbol
 _atom_site_label
 _atom_site_symmetry_multiplicity
 _atom_site_fract_x
 _atom_site_fract_y
 _atom_site_fract_z
 _atom_site_occupancy
  Ce  Ce0  1  -0.00000000  -0.00000000  0.33324464  1
  Ce  Ce1  1  -0.00000000  -0.00000000  0.66675536  1
  Ce  Ce2  1  0.50000000  0.50000000  0.83324464  1
  Ce  Ce3  1  0.50000000  0.50000000  0.16675536  1
  W  W4  1  -0.00000000  -0.00000000  0.00000000  1
  W  W5  1  0.50000000  0.50000000  0.50000000  1
  O  O6  1  0.29195279  0.29195279  0.00000000  1
  O  O7  1  0.70804721  0.70804721  0.00000000  1
  O  O8  1  0.20804721  0.79195279  0.50000000  1
  O  O9  1  0.79195279  0.20804721  0.50000000  1
  O  O10  1  0.31523865  0.31523865  0.34468916  1
  O  O11  1  0.68476135  0.68476135  0.65531084  1
  O  O12  1  0.68476135  0.68476135  0.34468916  1
  O  O13  1  0.18476135  0.81523865  0.84468916  1
  O  O14  1  0.18476135  0.81523865  0.15531084  1
  O  O15  1  0.31523865  0.31523865  0.65531084  1
  O  O16  1  0.81523865  0.18476135  0.15531084  1
  O  O17  1  0.81523865  0.18476135  0.84468916  1
