# generated using pymatgen
data_SrPrGaCuO5
_symmetry_space_group_name_H-M   'P 1'
_cell_length_a   5.61435667
_cell_length_b   5.37353515
_cell_length_c   9.16385242
_cell_angle_alpha   107.41854170
_cell_angle_beta   107.73290186
_cell_angle_gamma   90.11515499
_symmetry_Int_Tables_number   1
_chemical_formula_structural   SrPrGaCuO5
_chemical_formula_sum   'Sr2 Pr2 Ga2 Cu2 O10'
_cell_volume   249.92846172
_cell_formula_units_Z   2
loop_
 _symmetry_equiv_pos_site_id
 _symmetry_equiv_pos_as_xyz
  1  'x, y, z'
loop_
 _atom_site_type_symbol
 _atom_site_label
 _atom_site_symmetry_multiplicity
 _atom_site_fract_x
 _atom_site_fract_y
 _atom_site_fract_z
 _atom_site_occupancy
  Sr  Sr0  1  0.41459703  0.84686242  0.77728954  1
  Sr  Sr1  1  0.94730918  0.34491851  0.77574692  1
  Pr  Pr2  1  0.12571305  0.56900841  0.20676743  1
  Pr  Pr3  1  0.66709457  0.06974860  0.20681515  1
  Ga  Ga4  1  0.35606805  0.24266845  0.49707261  1
  Ga  Ga5  1  0.72619975  0.74307785  0.49935489  1
  Cu  Cu6  1  0.53954349  0.45995690  0.99692417  1
  Cu  Cu7  1  0.04459535  0.96029519  -0.00255975  1
  O  O8  1  0.30894645  0.72610017  0.02844654  1
  O  O9  1  0.12016776  0.06440031  0.30277246  1
  O  O10  1  0.66011181  0.08745945  0.47981686  1
  O  O11  1  0.34581024  0.28238236  0.69990033  1
  O  O12  1  0.30961720  0.22872585  0.03245328  1
  O  O13  1  0.78924892  0.71789392  0.00375103  1
  O  O14  1  0.80034651  0.21807664  0.00143872  1
  O  O15  1  0.40459592  0.59074771  0.48290623  1
  O  O16  1  0.93915520  0.78937979  0.70246828  1
  O  O17  1  0.77687854  0.55829949  0.30863532  1
