# generated using pymatgen
data_SrLaTaNiO6
_symmetry_space_group_name_H-M   'P 1'
_cell_length_a   5.66603512
_cell_length_b   28.38927032
_cell_length_c   9.81411410
_cell_angle_alpha   30.17865453
_cell_angle_beta   54.73666312
_cell_angle_gamma   60.06883925
_symmetry_Int_Tables_number   1
_chemical_formula_structural   SrLaTaNiO6
_chemical_formula_sum   'Sr5 La5 Ta5 Ni5 O30'
_cell_volume   647.96520107
_cell_formula_units_Z   5
loop_
 _symmetry_equiv_pos_site_id
 _symmetry_equiv_pos_as_xyz
  1  'x, y, z'
loop_
 _atom_site_type_symbol
 _atom_site_label
 _atom_site_symmetry_multiplicity
 _atom_site_fract_x
 _atom_site_fract_y
 _atom_site_fract_z
 _atom_site_occupancy
  Sr  Sr0  1  0.24130079  0.99602572  0.26863490  1
  Sr  Sr1  1  0.25990843  0.20171551  0.23580280  1
  Sr  Sr2  1  0.24721968  0.39259138  0.27130187  1
  Sr  Sr3  1  0.74310055  0.20924216  0.73379405  1
  Sr  Sr4  1  0.75585597  0.99362420  0.76008352  1
  La  La5  1  0.25714325  0.60454317  0.23149883  1
  La  La6  1  0.75527069  0.40119938  0.74173086  1
  La  La7  1  0.23772831  0.78886133  0.29011836  1
  La  La8  1  0.73250076  0.61768750  0.72328050  1
  La  La9  1  0.75219178  0.80035550  0.74691946  1
  Ta  Ta10  1  0.99705945  0.00002238  0.00288460  1
  Ta  Ta11  1  0.50039780  0.00050618  0.49833676  1
  Ta  Ta12  1  0.49712295  0.20477462  0.49094050  1
  Ta  Ta13  1  0.50009476  0.40103921  0.49730721  1
  Ta  Ta14  1  0.49483528  0.59545186  0.51653508  1
  Ni  Ni15  1  0.99951386  0.19809263  0.00525457  1
  Ni  Ni16  1  0.00275591  0.40234306  0.99138643  1
  Ni  Ni17  1  0.99796800  0.59903550  0.00444324  1
  Ni  Ni18  1  0.99944606  0.79961031  0.00152815  1
  Ni  Ni19  1  0.49987108  0.80049188  0.49889922  1
  O  O20  1  0.22044266  0.09405531  0.29803975  1
  O  O21  1  0.75357645  0.03193981  0.16657402  1
  O  O22  1  0.24931696  0.96858874  0.82921119  1
  O  O23  1  0.71320126  0.09405531  0.29803975  1
  O  O24  1  0.28922456  0.09851089  0.71368135  1
  O  O25  1  0.22002005  0.29785323  0.28926108  1
  O  O26  1  0.74368409  0.23019315  0.18083303  1
  O  O27  1  0.25960743  0.17281989  0.80834286  1
  O  O28  1  0.79085828  0.09851089  0.71368135  1
  O  O29  1  0.71219162  0.29785323  0.28926108  1
  O  O30  1  0.28394755  0.30509545  0.70540935  1
  O  O31  1  0.20015266  0.49947377  0.30512298  1
  O  O32  1  0.74037054  0.43753762  0.16578540  1
  O  O33  1  0.25552729  0.37218824  0.81400210  1
  O  O34  1  0.77975649  0.30509545  0.70540935  1
  O  O35  1  0.69223252  0.49947377  0.30512298  1
  O  O36  1  0.20578974  0.69421509  0.31500920  1
  O  O37  1  0.31491041  0.50216253  0.68581836  1
  O  O38  1  0.73982373  0.63808548  0.16496258  1
  O  O39  1  0.25889456  0.56390633  0.83133962  1
  O  O40  1  0.80264020  0.50216253  0.68581836  1
  O  O41  1  0.69311641  0.69421509  0.31500920  1
  O  O42  1  0.29443062  0.69908676  0.70263385  1
  O  O43  1  0.19432953  0.90361785  0.28398519  1
  O  O44  1  0.75109371  0.82652331  0.18259802  1
  O  O45  1  0.24887562  0.76289030  0.84389864  1
  O  O46  1  0.80486788  0.69908676  0.70263385  1
  O  O47  1  0.71961084  0.90361785  0.28398519  1
  O  O48  1  0.31300674  0.89998593  0.70192471  1
  O  O49  1  0.78321421  0.89998593  0.70192471  1
