# generated using pymatgen
data_Tb10YbSe16
_symmetry_space_group_name_H-M   'P 1'
_cell_length_a   15.12740601
_cell_length_b   8.73219847
_cell_length_c   8.73703798
_cell_angle_alpha   90.00000000
_cell_angle_beta   54.72064400
_cell_angle_gamma   54.74309451
_symmetry_Int_Tables_number   1
_chemical_formula_structural   Tb10YbSe16
_chemical_formula_sum   'Tb10 Yb1 Se16'
_cell_volume   666.21041665
_cell_formula_units_Z   1
loop_
 _symmetry_equiv_pos_site_id
 _symmetry_equiv_pos_as_xyz
  1  'x, y, z'
loop_
 _atom_site_type_symbol
 _atom_site_label
 _atom_site_symmetry_multiplicity
 _atom_site_fract_x
 _atom_site_fract_y
 _atom_site_fract_z
 _atom_site_occupancy
  Tb  Tb0  1  0.12614573  0.62446883  0.36666906  1
  Tb  Tb1  1  0.25000000  0.25000000  0.62764132  1
  Tb  Tb2  1  0.49938544  0.37676029  0.25779977  1
  Tb  Tb3  1  0.37385427  0.87553117  0.11896052  1
  Tb  Tb4  1  0.49048831  0.13998502  0.75653281  1
  Tb  Tb5  1  0.61952667  0.62096164  0.38345221  1
  Tb  Tb6  1  0.75000000  0.25000000  0.62235868  1
  Tb  Tb7  1  0.00951169  0.36001498  0.23750943  1
  Tb  Tb8  1  0.88047333  0.87903836  0.12250555  1
  Tb  Tb9  1  0.00061456  0.12323971  0.75657065  1
  Yb  Yb10  1  0.75000000  0.75000000  0.87500000  1
  Se  Se11  1  0.06671169  0.00575743  0.37136387  1
  Se  Se12  1  0.17087950  0.50393022  0.00221729  1
  Se  Se13  1  0.07347511  0.35422114  0.49721868  1
  Se  Se14  1  0.42652489  0.14577886  0.14416891  1
  Se  Se15  1  0.43328831  0.49424257  0.00478725  1
  Se  Se16  1  0.17753088  0.63918081  0.63439356  1
  Se  Se17  1  0.32912050  0.99606978  0.84397629  1
  Se  Se18  1  0.57171412  0.99780648  0.35941995  1
  Se  Se19  1  0.32246912  0.86081919  0.48945532  1
  Se  Se20  1  0.67769625  0.49882864  0.00160996  1
  Se  Se21  1  0.57519029  0.34568921  0.50171292  1
  Se  Se22  1  0.92480971  0.15431079  0.15209350  1
  Se  Se23  1  0.92828588  0.50219352  0.00284819  1
  Se  Se24  1  0.68047940  0.64123472  0.63838653  1
  Se  Se25  1  0.82230375  0.00117136  0.85700246  1
  Se  Se26  1  0.81952060  0.85876528  0.49934533  1
