# generated using pymatgen
data_Ca8Mo7O20
_symmetry_space_group_name_H-M   'P 1'
_cell_length_a   8.64424532
_cell_length_b   8.64424532
_cell_length_c   8.64424532
_cell_angle_alpha   90.07798190
_cell_angle_beta   119.95498735
_cell_angle_gamma   119.95498735
_symmetry_Int_Tables_number   1
_chemical_formula_structural   Ca8Mo7O20
_chemical_formula_sum   'Ca8 Mo7 O20'
_cell_volume   457.04734982
_cell_formula_units_Z   1
loop_
 _symmetry_equiv_pos_site_id
 _symmetry_equiv_pos_as_xyz
  1  'x, y, z'
loop_
 _atom_site_type_symbol
 _atom_site_label
 _atom_site_symmetry_multiplicity
 _atom_site_fract_x
 _atom_site_fract_y
 _atom_site_fract_z
 _atom_site_occupancy
  Ca  Ca0  1  0.63721505  0.78034099  0.55322593  1
  Ca  Ca1  1  0.36278495  0.21965901  0.44677407  1
  Ca  Ca2  1  0.36278495  0.91601088  0.14312594  1
  Ca  Ca3  1  0.22711506  0.14312594  0.78034099  1
  Ca  Ca4  1  0.63721505  0.08398912  0.85687406  1
  Ca  Ca5  1  0.77288494  0.85687406  0.21965901  1
  Ca  Ca6  1  0.77288494  0.55322593  0.91601088  1
  Ca  Ca7  1  0.22711506  0.44677407  0.08398912  1
  Mo  Mo8  1  0.31794896  0.62418938  0.69375958  1
  Mo  Mo9  1  0.68205104  0.37581062  0.30624042  1
  Mo  Mo10  1  0.93042980  0.30624042  0.62418938  1
  Mo  Mo11  1  0.06957020  0.69375958  0.37581062  1
  Mo  Mo12  1  0.00000000  0.65936934  0.65936934  1
  Mo  Mo13  1  -0.00000000  0.34063066  0.34063066  1
  Mo  Mo14  1  0.00000000  0.00000000  0.00000000  1
  O  O15  1  0.38776767  0.82880596  0.55896171  1
  O  O16  1  0.61223233  0.17119404  0.44103829  1
  O  O17  1  0.26984425  0.44103829  0.82880596  1
  O  O18  1  0.73015575  0.55896171  0.17119404  1
  O  O19  1  0.66849789  0.51866730  0.48341501  1
  O  O20  1  0.33150211  0.48133270  0.51658499  1
  O  O21  1  0.33150211  0.81491712  0.85016941  1
  O  O22  1  0.03525229  0.85016941  0.51866730  1
  O  O23  1  0.66849789  0.18508288  0.14983059  1
  O  O24  1  0.96474771  0.14983059  0.48133270  1
  O  O25  1  0.96474771  0.48341501  0.81491712  1
  O  O26  1  0.03525229  0.51658499  0.18508288  1
  O  O27  1  0.50000000  0.75000000  0.25000000  1
  O  O28  1  0.50000000  0.25000000  0.75000000  1
  O  O29  1  0.66378884  0.77841527  0.88537357  1
  O  O30  1  0.33621116  0.22158473  0.11462643  1
  O  O31  1  0.89304170  0.11462643  0.77841527  1
  O  O32  1  0.10695830  0.88537357  0.22158473  1
  O  O33  1  0.00000000  0.82847463  0.82847463  1
  O  O34  1  -0.00000000  0.17152537  0.17152537  1
