# generated using pymatgen
data_Li4Mn3O7
_symmetry_space_group_name_H-M   'P 1'
_cell_length_a   5.27936395
_cell_length_b   10.40068232
_cell_length_c   5.33274942
_cell_angle_alpha   104.85450116
_cell_angle_beta   66.73941979
_cell_angle_gamma   95.81070200
_symmetry_Int_Tables_number   1
_chemical_formula_structural   Li4Mn3O7
_chemical_formula_sum   'Li8 Mn6 O14'
_cell_volume   260.02479771
_cell_formula_units_Z   2
loop_
 _symmetry_equiv_pos_site_id
 _symmetry_equiv_pos_as_xyz
  1  'x, y, z'
loop_
 _atom_site_type_symbol
 _atom_site_label
 _atom_site_symmetry_multiplicity
 _atom_site_fract_x
 _atom_site_fract_y
 _atom_site_fract_z
 _atom_site_occupancy
  Li  Li0  1  0.50000000  0.14010527  0.07005314  1
  Li  Li1  1  0.50000000  0.28829170  0.64414585  1
  Li  Li2  1  0.50000000  0.42599330  0.21299715  1
  Li  Li3  1  0.50000000  0.57418073  0.78708986  1
  Li  Li4  1  0.50000000  0.71831217  0.35915609  1
  Li  Li5  1  0.50000000  0.85714300  0.92857100  1
  Li  Li6  1  0.50000000  0.99597383  0.49798691  1
  Li  Li7  1  0.00000000  0.85714300  0.42857100  1
  Mn  Mn8  1  0.00000000  0.99847714  0.99923857  1
  Mn  Mn9  1  1.00000000  0.71580886  0.85790443  1
  Mn  Mn10  1  0.00000000  0.13914153  0.56957127  1
  Mn  Mn11  1  1.00000000  0.28506538  0.14253269  1
  Mn  Mn12  1  0.00000000  0.42921962  0.71461031  1
  Mn  Mn13  1  1.00000000  0.57514447  0.28757173  1
  O  O14  1  0.23531636  0.13920966  0.84433676  1
  O  O15  1  0.23277952  0.28696098  0.42159928  1
  O  O16  1  0.23277952  0.42732402  0.99178130  1
  O  O17  1  0.23531636  0.57507634  0.56226910  1
  O  O18  1  0.20899533  0.70844398  0.09087409  1
  O  O19  1  0.23583513  0.85714300  0.70860430  1
  O  O20  1  0.20899533  0.00584202  0.23957312  1
  O  O21  1  0.76468364  0.13920966  0.29487390  1
  O  O22  1  0.76722048  0.28696098  0.86536170  1
  O  O23  1  0.76722048  0.42732402  0.43554372  1
  O  O24  1  0.76468364  0.57507634  0.01280624  1
  O  O25  1  0.79100467  0.70844398  0.61756988  1
  O  O26  1  0.76416487  0.85714300  0.14853770  1
  O  O27  1  0.79100467  0.00584202  0.76626891  1
