# generated using pymatgen
data_Li4Mn3O7
_symmetry_space_group_name_H-M   'P 1'
_cell_length_a   5.08133935
_cell_length_b   7.72752213
_cell_length_c   6.94475759
_cell_angle_alpha   96.75694185
_cell_angle_beta   79.19327038
_cell_angle_gamma   104.01458547
_symmetry_Int_Tables_number   1
_chemical_formula_structural   Li4Mn3O7
_chemical_formula_sum   'Li8 Mn6 O14'
_cell_volume   259.13685410
_cell_formula_units_Z   2
loop_
 _symmetry_equiv_pos_site_id
 _symmetry_equiv_pos_as_xyz
  1  'x, y, z'
loop_
 _atom_site_type_symbol
 _atom_site_label
 _atom_site_symmetry_multiplicity
 _atom_site_fract_x
 _atom_site_fract_y
 _atom_site_fract_z
 _atom_site_occupancy
  Li  Li0  1  0.77631315  0.07288115  0.42171594  1
  Li  Li1  1  0.90784051  0.35595092  0.11904918  1
  Li  Li2  1  0.63900953  0.79407859  0.71708886  1
  Li  Li3  1  0.50383308  0.49163905  0.99720242  1
  Li  Li4  1  0.36652804  0.21283790  0.29257331  1
  Li  Li5  1  0.23502448  0.92977281  0.59523733  1
  Li  Li6  1  0.07142933  0.64285599  0.85713982  1
  Li  Li7  1  0.57141505  0.14284816  0.85713726  1
  Mn  Mn8  1  0.00135633  0.00288971  0.98806252  1
  Mn  Mn9  1  0.14149738  0.28281345  0.72619294  1
  Mn  Mn10  1  0.28719249  0.56958400  0.42998332  1
  Mn  Mn11  1  0.42685499  0.86305021  0.12897763  1
  Mn  Mn12  1  0.71607286  0.42266799  0.58532011  1
  Mn  Mn13  1  0.85559132  0.71609808  0.28434308  1
  O  O14  1  0.68305015  0.09188643  0.13965555  1
  O  O15  1  0.84492820  0.38584767  0.85244723  1
  O  O16  1  0.54303763  0.80769633  0.42946977  1
  O  O17  1  0.39880252  0.51650245  0.71717608  1
  O  O18  1  0.22475188  0.24237924  0.97679681  1
  O  O19  1  0.09799061  0.96148049  0.24729315  1
  O  O20  1  0.97030450  0.66073978  0.56299814  1
  O  O21  1  0.91811567  0.04333856  0.73747631  1
  O  O22  1  0.04485575  0.32424393  0.46699516  1
  O  O23  1  0.74408330  0.76921619  0.99709446  1
  O  O24  1  0.59981310  0.47802777  0.28483270  1
  O  O25  1  0.45979120  0.19381791  0.57461136  1
  O  O26  1  0.29794978  0.89986939  0.86182709  1
  O  O27  1  0.17256716  0.62498583  0.15130249  1
