# generated using pymatgen
data_Li7Mn5O12
_symmetry_space_group_name_H-M   'P 1'
_cell_length_a   5.27988461
_cell_length_b   6.50736453
_cell_length_c   6.50736432
_cell_angle_alpha   83.15767687
_cell_angle_beta   95.86803549
_cell_angle_gamma   95.86803438
_symmetry_Int_Tables_number   1
_chemical_formula_structural   Li7Mn5O12
_chemical_formula_sum   'Li7 Mn5 O12'
_cell_volume   219.90539802
_cell_formula_units_Z   1
loop_
 _symmetry_equiv_pos_site_id
 _symmetry_equiv_pos_as_xyz
  1  'x, y, z'
loop_
 _atom_site_type_symbol
 _atom_site_label
 _atom_site_symmetry_multiplicity
 _atom_site_fract_x
 _atom_site_fract_y
 _atom_site_fract_z
 _atom_site_occupancy
  Li  Li0  1  0.24796106  0.74999879  0.74655196  1
  Li  Li1  1  0.25654850  0.40692270  0.07358870  1
  Li  Li2  1  0.24796106  0.07988496  0.41666579  1
  Li  Li3  1  0.75203894  0.25344804  0.25000121  1
  Li  Li4  1  0.74345150  0.92641130  0.59307730  1
  Li  Li5  1  0.75203894  0.58333421  0.92011504  1
  Li  Li6  1  0.50000000  0.16666700  0.83333300  1
  Mn  Mn7  1  0.00000000  0.00079402  0.99920598  1
  Mn  Mn8  1  1.00000000  0.33253898  0.66746102  1
  Mn  Mn9  1  0.00000000  0.66666700  0.33333300  1
  Mn  Mn10  1  0.50000000  0.49734852  0.50265148  1
  Mn  Mn11  1  0.50000000  0.83598448  0.16401552  1
  O  O12  1  0.34634107  0.09974690  0.11557408  1
  O  O13  1  0.39728176  0.78538400  0.45205000  1
  O  O14  1  0.34634107  0.44890708  0.76641390  1
  O  O15  1  0.89438110  0.61390441  0.61778075  1
  O  O16  1  0.89786216  0.28156208  0.94822808  1
  O  O17  1  0.89438110  0.95111375  0.28057141  1
  O  O18  1  0.10561890  0.38221925  0.38609559  1
  O  O19  1  0.10213784  0.05177192  0.71843792  1
  O  O20  1  0.10561890  0.71942859  0.04888625  1
  O  O21  1  0.65365893  0.88442592  0.90025310  1
  O  O22  1  0.60271824  0.54795000  0.21461600  1
  O  O23  1  0.65365893  0.23358610  0.55109292  1
