# generated using pymatgen
data_Nb8Pb6O25
_symmetry_space_group_name_H-M   'P 1'
_cell_length_a   7.58789610
_cell_length_b   15.10499884
_cell_length_c   13.08751593
_cell_angle_alpha   30.15495344
_cell_angle_beta   54.62729961
_cell_angle_gamma   60.04648378
_symmetry_Int_Tables_number   1
_chemical_formula_structural   Nb8Pb6O25
_chemical_formula_sum   'Nb8 Pb6 O25'
_cell_volume   614.42369462
_cell_formula_units_Z   1
loop_
 _symmetry_equiv_pos_site_id
 _symmetry_equiv_pos_as_xyz
  1  'x, y, z'
loop_
 _atom_site_type_symbol
 _atom_site_label
 _atom_site_symmetry_multiplicity
 _atom_site_fract_x
 _atom_site_fract_y
 _atom_site_fract_z
 _atom_site_occupancy
  Nb  Nb0  1  0.99970586  0.00106831  0.00135271  1
  Nb  Nb1  1  0.50204959  0.00207705  0.99916808  1
  Nb  Nb2  1  0.00521980  0.49560400  0.00303281  1
  Nb  Nb3  1  0.50339956  0.49159557  0.00515682  1
  Nb  Nb4  1  0.00303281  0.24614339  0.00521980  1
  Nb  Nb5  1  0.00135271  0.74787312  0.99970586  1
  Nb  Nb6  1  0.99916808  0.24670528  0.50204959  1
  Nb  Nb7  1  0.00515682  0.74984805  0.50339956  1
  Pb  Pb8  1  0.50553077  0.75175925  0.99230078  1
  Pb  Pb9  1  0.50457010  0.24911131  0.49482962  1
  Pb  Pb10  1  0.49482962  0.50148897  0.50457010  1
  Pb  Pb11  1  0.49840451  0.77110030  0.49346280  1
  Pb  Pb12  1  0.99230078  0.50040920  0.50553077  1
  Pb  Pb13  1  0.49346280  0.98703238  0.49840451  1
  O  O14  1  0.05479485  0.32020515  0.05479485  1
  O  O15  1  0.06824340  0.00087443  0.68965231  1
  O  O16  1  0.06985197  0.80514803  0.06985197  1
  O  O17  1  0.31204319  0.31300437  0.31309055  1
  O  O18  1  0.06708957  0.19358635  0.68155431  1
  O  O19  1  0.68612176  0.30906773  0.06950116  1
  O  O20  1  0.67781005  0.50178523  0.06931398  1
  O  O21  1  0.31923639  0.99761533  0.93373008  1
  O  O22  1  0.37544354  0.49955646  0.37544354  1
  O  O23  1  0.06931398  0.50109074  0.67781005  1
  O  O24  1  0.31339970  0.19036652  0.93112811  1
  O  O25  1  0.31309055  0.81186190  0.31204319  1
  O  O26  1  0.06950116  0.68530936  0.68612176  1
  O  O27  1  0.68249749  0.19250251  0.68249749  1
  O  O28  1  0.93112811  0.31510567  0.31339970  1
  O  O29  1  0.68155431  0.80776977  0.06708957  1
  O  O30  1  0.68965231  0.99122986  0.06824340  1
  O  O31  1  0.93373008  0.49941820  0.31923639  1
  O  O32  1  0.30935227  0.51082357  0.93009418  1
  O  O33  1  0.31541671  0.69138499  0.93309126  1
  O  O34  1  0.68912170  0.68587830  0.68912170  1
  O  O35  1  0.94691222  0.19112572  0.92832546  1
  O  O36  1  0.93309126  0.81010703  0.31541671  1
  O  O37  1  0.93009418  -0.00027002  0.30935227  1
  O  O38  1  0.92832546  0.68363660  0.94691222  1
