# generated using pymatgen
data_Li4Mn3O7
_symmetry_space_group_name_H-M   'P 1'
_cell_length_a   5.07744087
_cell_length_b   10.18821844
_cell_length_c   5.28039644
_cell_angle_alpha   96.11954230
_cell_angle_beta   77.69967713
_cell_angle_gamma   78.50282205
_symmetry_Int_Tables_number   1
_chemical_formula_structural   Li4Mn3O7
_chemical_formula_sum   'Li8 Mn6 O14'
_cell_volume   258.34051470
_cell_formula_units_Z   2
loop_
 _symmetry_equiv_pos_site_id
 _symmetry_equiv_pos_as_xyz
  1  'x, y, z'
loop_
 _atom_site_type_symbol
 _atom_site_label
 _atom_site_symmetry_multiplicity
 _atom_site_fract_x
 _atom_site_fract_y
 _atom_site_fract_z
 _atom_site_occupancy
  Li  Li0  1  0.30211420  0.92931637  0.44538479  1
  Li  Li1  1  0.70583729  0.06297243  0.56728262  1
  Li  Li2  1  0.14738906  0.21536321  0.72522039  1
  Li  Li3  1  0.43701971  0.65131357  0.14700338  1
  Li  Li4  1  0.84074280  0.78496863  0.26890021  1
  Li  Li5  1  0.57142900  0.35714300  0.85714300  1
  Li  Li6  1  0.99546794  0.49892279  0.98906561  1
  Li  Li7  1  0.57142900  0.85714300  0.85714300  1
  Mn  Mn8  1  0.00289419  0.99500908  0.98300636  1
  Mn  Mn9  1  0.13996281  0.71927692  0.73127964  1
  Mn  Mn10  1  0.42916502  0.13485765  0.12474631  1
  Mn  Mn11  1  0.85472657  0.28364621  0.28274283  1
  Mn  Mn12  1  0.28813043  0.43063879  0.43154217  1
  Mn  Mn13  1  0.71369198  0.57942835  0.58953969  1
  O  O14  1  0.19466481  0.82165853  0.03871735  1
  O  O15  1  0.65090266  0.97520889  0.20512766  1
  O  O16  1  0.06882483  0.09952726  0.30451073  1
  O  O17  1  0.36442903  0.55055375  0.78945108  1
  O  O18  1  0.81200362  0.68255675  0.92657503  1
  O  O19  1  0.50499656  0.26084161  0.49299948  1
  O  O20  1  0.93833358  0.40262519  0.63221974  1
  O  O21  1  0.33085338  0.03172925  0.78771097  1
  O  O22  1  0.77842797  0.16373125  0.92483392  1
  O  O23  1  0.20452342  0.31165981  0.08206526  1
  O  O24  1  0.49195534  0.73907711  0.50915834  1
  O  O25  1  0.94819219  0.89262747  0.67556865  1
  O  O26  1  0.63786044  0.45344439  0.22128652  1
  O  O27  1  0.07403217  0.61475874  0.40977527  1
