# generated using pymatgen
data_NaCa2GeO4F
_symmetry_space_group_name_H-M   'P 1'
_cell_length_a   5.55342854
_cell_length_b   7.39620638
_cell_length_c   12.70011538
_cell_angle_alpha   89.90406322
_cell_angle_beta   90.31856378
_cell_angle_gamma   90.07766821
_symmetry_Int_Tables_number   1
_chemical_formula_structural   NaCa2GeO4F
_chemical_formula_sum   'Na4 Ca8 Ge4 O16 F4'
_cell_volume   521.63912756
_cell_formula_units_Z   4
loop_
 _symmetry_equiv_pos_site_id
 _symmetry_equiv_pos_as_xyz
  1  'x, y, z'
loop_
 _atom_site_type_symbol
 _atom_site_label
 _atom_site_symmetry_multiplicity
 _atom_site_fract_x
 _atom_site_fract_y
 _atom_site_fract_z
 _atom_site_occupancy
  Na  Na0  1  0.23209104  0.23660510  0.41559489  1
  Na  Na1  1  0.22790468  0.00223650  0.66248686  1
  Na  Na2  1  0.73306352  0.50150526  0.82824384  1
  Na  Na3  1  0.77506083  0.00141616  0.34016867  1
  Ca  Ca4  1  0.22433540  0.50713080  0.66841125  1
  Ca  Ca5  1  0.27487185  0.01569800  0.17783230  1
  Ca  Ca6  1  0.27366934  0.49543599  0.17297756  1
  Ca  Ca7  1  0.27238554  0.74389606  0.90385840  1
  Ca  Ca8  1  0.73008621  0.25196752  0.08985848  1
  Ca  Ca9  1  0.72546692  0.98923606  0.82448545  1
  Ca  Ca10  1  0.77993110  0.47809057  0.33793440  1
  Ca  Ca11  1  0.77195298  0.75700021  0.59290366  1
  Ge  Ge12  1  0.20168327  0.24577176  0.91618221  1
  Ge  Ge13  1  0.29634915  0.74530101  0.41586209  1
  Ge  Ge14  1  0.69818650  0.25511301  0.58258316  1
  Ge  Ge15  1  0.79597332  0.75702999  0.08271826  1
  O  O16  1  0.12367347  0.75547063  0.08137587  1
  O  O17  1  0.18128950  0.74352792  0.54641512  1
  O  O18  1  0.21664695  0.94222703  0.34560417  1
  O  O19  1  0.18845417  0.55354343  0.34375849  1
  O  O20  1  0.31313803  0.04745223  0.85606077  1
  O  O21  1  0.28472220  0.44588977  0.84919635  1
  O  O22  1  0.31012136  0.25768260  0.04955820  1
  O  O23  1  0.37842961  0.26551061  0.58643738  1
  O  O24  1  0.62001964  0.72744472  0.42394935  1
  O  O25  1  0.68952671  0.75272361  0.95116064  1
  O  O26  1  0.69992428  0.55743267  0.15153271  1
  O  O27  1  0.69492462  0.95417083  0.14856291  1
  O  O28  1  0.78952040  0.05525900  0.65165392  1
  O  O29  1  0.81174532  0.45336586  0.64793059  1
  O  O30  1  0.80138266  0.24821344  0.45171725  1
  O  O31  1  0.87911069  0.23160375  0.92199961  1
  F  F32  1  0.00678624  0.25918005  0.22642214  1
  F  F33  1  0.49568767  0.74708277  0.73823988  1
  F  F34  1  0.50505490  0.26260460  0.25216046  1
  F  F35  1  0.99682994  0.75618046  0.76416273  1
