# generated using pymatgen
data_Nd4Ti3Co2(Si2O11)2
_symmetry_space_group_name_H-M   'P 1'
_cell_length_a   5.77251150
_cell_length_b   11.05436429
_cell_length_c   13.47440934
_cell_angle_alpha   100.79230008
_cell_angle_beta   90.00000000
_cell_angle_gamma   90.00000000
_symmetry_Int_Tables_number   1
_chemical_formula_structural   Nd4Ti3Co2(Si2O11)2
_chemical_formula_sum   'Nd8 Ti6 Co4 Si8 O44'
_cell_volume   844.61337172
_cell_formula_units_Z   2
loop_
 _symmetry_equiv_pos_site_id
 _symmetry_equiv_pos_as_xyz
  1  'x, y, z'
loop_
 _atom_site_type_symbol
 _atom_site_label
 _atom_site_symmetry_multiplicity
 _atom_site_fract_x
 _atom_site_fract_y
 _atom_site_fract_z
 _atom_site_occupancy
  Nd  Nd0  1  0.01646922  0.23186960  0.36047714  1
  Nd  Nd1  1  0.03374365  0.75406094  0.93466222  1
  Nd  Nd2  1  0.46625635  0.75406094  0.43466222  1
  Nd  Nd3  1  0.48353078  0.23186960  0.86047714  1
  Nd  Nd4  1  0.51646922  0.76813040  0.13952286  1
  Nd  Nd5  1  0.53374365  0.24593906  0.56533778  1
  Nd  Nd6  1  0.96625635  0.24593906  0.06533778  1
  Nd  Nd7  1  0.98353078  0.76813040  0.63952286  1
  Ti  Ti8  1  0.00000000  0.50000000  0.50000000  1
  Ti  Ti9  1  0.24541962  0.50000025  0.23880945  1
  Ti  Ti10  1  0.25458038  0.50000025  0.73880945  1
  Ti  Ti11  1  0.50000000  0.50000000  -0.00000000  1
  Ti  Ti12  1  0.74541962  0.49999975  0.26119055  1
  Ti  Ti13  1  0.75458038  0.49999975  0.76119055  1
  Co  Co14  1  0.00000000  0.50000000  -0.00000000  1
  Co  Co15  1  0.00000000  -0.00000000  0.50000000  1
  Co  Co16  1  0.50000000  -0.00000000  -0.00000000  1
  Co  Co17  1  0.50000000  0.50000000  0.50000000  1
  Si  Si18  1  0.00374820  0.04376464  0.85727673  1
  Si  Si19  1  0.00167430  0.22897036  0.69931809  1
  Si  Si20  1  0.49832570  0.22897036  0.19931809  1
  Si  Si21  1  0.49625180  0.04376464  0.35727673  1
  Si  Si22  1  0.50374820  0.95623536  0.64272327  1
  Si  Si23  1  0.50167430  0.77102964  0.80068191  1
  Si  Si24  1  0.99832570  0.77102964  0.30068191  1
  Si  Si25  1  0.99625180  0.95623536  0.14272327  1
  O  O26  1  0.99506603  0.50778765  0.65373052  1
  O  O27  1  0.98628093  0.10238013  0.18310226  1
  O  O28  1  0.01664691  0.52337913  0.84725195  1
  O  O29  1  0.04637216  0.82658604  0.41749639  1
  O  O30  1  0.04314751  0.12087201  0.76513893  1
  O  O31  1  0.21509544  0.09711474  0.93724952  1
  O  O32  1  0.22636416  0.68491433  0.25951732  1
  O  O33  1  0.23956607  0.31414777  0.71881764  1
  O  O34  1  0.23123681  0.63065744  0.52481951  1
  O  O35  1  0.23785695  0.90473891  0.08530061  1
  O  O36  1  0.24146049  0.37082478  0.47979321  1
  O  O37  1  0.25853951  0.37082478  0.97979321  1
  O  O38  1  0.26214305  0.90473891  0.58530061  1
  O  O39  1  0.26876319  0.63065744  0.02481951  1
  O  O40  1  0.26043393  0.31414777  0.21881764  1
  O  O41  1  0.27363584  0.68491433  0.75951732  1
  O  O42  1  0.28490456  0.09711474  0.43724952  1
  O  O43  1  0.45685249  0.12087201  0.26513893  1
  O  O44  1  0.45362784  0.82658604  0.91749639  1
  O  O45  1  0.48335309  0.52337913  0.34725195  1
  O  O46  1  0.51371907  0.10238013  0.68310226  1
  O  O47  1  0.50493397  0.50778765  0.15373052  1
  O  O48  1  0.49506603  0.49221235  0.84626948  1
  O  O49  1  0.48628093  0.89761987  0.31689774  1
  O  O50  1  0.51664691  0.47662087  0.65274805  1
  O  O51  1  0.54637216  0.17341396  0.08250361  1
  O  O52  1  0.54314751  0.87912799  0.73486107  1
  O  O53  1  0.71509544  0.90288526  0.56275048  1
  O  O54  1  0.72636416  0.31508567  0.24048268  1
  O  O55  1  0.73956607  0.68585223  0.78118236  1
  O  O56  1  0.73123681  0.36934256  0.97518049  1
  O  O57  1  0.73785695  0.09526109  0.41469939  1
  O  O58  1  0.74146049  0.62917522  0.02020679  1
  O  O59  1  0.75853951  0.62917522  0.52020679  1
  O  O60  1  0.76214305  0.09526109  0.91469939  1
  O  O61  1  0.76876319  0.36934256  0.47518049  1
  O  O62  1  0.76043393  0.68585223  0.28118236  1
  O  O63  1  0.77363584  0.31508567  0.74048268  1
  O  O64  1  0.78490456  0.90288526  0.06275048  1
  O  O65  1  0.95685249  0.87912799  0.23486107  1
  O  O66  1  0.95362784  0.17341396  0.58250361  1
  O  O67  1  0.98335309  0.47662087  0.15274805  1
  O  O68  1  0.01371907  0.89761987  0.81689774  1
  O  O69  1  0.00493397  0.49221235  0.34626948  1
