# generated using pymatgen
data_Na3Li3Fe2P2(CO7)2
_symmetry_space_group_name_H-M   'P 1'
_cell_length_a   8.66921404
_cell_length_b   6.78565665
_cell_length_c   5.05737360
_cell_angle_alpha   89.40448091
_cell_angle_beta   87.17223390
_cell_angle_gamma   89.14992911
_symmetry_Int_Tables_number   1
_chemical_formula_structural   Na3Li3Fe2P2(CO7)2
_chemical_formula_sum   'Na3 Li3 Fe2 P2 C2 O14'
_cell_volume   297.09775856
_cell_formula_units_Z   1
loop_
 _symmetry_equiv_pos_site_id
 _symmetry_equiv_pos_as_xyz
  1  'x, y, z'
loop_
 _atom_site_type_symbol
 _atom_site_label
 _atom_site_symmetry_multiplicity
 _atom_site_fract_x
 _atom_site_fract_y
 _atom_site_fract_z
 _atom_site_occupancy
  Na  Na0  1  0.26110747  0.00458705  0.25302159  1
  Na  Na1  1  0.26091746  0.49728105  0.25291528  1
  Na  Na2  1  0.74152199  0.50019472  0.74552776  1
  Li  Li3  1  0.09190980  0.23695728  0.75884138  1
  Li  Li4  1  0.72232104  0.97783272  0.75634918  1
  Li  Li5  1  0.90441960  0.76718907  0.24657523  1
  Fe  Fe6  1  0.35103795  0.75150365  0.77332575  1
  Fe  Fe7  1  0.65433283  0.24212652  0.21536553  1
  P  P8  1  0.41032385  0.24527401  0.70779739  1
  P  P9  1  0.59726913  0.75252057  0.28132193  1
  C  C10  1  0.04226683  0.76157235  0.72526203  1
  C  C11  1  0.95131771  0.24680429  0.28911895  1
  O  O12  1  0.09147646  0.25397506  0.36237592  1
  O  O13  1  0.07824274  0.75582338  0.97140233  1
  O  O14  1  0.15345023  0.75124963  0.54081886  1
  O  O15  1  0.30235605  0.06998628  0.78796379  1
  O  O16  1  0.31786348  0.43395851  0.79278632  1
  O  O17  1  0.43886457  0.24812852  0.40039402  1
  O  O18  1  0.43748150  0.74905566  0.15586388  1
  O  O19  1  0.56964890  0.22793619  0.83375157  1
  O  O20  1  0.56955254  0.77591420  0.58840682  1
  O  O21  1  0.69473935  0.56292275  0.22399304  1
  O  O22  1  0.69841520  0.92533762  0.17018419  1
  O  O23  1  0.83935641  0.23279692  0.47044591  1
  O  O24  1  0.91872583  0.25227826  0.04081617  1
  O  O25  1  0.90108109  0.77679073  0.65537318  1
