# generated using pymatgen
data_Li7Mn4CoO12
_symmetry_space_group_name_H-M   'P 1'
_cell_length_a   5.01941742
_cell_length_b   9.84656649
_cell_length_c   5.01227836
_cell_angle_alpha   93.70212546
_cell_angle_beta   61.57074164
_cell_angle_gamma   100.57416637
_symmetry_Int_Tables_number   1
_chemical_formula_structural   Li7Mn4CoO12
_chemical_formula_sum   'Li7 Mn4 Co1 O12'
_cell_volume   214.07850322
_cell_formula_units_Z   1
loop_
 _symmetry_equiv_pos_site_id
 _symmetry_equiv_pos_as_xyz
  1  'x, y, z'
loop_
 _atom_site_type_symbol
 _atom_site_label
 _atom_site_symmetry_multiplicity
 _atom_site_fract_x
 _atom_site_fract_y
 _atom_site_fract_z
 _atom_site_occupancy
  Li  Li0  1  0.75217402  0.24575303  0.99647918  1
  Li  Li1  1  0.57142808  0.75216662  0.34062574  1
  Li  Li2  1  0.41032330  0.24841431  0.66505433  1
  Li  Li3  1  0.08419313  0.24839281  0.33927455  1
  Li  Li4  1  0.92590956  0.75434653  0.66110248  1
  Li  Li5  1  0.25404590  0.75125568  0.00003660  1
  Li  Li6  1  0.33332400  0.99992034  0.33323415  1
  Mn  Mn7  1  0.00105315  0.00031745  0.00100121  1
  Mn  Mn8  1  0.66579978  0.00009753  0.66591788  1
  Mn  Mn9  1  0.83693205  0.50006886  0.33589305  1
  Mn  Mn10  1  0.49670473  0.49969890  0.99715507  1
  Co  Co11  1  0.16674522  0.50001959  0.66644990  1
  O  O12  1  0.01560308  0.11232016  0.68793523  1
  O  O13  1  0.87783897  0.60578367  0.99162903  1
  O  O14  1  0.73395655  0.11118076  0.32457890  1
  O  O15  1  0.37937924  0.11107457  0.96986819  1
  O  O16  1  0.18620997  0.62059530  0.35884298  1
  O  O17  1  0.51285974  0.61767779  0.68805084  1
  O  O18  1  0.45379132  0.39130079  0.34238230  1
  O  O19  1  0.28808476  0.88976517  0.69745570  1
  O  O20  1  0.14945783  0.38220849  0.97437069  1
  O  O21  1  0.82046827  0.38275260  0.64315166  1
  O  O22  1  0.65216642  0.88643092  0.97823268  1
  O  O23  1  0.93155092  0.88845813  0.34127765  1
