# generated using pymatgen
data_Li3Mn2O5
_symmetry_space_group_name_H-M   'P 1'
_cell_length_a   5.24297977
_cell_length_b   5.94157658
_cell_length_c   6.52234718
_cell_angle_alpha   75.80574816
_cell_angle_beta   96.08896705
_cell_angle_gamma   70.88636601
_symmetry_Int_Tables_number   1
_chemical_formula_structural   Li3Mn2O5
_chemical_formula_sum   'Li6 Mn4 O10'
_cell_volume   182.22637924
_cell_formula_units_Z   2
loop_
 _symmetry_equiv_pos_site_id
 _symmetry_equiv_pos_as_xyz
  1  'x, y, z'
loop_
 _atom_site_type_symbol
 _atom_site_label
 _atom_site_symmetry_multiplicity
 _atom_site_fract_x
 _atom_site_fract_y
 _atom_site_fract_z
 _atom_site_occupancy
  Li  Li0  1  0.20685408  0.09635061  0.39292442  1
  Li  Li1  1  0.39835671  0.69958564  0.80078279  1
  Li  Li2  1  0.80164329  0.90041436  0.59921721  1
  Li  Li3  1  0.99314592  0.50364939  0.00707558  1
  Li  Li4  1  0.60000000  0.30000000  0.20000000  1
  Li  Li5  1  0.60000000  0.80000000  0.20000000  1
  Mn  Mn6  1  0.00109142  0.99850360  0.00195462  1
  Mn  Mn7  1  0.19890858  0.60149640  0.39804538  1
  Mn  Mn8  1  0.40156248  0.19634962  0.80220102  1
  Mn  Mn9  1  0.79843752  0.40365038  0.59779898  1
  O  O10  1  0.92682797  0.93851064  0.29159898  1
  O  O11  1  0.12271489  0.54253589  0.68815867  1
  O  O12  1  0.48911050  0.71917392  0.49854551  1
  O  O13  1  0.72341314  0.33765790  0.89961911  1
  O  O14  1  0.27803788  0.13953722  0.07470008  1
  O  O15  1  0.47658686  0.26234210  0.50038089  1
  O  O16  1  0.71088950  0.88082608  0.90145449  1
  O  O17  1  0.07728511  0.05746411  0.71184133  1
  O  O18  1  0.27317203  0.66148936  0.10840102  1
  O  O19  1  0.92196212  0.46046278  0.32529992  1
