# generated using pymatgen
data_Li7V3P8O29
_symmetry_space_group_name_H-M   'P 1'
_cell_length_a   9.82141591
_cell_length_b   9.85726205
_cell_length_c   13.93051873
_cell_angle_alpha   90.80082550
_cell_angle_beta   90.82816683
_cell_angle_gamma   60.26088141
_symmetry_Int_Tables_number   1
_chemical_formula_structural   Li7V3P8O29
_chemical_formula_sum   'Li14 V6 P16 O58'
_cell_volume   1170.86087801
_cell_formula_units_Z   2
loop_
 _symmetry_equiv_pos_site_id
 _symmetry_equiv_pos_as_xyz
  1  'x, y, z'
loop_
 _atom_site_type_symbol
 _atom_site_label
 _atom_site_symmetry_multiplicity
 _atom_site_fract_x
 _atom_site_fract_y
 _atom_site_fract_z
 _atom_site_occupancy
  Li  Li0  1  0.76959683  0.90992276  0.56181808  1
  Li  Li1  1  0.90680261  0.33385775  0.56629245  1
  Li  Li2  1  0.66481586  0.67175864  0.38555493  1
  Li  Li3  1  0.67784645  0.67013983  0.88648925  1
  Li  Li4  1  0.76053658  0.32967034  0.05962700  1
  Li  Li5  1  0.32306979  0.90469643  0.06697807  1
  Li  Li6  1  0.67184629  0.23518549  0.43984416  1
  Li  Li7  1  0.32650545  0.76506246  0.56414347  1
  Li  Li8  1  0.67543709  0.09260971  0.93532716  1
  Li  Li9  1  0.23663788  0.66635641  0.93857635  1
  Li  Li10  1  0.32671641  0.32225026  0.11277215  1
  Li  Li11  1  0.10263250  0.66516941  0.43775325  1
  Li  Li12  1  0.00121758  0.99822869  0.99865179  1
  Li  Li13  1  0.05009251  0.01734926  0.48603458  1
  V  V14  1  0.56308031  0.43522987  0.25047090  1
  V  V15  1  0.43279168  0.56587046  0.74575242  1
  V  V16  1  0.56156491  0.99951763  0.74784025  1
  V  V17  1  0.43369411  0.00268414  0.25045782  1
  V  V18  1  0.99695689  0.56427168  0.24670164  1
  V  V19  1  0.00581350  0.43356559  0.75522961  1
  P  P20  1  0.91561593  0.78104156  0.83989300  1
  P  P21  1  0.77582387  0.91062043  0.34010006  1
  P  P22  1  0.91243239  0.31533476  0.34853478  1
  P  P23  1  0.66390347  0.66285273  0.12651126  1
  P  P24  1  0.67150288  0.66126399  0.62694485  1
  P  P25  1  0.77399019  0.32069278  0.84239097  1
  P  P26  1  0.68552643  0.22878802  0.65722015  1
  P  P27  1  0.31695776  0.90594484  0.84812720  1
  P  P28  1  0.68415033  0.09123759  0.15295974  1
  P  P29  1  0.31758458  0.77486996  0.34266430  1
  P  P30  1  0.22417082  0.67875112  0.15805592  1
  P  P31  1  0.33053528  0.34021672  0.37090284  1
  P  P32  1  0.33501927  0.33786882  0.87325331  1
  P  P33  1  0.08352603  0.68280328  0.65321645  1
  P  P34  1  0.21845337  0.08270765  0.66321348  1
  P  P35  1  0.08175481  0.22140001  0.16039097  1
  O  O36  1  0.00090868  0.76603009  0.56176139  1
  O  O37  1  0.92527025  0.74835161  0.33991275  1
  O  O38  1  0.77267493  0.01275661  0.06318898  1
  O  O39  1  0.74785824  0.92017840  0.84123143  1
  O  O40  1  0.90240836  0.62978799  0.83263214  1
  O  O41  1  0.81113543  0.65898648  0.17595713  1
  O  O42  1  0.89970781  0.47739784  0.33576868  1
  O  O43  1  0.98026383  0.21775369  0.08025549  1
  O  O44  1  0.91563139  0.34477519  0.84339120  1
  O  O45  1  0.67807862  0.80846919  0.66115442  1
  O  O46  1  0.63245155  0.88698676  0.33105405  1
  O  O47  1  0.81408302  0.51277970  0.67303148  1
  O  O48  1  0.67848955  0.64164818  0.01971741  1
  O  O49  1  0.67910055  0.64464355  0.51886559  1
  O  O50  1  0.66098218  0.51662057  0.16982334  1
  O  O51  1  0.48037160  0.88851028  0.83770374  1
  O  O52  1  0.51515488  0.81311651  0.15822082  1
  O  O53  1  0.74548837  0.33630885  0.34167164  1
  O  O54  1  0.79178726  0.21179948  0.74997162  1
  O  O55  1  0.76597342  0.24036226  0.56852319  1
  O  O56  1  0.76855838  0.23302858  0.92952464  1
  O  O57  1  0.62484303  0.48203633  0.82848003  1
  O  O58  1  0.51414043  0.67186712  0.66248558  1
  O  O59  1  0.66645733  0.25642583  0.16048113  1
  O  O60  1  0.48155078  0.62589876  0.33173012  1
  O  O61  1  0.33455809  0.91878122  0.33996017  1
  O  O62  1  0.78682981  0.99826604  0.24628309  1
  O  O63  1  0.77251952  0.00484632  0.42803289  1
  O  O64  1  0.20086480  0.98730257  0.58348706  1
  O  O65  1  0.66319326  0.08670925  0.65460713  1
  O  O66  1  0.52711067  0.38164430  0.67462194  1
  O  O67  1  0.33761668  0.73811297  0.83346411  1
  O  O68  1  0.48153401  0.34080467  0.32679268  1
  O  O69  1  0.37438617  0.51623526  0.16861491  1
  O  O70  1  0.22925948  0.76564892  0.07081535  1
  O  O71  1  0.23121036  0.77125043  0.43169278  1
  O  O72  1  0.21122535  0.78188139  0.25156019  1
  O  O73  1  0.25118189  0.66155823  0.65656430  1
  O  O74  1  0.48226060  0.18770923  0.83943202  1
  O  O75  1  0.52033404  0.10774676  0.16292790  1
  O  O76  1  0.33067136  0.48682575  0.83275269  1
  O  O77  1  0.32214647  0.35205690  0.98071027  1
  O  O78  1  0.33670657  0.36022715  0.47674888  1
  O  O79  1  0.18107900  0.48824364  0.32654448  1
  O  O80  1  0.37538011  0.07926381  0.66569321  1
  O  O81  1  0.33215824  0.19554564  0.32942658  1
  O  O82  1  0.08126130  0.65659881  0.15827270  1
  O  O83  1  0.99062207  0.79762921  0.74082852  1
  O  O84  1  0.01434639  0.78820701  0.92084688  1
  O  O85  1  0.08689356  0.52780383  0.66776950  1
  O  O86  1  0.18680261  0.33781655  0.82618656  1
  O  O87  1  0.09588773  0.37237238  0.16826902  1
  O  O88  1  0.24807986  0.08121888  0.15645679  1
  O  O89  1  0.23291360  0.97161621  0.94099455  1
  O  O90  1  0.20297728  0.00875193  0.76347193  1
  O  O91  1  0.07832642  0.25069949  0.66363026  1
  O  O92  1  0.98944682  0.23228218  0.44025614  1
  O  O93  1  0.00989539  0.20558720  0.26079090  1
