# generated using pymatgen
data_Na2FePCO7
_symmetry_space_group_name_H-M   'P 1'
_cell_length_a   10.34692150
_cell_length_b   8.38513631
_cell_length_c   8.38513631
_cell_angle_alpha   77.78833284
_cell_angle_beta   71.70599654
_cell_angle_gamma   108.29400346
_symmetry_Int_Tables_number   1
_chemical_formula_structural   Na2FePCO7
_chemical_formula_sum   'Na8 Fe4 P4 C4 O28'
_cell_volume   615.80727602
_cell_formula_units_Z   4
loop_
 _symmetry_equiv_pos_site_id
 _symmetry_equiv_pos_as_xyz
  1  'x, y, z'
loop_
 _atom_site_type_symbol
 _atom_site_label
 _atom_site_symmetry_multiplicity
 _atom_site_fract_x
 _atom_site_fract_y
 _atom_site_fract_z
 _atom_site_occupancy
  Na  Na0  1  0.91968950  0.69163787  0.53781354  1
  Na  Na1  1  0.91968950  0.21218646  0.05836213  1
  Na  Na2  1  0.73030284  0.74851606  0.27282012  1
  Na  Na3  1  0.73030284  0.47717988  0.00148394  1
  Na  Na4  1  0.25809099  0.25782136  0.74276833  1
  Na  Na5  1  0.25809099  0.00723167  0.49217864  1
  Na  Na6  1  0.08347116  0.31685031  0.43314969  1
  Na  Na7  1  0.08758037  0.78991544  0.96008456  1
  Fe  Fe8  1  0.65931489  0.30456919  0.44543081  1
  Fe  Fe9  1  0.65142416  0.81958623  0.93041377  1
  Fe  Fe10  1  0.34566260  0.18781211  0.06068915  1
  Fe  Fe11  1  0.34566260  0.68931085  0.56218789  1
  P  P12  1  0.57559798  0.55620708  0.69433589  1
  P  P13  1  0.57559798  0.05566411  0.19379292  1
  P  P14  1  0.42490255  0.44032938  0.30967062  1
  P  P15  1  0.42478453  0.94605159  0.80394841  1
  C  C16  1  0.93591694  0.48314194  0.26685806  1
  C  C17  1  0.93504843  0.97360861  0.77639139  1
  C  C18  1  0.06540530  0.01805372  0.22289792  1
  C  C19  1  0.06540530  0.52710208  0.73194628  1
  O  O20  1  0.92528799  0.92951188  0.30325666  1
  O  O21  1  0.92528799  0.44674334  0.82048812  1
  O  O22  1  0.87159756  0.33894988  0.41105012  1
  O  O23  1  0.87346978  0.83001641  0.91998359  1
  O  O24  1  0.84068964  0.53296714  0.21703286  1
  O  O25  1  0.84344373  0.02415956  0.72584044  1
  O  O26  1  0.67271153  0.97257965  0.08847243  1
  O  O27  1  0.67271153  0.66152757  0.77742035  1
  O  O28  1  0.67940241  0.49512531  0.56706769  1
  O  O29  1  0.67940241  0.18293231  0.25487469  1
  O  O30  1  0.56879593  0.59294376  0.15705624  1
  O  O31  1  0.56780958  0.09669457  0.65330543  1
  O  O32  1  0.52850928  0.17288047  0.07243880  1
  O  O33  1  0.52850928  0.67756120  0.57711953  1
  O  O34  1  0.46951460  0.82613660  0.92386340  1
  O  O35  1  0.46990424  0.31846995  0.43153005  1
  O  O36  1  0.43345967  0.90915598  0.35180285  1
  O  O37  1  0.43345967  0.39819715  0.84084402  1
  O  O38  1  0.32359795  0.83541635  0.72739274  1
  O  O39  1  0.32500049  0.51013213  0.42995990  1
  O  O40  1  0.32500049  0.32004010  0.23986787  1
  O  O41  1  0.32359795  0.02260726  0.91458365  1
  O  O42  1  0.15886877  0.97714952  0.28053933  1
  O  O43  1  0.15886877  0.46946067  0.77285048  1
  O  O44  1  0.12819008  0.15787746  0.07533733  1
  O  O45  1  0.12819008  0.67466267  0.59212254  1
  O  O46  1  0.07545768  0.56464747  0.18535253  1
  O  O47  1  0.07731642  0.05867573  0.69132427  1
