# generated using pymatgen
data_Li6V3P8O29
_symmetry_space_group_name_H-M   'P 1'
_cell_length_a   9.82954837
_cell_length_b   9.84160620
_cell_length_c   13.92284709
_cell_angle_alpha   90.00071344
_cell_angle_beta   90.15200111
_cell_angle_gamma   60.05143710
_symmetry_Int_Tables_number   1
_chemical_formula_structural   Li6V3P8O29
_chemical_formula_sum   'Li12 V6 P16 O58'
_cell_volume   1167.02745862
_cell_formula_units_Z   2
loop_
 _symmetry_equiv_pos_site_id
 _symmetry_equiv_pos_as_xyz
  1  'x, y, z'
loop_
 _atom_site_type_symbol
 _atom_site_label
 _atom_site_symmetry_multiplicity
 _atom_site_fract_x
 _atom_site_fract_y
 _atom_site_fract_z
 _atom_site_occupancy
  Li  Li0  1  0.90560484  0.77568740  0.06258487  1
  Li  Li1  1  0.90583801  0.32141021  0.55984176  1
  Li  Li2  1  0.66628469  0.66722316  0.88227879  1
  Li  Li3  1  0.77421038  0.31891263  0.06299082  1
  Li  Li4  1  0.31940066  0.90720290  0.06287648  1
  Li  Li5  1  0.67774289  0.22452534  0.44151328  1
  Li  Li6  1  0.31970418  0.77190732  0.56021829  1
  Li  Li7  1  0.67530629  0.09626716  0.93878536  1
  Li  Li8  1  0.22648932  0.67806093  0.93990575  1
  Li  Li9  1  0.08965425  0.68169551  0.44050751  1
  Li  Li10  1  0.22861318  0.09508790  0.43955959  1
  Li  Li11  1  0.09540634  0.22626426  0.94056793  1
  V  V12  1  0.56758611  0.43127434  0.25078756  1
  V  V13  1  0.43395575  0.56548044  0.74970125  1
  V  V14  1  0.57025325  0.00032280  0.74473390  1
  V  V15  1  0.43398570  0.00024035  0.25210535  1
  V  V16  1  0.99941495  0.56876144  0.25087693  1
  V  V17  1  0.00220355  0.43452347  0.74889851  1
  P  P18  1  0.91052404  0.77037217  0.84041997  1
  P  P19  1  0.76947278  0.91449796  0.34199195  1
  P  P20  1  0.91217680  0.32020757  0.34158462  1
  P  P21  1  0.66610821  0.66651563  0.12535348  1
  P  P22  1  0.66767159  0.66551574  0.62758101  1
  P  P23  1  0.77174190  0.31830255  0.84276676  1
  P  P24  1  0.68023997  0.23201780  0.65853462  1
  P  P25  1  0.32100126  0.91081273  0.84243609  1
  P  P26  1  0.67929383  0.08774344  0.15705670  1
  P  P27  1  0.32059831  0.76716615  0.34137818  1
  P  P28  1  0.23236527  0.67894224  0.15785721  1
  P  P29  1  0.33281703  0.33399381  0.37276292  1
  P  P30  1  0.33440529  0.33321431  0.87266823  1
  P  P31  1  0.08737103  0.68218187  0.65555800  1
  P  P32  1  0.23129042  0.08752727  0.65751967  1
  P  P33  1  0.08894572  0.23254874  0.15866090  1
  O  O34  1  0.00394954  0.75765885  0.56498700  1
  O  O35  1  0.91483184  0.74723501  0.34052769  1
  O  O36  1  0.75839188  0.00306716  0.06574324  1
  O  O37  1  0.74539246  0.91904998  0.84114122  1
  O  O38  1  0.88858974  0.62557051  0.82641262  1
  O  O39  1  0.81224268  0.67534252  0.16387394  1
  O  O40  1  0.90142648  0.47972590  0.32351815  1
  O  O41  1  0.00161167  0.23856226  0.06818754  1
  O  O42  1  0.92098777  0.33186346  0.84387209  1
  O  O43  1  0.67202766  0.80779951  0.67292937  1
  O  O44  1  0.61811143  0.90427593  0.32335959  1
  O  O45  1  0.81759907  0.51208193  0.66924329  1
  O  O46  1  0.66697768  0.66567998  0.01654615  1
  O  O47  1  0.66390006  0.66083370  0.52083815  1
  O  O48  1  0.67530522  0.51189737  0.16388613  1
  O  O49  1  0.48535729  0.89199793  0.82689099  1
  O  O50  1  0.51255471  0.81228187  0.16360337  1
  O  O51  1  0.74760469  0.33627681  0.34132232  1
  O  O52  1  0.79009714  0.21117594  0.75095685  1
  O  O53  1  0.75968132  0.24248237  0.56916954  1
  O  O54  1  0.75541790  0.24206422  0.93241420  1
  O  O55  1  0.62791183  0.48469089  0.82642496  1
  O  O56  1  0.51613366  0.66597272  0.67004685  1
  O  O57  1  0.66420281  0.25293486  0.16061424  1
  O  O58  1  0.48026389  0.61813098  0.32269101  1
  O  O59  1  0.33612981  0.91573356  0.34146755  1
  O  O60  1  0.79285922  0.99420774  0.24571161  1
  O  O61  1  0.76070285  0.00757118  0.42754645  1
  O  O62  1  0.24424186  0.99666489  0.56778739  1
  O  O63  1  0.65995636  0.08678538  0.66166305  1
  O  O64  1  0.52117118  0.38176815  0.67425766  1
  O  O65  1  0.33583578  0.74706893  0.84371049  1
  O  O66  1  0.48751533  0.32580103  0.33253011  1
  O  O67  1  0.37979228  0.52065009  0.17443933  1
  O  O68  1  0.23854447  0.76050912  0.06773338  1
  O  O69  1  0.24321774  0.75535159  0.43140812  1
  O  O70  1  0.21059519  0.78948428  0.24946694  1
  O  O71  1  0.25148337  0.66737617  0.66153222  1
  O  O72  1  0.48441507  0.18671111  0.83285453  1
  O  O73  1  0.52050647  0.10001023  0.17442258  1
  O  O74  1  0.33099168  0.48648980  0.83242740  1
  O  O75  1  0.32850715  0.33663624  0.97985380  1
  O  O76  1  0.33308880  0.33378999  0.48012705  1
  O  O77  1  0.18652075  0.48841059  0.33224135  1
  O  O78  1  0.37864200  0.09993058  0.67726627  1
  O  O79  1  0.32518906  0.18658866  0.33322781  1
  O  O80  1  0.08251217  0.66395289  0.15968265  1
  O  O81  1  0.99822230  0.78963304  0.74963707  1
  O  O82  1  0.00028620  0.75727210  0.93117077  1
  O  O83  1  0.09886429  0.52179176  0.67443974  1
  O  O84  1  0.18203434  0.33408155  0.83104764  1
  O  O85  1  0.09878106  0.38066139  0.17538436  1
  O  O86  1  0.25381408  0.08323489  0.16127394  1
  O  O87  1  0.24173988  0.00210538  0.93188731  1
  O  O88  1  0.21286214  0.99819990  0.75020043  1
  O  O89  1  0.08265793  0.25009082  0.65772939  1
  O  O90  1  0.00143228  0.24165775  0.43181170  1
  O  O91  1  0.99969867  0.21055801  0.24993515  1
