# generated using pymatgen
data_Na2NiPCO7
_symmetry_space_group_name_H-M   'P 1'
_cell_length_a   8.92853142
_cell_length_b   10.35142550
_cell_length_c   6.61798959
_cell_angle_alpha   90.15391523
_cell_angle_beta   90.04593414
_cell_angle_gamma   88.50779261
_symmetry_Int_Tables_number   1
_chemical_formula_structural   Na2NiPCO7
_chemical_formula_sum   'Na8 Ni4 P4 C4 O28'
_cell_volume   611.44483893
_cell_formula_units_Z   4
loop_
 _symmetry_equiv_pos_site_id
 _symmetry_equiv_pos_as_xyz
  1  'x, y, z'
loop_
 _atom_site_type_symbol
 _atom_site_label
 _atom_site_symmetry_multiplicity
 _atom_site_fract_x
 _atom_site_fract_y
 _atom_site_fract_z
 _atom_site_occupancy
  Na  Na0  1  0.24691484  0.12260105  0.00841761  1
  Na  Na1  1  0.24560216  0.11689532  0.49349673  1
  Na  Na2  1  0.26546341  0.62174328  0.46389599  1
  Na  Na3  1  0.73902554  0.37002206  0.51040865  1
  Na  Na4  1  0.73934017  0.36623912  0.98812150  1
  Na  Na5  1  0.74788706  0.88421756  0.51199443  1
  Na  Na6  1  0.74761474  0.88803211  0.98971355  1
  Na  Na7  1  0.92388458  0.61173575  0.76988821  1
  Ni  Ni8  1  0.34852340  0.39593969  0.75254595  1
  Ni  Ni9  1  0.35200421  0.88767804  0.75398940  1
  Ni  Ni10  1  0.64750903  0.10951842  0.25349830  1
  Ni  Ni11  1  0.65025137  0.60774499  0.24785050  1
  P  P12  1  0.42065059  0.35475824  0.24972917  1
  P  P13  1  0.42474723  0.85799604  0.25127232  1
  P  P14  1  0.57527299  0.14321997  0.75118023  1
  P  P15  1  0.58172646  0.64009561  0.74849330  1
  C  C16  1  0.07136007  0.36255761  0.74444658  1
  C  C17  1  0.07303824  0.85834104  0.74832681  1
  C  C18  1  0.92301167  0.14082758  0.25088783  1
  C  C19  1  0.92294217  0.64302003  0.25321601  1
  O  O20  1  0.06275540  0.15149890  0.25127949  1
  O  O21  1  0.06084614  0.65961234  0.26407638  1
  O  O22  1  0.13344080  0.47470121  0.73984016  1
  O  O23  1  0.13221597  0.97145022  0.75434998  1
  O  O24  1  0.16404453  0.26401355  0.74735948  1
  O  O25  1  0.16892052  0.76220385  0.74036037  1
  O  O26  1  0.32596244  0.38189769  0.05955351  1
  O  O27  1  0.32647961  0.39468542  0.43622533  1
  O  O28  1  0.33241402  0.89880679  0.06372041  1
  O  O29  1  0.32921804  0.89443640  0.43936845  1
  O  O30  1  0.42329352  0.07431637  0.75028508  1
  O  O31  1  0.43112143  0.57286389  0.73786367  1
  O  O32  1  0.45393065  0.20413512  0.25800449  1
  O  O33  1  0.46155197  0.70967908  0.25539766  1
  O  O34  1  0.54478204  0.29349518  0.74914428  1
  O  O35  1  0.55256705  0.79052941  0.75195650  1
  O  O36  1  0.57274289  0.42401077  0.24770303  1
  O  O37  1  0.57704355  0.92751171  0.25413271  1
  O  O38  1  0.67177458  0.10608593  0.56459269  1
  O  O39  1  0.66930869  0.10780233  0.94054101  1
  O  O40  1  0.68468701  0.60507261  0.56423543  1
  O  O41  1  0.67870021  0.59985845  0.93496811  1
  O  O42  1  0.82837739  0.23859470  0.25134902  1
  O  O43  1  0.82390423  0.73833219  0.24641843  1
  O  O44  1  0.85801714  0.02929471  0.25029609  1
  O  O45  1  0.86373199  0.52892573  0.24706446  1
  O  O46  1  0.92961176  0.35377455  0.74762510  1
  O  O47  1  0.93203547  0.84024538  0.75107361  1
