# generated using pymatgen
data_Li8Mn7Sn(PO4)12
_symmetry_space_group_name_H-M   'P 1'
_cell_length_a   8.57024798
_cell_length_b   8.86322197
_cell_length_c   12.08362632
_cell_angle_alpha   89.93196255
_cell_angle_beta   90.19573401
_cell_angle_gamma   91.80043025
_symmetry_Int_Tables_number   1
_chemical_formula_structural   Li8Mn7Sn(PO4)12
_chemical_formula_sum   'Li8 Mn7 Sn1 P12 O48'
_cell_volume   917.41335809
_cell_formula_units_Z   1
loop_
 _symmetry_equiv_pos_site_id
 _symmetry_equiv_pos_as_xyz
  1  'x, y, z'
loop_
 _atom_site_type_symbol
 _atom_site_label
 _atom_site_symmetry_multiplicity
 _atom_site_fract_x
 _atom_site_fract_y
 _atom_site_fract_z
 _atom_site_occupancy
  Li  Li0  1  0.21454505  0.72461996  0.18093902  1
  Li  Li1  1  0.21622336  0.78040939  0.81811746  1
  Li  Li2  1  0.28212074  0.21760394  0.31806241  1
  Li  Li3  1  0.28276496  0.27285520  0.68428011  1
  Li  Li4  1  0.71570252  0.72350935  0.31738433  1
  Li  Li5  1  0.72091888  0.78315082  0.68332162  1
  Li  Li6  1  0.78183409  0.21965072  0.18002622  1
  Li  Li7  1  0.78541276  0.27230354  0.82472797  1
  Mn  Mn8  1  0.25017371  0.96458681  0.61159897  1
  Mn  Mn9  1  0.24760494  0.53774688  0.38641103  1
  Mn  Mn10  1  0.25099682  0.03503901  0.11440856  1
  Mn  Mn11  1  0.25120038  0.46227148  0.88947418  1
  Mn  Mn12  1  0.74747650  0.53861772  0.11263007  1
  Mn  Mn13  1  0.74925621  0.96433334  0.88807867  1
  Mn  Mn14  1  0.75157034  0.03511230  0.38549328  1
  Sn  Sn15  1  0.74917199  0.46076410  0.61397538  1
  P  P16  1  0.03930055  0.25201549  0.49920298  1
  P  P17  1  0.46531180  0.74549526  0.00030410  1
  P  P18  1  0.53313620  0.25545032  0.99954701  1
  P  P19  1  0.96802208  0.74978070  0.49865449  1
  P  P20  1  0.10542887  0.39559397  0.14939303  1
  P  P21  1  0.10493073  0.10522006  0.85798501  1
  P  P22  1  0.38883675  0.60564169  0.64821156  1
  P  P23  1  0.39715481  0.89390562  0.35228444  1
  P  P24  1  0.60458249  0.09949181  0.64590174  1
  P  P25  1  0.60164587  0.39476859  0.34531515  1
  P  P26  1  0.89565151  0.60381299  0.85600672  1
  P  P27  1  0.89500695  0.89476896  0.14605327  1
  O  O28  1  0.05996153  0.64123759  0.42493038  1
  O  O29  1  0.06379277  0.85831419  0.57251777  1
  O  O30  1  0.07606823  0.89471709  0.15763691  1
  O  O31  1  0.07699865  0.60023161  0.84531723  1
  O  O32  1  0.14779289  0.16934242  0.57775080  1
  O  O33  1  0.14438155  0.34299693  0.41411543  1
  O  O34  1  0.15375641  0.44081265  0.03023194  1
  O  O35  1  0.15068327  0.06845190  0.97637281  1
  O  O36  1  0.15710764  0.23945430  0.18331211  1
  O  O37  1  0.16032933  0.26946683  0.82450309  1
  O  O38  1  0.17828210  0.52081330  0.22683677  1
  O  O39  1  0.17375215  0.98929475  0.77866945  1
  O  O40  1  0.32815061  0.01061382  0.27066226  1
  O  O41  1  0.31883443  0.48059035  0.72654782  1
  O  O42  1  0.33723376  0.76204730  0.68128170  1
  O  O43  1  0.34072204  0.73005270  0.32072718  1
  O  O44  1  0.34463370  0.55912427  0.52886113  1
  O  O45  1  0.34886772  0.93757435  0.46788681  1
  O  O46  1  0.35722048  0.82702501  0.07889997  1
  O  O47  1  0.35920956  0.65546107  0.91457870  1
  O  O48  1  0.42355775  0.09978783  0.65690037  1
  O  O49  1  0.42056337  0.39741875  0.33700417  1
  O  O50  1  0.43877329  0.14758127  0.07392121  1
  O  O51  1  0.43928479  0.36175763  0.92441284  1
  O  O52  1  0.55917684  0.64044249  0.07602221  1
  O  O53  1  0.56042062  0.85405406  0.92630742  1
  O  O54  1  0.57190392  0.60580096  0.65760026  1
  O  O55  1  0.57865495  0.89495310  0.34093418  1
  O  O56  1  0.64179362  0.34617857  0.08315975  1
  O  O57  1  0.63957456  0.17220285  0.92069348  1
  O  O58  1  0.65476448  0.06460670  0.52867838  1
  O  O59  1  0.65123551  0.44318562  0.46253339  1
  O  O60  1  0.65463707  0.23782344  0.31463401  1
  O  O61  1  0.65928131  0.26259147  0.68217242  1
  O  O62  1  0.67699605  0.51930504  0.26825471  1
  O  O63  1  0.67514382  0.98446259  0.72658658  1
  O  O64  1  0.82660642  0.01259699  0.22601874  1
  O  O65  1  0.82243036  0.47691417  0.77982430  1
  O  O66  1  0.83802724  0.73126926  0.17821647  1
  O  O67  1  0.84366327  0.75880362  0.81946278  1
  O  O68  1  0.84858921  0.56334624  0.97535682  1
  O  O69  1  0.84596486  0.93698185  0.02944569  1
  O  O70  1  0.85964254  0.66450472  0.58412953  1
  O  O71  1  0.86074103  0.82983889  0.41774610  1
  O  O72  1  0.92298208  0.10467782  0.84623770  1
  O  O73  1  0.92360041  0.39782001  0.15734147  1
  O  O74  1  0.94105341  0.14434603  0.42619737  1
  O  O75  1  0.94717252  0.36060259  0.57077465  1
