# generated using pymatgen
data_Li7V3P8O29
_symmetry_space_group_name_H-M   'P 1'
_cell_length_a   9.84316501
_cell_length_b   9.83194320
_cell_length_c   13.91141045
_cell_angle_alpha   90.18086613
_cell_angle_beta   90.10341950
_cell_angle_gamma   59.78698664
_symmetry_Int_Tables_number   1
_chemical_formula_structural   Li7V3P8O29
_chemical_formula_sum   'Li14 V6 P16 O58'
_cell_volume   1163.42271818
_cell_formula_units_Z   2
loop_
 _symmetry_equiv_pos_site_id
 _symmetry_equiv_pos_as_xyz
  1  'x, y, z'
loop_
 _atom_site_type_symbol
 _atom_site_label
 _atom_site_symmetry_multiplicity
 _atom_site_fract_x
 _atom_site_fract_y
 _atom_site_fract_z
 _atom_site_occupancy
  Li  Li0  1  0.76657055  0.90219032  0.56161013  1
  Li  Li1  1  0.90063010  0.33944285  0.55921957  1
  Li  Li2  1  0.67233925  0.66616200  0.88644823  1
  Li  Li3  1  0.76684735  0.32600546  0.06443474  1
  Li  Li4  1  0.31531477  0.90567524  0.06123593  1
  Li  Li5  1  0.66894120  0.23577158  0.43901280  1
  Li  Li6  1  0.33496803  0.75996936  0.56171932  1
  Li  Li7  1  0.22783903  0.67719763  0.93768621  1
  Li  Li8  1  0.34433342  0.33011893  0.11388959  1
  Li  Li9  1  0.09663943  0.67060567  0.43401952  1
  Li  Li10  1  0.24407121  0.10018678  0.44054864  1
  Li  Li11  1  0.09255767  0.23284489  0.94224476  1
  Li  Li12  1  0.90095737  0.99990819  0.97923964  1
  Li  Li13  1  0.00857803  0.00333871  0.49807852  1
  V  V14  1  0.56449385  0.43369197  0.25272953  1
  V  V15  1  0.43668932  0.56506933  0.75101711  1
  V  V16  1  0.56638280  0.00342253  0.74920179  1
  V  V17  1  0.43918907  0.99889028  0.24894428  1
  V  V18  1  0.99729934  0.56799030  0.24940615  1
  V  V19  1  0.00311322  0.43717402  0.74947676  1
  P  P20  1  0.90960064  0.78177742  0.83594590  1
  P  P21  1  0.77188079  0.91618829  0.34529377  1
  P  P22  1  0.91832410  0.31070337  0.34474327  1
  P  P23  1  0.66763991  0.66603224  0.12853735  1
  P  P24  1  0.66984696  0.66553376  0.62821074  1
  P  P25  1  0.78040456  0.31268319  0.84644745  1
  P  P26  1  0.69120545  0.22605974  0.65853051  1
  P  P27  1  0.32029968  0.91233532  0.84507726  1
  P  P28  1  0.69044958  0.08417101  0.15716502  1
  P  P29  1  0.31171141  0.77706426  0.34271891  1
  P  P30  1  0.22355766  0.68149780  0.15768157  1
  P  P31  1  0.33134476  0.32939327  0.37255064  1
  P  P32  1  0.33194392  0.33423228  0.87219578  1
  P  P33  1  0.08594968  0.68644633  0.65081340  1
  P  P34  1  0.22694597  0.08497160  0.65831590  1
  P  P35  1  0.09103485  0.22871623  0.15826178  1
  O  O36  1  0.00000582  0.77074936  0.55964123  1
  O  O37  1  0.91713324  0.74948888  0.34281574  1
  O  O38  1  0.78093828  0.98262239  0.07512641  1
  O  O39  1  0.73929534  0.92203907  0.83684476  1
  O  O40  1  0.90060586  0.62874711  0.83154327  1
  O  O41  1  0.81197157  0.66564616  0.17572705  1
  O  O42  1  0.91807697  0.46606570  0.33295692  1
  O  O43  1  0.99502573  0.24592393  0.06981817  1
  O  O44  1  0.92699737  0.33218709  0.84216806  1
  O  O45  1  0.67864079  0.81325921  0.66391629  1
  O  O46  1  0.61799257  0.91249050  0.33385702  1
  O  O47  1  0.81397899  0.51462476  0.67793665  1
  O  O48  1  0.66418983  0.67699738  0.02089887  1
  O  O49  1  0.68888232  0.64374953  0.52171057  1
  O  O50  1  0.66753080  0.51655573  0.16274321  1
  O  O51  1  0.48621210  0.88844183  0.82608649  1
  O  O52  1  0.51568953  0.81674592  0.17042948  1
  O  O53  1  0.75413782  0.33083406  0.34554696  1
  O  O54  1  0.79435479  0.20702353  0.75342714  1
  O  O55  1  0.78892312  0.21588453  0.57069716  1
  O  O56  1  0.78898148  0.22123044  0.93540435  1
  O  O57  1  0.63247330  0.47649257  0.83798419  1
  O  O58  1  0.51454448  0.67964011  0.66677846  1
  O  O59  1  0.66925676  0.25003991  0.15600567  1
  O  O60  1  0.46731270  0.62391945  0.33601527  1
  O  O61  1  0.33208873  0.92277844  0.34135315  1
  O  O62  1  0.78699605  0.00928206  0.25620218  1
  O  O63  1  0.77483135  0.00149933  0.43595078  1
  O  O64  1  0.22351632  0.99466548  0.57037549  1
  O  O65  1  0.67002166  0.07990414  0.65905002  1
  O  O66  1  0.53478543  0.37834706  0.66567120  1
  O  O67  1  0.33199594  0.75146362  0.84696940  1
  O  O68  1  0.48682813  0.32089854  0.33988641  1
  O  O69  1  0.36881872  0.51582685  0.16898491  1
  O  O70  1  0.22911711  0.76480207  0.06759044  1
  O  O71  1  0.21323757  0.78805928  0.43052644  1
  O  O72  1  0.20996194  0.79280634  0.24741134  1
  O  O73  1  0.24883566  0.66925423  0.65560537  1
  O  O74  1  0.47673987  0.19230154  0.82510112  1
  O  O75  1  0.52296742  0.10405624  0.17030141  1
  O  O76  1  0.32484341  0.48863586  0.84033998  1
  O  O77  1  0.32042827  0.32456856  0.97949622  1
  O  O78  1  0.32127531  0.31157992  0.47863337  1
  O  O79  1  0.18798993  0.48676267  0.33282234  1
  O  O80  1  0.38458494  0.08174209  0.66880077  1
  O  O81  1  0.32438705  0.18675086  0.32174864  1
  O  O82  1  0.07596077  0.66621698  0.16295668  1
  O  O83  1  0.98434829  0.80105454  0.73800734  1
  O  O84  1  0.00338862  0.79268817  0.91757244  1
  O  O85  1  0.09060378  0.52923607  0.66590362  1
  O  O86  1  0.18201974  0.33473687  0.82728672  1
  O  O87  1  0.11315286  0.37277352  0.17439429  1
  O  O88  1  0.25452562  0.07955253  0.15396738  1
  O  O89  1  0.24274883  0.00816250  0.93419984  1
  O  O90  1  0.20863153  0.00401714  0.75410924  1
  O  O91  1  0.08428554  0.25244670  0.65666400  1
  O  O92  1  0.00986495  0.21788491  0.43306156  1
  O  O93  1  0.00583418  0.20592058  0.25032008  1
