# generated using pymatgen
data_Li7V3P8O29
_symmetry_space_group_name_H-M   'P 1'
_cell_length_a   9.85406287
_cell_length_b   9.83524332
_cell_length_c   13.93233034
_cell_angle_alpha   90.42878892
_cell_angle_beta   90.11363938
_cell_angle_gamma   60.05785882
_symmetry_Int_Tables_number   1
_chemical_formula_structural   Li7V3P8O29
_chemical_formula_sum   'Li14 V6 P16 O58'
_cell_volume   1170.02378849
_cell_formula_units_Z   2
loop_
 _symmetry_equiv_pos_site_id
 _symmetry_equiv_pos_as_xyz
  1  'x, y, z'
loop_
 _atom_site_type_symbol
 _atom_site_label
 _atom_site_symmetry_multiplicity
 _atom_site_fract_x
 _atom_site_fract_y
 _atom_site_fract_z
 _atom_site_occupancy
  Li  Li0  1  0.90781252  0.76559553  0.06455669  1
  Li  Li1  1  0.90135833  0.33125834  0.55794534  1
  Li  Li2  1  0.65999362  0.67212437  0.88599668  1
  Li  Li3  1  0.76880275  0.32899609  0.06484397  1
  Li  Li4  1  0.32663751  0.90887372  0.06275894  1
  Li  Li5  1  0.66233274  0.24061626  0.43714890  1
  Li  Li6  1  0.32997556  0.76453392  0.56121547  1
  Li  Li7  1  0.23271398  0.67393929  0.93845945  1
  Li  Li8  1  0.34499623  0.32434772  0.61433653  1
  Li  Li9  1  0.09391090  0.67460190  0.43430179  1
  Li  Li10  1  0.22410069  0.08928768  0.43736332  1
  Li  Li11  1  0.11006180  0.23938253  0.94853621  1
  Li  Li12  1  0.92755873  0.02263144  0.98452050  1
  Li  Li13  1  0.93021924  0.99035488  0.52000515  1
  V  V14  1  0.56749171  0.43294678  0.24802171  1
  V  V15  1  0.43669234  0.56434448  0.75346083  1
  V  V16  1  0.57036414  0.99800066  0.74940709  1
  V  V17  1  0.43961912  0.00175905  0.25180024  1
  V  V18  1  0.99954211  0.56773367  0.24997770  1
  V  V19  1  0.00055221  0.43654132  0.74627664  1
  P  P20  1  0.91092681  0.77638047  0.84036010  1
  P  P21  1  0.77536780  0.91975906  0.34389679  1
  P  P22  1  0.91021287  0.31781047  0.34192458  1
  P  P23  1  0.66364562  0.66888874  0.12770072  1
  P  P24  1  0.66612863  0.66716511  0.62680647  1
  P  P25  1  0.77890843  0.31983852  0.84626989  1
  P  P26  1  0.68636479  0.22380937  0.66116283  1
  P  P27  1  0.31660659  0.91470593  0.84383314  1
  P  P28  1  0.69247838  0.08344358  0.15617569  1
  P  P29  1  0.31930401  0.77165906  0.34231335  1
  P  P30  1  0.23157263  0.68466743  0.15673966  1
  P  P31  1  0.33652531  0.33266637  0.37228977  1
  P  P32  1  0.33002099  0.32779235  0.87175142  1
  P  P33  1  0.09038491  0.68592143  0.65319144  1
  P  P34  1  0.22962051  0.08866417  0.65561557  1
  P  P35  1  0.08930937  0.22482542  0.15950745  1
  O  O36  1  0.00676626  0.77416342  0.56440946  1
  O  O37  1  0.91877479  0.75489234  0.34217254  1
  O  O38  1  0.79453905  0.99292606  0.07237298  1
  O  O39  1  0.74646177  0.91831268  0.84015508  1
  O  O40  1  0.90056805  0.62398675  0.83162322  1
  O  O41  1  0.81098713  0.67660105  0.15789722  1
  O  O42  1  0.90046941  0.47481155  0.32979384  1
  O  O43  1  0.00261212  0.22028213  0.07018877  1
  O  O44  1  0.92873586  0.33335807  0.84222242  1
  O  O45  1  0.66358517  0.81437519  0.67519291  1
  O  O46  1  0.62202770  0.91450155  0.33030979  1
  O  O47  1  0.81577763  0.51794887  0.67261363  1
  O  O48  1  0.64461972  0.67347397  0.01972693  1
  O  O49  1  0.68141261  0.65783852  0.52066937  1
  O  O50  1  0.67651285  0.51153479  0.16581678  1
  O  O51  1  0.48249546  0.89208543  0.83083359  1
  O  O52  1  0.51361906  0.81081494  0.17383714  1
  O  O53  1  0.74300782  0.33612712  0.33811094  1
  O  O54  1  0.78943046  0.21598095  0.75311305  1
  O  O55  1  0.77639500  0.22359224  0.57208728  1
  O  O56  1  0.78009613  0.23357543  0.93526257  1
  O  O57  1  0.63383682  0.48421740  0.83469894  1
  O  O58  1  0.51646019  0.66917409  0.66416644  1
  O  O59  1  0.66242995  0.25429236  0.15614199  1
  O  O60  1  0.47494918  0.61905302  0.32853560  1
  O  O61  1  0.34153020  0.91643936  0.34389800  1
  O  O62  1  0.79448476  0.00598289  0.25089936  1
  O  O63  1  0.77431968  0.01502196  0.42911174  1
  O  O64  1  0.23479265  0.99424076  0.56834217  1
  O  O65  1  0.67313893  0.07589987  0.66281134  1
  O  O66  1  0.52173095  0.36949686  0.66989618  1
  O  O67  1  0.32734836  0.75348081  0.84423034  1
  O  O68  1  0.48979241  0.32136898  0.33119667  1
  O  O69  1  0.38314387  0.52516306  0.17374853  1
  O  O70  1  0.24272778  0.76366006  0.06663699  1
  O  O71  1  0.23042159  0.77104895  0.43064756  1
  O  O72  1  0.21262711  0.79400100  0.24850202  1
  O  O73  1  0.25520658  0.66493191  0.65864485  1
  O  O74  1  0.47600916  0.18330354  0.82435516  1
  O  O75  1  0.53910733  0.07924584  0.16480565  1
  O  O76  1  0.33481927  0.47890494  0.84633967  1
  O  O77  1  0.30226400  0.30933118  0.97481539  1
  O  O78  1  0.34931168  0.31753794  0.48037582  1
  O  O79  1  0.19097559  0.48665565  0.34061469  1
  O  O80  1  0.37595416  0.10674071  0.66653145  1
  O  O81  1  0.32519156  0.18809887  0.32949895  1
  O  O82  1  0.08663689  0.66643592  0.15594641  1
  O  O83  1  -0.00000059  0.78854339  0.74713448  1
  O  O84  1  0.00031201  0.77888978  0.92891918  1
  O  O85  1  0.10195864  0.52324317  0.66225294  1
  O  O86  1  0.18445815  0.33629601  0.81456950  1
  O  O87  1  0.09688382  0.37405628  0.17131698  1
  O  O88  1  0.25505806  0.07754157  0.16258334  1
  O  O89  1  0.23208754  0.00956143  0.93186062  1
  O  O90  1  0.21354095  0.00442665  0.75026557  1
  O  O91  1  0.08045756  0.25253348  0.65299775  1
  O  O92  1  0.99330012  0.22980083  0.43224599  1
  O  O93  1  0.99998118  0.20433531  0.25158019  1
