# generated using pymatgen
data_BiWO4
_symmetry_space_group_name_H-M   'P 1'
_cell_length_a   5.40568023
_cell_length_b   5.40568023
_cell_length_c   6.90839721
_cell_angle_alpha   113.03166694
_cell_angle_beta   113.03166694
_cell_angle_gamma   90.00000000
_symmetry_Int_Tables_number   1
_chemical_formula_structural   BiWO4
_chemical_formula_sum   'Bi2 W2 O8'
_cell_volume   168.15694377
_cell_formula_units_Z   2
loop_
 _symmetry_equiv_pos_site_id
 _symmetry_equiv_pos_as_xyz
  1  'x, y, z'
loop_
 _atom_site_type_symbol
 _atom_site_label
 _atom_site_symmetry_multiplicity
 _atom_site_fract_x
 _atom_site_fract_y
 _atom_site_fract_z
 _atom_site_occupancy
  Bi  Bi0  1  0.75000000  0.25000000  0.50000000  1
  Bi  Bi1  1  0.50000000  0.50000000  -0.00000000  1
  W  W2  1  0.25000000  0.75000000  0.50000000  1
  W  W3  1  0.00000000  -0.00000000  -0.00000000  1
  O  O4  1  0.33376155  0.25592652  0.16433130  1
  O  O5  1  0.83056975  0.90840478  0.16433130  1
  O  O6  1  0.09159522  0.66623845  0.83566870  1
  O  O7  1  0.74407348  0.16943025  0.83566870  1
  O  O8  1  0.50506678  0.57970452  0.66414757  1
  O  O9  1  0.15908079  0.08444305  0.66414757  1
  O  O10  1  0.91555695  0.49493322  0.33585243  1
  O  O11  1  0.42029548  0.84091921  0.33585243  1
