# generated using pymatgen
data_Li7V3P8O29
_symmetry_space_group_name_H-M   'P 1'
_cell_length_a   9.82446150
_cell_length_b   9.81953754
_cell_length_c   13.98862517
_cell_angle_alpha   91.23053453
_cell_angle_beta   91.17220906
_cell_angle_gamma   60.52919502
_symmetry_Int_Tables_number   1
_chemical_formula_structural   Li7V3P8O29
_chemical_formula_sum   'Li14 V6 P16 O58'
_cell_volume   1174.54188812
_cell_formula_units_Z   2
loop_
 _symmetry_equiv_pos_site_id
 _symmetry_equiv_pos_as_xyz
  1  'x, y, z'
loop_
 _atom_site_type_symbol
 _atom_site_label
 _atom_site_symmetry_multiplicity
 _atom_site_fract_x
 _atom_site_fract_y
 _atom_site_fract_z
 _atom_site_occupancy
  Li  Li0  1  0.90952775  0.32216503  0.56743410  1
  Li  Li1  1  0.67028028  0.67311188  0.38785532  1
  Li  Li2  1  0.67252915  0.66749146  0.88827909  1
  Li  Li3  1  0.76482410  0.32209363  0.06474217  1
  Li  Li4  1  0.32142141  0.90907923  0.06737942  1
  Li  Li5  1  0.67736349  0.23607558  0.43604617  1
  Li  Li6  1  0.32262156  0.76340462  0.56320727  1
  Li  Li7  1  0.67880541  0.09125737  0.93256117  1
  Li  Li8  1  0.23561148  0.67781132  0.93514923  1
  Li  Li9  1  0.32968067  0.32783783  0.61224596  1
  Li  Li10  1  0.32632607  0.33271797  0.11163190  1
  Li  Li11  1  0.09066555  0.67767144  0.43265222  1
  Li  Li12  1  0.99982231  0.00057202  0.00020777  1
  Li  Li13  1  0.99899883  0.00029868  0.50026187  1
  V  V14  1  0.56459587  0.43540646  0.25037653  1
  V  V15  1  0.43603475  0.56417370  0.74951018  1
  V  V16  1  0.56507324  0.99415379  0.74579175  1
  V  V17  1  0.43489109  0.00571433  0.25423297  1
  V  V18  1  0.99412211  0.56493965  0.24569020  1
  V  V19  1  0.00597880  0.43503816  0.75416038  1
  P  P20  1  0.91601785  0.78310621  0.83496944  1
  P  P21  1  0.78271594  0.91562291  0.33536289  1
  P  P22  1  0.91274185  0.31701260  0.35113676  1
  P  P23  1  0.66108078  0.67078104  0.12658321  1
  P  P24  1  0.67112849  0.66035231  0.62615328  1
  P  P25  1  0.77684682  0.32005687  0.84313378  1
  P  P26  1  0.68029277  0.22363666  0.65821902  1
  P  P27  1  0.31742812  0.91255339  0.85058833  1
  P  P28  1  0.68323349  0.08709834  0.14957784  1
  P  P29  1  0.31989577  0.77641634  0.34187293  1
  P  P30  1  0.22337541  0.67985736  0.15702940  1
  P  P31  1  0.32861570  0.33962071  0.37359144  1
  P  P32  1  0.33903708  0.32937519  0.87346553  1
  P  P33  1  0.08703015  0.68318113  0.64870332  1
  P  P34  1  0.21747558  0.08376105  0.66468454  1
  P  P35  1  0.08412196  0.21672655  0.16505570  1
  O  O36  1  0.01081852  0.76123794  0.55648518  1
  O  O37  1  0.92129490  0.74703881  0.33810099  1
  O  O38  1  0.76046769  0.01286010  0.05676980  1
  O  O39  1  0.74742285  0.92178505  0.83762681  1
  O  O40  1  0.90546067  0.62939766  0.83169527  1
  O  O41  1  0.81154944  0.66197854  0.17595021  1
  O  O42  1  0.89710264  0.48040762  0.33426504  1
  O  O43  1  0.98611169  0.20282411  0.08577563  1
  O  O44  1  0.92121979  0.34042562  0.83985714  1
  O  O45  1  0.66085045  0.81151785  0.67567164  1
  O  O46  1  0.62891282  0.90541727  0.33244680  1
  O  O47  1  0.81921530  0.51684742  0.67092673  1
  O  O48  1  0.66141876  0.68654464  0.02033098  1
  O  O49  1  0.68664834  0.66081396  0.51986794  1
  O  O50  1  0.66089481  0.52014907  0.15544875  1
  O  O51  1  0.48074097  0.89702741  0.83426747  1
  O  O52  1  0.51710176  0.81907648  0.17144360  1
  O  O53  1  0.74845263  0.33464498  0.34119854  1
  O  O54  1  0.78477120  0.21557897  0.75052659  1
  O  O55  1  0.76875032  0.22650179  0.57115051  1
  O  O56  1  0.77691986  0.22928391  0.92976866  1
  O  O57  1  0.63059356  0.48355160  0.83403942  1
  O  O58  1  0.52034509  0.65949987  0.65468039  1
  O  O59  1  0.66581250  0.25160234  0.16078642  1
  O  O60  1  0.48376978  0.63056522  0.33219949  1
  O  O61  1  0.33893424  0.92168966  0.33956750  1
  O  O62  1  0.79642670  0.98197832  0.23427245  1
  O  O63  1  0.79606927  0.01457019  0.41431880  1
  O  O64  1  0.20431977  0.98486688  0.58570583  1
  O  O65  1  0.66048455  0.07881437  0.66043088  1
  O  O66  1  0.51619859  0.36877957  0.66875620  1
  O  O67  1  0.33406901  0.74864334  0.83894098  1
  O  O68  1  0.47926537  0.34057623  0.34498855  1
  O  O69  1  0.36965160  0.51684361  0.16632177  1
  O  O70  1  0.22382963  0.77044319  0.07045578  1
  O  O71  1  0.23135607  0.77324219  0.42878440  1
  O  O72  1  0.21512881  0.78444722  0.24970799  1
  O  O73  1  0.25141267  0.66550313  0.65869825  1
  O  O74  1  0.48285012  0.18092811  0.82886685  1
  O  O75  1  0.51960809  0.10354496  0.16599223  1
  O  O76  1  0.33936800  0.48015009  0.84451623  1
  O  O77  1  0.33827264  0.31399694  0.97972317  1
  O  O78  1  0.31246482  0.33948772  0.47987378  1
  O  O79  1  0.18065265  0.48308154  0.32866267  1
  O  O80  1  0.37102973  0.09445767  0.66783865  1
  O  O81  1  0.33880220  0.18832628  0.32431576  1
  O  O82  1  0.07904567  0.65923841  0.15991011  1
  O  O83  1  0.98372753  0.79643591  0.73424791  1
  O  O84  1  0.01425564  0.79640931  0.91421587  1
  O  O85  1  0.10231424  0.51991223  0.66548363  1
  O  O86  1  0.18840424  0.33855829  0.82404590  1
  O  O87  1  0.09425821  0.37060373  0.16798745  1
  O  O88  1  0.25281943  0.07827822  0.16238634  1
  O  O89  1  0.23991249  0.98696167  0.94323625  1
  O  O90  1  0.20403959  0.01709888  0.76572296  1
  O  O91  1  0.07877243  0.25240159  0.66203722  1
  O  O92  1  0.98865280  0.23939009  0.44345561  1
  O  O93  1  0.01644721  0.20358644  0.26570494  1
