# generated using pymatgen
data_MnF3
_symmetry_space_group_name_H-M   'P 1'
_cell_length_a   5.41886517
_cell_length_b   7.80259761
_cell_length_c   5.41834937
_cell_angle_alpha   90.00000000
_cell_angle_beta   90.00966314
_cell_angle_gamma   90.00000000
_symmetry_Int_Tables_number   1
_chemical_formula_structural   MnF3
_chemical_formula_sum   'Mn4 F12'
_cell_volume   229.09444269
_cell_formula_units_Z   4
loop_
 _symmetry_equiv_pos_site_id
 _symmetry_equiv_pos_as_xyz
  1  'x, y, z'
loop_
 _atom_site_type_symbol
 _atom_site_label
 _atom_site_symmetry_multiplicity
 _atom_site_fract_x
 _atom_site_fract_y
 _atom_site_fract_z
 _atom_site_occupancy
  Mn  Mn0  1  -0.00000000  0.00000000  -0.00000000  1
  Mn  Mn1  1  -0.00000000  0.50000000  -0.00000000  1
  Mn  Mn2  1  0.50000000  0.00000000  0.50000000  1
  Mn  Mn3  1  0.50000000  0.50000000  0.50000000  1
  F  F4  1  0.99929802  0.25000000  0.98699111  1
  F  F5  1  0.20668653  0.50783073  0.69108663  1
  F  F6  1  0.20668653  0.99216927  0.69108663  1
  F  F7  1  0.30856224  0.00643761  0.20624621  1
  F  F8  1  0.30856224  0.49356239  0.20624621  1
  F  F9  1  0.50364963  0.75000000  0.48601113  1
  F  F10  1  0.49635037  0.25000000  0.51398887  1
  F  F11  1  0.69143776  0.50643761  0.79375379  1
  F  F12  1  0.69143776  0.99356239  0.79375379  1
  F  F13  1  0.79331347  0.00783073  0.30891337  1
  F  F14  1  0.79331347  0.49216927  0.30891337  1
  F  F15  1  0.00070198  0.75000000  0.01300889  1
