# generated using pymatgen
data_Zn(GaS2)2
_symmetry_space_group_name_H-M   'P 1'
_cell_length_a   3.73111890
_cell_length_b   3.73111890
_cell_length_c   24.20867683
_cell_angle_alpha   90.00000000
_cell_angle_beta   90.00000000
_cell_angle_gamma   119.99989045
_symmetry_Int_Tables_number   1
_chemical_formula_structural   Zn(GaS2)2
_chemical_formula_sum   'Zn2 Ga4 S8'
_cell_volume   291.86387380
_cell_formula_units_Z   2
loop_
 _symmetry_equiv_pos_site_id
 _symmetry_equiv_pos_as_xyz
  1  'x, y, z'
loop_
 _atom_site_type_symbol
 _atom_site_label
 _atom_site_symmetry_multiplicity
 _atom_site_fract_x
 _atom_site_fract_y
 _atom_site_fract_z
 _atom_site_occupancy
  Zn  Zn0  1  0.00001030  0.99998970  0.09175974  1
  Zn  Zn1  1  0.99998970  0.00001030  0.59175974  1
  Ga  Ga2  1  0.66668598  0.33331402  0.24732789  1
  Ga  Ga3  1  0.33331402  0.66668598  0.74732789  1
  Ga  Ga4  1  0.33330978  0.66669022  0.40094473  1
  Ga  Ga5  1  0.66669022  0.33330978  0.90094473  1
  S  S6  1  0.99997901  0.00002099  0.44026950  1
  S  S7  1  0.00002099  0.99997901  0.94026950  1
  S  S8  1  0.33332029  0.66667971  0.30689953  1
  S  S9  1  0.66667971  0.33332029  0.80689953  1
  S  S10  1  0.00001141  0.99998859  0.19909997  1
  S  S11  1  0.99998859  0.00001141  0.69909997  1
  S  S12  1  0.66668291  0.33331709  0.06319865  1
  S  S13  1  0.33331709  0.66668291  0.56319865  1
