# generated using pymatgen
data_Li2MnVP2(HO5)2
_symmetry_space_group_name_H-M   'P 1'
_cell_length_a   5.47323474
_cell_length_b   7.32065763
_cell_length_c   14.33642225
_cell_angle_alpha   85.83597620
_cell_angle_beta   86.43088437
_cell_angle_gamma   106.67905175
_symmetry_Int_Tables_number   1
_chemical_formula_structural   Li2MnVP2(HO5)2
_chemical_formula_sum   'Li6 Mn3 V3 P6 H6 O30'
_cell_volume   546.72745589
_cell_formula_units_Z   3
loop_
 _symmetry_equiv_pos_site_id
 _symmetry_equiv_pos_as_xyz
  1  'x, y, z'
loop_
 _atom_site_type_symbol
 _atom_site_label
 _atom_site_symmetry_multiplicity
 _atom_site_fract_x
 _atom_site_fract_y
 _atom_site_fract_z
 _atom_site_occupancy
  Li  Li0  1  0.14490634  0.57420427  0.24819808  1
  Li  Li1  1  0.18461192  0.76061732  0.41810649  1
  Li  Li2  1  0.48205508  0.90604968  0.91522751  1
  Li  Li3  1  0.52175966  0.09246273  0.08513492  1
  Li  Li4  1  0.81390655  0.24674559  0.58279347  1
  Li  Li5  1  0.85275945  0.41992141  0.75054053  1
  Mn  Mn6  1  0.00045036  0.49902594  0.00012618  1
  Mn  Mn7  1  0.33333300  0.33333300  0.66666700  1
  Mn  Mn8  1  0.66621664  0.16764106  0.33320682  1
  V  V9  1  0.00193980  0.99988991  0.00015193  1
  V  V10  1  0.33333300  0.83333300  0.66666700  1
  V  V11  1  0.66472720  0.66677609  0.33318107  1
  P  P12  1  0.19053911  0.32491039  0.44219276  1
  P  P13  1  0.14195757  0.00863643  0.22480568  1
  P  P14  1  0.52470943  0.65803057  0.10852732  1
  P  P15  1  0.47612789  0.34175661  0.89114024  1
  P  P16  1  0.86098555  0.99049918  0.77355469  1
  P  P17  1  0.80568045  0.67616782  0.55977831  1
  H  H18  1  0.05696400  0.77763472  0.88027879  1
  H  H19  1  0.27897379  0.54650385  0.78625408  1
  H  H20  1  0.60970300  0.88903228  0.45305521  1
  H  H21  1  0.38769321  0.12016315  0.54707992  1
  H  H22  1  0.72220921  0.44624985  0.21253939  1
  H  H23  1  0.94445779  0.22041615  0.12079361  1
  O  O24  1  0.13847301  0.94673359  0.12322777  1
  O  O25  1  0.04244561  0.82398658  0.29547792  1
  O  O26  1  0.03727878  0.86146515  0.75801093  1
  O  O27  1  0.09347403  0.78668648  0.56497942  1
  O  O28  1  0.10048911  0.77521896  0.94680098  1
  O  O29  1  0.23471810  0.56024506  0.10058723  1
  O  O30  1  0.28879486  0.50895458  0.37058861  1
  O  O31  1  0.19463259  0.38867730  0.54320783  1
  O  O32  1  0.23170703  0.54760141  0.71983243  1
  O  O33  1  0.62422039  0.84268042  0.03785508  1
  O  O34  1  0.52819299  0.71993341  0.21010523  1
  O  O35  1  0.56617789  0.89144804  0.38653202  1
  O  O36  1  0.31355129  0.47835318  0.90339347  1
  O  O37  1  0.35311571  0.18831382  0.42993953  1
  O  O38  1  0.57319297  0.87998052  0.76835358  1
  O  O39  1  0.43194790  0.10642194  0.23274577  1
  O  O40  1  0.62938822  0.80520185  0.57532307  1
  O  O41  1  0.68724991  0.52131508  0.09646499  1
  O  O42  1  0.43495997  0.11906559  0.61350057  1
  O  O43  1  0.47203441  0.27798970  0.79012517  1
  O  O44  1  0.37787114  0.15771242  0.96274539  1
  O  O45  1  0.76473198  0.44275702  0.27956849  1
  O  O46  1  0.79828986  0.61919872  0.45714480  1
  O  O47  1  0.72602375  0.49391522  0.62917093  1
  O  O48  1  0.76635015  0.43962779  0.89960100  1
  O  O49  1  0.90193402  0.22390898  0.05376451  1
  O  O50  1  0.90031685  0.22703821  0.43373300  1
  O  O51  1  0.97941709  0.14535192  0.23686801  1
  O  O52  1  0.94064325  0.17275078  0.70416207  1
  O  O53  1  0.86837714  0.04746728  0.87618820  1
