# generated using pymatgen
data_Li7Mn4(P2O7)4
_symmetry_space_group_name_H-M   'P 1'
_cell_length_a   9.93867395
_cell_length_b   9.92426753
_cell_length_c   11.37005663
_cell_angle_alpha   90.09433041
_cell_angle_beta   102.95713476
_cell_angle_gamma   89.78550032
_symmetry_Int_Tables_number   1
_chemical_formula_structural   Li7Mn4(P2O7)4
_chemical_formula_sum   'Li14 Mn8 P16 O56'
_cell_volume   1092.91191118
_cell_formula_units_Z   2
loop_
 _symmetry_equiv_pos_site_id
 _symmetry_equiv_pos_as_xyz
  1  'x, y, z'
loop_
 _atom_site_type_symbol
 _atom_site_label
 _atom_site_symmetry_multiplicity
 _atom_site_fract_x
 _atom_site_fract_y
 _atom_site_fract_z
 _atom_site_occupancy
  Li  Li0  1  0.11173637  0.72080390  0.44733492  1
  Li  Li1  1  0.16987333  0.42313476  0.54469420  1
  Li  Li2  1  0.08697767  0.10463514  0.02735823  1
  Li  Li3  1  0.15076453  0.41022906  0.04204132  1
  Li  Li4  1  0.41367547  0.61168403  0.97150692  1
  Li  Li5  1  0.33078570  0.92214580  0.45498816  1
  Li  Li6  1  0.38882026  0.22090056  0.55308527  1
  Li  Li7  1  0.61205297  0.77880069  0.44848853  1
  Li  Li8  1  0.67015088  0.07760820  0.54495850  1
  Li  Li9  1  0.58578450  0.39388337  0.02795030  1
  Li  Li10  1  0.65229260  0.08963784  0.04110674  1
  Li  Li11  1  0.91311952  0.88970065  0.97203023  1
  Li  Li12  1  0.83120792  0.57715388  0.45524827  1
  Li  Li13  1  0.88912858  0.27942693  0.55413544  1
  Mn  Mn14  1  0.20728742  0.91774305  0.68265250  1
  Mn  Mn15  1  0.25837636  0.21220341  0.82493491  1
  Mn  Mn16  1  0.24066454  0.71695394  0.17117339  1
  Mn  Mn17  1  0.29718222  0.42174778  0.32440644  1
  Mn  Mn18  1  0.70737594  0.58133011  0.68249713  1
  Mn  Mn19  1  0.75837541  0.28769260  0.82574164  1
  Mn  Mn20  1  0.74012431  0.78369606  0.17218171  1
  Mn  Mn21  1  0.79775156  0.07909741  0.32476457  1
  P  P22  1  0.02579181  0.45133945  0.75888133  1
  P  P23  1  0.11828324  0.70602399  0.89010502  1
  P  P24  1  0.05836739  0.93207877  0.24434643  1
  P  P25  1  0.12314388  0.14950101  0.42745747  1
  P  P26  1  0.37841720  0.64887009  0.57347720  1
  P  P27  1  0.44101081  0.43237952  0.75634205  1
  P  P28  1  0.52582089  0.04895415  0.75900000  1
  P  P29  1  0.38082405  0.20605040  0.10799669  1
  P  P30  1  0.61841219  0.79397279  0.89021380  1
  P  P31  1  0.47416939  0.95180707  0.24060851  1
  P  P32  1  0.55800012  0.56788131  0.24427028  1
  P  P33  1  0.62318253  0.35121677  0.42774817  1
  P  P34  1  0.87841179  0.85047980  0.57340824  1
  P  P35  1  0.94068972  0.06763533  0.75630310  1
  P  P36  1  0.88056864  0.29381060  0.10816523  1
  P  P37  1  0.97358291  0.54800676  0.24040997  1
  O  O38  1  0.02589304  0.41362425  0.62925451  1
  O  O39  1  0.02557439  0.84042796  0.55468650  1
  O  O40  1  0.08503734  0.08792618  0.73037415  1
  O  O41  1  0.11460532  0.35877789  0.85499082  1
  O  O42  1  0.09199841  0.59821805  0.77666851  1
  O  O43  1  0.18030263  0.82519232  0.83821152  1
  O  O44  1  0.22262334  0.63336376  0.99559639  1
  O  O45  1  0.01888520  0.27486923  0.07602734  1
  O  O46  1  0.11254501  0.07943300  0.29655947  1
  O  O47  1  0.06322173  0.93529835  0.11255574  1
  O  O48  1  0.12142970  0.53624759  0.21304951  1
  O  O49  1  0.18771388  0.28870327  0.41888827  1
  O  O50  1  0.16426640  0.82728225  0.31289189  1
  O  O51  1  0.22478287  0.06313107  0.51885732  1
  O  O52  1  0.27665043  0.56329387  0.48157945  1
  O  O53  1  0.33506928  0.32802373  0.68776962  1
  O  O54  1  0.31393083  0.78890218  0.58046064  1
  O  O55  1  0.37552861  0.04291087  0.77960093  1
  O  O56  1  0.38627776  0.57955284  0.70375144  1
  O  O57  1  0.43641100  0.43605670  0.88821344  1
  O  O58  1  0.48356215  0.77103486  0.92430792  1
  O  O59  1  0.27231857  0.14563285  0.00161669  1
  O  O60  1  0.31986716  0.33083105  0.15704798  1
  O  O61  1  0.40386323  0.09961265  0.22050494  1
  O  O62  1  0.41357739  0.58835949  0.27070004  1
  O  O63  1  0.38766074  0.85475363  0.15148286  1
  O  O64  1  0.52600070  0.08613669  0.62919234  1
  O  O65  1  0.47649633  0.34127456  0.44733839  1
  O  O66  1  0.52580042  0.65742342  0.55490139  1
  O  O67  1  0.48017488  0.92082750  0.37316643  1
  O  O68  1  0.61445688  0.14084652  0.85511710  1
  O  O69  1  0.58508588  0.41145712  0.72969831  1
  O  O70  1  0.59222412  0.90152080  0.77679284  1
  O  O71  1  0.68055780  0.67398151  0.83810633  1
  O  O72  1  0.72252188  0.86610749  0.99603159  1
  O  O73  1  0.51918843  0.22410375  0.07628195  1
  O  O74  1  0.56210855  0.56380367  0.11251410  1
  O  O75  1  0.61288024  0.42047110  0.29683096  1
  O  O76  1  0.62268944  0.96263553  0.21436481  1
  O  O77  1  0.68742592  0.21124179  0.41923970  1
  O  O78  1  0.66393300  0.67235194  0.31245245  1
  O  O79  1  0.72504237  0.43698707  0.51904950  1
  O  O80  1  0.77679415  0.93680531  0.48143599  1
  O  O81  1  0.83482204  0.17247892  0.68750407  1
  O  O82  1  0.81312083  0.71139000  0.58062858  1
  O  O83  1  0.87575222  0.45810877  0.78003890  1
  O  O84  1  0.93549438  0.06462800  0.88814060  1
  O  O85  1  0.88652482  0.92068829  0.70366483  1
  O  O86  1  0.98321025  0.72988749  0.92426615  1
  O  O87  1  0.77171632  0.35475682  0.00212322  1
  O  O88  1  0.82015513  0.16947113  0.15723114  1
  O  O89  1  0.90336346  0.40065557  0.22049507  1
  O  O90  1  0.88618339  0.64557697  0.15149400  1
  O  O91  1  0.91364312  0.91233796  0.26990450  1
  O  O92  1  0.97636194  0.16063703  0.44687977  1
  O  O93  1  0.97997507  0.57958838  0.37271126  1
