# generated using pymatgen
data_Li6MnV3(PO4)6
_symmetry_space_group_name_H-M   'P 1'
_cell_length_a   8.70343192
_cell_length_b   8.76729463
_cell_length_c   12.27715818
_cell_angle_alpha   89.73746591
_cell_angle_beta   90.65762670
_cell_angle_gamma   90.10570416
_symmetry_Int_Tables_number   1
_chemical_formula_structural   Li6MnV3(PO4)6
_chemical_formula_sum   'Li12 Mn2 V6 P12 O48'
_cell_volume   936.74228524
_cell_formula_units_Z   2
loop_
 _symmetry_equiv_pos_site_id
 _symmetry_equiv_pos_as_xyz
  1  'x, y, z'
loop_
 _atom_site_type_symbol
 _atom_site_label
 _atom_site_symmetry_multiplicity
 _atom_site_fract_x
 _atom_site_fract_y
 _atom_site_fract_z
 _atom_site_occupancy
  Li  Li0  1  0.07738014  0.09610395  0.69660351  1
  Li  Li1  1  0.07840947  0.70402713  0.75766579  1
  Li  Li2  1  0.21239550  0.77227336  0.17947199  1
  Li  Li3  1  0.29020742  0.27373639  0.32229865  1
  Li  Li4  1  0.41947875  0.20233663  0.74360610  1
  Li  Li5  1  0.42095737  0.59357225  0.80331154  1
  Li  Li6  1  0.58194321  0.40760954  0.19624534  1
  Li  Li7  1  0.57888411  0.79435027  0.25794141  1
  Li  Li8  1  0.70738209  0.72446312  0.67724094  1
  Li  Li9  1  0.79139842  0.22596723  0.82280873  1
  Li  Li10  1  0.91722387  0.29744245  0.24100599  1
  Li  Li11  1  0.92173220  0.90496341  0.30159386  1
  Mn  Mn12  1  0.25339841  0.95875267  0.39048395  1
  Mn  Mn13  1  0.75298731  0.46653429  0.39350567  1
  V  V14  1  0.24656593  0.53247552  0.60982370  1
  V  V15  1  0.24752322  0.45800041  0.11176202  1
  V  V16  1  0.25264133  0.03125014  0.89089325  1
  V  V17  1  0.74539970  0.04133248  0.61155911  1
  V  V18  1  0.74673620  0.96713716  0.11004121  1
  V  V19  1  0.75359851  0.54144386  0.88884735  1
  P  P20  1  0.03507409  0.25459190  0.49451350  1
  P  P21  1  0.10570554  0.38820024  0.85291833  1
  P  P22  1  0.10755602  0.09762451  0.15151181  1
  P  P23  1  0.39261650  0.88869582  0.64517126  1
  P  P24  1  0.39989324  0.59461385  0.35057351  1
  P  P25  1  0.46098430  0.74821266  0.00642207  1
  P  P26  1  0.53900786  0.25128513  0.99421270  1
  P  P27  1  0.60300801  0.39993234  0.65207414  1
  P  P28  1  0.60429728  0.11082767  0.35319038  1
  P  P29  1  0.89369291  0.90095531  0.85065087  1
  P  P30  1  0.89609120  0.61175697  0.14418637  1
  P  P31  1  0.96083770  0.75262117  0.50556267  1
  O  O32  1  0.05144619  0.86731765  0.43268375  1
  O  O33  1  0.06456142  0.67745256  0.59376191  1
  O  O34  1  0.07086323  0.59275579  0.16704384  1
  O  O35  1  0.07286368  0.89445139  0.84811931  1
  O  O36  1  0.10843489  0.36536307  0.57681889  1
  O  O37  1  0.14837258  0.41461281  0.97215103  1
  O  O38  1  0.14897742  0.22169058  0.81906891  1
  O  O39  1  0.15429996  0.97467053  0.24008017  1
  O  O40  1  0.15760189  0.25993207  0.18793515  1
  O  O41  1  0.16078195  0.17692819  0.42854907  1
  O  O42  1  0.17259238  0.04910107  0.04353576  1
  O  O43  1  0.19334171  0.50865023  0.78203604  1
  O  O44  1  0.30374115  0.00841095  0.71442035  1
  O  O45  1  0.33232903  0.54941834  0.45901114  1
  O  O46  1  0.33214286  0.66615762  0.06939078  1
  O  O47  1  0.35385988  0.75521395  0.30947196  1
  O  O48  1  0.34993947  0.72226738  0.67996961  1
  O  O49  1  0.35463236  0.47156787  0.26334812  1
  O  O50  1  0.35726662  0.91263612  0.52367991  1
  O  O51  1  0.38542598  0.86062668  0.92518050  1
  O  O52  1  0.42380670  0.39287310  0.65474157  1
  O  O53  1  0.42770092  0.09327008  0.33441519  1
  O  O54  1  0.43490328  0.17507798  0.90657362  1
  O  O55  1  0.44980242  0.36405164  0.06630572  1
  O  O56  1  0.55005773  0.63581405  0.93401882  1
  O  O57  1  0.56483138  0.82456200  0.09386731  1
  O  O58  1  0.56754368  0.90632349  0.66649231  1
  O  O59  1  0.58078590  0.60020337  0.34909597  1
  O  O60  1  0.61487280  0.13926680  0.07503259  1
  O  O61  1  0.64702808  0.08461086  0.47266702  1
  O  O62  1  0.64643539  0.52225226  0.74062575  1
  O  O63  1  0.64733188  0.27666734  0.31790894  1
  O  O64  1  0.65409378  0.23726912  0.68937907  1
  O  O65  1  0.66829078  0.33368641  0.93124534  1
  O  O66  1  0.67050289  0.45078033  0.54592646  1
  O  O67  1  0.69084691  0.99080997  0.28266140  1
  O  O68  1  0.80516015  0.48993852  0.20937532  1
  O  O69  1  0.82776841  0.94944416  0.95811949  1
  O  O70  1  0.83210212  0.83534526  0.56843407  1
  O  O71  1  0.84204734  0.73982709  0.81153268  1
  O  O72  1  0.85005299  0.02395717  0.76213919  1
  O  O73  1  0.85309847  0.77764342  0.18008314  1
  O  O74  1  0.85928618  0.59277427  0.02277593  1
  O  O75  1  0.88824051  0.64223634  0.42292966  1
  O  O76  1  0.92841534  0.10194763  0.15525117  1
  O  O77  1  0.93075494  0.40558732  0.83217500  1
  O  O78  1  0.92918263  0.33210064  0.40627446  1
  O  O79  1  0.94657492  0.13936572  0.56600292  1
