# generated using pymatgen
data_Li6MnV3(PO4)6
_symmetry_space_group_name_H-M   'P 1'
_cell_length_a   8.71703844
_cell_length_b   8.76980321
_cell_length_c   12.27101426
_cell_angle_alpha   90.41702701
_cell_angle_beta   90.81127917
_cell_angle_gamma   89.68482440
_symmetry_Int_Tables_number   1
_chemical_formula_structural   Li6MnV3(PO4)6
_chemical_formula_sum   'Li12 Mn2 V6 P12 O48'
_cell_volume   937.94613945
_cell_formula_units_Z   2
loop_
 _symmetry_equiv_pos_site_id
 _symmetry_equiv_pos_as_xyz
  1  'x, y, z'
loop_
 _atom_site_type_symbol
 _atom_site_label
 _atom_site_symmetry_multiplicity
 _atom_site_fract_x
 _atom_site_fract_y
 _atom_site_fract_z
 _atom_site_occupancy
  Li  Li0  1  0.07635857  0.09710375  0.69774444  1
  Li  Li1  1  0.07985080  0.70476759  0.75968086  1
  Li  Li2  1  0.21013266  0.77227865  0.17806464  1
  Li  Li3  1  0.28896475  0.27323994  0.32119852  1
  Li  Li4  1  0.41702637  0.20445199  0.74244164  1
  Li  Li5  1  0.42361902  0.59679470  0.80274961  1
  Li  Li6  1  0.57938901  0.40387977  0.19678397  1
  Li  Li7  1  0.58423545  0.79453034  0.25837891  1
  Li  Li8  1  0.71137950  0.72617384  0.67942330  1
  Li  Li9  1  0.78906732  0.22778095  0.82253659  1
  Li  Li10  1  0.91566622  0.29725226  0.24007664  1
  Li  Li11  1  0.92194629  0.90240992  0.30165189  1
  Mn  Mn12  1  0.75320786  0.54222108  0.89042870  1
  Mn  Mn13  1  0.75450989  0.46640401  0.39430387  1
  V  V14  1  0.24633125  0.53143917  0.61053452  1
  V  V15  1  0.24705740  0.45814632  0.11128032  1
  V  V16  1  0.25393740  0.03053460  0.89000587  1
  V  V17  1  0.25303668  0.95767087  0.38836421  1
  V  V18  1  0.74654877  0.04150801  0.61193705  1
  V  V19  1  0.74610857  0.96892691  0.10919952  1
  P  P20  1  0.03832462  0.24861961  0.49410722  1
  P  P21  1  0.10471159  0.38849625  0.85271776  1
  P  P22  1  0.10596052  0.09861470  0.14918458  1
  P  P23  1  0.39443431  0.88751253  0.64673475  1
  P  P24  1  0.39611392  0.59767246  0.35201881  1
  P  P25  1  0.46103423  0.74761077  0.00696389  1
  P  P26  1  0.53830591  0.24923494  0.99394162  1
  P  P27  1  0.60565921  0.40154255  0.65338082  1
  P  P28  1  0.60525358  0.11287503  0.35369764  1
  P  P29  1  0.89480521  0.90311322  0.84971822  1
  P  P30  1  0.89328163  0.61116376  0.14281732  1
  P  P31  1  0.96049679  0.75092258  0.50569184  1
  O  O32  1  0.05012567  0.86387409  0.43377840  1
  O  O33  1  0.06334995  0.67352188  0.59309112  1
  O  O34  1  0.06876814  0.59380260  0.16395741  1
  O  O35  1  0.07362184  0.89730523  0.84811399  1
  O  O36  1  0.11517052  0.35887661  0.57572432  1
  O  O37  1  0.14740589  0.41433330  0.97254234  1
  O  O38  1  0.14938914  0.22255829  0.81802864  1
  O  O39  1  0.15155439  0.97572743  0.23703516  1
  O  O40  1  0.15787325  0.26017167  0.18756248  1
  O  O41  1  0.16582927  0.16612266  0.42940803  1
  O  O42  1  0.17154422  0.05049925  0.04113788  1
  O  O43  1  0.19147372  0.50825053  0.78254093  1
  O  O44  1  0.30646800  0.00789064  0.71721368  1
  O  O45  1  0.33051292  0.55149395  0.46005322  1
  O  O46  1  0.33355354  0.66597555  0.07027262  1
  O  O47  1  0.34312672  0.75904018  0.31363790  1
  O  O48  1  0.35084792  0.72192702  0.68081420  1
  O  O49  1  0.34990045  0.47534271  0.26370258  1
  O  O50  1  0.35146567  0.91358730  0.52690220  1
  O  O51  1  0.38493821  0.85732728  0.92488193  1
  O  O52  1  0.42699579  0.39566762  0.65538277  1
  O  O53  1  0.43021764  0.09442872  0.33458750  1
  O  O54  1  0.43350103  0.17126706  0.90724281  1
  O  O55  1  0.44859853  0.36470210  0.06572402  1
  O  O56  1  0.55047197  0.63348208  0.93403436  1
  O  O57  1  0.56435170  0.82611235  0.09396297  1
  O  O58  1  0.56922826  0.90505491  0.66628297  1
  O  O59  1  0.57564987  0.60527987  0.34901983  1
  O  O60  1  0.61260274  0.13990578  0.07779717  1
  O  O61  1  0.64770618  0.08676773  0.47332583  1
  O  O62  1  0.65066323  0.52436015  0.74296646  1
  O  O63  1  0.64918304  0.27904203  0.31964252  1
  O  O64  1  0.65715876  0.23919729  0.68886110  1
  O  O65  1  0.66608511  0.32733169  0.93073663  1
  O  O66  1  0.67101648  0.45197399  0.54666858  1
  O  O67  1  0.69306521  0.99287109  0.28254060  1
  O  O68  1  0.80507747  0.48999348  0.20813329  1
  O  O69  1  0.82841939  0.94922296  0.95854114  1
  O  O70  1  0.83253425  0.83439027  0.56913489  1
  O  O71  1  0.84525591  0.74372243  0.80820167  1
  O  O72  1  0.85041568  0.02773898  0.76296926  1
  O  O73  1  0.84968588  0.77720647  0.17941282  1
  O  O74  1  0.85987120  0.59331333  0.01991961  1
  O  O75  1  0.88744854  0.64061551  0.42091194  1
  O  O76  1  0.92724967  0.10484041  0.15239915  1
  O  O77  1  0.92903316  0.40553447  0.83277635  1
  O  O78  1  0.93575156  0.32723525  0.40540208  1
  O  O79  1  0.94908398  0.13621773  0.56526314  1
