# generated using pymatgen
data_C7Cl8
_symmetry_space_group_name_H-M   'P 1'
_cell_length_a   10.49310295
_cell_length_b   11.05667986
_cell_length_c   11.84682899
_cell_angle_alpha   90.00000000
_cell_angle_beta   113.47094598
_cell_angle_gamma   90.00000000
_symmetry_Int_Tables_number   1
_chemical_formula_structural   C7Cl8
_chemical_formula_sum   'C28 Cl32'
_cell_volume   1260.73632149
_cell_formula_units_Z   4
loop_
 _symmetry_equiv_pos_site_id
 _symmetry_equiv_pos_as_xyz
  1  'x, y, z'
loop_
 _atom_site_type_symbol
 _atom_site_label
 _atom_site_symmetry_multiplicity
 _atom_site_fract_x
 _atom_site_fract_y
 _atom_site_fract_z
 _atom_site_occupancy
  C  C0  1  0.00136748  0.72883091  0.45945502  1
  C  C1  1  0.99863252  0.27116909  0.54054498  1
  C  C2  1  0.99863252  0.22883091  0.04054498  1
  C  C3  1  0.00136748  0.77116909  0.95945502  1
  C  C4  1  0.14479305  0.23631526  0.08683762  1
  C  C5  1  0.85520695  0.76368474  0.91316238  1
  C  C6  1  0.85520695  0.73631526  0.41316238  1
  C  C7  1  0.14479305  0.26368474  0.58683762  1
  C  C8  1  0.06446564  0.63774609  0.41633755  1
  C  C9  1  0.93553436  0.36225391  0.58366245  1
  C  C10  1  0.93553436  0.13774609  0.08366245  1
  C  C11  1  0.06446564  0.86225391  0.91633755  1
  C  C12  1  0.38909326  0.18596885  0.24308720  1
  C  C13  1  0.61090674  0.81403115  0.75691280  1
  C  C14  1  0.61090674  0.68596885  0.25691280  1
  C  C15  1  0.38909326  0.31403115  0.74308720  1
  C  C16  1  0.01899679  0.05060596  0.16529054  1
  C  C17  1  0.98100321  0.94939404  0.83470946  1
  C  C18  1  0.98100321  0.55060596  0.33470946  1
  C  C19  1  0.01899679  0.44939404  0.66529054  1
  C  C20  1  0.16581250  0.05767098  0.21120790  1
  C  C21  1  0.83418750  0.94232902  0.78879210  1
  C  C22  1  0.83418750  0.55767098  0.28879210  1
  C  C23  1  0.16581250  0.44232902  0.71120790  1
  C  C24  1  0.23208770  0.15725871  0.18076744  1
  C  C25  1  0.76791230  0.84274129  0.81923256  1
  C  C26  1  0.76791230  0.65725871  0.31923256  1
  C  C27  1  0.23208770  0.34274129  0.68076744  1
  Cl  Cl28  1  0.46969826  0.15708911  0.13676049  1
  Cl  Cl29  1  0.53030174  0.84291089  0.86323951  1
  Cl  Cl30  1  0.53030174  0.65708911  0.36323951  1
  Cl  Cl31  1  0.46969826  0.34291089  0.63676049  1
  Cl  Cl32  1  0.48855768  0.10754698  0.38139410  1
  Cl  Cl33  1  0.51144232  0.89245302  0.61860590  1
  Cl  Cl34  1  0.51144232  0.60754698  0.11860590  1
  Cl  Cl35  1  0.48855768  0.39245302  0.88139410  1
  Cl  Cl36  1  0.75869530  0.13131908  0.03221838  1
  Cl  Cl37  1  0.24130470  0.86868092  0.96778162  1
  Cl  Cl38  1  0.24130470  0.63131908  0.46778162  1
  Cl  Cl39  1  0.75869530  0.36868092  0.53221838  1
  Cl  Cl40  1  0.74765633  0.43489842  0.20362187  1
  Cl  Cl41  1  0.25234367  0.56510158  0.79637813  1
  Cl  Cl42  1  0.25234367  0.93489842  0.29637813  1
  Cl  Cl43  1  0.74765633  0.06510158  0.70362187  1
  Cl  Cl44  1  0.05987329  0.43410972  0.29164339  1
  Cl  Cl45  1  0.94012671  0.56589028  0.70835661  1
  Cl  Cl46  1  0.94012671  0.93410972  0.20835661  1
  Cl  Cl47  1  0.05987329  0.06589028  0.79164339  1
  Cl  Cl48  1  0.10326731  0.67033863  0.06687819  1
  Cl  Cl49  1  0.89673269  0.32966137  0.93312181  1
  Cl  Cl50  1  0.89673269  0.17033863  0.43312181  1
  Cl  Cl51  1  0.10326731  0.82966137  0.56687819  1
  Cl  Cl52  1  0.41260897  0.34314815  0.28957354  1
  Cl  Cl53  1  0.58739103  0.65685185  0.71042646  1
  Cl  Cl54  1  0.58739103  0.84314815  0.21042646  1
  Cl  Cl55  1  0.41260897  0.15685185  0.78957354  1
  Cl  Cl56  1  0.20998474  0.34354743  0.01916385  1
  Cl  Cl57  1  0.79001526  0.65645257  0.98083615  1
  Cl  Cl58  1  0.79001526  0.84354743  0.48083615  1
  Cl  Cl59  1  0.20998474  0.15645257  0.51916385  1
