# generated using pymatgen
data_Li2V2P4H6O17
_symmetry_space_group_name_H-M   'P 1'
_cell_length_a   9.13330180
_cell_length_b   9.33429869
_cell_length_c   8.92788211
_cell_angle_alpha   90.09197817
_cell_angle_beta   100.06185183
_cell_angle_gamma   61.86405508
_symmetry_Int_Tables_number   1
_chemical_formula_structural   Li2V2P4H6O17
_chemical_formula_sum   'Li4 V4 P8 H12 O34'
_cell_volume   657.99727576
_cell_formula_units_Z   2
loop_
 _symmetry_equiv_pos_site_id
 _symmetry_equiv_pos_as_xyz
  1  'x, y, z'
loop_
 _atom_site_type_symbol
 _atom_site_label
 _atom_site_symmetry_multiplicity
 _atom_site_fract_x
 _atom_site_fract_y
 _atom_site_fract_z
 _atom_site_occupancy
  Li  Li0  1  0.89223581  0.20233511  0.24428780  1
  Li  Li1  1  0.48174579  0.73150910  0.68215803  1
  Li  Li2  1  0.51825421  0.26849090  0.31784197  1
  Li  Li3  1  0.10776419  0.79766489  0.75571220  1
  V  V4  1  0.75277036  0.71014866  0.13060753  1
  V  V5  1  0.73578957  0.21959468  0.62710826  1
  V  V6  1  0.26421043  0.78040532  0.37289174  1
  V  V7  1  0.24722964  0.28985134  0.86939247  1
  P  P8  1  0.85768780  0.91026030  0.41135095  1
  P  P9  1  0.83760544  0.41559780  0.89508712  1
  P  P10  1  0.69351546  0.54845465  0.42641009  1
  P  P11  1  0.34874217  0.99215487  0.14102561  1
  P  P12  1  0.65125783  0.00784513  0.85897439  1
  P  P13  1  0.30648454  0.45154535  0.57358991  1
  P  P14  1  0.16239456  0.58440220  0.10491288  1
  P  P15  1  0.14231220  0.08973970  0.58864905  1
  H  H16  1  0.94917583  0.79802210  0.97317345  1
  H  H17  1  0.88877791  0.71496072  0.56770438  1
  H  H18  1  0.88700278  0.49635831  0.65050425  1
  H  H19  1  0.44099806  0.01532957  0.70337431  1
  H  H20  1  0.60211723  0.39539266  0.11693316  1
  H  H21  1  0.59504880  0.23919611  0.05640842  1
  H  H22  1  0.40495120  0.76080389  0.94359158  1
  H  H23  1  0.39788277  0.60460734  0.88306684  1
  H  H24  1  0.55900194  0.98467043  0.29662569  1
  H  H25  1  0.11299722  0.50364169  0.34949575  1
  H  H26  1  0.11122209  0.28503928  0.43229562  1
  H  H27  1  0.05082417  0.20197790  0.02682655  1
  O  O28  1  0.00122396  0.90824737  0.34438640  1
  O  O29  1  0.93677094  0.79247451  0.56726030  1
  O  O30  1  0.75002032  0.84856800  0.30625093  1
  O  O31  1  0.98098496  0.40913640  0.81941900  1
  O  O32  1  0.92456622  0.27472229  0.03274026  1
  O  O33  1  0.76980031  0.87246697  0.98985275  1
  O  O34  1  0.82279557  0.57581332  0.55501567  1
  O  O35  1  0.74933170  0.54740698  0.27320632  1
  O  O36  1  0.56319481  0.92889181  0.74154356  1
  O  O37  1  0.48732912  0.84442480  0.08165783  1
  O  O38  1  0.73710886  0.58031672  0.95716256  1
  O  O39  1  0.70895377  0.38057622  0.45969890  1
  O  O40  1  0.52023604  0.69253771  0.43470943  1
  O  O41  1  0.70892794  0.38971436  0.77855466  1
  O  O42  1  0.63796852  0.28156116  0.14770510  1
  O  O43  1  0.73350629  0.08217954  0.44494561  1
  O  O44  1  0.76649457  0.04921803  0.78347193  1
  O  O45  1  0.23350543  0.95078197  0.21652807  1
  O  O46  1  0.26649371  0.91782046  0.55505439  1
  O  O47  1  0.36203148  0.71843884  0.85229490  1
  O  O48  1  0.29107206  0.61028564  0.22144534  1
  O  O49  1  0.47976396  0.30746229  0.56529057  1
  O  O50  1  0.29104623  0.61942378  0.54030110  1
  O  O51  1  0.26289114  0.41968328  0.04283744  1
  O  O52  1  0.51267088  0.15557520  0.91834217  1
  O  O53  1  0.43680519  0.07110819  0.25845644  1
  O  O54  1  0.25066830  0.45259302  0.72679368  1
  O  O55  1  0.17720443  0.42418668  0.44498433  1
  O  O56  1  0.23019969  0.12753303  0.01014725  1
  O  O57  1  0.07543378  0.72527771  0.96725974  1
  O  O58  1  0.01901504  0.59086360  0.18058100  1
  O  O59  1  0.24997968  0.15143200  0.69374907  1
  O  O60  1  0.06322906  0.20752549  0.43273970  1
  O  O61  1  0.99877604  0.09175263  0.65561360  1
