# generated using pymatgen
data_Li7Fe4(P2O7)4
_symmetry_space_group_name_H-M   'P 1'
_cell_length_a   9.87953505
_cell_length_b   9.87131553
_cell_length_c   11.20991972
_cell_angle_alpha   90.02370905
_cell_angle_beta   102.27338168
_cell_angle_gamma   89.78202376
_symmetry_Int_Tables_number   1
_chemical_formula_structural   Li7Fe4(P2O7)4
_chemical_formula_sum   'Li14 Fe8 P16 O56'
_cell_volume   1068.24195056
_cell_formula_units_Z   2
loop_
 _symmetry_equiv_pos_site_id
 _symmetry_equiv_pos_as_xyz
  1  'x, y, z'
loop_
 _atom_site_type_symbol
 _atom_site_label
 _atom_site_symmetry_multiplicity
 _atom_site_fract_x
 _atom_site_fract_y
 _atom_site_fract_z
 _atom_site_occupancy
  Li  Li0  1  0.11382836  0.71383404  0.45104864  1
  Li  Li1  1  0.08510864  0.10622373  0.02963208  1
  Li  Li2  1  0.34760709  0.90611989  0.95492754  1
  Li  Li3  1  0.14762770  0.41134197  0.04079851  1
  Li  Li4  1  0.41319296  0.60938575  0.97105113  1
  Li  Li5  1  0.32778648  0.92194539  0.45359385  1
  Li  Li6  1  0.38103343  0.22195873  0.55236271  1
  Li  Li7  1  0.61287703  0.78099190  0.45006705  1
  Li  Li8  1  0.67160670  0.07915902  0.54781688  1
  Li  Li9  1  0.58774534  0.39512065  0.02867792  1
  Li  Li10  1  0.65542069  0.09471581  0.04208211  1
  Li  Li11  1  0.91396314  0.88996230  0.97255357  1
  Li  Li12  1  0.83809569  0.57217697  0.46326491  1
  Li  Li13  1  0.89745634  0.27949488  0.55325639  1
  Fe  Fe14  1  0.20128398  0.92273952  0.67702034  1
  Fe  Fe15  1  0.24861544  0.21645111  0.82028509  1
  Fe  Fe16  1  0.24254256  0.71317466  0.17679398  1
  Fe  Fe17  1  0.29420156  0.42660161  0.33175610  1
  Fe  Fe18  1  0.70590149  0.57770984  0.68445162  1
  Fe  Fe19  1  0.75732321  0.29086908  0.82470097  1
  Fe  Fe20  1  0.74530793  0.78168954  0.17089898  1
  Fe  Fe21  1  0.80122182  0.07400310  0.32486689  1
  P  P22  1  0.02372988  0.45521307  0.75435993  1
  P  P23  1  0.11875315  0.70586011  0.88913863  1
  P  P24  1  0.05899345  0.92855398  0.24377304  1
  P  P25  1  0.12499936  0.15276953  0.42282523  1
  P  P26  1  0.37980342  0.64566186  0.57119947  1
  P  P27  1  0.44170981  0.43069594  0.75695384  1
  P  P28  1  0.52347217  0.05089808  0.75987551  1
  P  P29  1  0.37953364  0.20663157  0.11415406  1
  P  P30  1  0.61989658  0.79674302  0.88420864  1
  P  P31  1  0.47464693  0.94996561  0.23831574  1
  P  P32  1  0.55836512  0.56844337  0.24512119  1
  P  P33  1  0.62165097  0.35268260  0.42733036  1
  P  P34  1  0.87682826  0.84785046  0.57714729  1
  P  P35  1  0.93916100  0.06968302  0.75794626  1
  P  P36  1  0.87967798  0.29381901  0.11042133  1
  P  P37  1  0.97410029  0.54756623  0.24279160  1
  O  O38  1  0.02277357  0.41504725  0.62512951  1
  O  O39  1  0.02313673  0.83453533  0.55580018  1
  O  O40  1  0.08407598  0.08877292  0.73000765  1
  O  O41  1  0.09517212  0.60178174  0.77371773  1
  O  O42  1  0.10874362  0.36368518  0.85497606  1
  O  O43  1  0.19040320  0.82661345  0.84072491  1
  O  O44  1  0.22347823  0.63531042  0.99639956  1
  O  O45  1  0.01960839  0.27434273  0.07941103  1
  O  O46  1  0.11609337  0.07535844  0.29438503  1
  O  O47  1  0.06487673  0.93190676  0.11024605  1
  O  O48  1  0.12638618  0.52816480  0.22049830  1
  O  O49  1  0.19557727  0.28737344  0.40425332  1
  O  O50  1  0.16502660  0.82330653  0.31240725  1
  O  O51  1  0.22395968  0.06800508  0.51950386  1
  O  O52  1  0.28890612  0.56464838  0.46760350  1
  O  O53  1  0.34927195  0.31526555  0.69649986  1
  O  O54  1  0.31284572  0.78464069  0.57819985  1
  O  O55  1  0.37683798  0.03649233  0.78951109  1
  O  O56  1  0.37718491  0.57238603  0.69846913  1
  O  O57  1  0.44169198  0.44118470  0.89101203  1
  O  O58  1  0.48340251  0.77257346  0.92040591  1
  O  O59  1  0.27431077  0.14195186  0.00665482  1
  O  O60  1  0.31567273  0.33019245  0.16781384  1
  O  O61  1  0.40581965  0.09970382  0.22669463  1
  O  O62  1  0.40919217  0.58009550  0.26988901  1
  O  O63  1  0.38211560  0.86133862  0.14167137  1
  O  O64  1  0.46974863  0.34554308  0.44037504  1
  O  O65  1  0.52059027  0.08939957  0.62795151  1
  O  O66  1  0.47691292  0.91184752  0.37009368  1
  O  O67  1  0.53385381  0.65535287  0.56419203  1
  O  O68  1  0.61627315  0.13886331  0.85623396  1
  O  O69  1  0.58967856  0.42079705  0.72818227  1
  O  O70  1  0.59296953  0.90173744  0.77052887  1
  O  O71  1  0.67947708  0.67421315  0.82795907  1
  O  O72  1  0.72407947  0.86381773  0.99061284  1
  O  O73  1  0.51743890  0.22950706  0.08011410  1
  O  O74  1  0.56164310  0.56739845  0.11137088  1
  O  O75  1  0.61728886  0.42140583  0.29600942  1
  O  O76  1  0.62238721  0.96002292  0.20987191  1
  O  O77  1  0.68685853  0.21312926  0.42165382  1
  O  O78  1  0.65822587  0.67448120  0.31563594  1
  O  O79  1  0.71643868  0.44154732  0.52285178  1
  O  O80  1  0.77537820  0.93214449  0.48200683  1
  O  O81  1  0.83302138  0.17408451  0.68835525  1
  O  O82  1  0.80966227  0.70790425  0.59011040  1
  O  O83  1  0.87077613  0.46916005  0.77565128  1
  O  O84  1  0.93564272  0.06635663  0.89163383  1
  O  O85  1  0.88427387  0.92166514  0.70633938  1
  O  O86  1  0.98187566  0.73265372  0.91982609  1
  O  O87  1  0.77201387  0.35235190  0.00161935  1
  O  O88  1  0.81777296  0.16960072  0.16156844  1
  O  O89  1  0.89196508  0.64498658  0.14999062  1
  O  O90  1  0.89968939  0.40170743  0.22240777  1
  O  O91  1  0.91425216  0.90975065  0.27122677  1
  O  O92  1  0.97787309  0.16665969  0.44239409  1
  O  O93  1  0.97716432  0.58329602  0.37454991  1
