# generated using pymatgen
data_Li6Mn3V(PO4)6
_symmetry_space_group_name_H-M   'P 1'
_cell_length_a   8.60455782
_cell_length_b   12.36639736
_cell_length_c   8.71745877
_cell_angle_alpha   90.59217313
_cell_angle_beta   89.34976571
_cell_angle_gamma   91.84581541
_symmetry_Int_Tables_number   1
_chemical_formula_structural   Li6Mn3V(PO4)6
_chemical_formula_sum   'Li12 Mn6 V2 P12 O48'
_cell_volume   927.01481796
_cell_formula_units_Z   2
loop_
 _symmetry_equiv_pos_site_id
 _symmetry_equiv_pos_as_xyz
  1  'x, y, z'
loop_
 _atom_site_type_symbol
 _atom_site_label
 _atom_site_symmetry_multiplicity
 _atom_site_fract_x
 _atom_site_fract_y
 _atom_site_fract_z
 _atom_site_occupancy
  Li  Li0  1  0.07722453  0.69714352  0.08863017  1
  Li  Li1  1  0.07379627  0.76128371  0.69246472  1
  Li  Li2  1  0.21136657  0.17416608  0.77790784  1
  Li  Li3  1  0.28908609  0.32521671  0.28173915  1
  Li  Li4  1  0.41710063  0.74191239  0.19803590  1
  Li  Li5  1  0.41820519  0.80474218  0.58457411  1
  Li  Li6  1  0.58314654  0.19553058  0.41508694  1
  Li  Li7  1  0.58151059  0.26151816  0.80418541  1
  Li  Li8  1  0.70668404  0.67347211  0.71674170  1
  Li  Li9  1  0.79342499  0.82857648  0.21821162  1
  Li  Li10  1  0.92170203  0.23740802  0.30527342  1
  Li  Li11  1  0.92036030  0.30102660  0.91790711  1
  Mn  Mn12  1  0.24731191  0.60111047  0.53807099  1
  Mn  Mn13  1  0.24922766  0.10876014  0.45685438  1
  Mn  Mn14  1  0.25183559  0.39014741  0.95919696  1
  Mn  Mn15  1  0.75312767  0.89181296  0.53987666  1
  Mn  Mn16  1  0.74875921  0.10259710  0.96282904  1
  Mn  Mn17  1  0.75038163  0.39857543  0.46308955  1
  V  V18  1  0.25205546  0.89340932  0.03014508  1
  V  V19  1  0.74663241  0.61096344  0.04260218  1
  P  P20  1  0.03759882  0.49628488  0.25576834  1
  P  P21  1  0.10341229  0.86052289  0.38617106  1
  P  P22  1  0.10252382  0.15271580  0.09673007  1
  P  P23  1  0.39965100  0.34413711  0.59663366  1
  P  P24  1  0.39395276  0.64388758  0.88410152  1
  P  P25  1  0.46666784  0.00605408  0.75036768  1
  P  P26  1  0.53884932  0.99552017  0.24557903  1
  P  P27  1  0.60287364  0.35727699  0.11650417  1
  P  P28  1  0.60000437  0.65506892  0.40027878  1
  P  P29  1  0.89651736  0.84441970  0.89971087  1
  P  P30  1  0.89904218  0.13882371  0.61523867  1
  P  P31  1  0.96071762  0.50381365  0.75210253  1
  O  O32  1  0.04712465  0.43174308  0.86563405  1
  O  O33  1  0.07825324  0.85090008  0.88943444  1
  O  O34  1  0.06955542  0.59524172  0.68436002  1
  O  O35  1  0.07665657  0.16461927  0.59173878  1
  O  O36  1  0.09985366  0.57848021  0.37682335  1
  O  O37  1  0.14119693  0.82189383  0.21830390  1
  O  O38  1  0.13445600  0.98357665  0.39517238  1
  O  O39  1  0.14316942  0.24317124  0.97379680  1
  O  O40  1  0.14973568  0.19449676  0.25749213  1
  O  O41  1  0.17091687  0.43612259  0.17935832  1
  O  O42  1  0.17546817  0.04854775  0.04446016  1
  O  O43  1  0.19579916  0.79984810  0.50725956  1
  O  O44  1  0.30133253  0.71352293  0.00205794  1
  O  O45  1  0.32794221  0.44666444  0.54269504  1
  O  O46  1  0.33337930  0.06428229  0.67585768  1
  O  O47  1  0.35064584  0.30599804  0.75880882  1
  O  O48  1  0.35707048  0.52239572  0.90501664  1
  O  O49  1  0.35828033  0.67659369  0.71432124  1
  O  O50  1  0.36039852  0.25285332  0.47421903  1
  O  O51  1  0.40220593  0.92413144  0.86830162  1
  O  O52  1  0.42961735  0.90483321  0.17838208  1
  O  O53  1  0.41772554  0.65021876  0.39064317  1
  O  O54  1  0.42592189  0.33309634  0.09544578  1
  O  O55  1  0.45089253  0.06591033  0.36572626  1
  O  O56  1  0.55383209  0.93537061  0.63068406  1
  O  O57  1  0.57023952  0.66609203  0.90627312  1
  O  O58  1  0.58246544  0.34923201  0.60452451  1
  O  O59  1  0.57555269  0.09674225  0.81969856  1
  O  O60  1  0.59863912  0.07902207  0.12631535  1
  O  O61  1  0.63823756  0.74838760  0.51924870  1
  O  O62  1  0.64109397  0.32228018  0.28507637  1
  O  O63  1  0.64007937  0.47864832  0.10008304  1
  O  O64  1  0.65351935  0.69087065  0.23667039  1
  O  O65  1  0.67481935  0.93961422  0.31976037  1
  O  O66  1  0.67155637  0.55366884  0.45806615  1
  O  O67  1  0.69707295  0.29383275  0.99549059  1
  O  O68  1  0.80548476  0.19931574  0.49506345  1
  O  O69  1  0.82199934  0.94653289  0.95529367  1
  O  O70  1  0.82771613  0.56385394  0.83437125  1
  O  O71  1  0.84607878  0.80197278  0.74011271  1
  O  O72  1  0.86174915  0.75487397  0.02430591  1
  O  O73  1  0.86850232  0.01556975  0.60732729  1
  O  O74  1  0.86223413  0.17711976  0.78416583  1
  O  O75  1  0.89264804  0.42507077  0.63131998  1
  O  O76  1  0.92537639  0.83523673  0.40869921  1
  O  O77  1  0.92797118  0.40487568  0.32423134  1
  O  O78  1  0.91960018  0.14827494  0.10435684  1
  O  O79  1  0.95118125  0.56650045  0.14094380  1
