# generated using pymatgen
data_Li6MnV3(PO4)6
_symmetry_space_group_name_H-M   'P 1'
_cell_length_a   8.71208077
_cell_length_b   8.71532377
_cell_length_c   12.35921923
_cell_angle_alpha   90.00000000
_cell_angle_beta   90.99151083
_cell_angle_gamma   90.00000000
_symmetry_Int_Tables_number   1
_chemical_formula_structural   Li6MnV3(PO4)6
_chemical_formula_sum   'Li12 Mn2 V6 P12 O48'
_cell_volume   938.27776113
_cell_formula_units_Z   2
loop_
 _symmetry_equiv_pos_site_id
 _symmetry_equiv_pos_as_xyz
  1  'x, y, z'
loop_
 _atom_site_type_symbol
 _atom_site_label
 _atom_site_symmetry_multiplicity
 _atom_site_fract_x
 _atom_site_fract_y
 _atom_site_fract_z
 _atom_site_occupancy
  Li  Li0  1  0.07646837  0.09737083  0.69735386  1
  Li  Li1  1  0.08250489  0.70426294  0.75844220  1
  Li  Li2  1  0.21119984  0.77288062  0.17871454  1
  Li  Li3  1  0.28880016  0.27288062  0.32128546  1
  Li  Li4  1  0.41749511  0.20426294  0.74155780  1
  Li  Li5  1  0.42353163  0.59737083  0.80264614  1
  Li  Li6  1  0.57977274  0.40374690  0.19792930  1
  Li  Li7  1  0.58596657  0.79636161  0.25903233  1
  Li  Li8  1  0.71094577  0.72626179  0.67865141  1
  Li  Li9  1  0.78905423  0.22626179  0.82134859  1
  Li  Li10  1  0.91403343  0.29636161  0.24096767  1
  Li  Li11  1  0.92022726  0.90374690  0.30207070  1
  Mn  Mn12  1  0.74542710  0.96613901  0.10610701  1
  Mn  Mn13  1  0.75457290  0.46613901  0.39389299  1
  V  V14  1  0.24691310  0.53119460  0.60974331  1
  V  V15  1  0.24674783  0.45770119  0.11135232  1
  V  V16  1  0.25308690  0.03119460  0.89025669  1
  V  V17  1  0.25325217  0.95770119  0.38864768  1
  V  V18  1  0.74613236  0.04179239  0.61127363  1
  V  V19  1  0.75386764  0.54179239  0.88872637  1
  P  P20  1  0.03908514  0.24778991  0.49358016  1
  P  P21  1  0.10557157  0.38825936  0.85363927  1
  P  P22  1  0.10451205  0.09788480  0.14845580  1
  P  P23  1  0.39442843  0.88825936  0.64636073  1
  P  P24  1  0.39548795  0.59788480  0.35154420  1
  P  P25  1  0.46091486  0.74778991  0.00641984  1
  P  P26  1  0.54003700  0.25139015  0.99413938  1
  P  P27  1  0.60501179  0.40150709  0.65106647  1
  P  P28  1  0.60562963  0.11180793  0.35599569  1
  P  P29  1  0.89498821  0.90150709  0.84893353  1
  P  P30  1  0.89437037  0.61180793  0.14400431  1
  P  P31  1  0.95996300  0.75139115  0.50586062  1
  O  O32  1  0.04963396  0.86517676  0.43441633  1
  O  O33  1  0.06308769  0.67297688  0.59325768  1
  O  O34  1  0.06980950  0.59516760  0.16460822  1
  O  O35  1  0.07408138  0.89437086  0.84637039  1
  O  O36  1  0.11560429  0.35803533  0.57546081  1
  O  O37  1  0.14868615  0.41430380  0.97244068  1
  O  O38  1  0.15000725  0.22120209  0.81924431  1
  O  O39  1  0.15061745  0.97554704  0.23687928  1
  O  O40  1  0.15809972  0.26006434  0.18634197  1
  O  O41  1  0.16651557  0.16609670  0.42999522  1
  O  O42  1  0.17037937  0.05043321  0.04103734  1
  O  O43  1  0.19326612  0.50819373  0.78310108  1
  O  O44  1  0.30673388  0.00819373  0.71689892  1
  O  O45  1  0.32962063  0.55043321  0.45896266  1
  O  O46  1  0.33348443  0.66609670  0.07000478  1
  O  O47  1  0.34190028  0.76006434  0.31365803  1
  O  O48  1  0.34999275  0.72120209  0.68075569  1
  O  O49  1  0.34938255  0.47554704  0.26312072  1
  O  O50  1  0.35131385  0.91430380  0.52755932  1
  O  O51  1  0.38439571  0.85803533  0.92453919  1
  O  O52  1  0.42591862  0.39437086  0.65362961  1
  O  O53  1  0.43019050  0.09516760  0.33539178  1
  O  O54  1  0.43691231  0.17297688  0.90674232  1
  O  O55  1  0.45036604  0.36517676  0.06558367  1
  O  O56  1  0.55039264  0.63517674  0.93508957  1
  O  O57  1  0.56298042  0.82712284  0.09487124  1
  O  O58  1  0.56896359  0.90490808  0.66642987  1
  O  O59  1  0.57487692  0.60596889  0.34845551  1
  O  O60  1  0.61312987  0.14131766  0.07843875  1
  O  O61  1  0.64510893  0.09036974  0.47592450  1
  O  O62  1  0.64869737  0.52413977  0.73976654  1
  O  O63  1  0.65032156  0.27941313  0.32014202  1
  O  O64  1  0.65685338  0.23865746  0.68869401  1
  O  O65  1  0.66742878  0.33381364  0.93060135  1
  O  O66  1  0.67043850  0.45055830  0.54514590  1
  O  O67  1  0.69386296  0.99063230  0.28973150  1
  O  O68  1  0.80613704  0.49063230  0.21026850  1
  O  O69  1  0.82956150  0.95055830  0.95485410  1
  O  O70  1  0.83257122  0.83381364  0.56939865  1
  O  O71  1  0.84314662  0.73865746  0.81130599  1
  O  O72  1  0.85130263  0.02413977  0.76023346  1
  O  O73  1  0.84967844  0.77941313  0.17985798  1
  O  O74  1  0.85489107  0.59036974  0.02407550  1
  O  O75  1  0.88687013  0.64131766  0.42156125  1
  O  O76  1  0.92512308  0.10596889  0.15154449  1
  O  O77  1  0.93103641  0.40490808  0.83357013  1
  O  O78  1  0.93701958  0.32712284  0.40512876  1
  O  O79  1  0.94960736  0.13517674  0.56491043  1
