# generated using pymatgen
data_Li2MnVP2(O4F)2
_symmetry_space_group_name_H-M   'P 1'
_cell_length_a   5.23497708
_cell_length_b   14.94234704
_cell_length_c   7.49181050
_cell_angle_alpha   94.48574737
_cell_angle_beta   70.44148680
_cell_angle_gamma   87.99159915
_symmetry_Int_Tables_number   1
_chemical_formula_structural   Li2MnVP2(O4F)2
_chemical_formula_sum   'Li6 Mn3 V3 P6 O24 F6'
_cell_volume   549.35468064
_cell_formula_units_Z   3
loop_
 _symmetry_equiv_pos_site_id
 _symmetry_equiv_pos_as_xyz
  1  'x, y, z'
loop_
 _atom_site_type_symbol
 _atom_site_label
 _atom_site_symmetry_multiplicity
 _atom_site_fract_x
 _atom_site_fract_y
 _atom_site_fract_z
 _atom_site_occupancy
  Li  Li0  1  0.06352176  0.20543161  0.01807472  1
  Li  Li1  1  0.26906661  0.46145047  0.64952493  1
  Li  Li2  1  0.60271762  0.12786021  0.31858625  1
  Li  Li3  1  0.39728238  0.87213979  0.68141375  1
  Li  Li4  1  0.73093339  0.53854953  0.35047507  1
  Li  Li5  1  0.93647824  0.79456839  0.98192528  1
  Mn  Mn6  1  -0.00000000  0.00000000  0.00000000  1
  Mn  Mn7  1  0.33319365  0.66664175  0.16638017  1
  Mn  Mn8  1  0.66680635  0.33335825  0.83361983  1
  V  V9  1  -0.00000000  0.00000000  0.50000000  1
  V  V10  1  0.33315121  0.66655219  0.66662465  1
  V  V11  1  0.66684879  0.33344781  0.33337535  1
  P  P12  1  0.10569693  0.21361626  0.45174236  1
  P  P13  1  0.23001967  0.45386681  0.21417470  1
  P  P14  1  0.44217684  0.88071588  0.11762353  1
  P  P15  1  0.55782316  0.11928412  0.88237647  1
  P  P16  1  0.76998033  0.54613319  0.78582530  1
  P  P17  1  0.89430307  0.78638374  0.54825664  1
  O  O18  1  0.01381486  0.73697298  0.34661411  1
  O  O19  1  0.14077636  0.55448853  0.20982145  1
  O  O20  1  0.24161050  0.88880211  0.00183862  1
  O  O21  1  0.34764640  0.40411265  0.01315850  1
  O  O22  1  0.19370133  0.11408196  0.45908654  1
  O  O23  1  0.04586875  0.58278377  0.67267607  1
  O  O24  1  0.09356995  0.77971895  0.66270423  1
  O  O25  1  0.38089767  0.25063684  0.33735250  1
  O  O26  1  0.32565470  0.92898669  0.31646755  1
  O  O27  1  0.42796775  0.44709984  0.32908136  1
  O  O28  1  0.52698649  0.77968801  0.11984200  1
  O  O29  1  0.27993111  0.08288157  0.99896279  1
  O  O30  1  0.72006889  0.91711843  0.00103721  1
  O  O31  1  0.47301351  0.22031199  0.88015800  1
  O  O32  1  0.57203225  0.55290016  0.67091864  1
  O  O33  1  0.67434530  0.07101331  0.68353245  1
  O  O34  1  0.61910233  0.74936316  0.66264750  1
  O  O35  1  0.90643005  0.22028105  0.33729577  1
  O  O36  1  0.95413125  0.41721623  0.32732393  1
  O  O37  1  0.80629867  0.88591804  0.54091346  1
  O  O38  1  0.65235360  0.59588735  0.98684150  1
  O  O39  1  0.75838950  0.11119789  0.99816138  1
  O  O40  1  0.85922364  0.44551147  0.79017855  1
  O  O41  1  0.98618514  0.26302702  0.65338589  1
  F  F42  1  0.16073638  0.97470137  0.70353196  1
  F  F43  1  0.17419106  0.69206716  0.94597261  1
  F  F44  1  0.49191430  0.64150535  0.38749168  1
  F  F45  1  0.50808570  0.35849465  0.61250832  1
  F  F46  1  0.82580894  0.30793284  0.05402739  1
  F  F47  1  0.83926362  0.02529863  0.29646804  1
