# generated using pymatgen
data_RbNi2F6
_symmetry_space_group_name_H-M   'P 1'
_cell_length_a   7.11907010
_cell_length_b   7.16419452
_cell_length_c   7.16419446
_cell_angle_alpha   62.52653120
_cell_angle_beta   60.20814100
_cell_angle_gamma   60.20813726
_symmetry_Int_Tables_number   1
_chemical_formula_structural   RbNi2F6
_chemical_formula_sum   'Rb2 Ni4 F12'
_cell_volume   263.79581590
_cell_formula_units_Z   2
loop_
 _symmetry_equiv_pos_site_id
 _symmetry_equiv_pos_as_xyz
  1  'x, y, z'
loop_
 _atom_site_type_symbol
 _atom_site_label
 _atom_site_symmetry_multiplicity
 _atom_site_fract_x
 _atom_site_fract_y
 _atom_site_fract_z
 _atom_site_occupancy
  Rb  Rb0  1  0.63413865  0.11586135  0.61586135  1
  Rb  Rb1  1  0.36586135  0.88413865  0.38413865  1
  Ni  Ni2  1  0.50000000  0.50000000  -0.00000000  1
  Ni  Ni3  1  -0.00000000  0.50000000  -0.00000000  1
  Ni  Ni4  1  -0.00000000  0.50000000  0.50000000  1
  Ni  Ni5  1  -0.00000000  0.00000000  -0.00000000  1
  F  F6  1  0.31148161  0.82817602  0.92268188  1
  F  F7  1  0.66672021  0.58327979  0.08327979  1
  F  F8  1  0.68851839  0.17182398  0.07731812  1
  F  F9  1  0.33327979  0.41672021  0.91672021  1
  F  F10  1  0.68851839  0.57731812  0.67182398  1
  F  F11  1  0.92858999  0.82141001  0.32141001  1
  F  F12  1  0.07141001  0.17858999  0.67858999  1
  F  F13  1  0.93766048  0.82817602  0.92268188  1
  F  F14  1  0.06233952  0.57731812  0.67182398  1
  F  F15  1  0.93766048  0.42268188  0.32817602  1
  F  F16  1  0.31148161  0.42268188  0.32817602  1
  F  F17  1  0.06233952  0.17182398  0.07731812  1
