# generated using pymatgen
data_Fe10OF19
_symmetry_space_group_name_H-M   'P 1'
_cell_length_a   4.80959012
_cell_length_b   13.81570715
_cell_length_c   5.83016817
_cell_angle_alpha   99.79172299
_cell_angle_beta   89.81046306
_cell_angle_gamma   90.21154834
_symmetry_Int_Tables_number   1
_chemical_formula_structural   Fe10OF19
_chemical_formula_sum   'Fe10 O1 F19'
_cell_volume   381.75485755
_cell_formula_units_Z   1
loop_
 _symmetry_equiv_pos_site_id
 _symmetry_equiv_pos_as_xyz
  1  'x, y, z'
loop_
 _atom_site_type_symbol
 _atom_site_label
 _atom_site_symmetry_multiplicity
 _atom_site_fract_x
 _atom_site_fract_y
 _atom_site_fract_z
 _atom_site_occupancy
  Fe  Fe0  1  0.51562014  0.00335739  0.49053353  1
  Fe  Fe1  1  0.49563444  0.39768394  0.30082754  1
  Fe  Fe2  1  0.50346782  0.19903977  0.89618140  1
  Fe  Fe3  1  0.50101145  0.60052766  0.69947300  1
  Fe  Fe4  1  0.49820237  0.80081197  0.10234950  1
  Fe  Fe5  1  0.99874472  0.39822033  0.79815850  1
  Fe  Fe6  1  0.00468729  0.80480815  0.60274617  1
  Fe  Fe7  1  0.98774105  0.19231996  0.39697980  1
  Fe  Fe8  1  0.99875050  0.60000863  0.20104529  1
  Fe  Fe9  1  0.98539470  0.00410428  0.02314306  1
  O  O10  1  0.81029475  0.05406626  0.30020674  1
  F  F11  1  0.79924633  0.25923996  0.71859050  1
  F  F12  1  0.80497064  0.86789694  0.93141121  1
  F  F13  1  0.80153767  0.66296728  0.52354757  1
  F  F14  1  0.79632387  0.46059776  0.12121933  1
  F  F15  1  0.71261774  0.05806272  0.81897117  1
  F  F16  1  0.69895007  0.45969906  0.62040389  1
  F  F17  1  0.70305055  0.66293429  0.02035347  1
  F  F18  1  0.69157483  0.85767787  0.42778866  1
  F  F19  1  0.70192888  0.25998623  0.21481199  1
  F  F20  1  0.29779773  0.33851127  0.97742835  1
  F  F21  1  0.30318831  0.74346274  0.77952262  1
  F  F22  1  0.30541043  0.14017308  0.57755111  1
  F  F23  1  0.29061564  0.93779854  0.17650282  1
  F  F24  1  0.29807812  0.53985842  0.38042358  1
  F  F25  1  0.20372631  0.13163641  0.06130429  1
  F  F26  1  0.19910591  0.94738499  0.70342691  1
  F  F27  1  0.19937038  0.54017849  0.87804798  1
  F  F28  1  0.19583951  0.33533097  0.47574509  1
  F  F29  1  0.19711786  0.74165664  0.28130894  1
