# generated using pymatgen
data_Nd2Al3Ge4
_symmetry_space_group_name_H-M   'P 1'
_cell_length_a   8.16197820
_cell_length_b   8.16197820
_cell_length_c   8.18593950
_cell_angle_alpha   90.00000000
_cell_angle_beta   90.00000000
_cell_angle_gamma   42.55557829
_symmetry_Int_Tables_number   1
_chemical_formula_structural   Nd2Al3Ge4
_chemical_formula_sum   'Nd4 Al6 Ge8'
_cell_volume   368.80944332
_cell_formula_units_Z   2
loop_
 _symmetry_equiv_pos_site_id
 _symmetry_equiv_pos_as_xyz
  1  'x, y, z'
loop_
 _atom_site_type_symbol
 _atom_site_label
 _atom_site_symmetry_multiplicity
 _atom_site_fract_x
 _atom_site_fract_y
 _atom_site_fract_z
 _atom_site_occupancy
  Nd  Nd0  1  0.38503218  0.38503218  0.92023354  1
  Nd  Nd1  1  0.61496782  0.61496782  0.07976646  1
  Nd  Nd2  1  0.11496782  0.11496782  0.42023354  1
  Nd  Nd3  1  0.88503218  0.88503218  0.57976646  1
  Al  Al4  1  0.50000000  0.50000000  0.50000000  1
  Al  Al5  1  0.00000000  0.00000000  -0.00000000  1
  Al  Al6  1  0.96798135  0.46798135  0.75000000  1
  Al  Al7  1  0.53201865  0.03201865  0.25000000  1
  Al  Al8  1  0.03201865  0.53201865  0.25000000  1
  Al  Al9  1  0.46798135  0.96798135  0.75000000  1
  Ge  Ge10  1  0.79873405  0.29873405  0.75000000  1
  Ge  Ge11  1  0.70126595  0.20126595  0.25000000  1
  Ge  Ge12  1  0.20126595  0.70126595  0.25000000  1
  Ge  Ge13  1  0.29873405  0.79873405  0.75000000  1
  Ge  Ge14  1  0.31492628  0.31492628  0.55221227  1
  Ge  Ge15  1  0.68507372  0.68507372  0.44778773  1
  Ge  Ge16  1  0.18507372  0.18507372  0.05221227  1
  Ge  Ge17  1  0.81492628  0.81492628  0.94778773  1
