# generated using pymatgen
data_VS2
_symmetry_space_group_name_H-M   'P 1'
_cell_length_a   3.19199384
_cell_length_b   22.16788665
_cell_length_c   3.19259984
_cell_angle_alpha   87.76015837
_cell_angle_beta   59.98748251
_cell_angle_gamma   88.29764812
_symmetry_Int_Tables_number   1
_chemical_formula_structural   VS2
_chemical_formula_sum   'V2 S4'
_cell_volume   195.45410354
_cell_formula_units_Z   2
loop_
 _symmetry_equiv_pos_site_id
 _symmetry_equiv_pos_as_xyz
  1  'x, y, z'
loop_
 _atom_site_type_symbol
 _atom_site_label
 _atom_site_symmetry_multiplicity
 _atom_site_fract_x
 _atom_site_fract_y
 _atom_site_fract_z
 _atom_site_occupancy
  V  V0  1  0.75000618  0.24999921  0.49999486  1
  V  V1  1  0.24999782  0.75000049  0.50000265  1
  S  S2  1  0.41044044  0.31641657  0.15169807  1
  S  S3  1  0.91043186  0.81640395  0.15171722  1
  S  S4  1  0.08956670  0.18358217  0.84829661  1
  S  S5  1  0.58955700  0.68359760  0.84828959  1
