# generated using pymatgen
data_La3AlO6
_symmetry_space_group_name_H-M   'P 1'
_cell_length_a   7.55731289
_cell_length_b   7.55731289
_cell_length_c   5.64469694
_cell_angle_alpha   90.00000000
_cell_angle_beta   90.00000000
_cell_angle_gamma   77.11080759
_symmetry_Int_Tables_number   1
_chemical_formula_structural   La3AlO6
_chemical_formula_sum   'La6 Al2 O12'
_cell_volume   314.26239946
_cell_formula_units_Z   2
loop_
 _symmetry_equiv_pos_site_id
 _symmetry_equiv_pos_as_xyz
  1  'x, y, z'
loop_
 _atom_site_type_symbol
 _atom_site_label
 _atom_site_symmetry_multiplicity
 _atom_site_fract_x
 _atom_site_fract_y
 _atom_site_fract_z
 _atom_site_occupancy
  La  La0  1  0.30092704  0.91486707  0.46780396  1
  La  La1  1  0.08513293  0.69907296  0.96780396  1
  La  La2  1  0.39503511  0.39503511  0.42881384  1
  La  La3  1  0.60496489  0.60496489  0.92881384  1
  La  La4  1  0.91486707  0.30092704  0.46780396  1
  La  La5  1  0.69907296  0.08513293  0.96780396  1
  Al  Al6  1  0.19466919  0.19466919  0.00910429  1
  Al  Al7  1  0.80533081  0.80533081  0.50910429  1
  O  O8  1  0.35323297  0.67315388  0.20084505  1
  O  O9  1  0.32684612  0.64676703  0.70084505  1
  O  O10  1  0.59249906  0.88591076  0.66121813  1
  O  O11  1  0.11408924  0.40750094  0.16121813  1
  O  O12  1  0.05264413  0.05264413  0.12159479  1
  O  O13  1  0.21291217  0.21291217  0.69470178  1
  O  O14  1  0.78708783  0.78708783  0.19470178  1
  O  O15  1  0.94735587  0.94735587  0.62159479  1
  O  O16  1  0.40750094  0.11408924  0.16121813  1
  O  O17  1  0.88591076  0.59249906  0.66121813  1
  O  O18  1  0.67315388  0.35323297  0.20084505  1
  O  O19  1  0.64676703  0.32684612  0.70084505  1
