# generated using pymatgen
data_BaNb6HO16
_symmetry_space_group_name_H-M   'P 1'
_cell_length_a   3.85895357
_cell_length_b   8.83731938
_cell_length_c   11.85095817
_cell_angle_alpha   111.89165042
_cell_angle_beta   99.37014805
_cell_angle_gamma   90.00000000
_symmetry_Int_Tables_number   1
_chemical_formula_structural   BaNb6HO16
_chemical_formula_sum   'Ba1 Nb6 H1 O16'
_cell_volume   369.18987045
_cell_formula_units_Z   1
loop_
 _symmetry_equiv_pos_site_id
 _symmetry_equiv_pos_as_xyz
  1  'x, y, z'
loop_
 _atom_site_type_symbol
 _atom_site_label
 _atom_site_symmetry_multiplicity
 _atom_site_fract_x
 _atom_site_fract_y
 _atom_site_fract_z
 _atom_site_occupancy
  Ba  Ba0  1  0.00000000  0.50000000  0.00000000  1
  Nb  Nb1  1  0.37111276  0.67748159  0.74222551  1
  Nb  Nb2  1  0.62888724  0.32251841  0.25777449  1
  Nb  Nb3  1  0.37111276  0.06474392  0.74222551  1
  Nb  Nb4  1  0.62888724  0.93525608  0.25777449  1
  Nb  Nb5  1  0.24033310  0.24033310  0.48066620  1
  Nb  Nb6  1  0.75966690  0.75966690  0.51933380  1
  H  H7  1  0.00000000  -0.00000000  0.00000000  1
  O  O8  1  0.29551721  0.45257566  0.59103442  1
  O  O9  1  0.70448279  0.54742434  0.40896558  1
  O  O10  1  0.29551721  0.13845877  0.59103442  1
  O  O11  1  0.70448279  0.86154123  0.40896558  1
  O  O12  1  0.58545148  0.08545148  0.17090297  1
  O  O13  1  0.41454852  0.91454852  0.82909703  1
  O  O14  1  0.43256994  0.60241722  0.86513988  1
  O  O15  1  0.56743006  0.39758278  0.13486012  1
  O  O16  1  0.43256994  0.26272266  0.86513988  1
  O  O17  1  0.56743006  0.73727734  0.13486012  1
  O  O18  1  0.15317906  0.31636618  0.30635811  1
  O  O19  1  0.84682094  0.68363382  0.69364189  1
  O  O20  1  0.15317906  0.98999193  0.30635811  1
  O  O21  1  0.84682094  0.01000807  0.69364189  1
  O  O22  1  0.71272667  0.21272667  0.42545334  1
  O  O23  1  0.28727333  0.78727333  0.57454666  1
