# generated using pymatgen
data_Ni(HO)2
_symmetry_space_group_name_H-M   'P 1'
_cell_length_a   3.15461173
_cell_length_b   3.17344228
_cell_length_c   4.61876026
_cell_angle_alpha   90.00000007
_cell_angle_beta   93.27861479
_cell_angle_gamma   120.19765377
_symmetry_Int_Tables_number   1
_chemical_formula_structural   Ni(HO)2
_chemical_formula_sum   'Ni1 H2 O2'
_cell_volume   39.87596870
_cell_formula_units_Z   1
loop_
 _symmetry_equiv_pos_site_id
 _symmetry_equiv_pos_as_xyz
  1  'x, y, z'
loop_
 _atom_site_type_symbol
 _atom_site_label
 _atom_site_symmetry_multiplicity
 _atom_site_fract_x
 _atom_site_fract_y
 _atom_site_fract_z
 _atom_site_occupancy
  Ni  Ni0  1  1.00000000  0.89743066  1.00000000  1
  H  H1  1  0.61509513  0.20031249  0.56801451  1
  H  H2  1  0.38490487  0.58521836  0.43198549  1
  O  O3  1  0.63866090  0.21409370  0.77881234  1
  O  O4  1  0.36133910  0.57543280  0.22118766  1
