# generated using pymatgen
data_Li2MnVP2(O4F)2
_symmetry_space_group_name_H-M   'P 1'
_cell_length_a   5.19811654
_cell_length_b   10.50719452
_cell_length_c   10.47878762
_cell_angle_alpha   78.26474940
_cell_angle_beta   80.56238320
_cell_angle_gamma   82.72835004
_symmetry_Int_Tables_number   1
_chemical_formula_structural   Li2MnVP2(O4F)2
_chemical_formula_sum   'Li6 Mn3 V3 P6 O24 F6'
_cell_volume   550.19804065
_cell_formula_units_Z   3
loop_
 _symmetry_equiv_pos_site_id
 _symmetry_equiv_pos_as_xyz
  1  'x, y, z'
loop_
 _atom_site_type_symbol
 _atom_site_label
 _atom_site_symmetry_multiplicity
 _atom_site_fract_x
 _atom_site_fract_y
 _atom_site_fract_z
 _atom_site_occupancy
  Li  Li0  1  0.00112515  0.26800765  0.08175910  1
  Li  Li1  1  0.33247684  0.39929101  0.58639846  1
  Li  Li2  1  0.66647195  0.06387264  0.25515378  1
  Li  Li3  1  0.33172177  0.93519353  0.74558914  1
  Li  Li4  1  0.66827481  0.60265208  0.41182553  1
  Li  Li5  1  0.99921461  0.73128939  0.91927092  1
  Mn  Mn6  1  0.00034646  0.99969974  0.99991455  1
  Mn  Mn7  1  0.49944186  0.50042227  0.00061694  1
  Mn  Mn8  1  0.33150476  0.66740974  0.66724924  1
  V  V9  1  0.16646197  0.83319907  0.33354626  1
  V  V10  1  0.66889425  0.33257778  0.33341035  1
  V  V11  1  0.83466563  0.16648893  0.66528173  1
  P  P12  1  0.18708743  0.13420496  0.37190787  1
  P  P13  1  0.15029836  0.53166614  0.29341410  1
  P  P14  1  0.52104935  0.80225847  0.03904104  1
  P  P15  1  0.48011035  0.19782107  0.96007647  1
  P  P16  1  0.85192066  0.47043463  0.70770954  1
  P  P17  1  0.81005843  0.86364547  0.62761303  1
  O  O18  1  0.25346355  0.11085767  0.02557575  1
  O  O19  1  0.02575539  0.66750356  0.32137230  1
  O  O20  1  0.11861686  0.13341624  0.51950853  1
  O  O21  1  0.21957285  0.53264622  0.14508766  1
  O  O22  1  0.07665180  0.55804981  0.64188461  1
  O  O23  1  0.05557444  0.81556758  0.70149778  1
  O  O24  1  0.40938656  0.22233094  0.30706286  1
  O  O25  1  0.39203765  0.48352820  0.36849533  1
  O  O26  1  0.31029958  0.99847133  0.34330887  1
  O  O27  1  0.45539028  0.80061769  0.18596538  1
  O  O28  1  0.36233257  0.33300984  0.99371330  1
  O  O29  1  0.72469292  0.14692935  0.03461760  1
  O  O30  1  0.27633625  0.85324695  0.96460201  1
  O  O31  1  0.63876968  0.66678356  0.00624203  1
  O  O32  1  0.54711781  0.20012950  0.81274873  1
  O  O33  1  0.69032465  0.99927385  0.65837407  1
  O  O34  1  0.60817158  0.51905577  0.63270799  1
  O  O35  1  0.58636931  0.77551837  0.69397486  1
  O  O36  1  0.94395127  0.18177701  0.29771510  1
  O  O37  1  0.92736972  0.44385743  0.35866021  1
  O  O38  1  0.78195273  0.46764988  0.85604204  1
  O  O39  1  0.87690104  0.86562973  0.48039866  1
  O  O40  1  0.97259591  0.33486030  0.67724447  1
  O  O41  1  0.74771185  0.88906811  0.97297951  1
  F  F42  1  0.07035364  0.06586001  0.79305478  1
  F  F43  1  0.25304317  0.60405725  0.86972575  1
  F  F44  1  0.40281594  0.73206256  0.45956921  1
  F  F45  1  0.60040691  0.27034262  0.53292934  1
  F  F46  1  0.74071934  0.39348412  0.13846440  1
  F  F47  1  0.93019307  0.93427694  0.20670084  1
