# generated using pymatgen
data_CoF3
_symmetry_space_group_name_H-M   'P 1'
_cell_length_a   5.06236258
_cell_length_b   4.99520061
_cell_length_c   7.01132952
_cell_angle_alpha   90.70740556
_cell_angle_beta   90.00000000
_cell_angle_gamma   120.44577261
_symmetry_Int_Tables_number   1
_chemical_formula_structural   CoF3
_chemical_formula_sum   'Co3 F9'
_cell_volume   152.83550853
_cell_formula_units_Z   3
loop_
 _symmetry_equiv_pos_site_id
 _symmetry_equiv_pos_as_xyz
  1  'x, y, z'
loop_
 _atom_site_type_symbol
 _atom_site_label
 _atom_site_symmetry_multiplicity
 _atom_site_fract_x
 _atom_site_fract_y
 _atom_site_fract_z
 _atom_site_occupancy
  Co  Co0  1  0.33840129  0.66984996  0.66148274  1
  Co  Co1  1  0.00468237  -0.00000000  0.00000000  1
  Co  Co2  1  0.66855033  0.33015004  0.33851726  1
  F  F3  1  0.92547774  0.65253185  0.17356638  1
  F  F4  1  0.00682999  0.38443869  0.49877774  1
  F  F5  1  0.31571214  0.25653300  0.17453653  1
  F  F6  1  0.72572685  0.05150498  0.17480156  1
  F  F7  1  0.27294589  0.34746815  0.82643362  1
  F  F8  1  0.38577907  -0.00000000  0.50000000  1
  F  F9  1  0.62239230  0.61556131  0.50122226  1
  F  F10  1  0.05918014  0.74346700  0.82546347  1
  F  F11  1  0.67422087  0.94849502  0.82519844  1
