# generated using pymatgen
data_BaSm2(CoO3)2
_symmetry_space_group_name_H-M   'P 1'
_cell_length_a   5.61099376
_cell_length_b   5.67742203
_cell_length_c   19.98211417
_cell_angle_alpha   90.00000000
_cell_angle_beta   90.00000000
_cell_angle_gamma   90.00000000
_symmetry_Int_Tables_number   1
_chemical_formula_structural   BaSm2(CoO3)2
_chemical_formula_sum   'Ba4 Sm8 Co8 O24'
_cell_volume   636.54982103
_cell_formula_units_Z   4
loop_
 _symmetry_equiv_pos_site_id
 _symmetry_equiv_pos_as_xyz
  1  'x, y, z'
loop_
 _atom_site_type_symbol
 _atom_site_label
 _atom_site_symmetry_multiplicity
 _atom_site_fract_x
 _atom_site_fract_y
 _atom_site_fract_z
 _atom_site_occupancy
  Ba  Ba0  1  0.22637661  0.73892561  -0.00000000  1
  Ba  Ba1  1  0.77362339  0.26107439  -0.00000000  1
  Ba  Ba2  1  0.27362339  0.23892561  0.50000000  1
  Ba  Ba3  1  0.72637661  0.76107439  0.50000000  1
  Sm  Sm4  1  0.24565926  0.26020176  0.31507070  1
  Sm  Sm5  1  0.75434074  0.73979824  0.68492930  1
  Sm  Sm6  1  0.75434074  0.73979824  0.31507070  1
  Sm  Sm7  1  0.25434074  0.76020176  0.18492930  1
  Sm  Sm8  1  0.24565926  0.26020176  0.68492930  1
  Sm  Sm9  1  0.74565926  0.23979824  0.81507070  1
  Sm  Sm10  1  0.74565926  0.23979824  0.18492930  1
  Sm  Sm11  1  0.25434074  0.76020176  0.81507070  1
  Co  Co12  1  0.24918584  0.25678693  0.10054104  1
  Co  Co13  1  0.75081416  0.74321307  0.89945896  1
  Co  Co14  1  0.75081416  0.74321307  0.10054104  1
  Co  Co15  1  0.25081416  0.75678693  0.39945896  1
  Co  Co16  1  0.24918584  0.25678693  0.89945896  1
  Co  Co17  1  0.74918584  0.24321307  0.60054104  1
  Co  Co18  1  0.74918584  0.24321307  0.39945896  1
  Co  Co19  1  0.25081416  0.75678693  0.60054104  1
  O  O20  1  -0.00000000  0.00000000  0.11002991  1
  O  O21  1  -0.00000000  -0.00000000  0.88997009  1
  O  O22  1  0.50000000  0.50000000  0.38997009  1
  O  O23  1  0.50000000  0.50000000  0.61002991  1
  O  O24  1  0.28782697  0.22489601  -0.00000000  1
  O  O25  1  0.71217303  0.77510399  -0.00000000  1
  O  O26  1  0.21217303  0.72489601  0.50000000  1
  O  O27  1  0.78782697  0.27510399  0.50000000  1
  O  O28  1  0.31552815  0.17328026  0.20806994  1
  O  O29  1  0.68447185  0.82671974  0.79193006  1
  O  O30  1  0.68447185  0.82671974  0.20806994  1
  O  O31  1  0.18447185  0.67328026  0.29193006  1
  O  O32  1  0.31552815  0.17328026  0.79193006  1
  O  O33  1  0.81552815  0.32671974  0.70806994  1
  O  O34  1  0.81552815  0.32671974  0.29193006  1
  O  O35  1  0.18447185  0.67328026  0.70806994  1
  O  O36  1  -0.00000000  -0.00000000  0.38465441  1
  O  O37  1  -0.00000000  -0.00000000  0.61534559  1
  O  O38  1  0.50000000  0.50000000  0.11534559  1
  O  O39  1  0.50000000  0.50000000  0.88465441  1
  O  O40  1  -0.00000000  0.50000000  0.12440404  1
  O  O41  1  -0.00000000  0.50000000  0.87559596  1
  O  O42  1  0.50000000  0.00000000  0.37559596  1
  O  O43  1  0.50000000  -0.00000000  0.62440404  1
