# generated using pymatgen
data_AsC3S3NF10
_symmetry_space_group_name_H-M   'P 1'
_cell_length_a   8.16766040
_cell_length_b   10.75915470
_cell_length_c   13.14030381
_cell_angle_alpha   98.99832409
_cell_angle_beta   90.00000000
_cell_angle_gamma   90.00000000
_symmetry_Int_Tables_number   1
_chemical_formula_structural   AsC3S3NF10
_chemical_formula_sum   'As4 C12 S12 N4 F40'
_cell_volume   1140.52069370
_cell_formula_units_Z   4
loop_
 _symmetry_equiv_pos_site_id
 _symmetry_equiv_pos_as_xyz
  1  'x, y, z'
loop_
 _atom_site_type_symbol
 _atom_site_label
 _atom_site_symmetry_multiplicity
 _atom_site_fract_x
 _atom_site_fract_y
 _atom_site_fract_z
 _atom_site_occupancy
  As  As0  1  0.37538356  0.70448855  0.77281956  1
  As  As1  1  0.62461644  0.29551145  0.22718044  1
  As  As2  1  0.87538356  0.29551145  0.72718044  1
  As  As3  1  0.12461644  0.70448855  0.27281956  1
  C  C4  1  0.80772013  0.88109109  0.95997121  1
  C  C5  1  0.19227987  0.11890891  0.04002879  1
  C  C6  1  0.30772013  0.11890891  0.54002879  1
  C  C7  1  0.69227987  0.88109109  0.45997121  1
  C  C8  1  0.53712540  0.94093457  0.51990113  1
  C  C9  1  0.46287460  0.05906543  0.48009887  1
  C  C10  1  0.03712540  0.05906543  0.98009887  1
  C  C11  1  0.96287460  0.94093457  0.01990113  1
  C  C12  1  0.76017928  0.77023818  0.50760864  1
  C  C13  1  0.23982072  0.22976182  0.49239136  1
  C  C14  1  0.26017928  0.22976182  0.99239136  1
  C  C15  1  0.73982072  0.77023818  0.00760864  1
  S  S16  1  0.76861301  0.53984486  0.52800769  1
  S  S17  1  0.23138699  0.46015514  0.47199231  1
  S  S18  1  0.26861301  0.46015514  0.97199231  1
  S  S19  1  0.73138699  0.53984486  0.02800769  1
  S  S20  1  0.96014169  0.62408190  0.62433584  1
  S  S21  1  0.03985831  0.37591810  0.37566416  1
  S  S22  1  0.46014169  0.37591810  0.87566416  1
  S  S23  1  0.53985831  0.62408190  0.12433584  1
  S  S24  1  0.92445844  0.80204521  0.59284085  1
  S  S25  1  0.07554156  0.19795479  0.40715915  1
  S  S26  1  0.42445844  0.19795479  0.90715915  1
  S  S27  1  0.57554156  0.80204521  0.09284085  1
  N  N28  1  0.80118255  0.65915161  0.98314264  1
  N  N29  1  0.19881745  0.34084839  0.01685736  1
  N  N30  1  0.30118255  0.34084839  0.51685736  1
  N  N31  1  0.69881745  0.65915161  0.48314264  1
  F  F32  1  0.84792676  0.84017906  0.85994026  1
  F  F33  1  0.15207324  0.15982094  0.14005974  1
  F  F34  1  0.34792676  0.15982094  0.64005974  1
  F  F35  1  0.65207324  0.84017906  0.35994026  1
  F  F36  1  0.56424784  0.73421644  0.71539345  1
  F  F37  1  0.43575216  0.26578356  0.28460655  1
  F  F38  1  0.06424784  0.26578356  0.78460655  1
  F  F39  1  0.93575216  0.73421644  0.21539345  1
  F  F40  1  0.48162988  0.62120475  0.86306852  1
  F  F41  1  0.51837012  0.37879525  0.13693148  1
  F  F42  1  0.98162988  0.37879525  0.63693148  1
  F  F43  1  0.01837012  0.62120475  0.36306852  1
  F  F44  1  0.39672132  0.84488091  0.86079434  1
  F  F45  1  0.60327868  0.15511909  0.13920566  1
  F  F46  1  0.89672132  0.15511909  0.63920566  1
  F  F47  1  0.10327868  0.84488091  0.36079434  1
  F  F48  1  0.26486951  0.78340334  0.68571864  1
  F  F49  1  0.73513049  0.21659666  0.31428136  1
  F  F50  1  0.76486951  0.21659666  0.81428136  1
  F  F51  1  0.23513049  0.78340334  0.18571864  1
  F  F52  1  0.86146232  0.43896285  0.81403892  1
  F  F53  1  0.13853768  0.56103715  0.18596108  1
  F  F54  1  0.36146232  0.56103715  0.68596108  1
  F  F55  1  0.63853768  0.43896285  0.31403892  1
  F  F56  1  0.68951178  0.33056868  0.66822102  1
  F  F57  1  0.31048822  0.66943132  0.33177898  1
  F  F58  1  0.18951178  0.66943132  0.83177898  1
  F  F59  1  0.81048822  0.33056868  0.16822102  1
  F  F60  1  0.68682856  0.96979509  0.96441630  1
  F  F61  1  0.31317144  0.03020491  0.03558370  1
  F  F62  1  0.18682856  0.03020491  0.53558370  1
  F  F63  1  0.81317144  0.96979509  0.46441630  1
  F  F64  1  0.42128523  0.84949772  0.51324795  1
  F  F65  1  0.57871477  0.15050228  0.48675205  1
  F  F66  1  0.92128523  0.15050228  0.98675205  1
  F  F67  1  0.07871477  0.84949772  0.01324795  1
  F  F68  1  0.58340279  0.97537827  0.62038680  1
  F  F69  1  0.41659721  0.02462173  0.37961320  1
  F  F70  1  0.08340279  0.02462173  0.87961320  1
  F  F71  1  0.91659721  0.97537827  0.12038680  1
