# generated using pymatgen
data_BaFe3Si4SO11
_symmetry_space_group_name_H-M   'P 1'
_cell_length_a   5.34980722
_cell_length_b   9.30648299
_cell_length_c   20.02551972
_cell_angle_alpha   90.00000000
_cell_angle_beta   90.00000000
_cell_angle_gamma   90.00000000
_symmetry_Int_Tables_number   1
_chemical_formula_structural   BaFe3Si4SO11
_chemical_formula_sum   'Ba4 Fe12 Si16 S4 O44'
_cell_volume   997.02837086
_cell_formula_units_Z   4
loop_
 _symmetry_equiv_pos_site_id
 _symmetry_equiv_pos_as_xyz
  1  'x, y, z'
loop_
 _atom_site_type_symbol
 _atom_site_label
 _atom_site_symmetry_multiplicity
 _atom_site_fract_x
 _atom_site_fract_y
 _atom_site_fract_z
 _atom_site_occupancy
  Ba  Ba0  1  0.33200396  -0.00000000  0.75118913  1
  Ba  Ba1  1  0.66799604  0.00000000  0.24881087  1
  Ba  Ba2  1  0.16799604  0.50000000  0.25118913  1
  Ba  Ba3  1  0.83200396  0.50000000  0.74881087  1
  Fe  Fe4  1  0.00000000  0.66571457  0.50000000  1
  Fe  Fe5  1  0.00000000  0.33428543  0.50000000  1
  Fe  Fe6  1  0.50000000  0.83428543  -0.00000000  1
  Fe  Fe7  1  0.50000000  0.16571457  -0.00000000  1
  Fe  Fe8  1  0.00000000  0.64951438  -0.00000000  1
  Fe  Fe9  1  0.00000000  0.35048562  -0.00000000  1
  Fe  Fe10  1  0.50000000  0.85048562  0.50000000  1
  Fe  Fe11  1  0.50000000  0.14951438  0.50000000  1
  Fe  Fe12  1  0.00000000  0.00000000  0.50000000  1
  Fe  Fe13  1  0.50000000  0.50000000  0.00000000  1
  Fe  Fe14  1  0.00000000  -0.00000000  0.00000000  1
  Fe  Fe15  1  0.50000000  0.50000000  0.50000000  1
  Si  Si16  1  0.83222114  0.83342750  0.86167926  1
  Si  Si17  1  0.16777886  0.16657250  0.13832074  1
  Si  Si18  1  0.16777886  0.83342750  0.13832074  1
  Si  Si19  1  0.66777886  0.66657250  0.36167926  1
  Si  Si20  1  0.83222114  0.16657250  0.86167926  1
  Si  Si21  1  0.33222114  0.33342750  0.63832074  1
  Si  Si22  1  0.33222114  0.66657250  0.63832074  1
  Si  Si23  1  0.66777886  0.33342750  0.36167926  1
  Si  Si24  1  0.83175377  0.83212222  0.63912442  1
  Si  Si25  1  0.16824623  0.16787778  0.36087558  1
  Si  Si26  1  0.16824623  0.83212222  0.36087558  1
  Si  Si27  1  0.66824623  0.66787778  0.13912442  1
  Si  Si28  1  0.83175377  0.16787778  0.63912442  1
  Si  Si29  1  0.33175377  0.33212222  0.86087558  1
  Si  Si30  1  0.33175377  0.66787778  0.86087558  1
  Si  Si31  1  0.66824623  0.33212222  0.13912442  1
  S  S32  1  0.33550650  0.00000000  0.91312347  1
  S  S33  1  0.66449350  -0.00000000  0.08687653  1
  S  S34  1  0.16449350  0.50000000  0.41312347  1
  S  S35  1  0.83550650  0.50000000  0.58687653  1
  O  O36  1  0.83181067  0.00000000  0.82630190  1
  O  O37  1  0.16818933  -0.00000000  0.17369810  1
  O  O38  1  0.66818933  0.50000000  0.32630190  1
  O  O39  1  0.33181067  0.50000000  0.67369810  1
  O  O40  1  0.83946570  0.82907998  0.94132286  1
  O  O41  1  0.16053430  0.17092002  0.05867714  1
  O  O42  1  0.16053430  0.82907998  0.05867714  1
  O  O43  1  0.66053430  0.67092002  0.44132286  1
  O  O44  1  0.83946570  0.17092002  0.94132286  1
  O  O45  1  0.33946570  0.32907998  0.55867714  1
  O  O46  1  0.33946570  0.67092002  0.55867714  1
  O  O47  1  0.66053430  0.32907998  0.44132286  1
  O  O48  1  0.58649381  0.74588662  0.82629249  1
  O  O49  1  0.41350619  0.25411338  0.17370751  1
  O  O50  1  0.41350619  0.74588662  0.17370751  1
  O  O51  1  0.91350619  0.75411338  0.32629249  1
  O  O52  1  0.58649381  0.25411338  0.82629249  1
  O  O53  1  0.08649381  0.24588662  0.67370751  1
  O  O54  1  0.08649381  0.75411338  0.67370751  1
  O  O55  1  0.91350619  0.24588662  0.32629249  1
  O  O56  1  0.83403480  0.82862872  0.56002669  1
  O  O57  1  0.16596520  0.17137128  0.43997331  1
  O  O58  1  0.16596520  0.82862872  0.43997331  1
  O  O59  1  0.66596520  0.67137128  0.06002669  1
  O  O60  1  0.83403480  0.17137128  0.56002669  1
  O  O61  1  0.33403480  0.32862872  0.93997331  1
  O  O62  1  0.33403480  0.67137128  0.93997331  1
  O  O63  1  0.66596520  0.32862872  0.06002669  1
  O  O64  1  0.82965685  -0.00000000  0.67173492  1
  O  O65  1  0.17034315  0.00000000  0.32826508  1
  O  O66  1  0.67034315  0.50000000  0.17173492  1
  O  O67  1  0.32965685  0.50000000  0.82826508  1
  O  O68  1  0.68422271  -0.00000000  0.44331814  1
  O  O69  1  0.31577729  -0.00000000  0.55668186  1
  O  O70  1  0.81577729  0.50000000  0.94331814  1
  O  O71  1  0.18422271  0.50000000  0.05668186  1
  O  O72  1  0.57652596  0.75494266  0.67395965  1
  O  O73  1  0.42347404  0.24505734  0.32604035  1
  O  O74  1  0.42347404  0.75494266  0.32604035  1
  O  O75  1  0.92347404  0.74505734  0.17395965  1
  O  O76  1  0.57652596  0.24505734  0.67395965  1
  O  O77  1  0.07652596  0.25494266  0.82604035  1
  O  O78  1  0.07652596  0.74505734  0.82604035  1
  O  O79  1  0.92347404  0.25494266  0.17395965  1
