# generated using pymatgen
data_Mg2In
_symmetry_space_group_name_H-M   'P 1'
_cell_length_a   3.51446566
_cell_length_b   8.10236380
_cell_length_c   5.01695284
_cell_angle_alpha   90.00000000
_cell_angle_beta   90.00000000
_cell_angle_gamma   77.47421476
_symmetry_Int_Tables_number   1
_chemical_formula_structural   Mg2In
_chemical_formula_sum   'Mg4 In2'
_cell_volume   139.45985169
_cell_formula_units_Z   2
loop_
 _symmetry_equiv_pos_site_id
 _symmetry_equiv_pos_as_xyz
  1  'x, y, z'
loop_
 _atom_site_type_symbol
 _atom_site_label
 _atom_site_symmetry_multiplicity
 _atom_site_fract_x
 _atom_site_fract_y
 _atom_site_fract_z
 _atom_site_occupancy
  Mg  Mg0  1  0.99660637  0.00678927  -0.00000000  1
  Mg  Mg1  1  0.66371259  0.67257683  0.00000000  1
  Mg  Mg2  1  0.44784063  0.10432273  0.50000000  1
  Mg  Mg3  1  0.78073441  0.43853317  0.50000000  1
  In  In4  1  0.33232846  0.33534808  0.00000000  1
  In  In5  1  0.11211954  0.77576492  0.50000000  1
