# generated using pymatgen
data_MnPd3
_symmetry_space_group_name_H-M   'P 1'
_cell_length_a   5.58514849
_cell_length_b   5.58514732
_cell_length_c   4.52946215
_cell_angle_alpha   90.00000000
_cell_angle_beta   90.00000000
_cell_angle_gamma   120.00000700
_symmetry_Int_Tables_number   1
_chemical_formula_structural   MnPd3
_chemical_formula_sum   'Mn2 Pd6'
_cell_volume   122.36200730
_cell_formula_units_Z   2
loop_
 _symmetry_equiv_pos_site_id
 _symmetry_equiv_pos_as_xyz
  1  'x, y, z'
loop_
 _atom_site_type_symbol
 _atom_site_label
 _atom_site_symmetry_multiplicity
 _atom_site_fract_x
 _atom_site_fract_y
 _atom_site_fract_z
 _atom_site_occupancy
  Mn  Mn0  1  0.66666800  0.33333400  0.25000000  1
  Mn  Mn1  1  0.33333300  0.66666600  0.75000200  1
  Pd  Pd2  1  0.66429906  0.83214953  0.25000000  1
  Pd  Pd3  1  0.16785147  0.33570194  0.25000000  1
  Pd  Pd4  1  0.16784947  0.83214953  0.25000000  1
  Pd  Pd5  1  0.83214953  0.66429806  0.75000200  1
  Pd  Pd6  1  0.33570094  0.16785147  0.75000200  1
  Pd  Pd7  1  0.83215053  0.16785147  0.75000200  1
