# generated using pymatgen
data_Ba6Gd2Fe4O15
_symmetry_space_group_name_H-M   'P 1'
_cell_length_a   6.08349221
_cell_length_b   8.24313661
_cell_length_c   18.35600799
_cell_angle_alpha   91.20127631
_cell_angle_beta   90.00000000
_cell_angle_gamma   90.00000000
_symmetry_Int_Tables_number   1
_chemical_formula_structural   Ba6Gd2Fe4O15
_chemical_formula_sum   'Ba12 Gd4 Fe8 O30'
_cell_volume   920.29747496
_cell_formula_units_Z   2
loop_
 _symmetry_equiv_pos_site_id
 _symmetry_equiv_pos_as_xyz
  1  'x, y, z'
loop_
 _atom_site_type_symbol
 _atom_site_label
 _atom_site_symmetry_multiplicity
 _atom_site_fract_x
 _atom_site_fract_y
 _atom_site_fract_z
 _atom_site_occupancy
  Ba  Ba0  1  0.75467744  0.49725143  0.42521431  1
  Ba  Ba1  1  0.24532256  0.50274857  0.57478569  1
  Ba  Ba2  1  0.75467744  0.50274857  0.07478569  1
  Ba  Ba3  1  0.24532256  0.49725143  0.92521431  1
  Ba  Ba4  1  0.74508883  0.97325309  0.41410363  1
  Ba  Ba5  1  0.25491117  0.02674691  0.58589637  1
  Ba  Ba6  1  0.74508883  0.02674691  0.08589637  1
  Ba  Ba7  1  0.25491117  0.97325309  0.91410363  1
  Ba  Ba8  1  0.72420338  -0.00000000  0.75000000  1
  Ba  Ba9  1  0.27579662  -0.00000000  0.25000000  1
  Ba  Ba10  1  0.66148155  0.50000000  0.75000000  1
  Ba  Ba11  1  0.33851845  0.50000000  0.25000000  1
  Gd  Gd12  1  0.74625214  0.75212234  0.58821821  1
  Gd  Gd13  1  0.25374786  0.24787766  0.41178179  1
  Gd  Gd14  1  0.74625214  0.24787766  0.91178179  1
  Gd  Gd15  1  0.25374786  0.75212234  0.08821821  1
  Fe  Fe16  1  0.74963296  0.75275571  0.93556467  1
  Fe  Fe17  1  0.25036704  0.24724429  0.06443533  1
  Fe  Fe18  1  0.74963296  0.24724429  0.56443533  1
  Fe  Fe19  1  0.25036704  0.75275571  0.43556467  1
  Fe  Fe20  1  0.77660627  0.77030793  0.23543277  1
  Fe  Fe21  1  0.22339373  0.22969207  0.76456723  1
  Fe  Fe22  1  0.77660627  0.22969207  0.26456723  1
  Fe  Fe23  1  0.22339373  0.77030793  0.73543277  1
  O  O24  1  0.20280851  -0.00000000  0.75000000  1
  O  O25  1  0.79719149  -0.00000000  0.25000000  1
  O  O26  1  0.50592724  0.76436330  0.49343151  1
  O  O27  1  0.49407276  0.23563670  0.50656849  1
  O  O28  1  0.50592724  0.23563670  0.00656849  1
  O  O29  1  0.49407276  0.76436330  -0.00656849  1
  O  O30  1  0.76087875  0.96224075  0.89703291  1
  O  O31  1  0.23912125  0.03775925  0.10296709  1
  O  O32  1  0.76087875  0.03775925  0.60296709  1
  O  O33  1  0.23912125  0.96224075  0.39703291  1
  O  O34  1  0.00610881  0.76593457  0.49854916  1
  O  O35  1  -0.00610881  0.23406543  0.50145084  1
  O  O36  1  0.00610881  0.23406543  0.00145084  1
  O  O37  1  -0.00610881  0.76593457  -0.00145084  1
  O  O38  1  0.33696522  0.69335837  0.82154551  1
  O  O39  1  0.66303478  0.30664163  0.17845449  1
  O  O40  1  0.33696522  0.30664163  0.67845449  1
  O  O41  1  0.66303478  0.69335837  0.32154551  1
  O  O42  1  0.44391588  0.74411188  0.66192903  1
  O  O43  1  0.55608412  0.25588812  0.33807097  1
  O  O44  1  0.44391588  0.25588812  0.83807097  1
  O  O45  1  0.55608412  0.74411188  0.16192903  1
  O  O46  1  0.94123421  0.72336311  0.69524258  1
  O  O47  1  0.05876579  0.27663689  0.30475742  1
  O  O48  1  0.94123421  0.27663689  0.80475742  1
  O  O49  1  0.05876579  0.72336311  0.19524258  1
  O  O50  1  0.75793230  0.52740414  0.91877008  1
  O  O51  1  0.24206770  0.47259586  0.08122992  1
  O  O52  1  0.75793230  0.47259586  0.58122992  1
  O  O53  1  0.24206770  0.52740414  0.41877008  1
