# generated using pymatgen
data_CaH4(WCl)2
_symmetry_space_group_name_H-M   'P 1'
_cell_length_a   11.52828340
_cell_length_b   4.46978429
_cell_length_c   13.99893190
_cell_angle_alpha   90.00000000
_cell_angle_beta   90.00000000
_cell_angle_gamma   90.00000000
_symmetry_Int_Tables_number   1
_chemical_formula_structural   CaH4(WCl)2
_chemical_formula_sum   'Ca4 H16 W8 Cl8'
_cell_volume   721.35012239
_cell_formula_units_Z   4
loop_
 _symmetry_equiv_pos_site_id
 _symmetry_equiv_pos_as_xyz
  1  'x, y, z'
loop_
 _atom_site_type_symbol
 _atom_site_label
 _atom_site_symmetry_multiplicity
 _atom_site_fract_x
 _atom_site_fract_y
 _atom_site_fract_z
 _atom_site_occupancy
  Ca  Ca0  1  -0.00000000  0.56596215  0.25000000  1
  Ca  Ca1  1  -0.00000000  0.43403785  0.75000000  1
  Ca  Ca2  1  0.50000000  0.93403785  0.75000000  1
  Ca  Ca3  1  0.50000000  0.06596215  0.25000000  1
  H  H4  1  0.18161881  0.56438062  0.98789742  1
  H  H5  1  0.81838119  0.43561938  0.01210258  1
  H  H6  1  0.31838119  0.93561938  0.48789742  1
  H  H7  1  0.81838119  0.56438062  0.51210258  1
  H  H8  1  0.68161881  0.06438062  0.51210258  1
  H  H9  1  0.18161881  0.43561938  0.48789742  1
  H  H10  1  0.68161881  0.93561938  0.01210258  1
  H  H11  1  0.31838119  0.06438062  0.98789742  1
  H  H12  1  0.39790621  0.06044913  0.11536174  1
  H  H13  1  0.60209379  0.93955087  0.88463826  1
  H  H14  1  0.10209379  0.43955087  0.61536174  1
  H  H15  1  0.60209379  0.06044913  0.38463826  1
  H  H16  1  0.89790621  0.56044913  0.38463826  1
  H  H17  1  0.39790621  0.93955087  0.61536174  1
  H  H18  1  0.89790621  0.43955087  0.88463826  1
  H  H19  1  0.10209379  0.56044913  0.11536174  1
  W  W20  1  0.24923888  0.06528780  0.09880407  1
  W  W21  1  0.75076112  0.93471220  0.90119593  1
  W  W22  1  0.25076112  0.43471220  0.59880407  1
  W  W23  1  0.75076112  0.06528780  0.40119593  1
  W  W24  1  0.74923888  0.56528780  0.40119593  1
  W  W25  1  0.24923888  0.93471220  0.59880407  1
  W  W26  1  0.74923888  0.43471220  0.90119593  1
  W  W27  1  0.25076112  0.56528780  0.09880407  1
  Cl  Cl28  1  0.13915225  0.06428765  0.26344795  1
  Cl  Cl29  1  0.86084775  0.93571235  0.73655205  1
  Cl  Cl30  1  0.36084775  0.43571235  0.76344795  1
  Cl  Cl31  1  0.86084775  0.06428765  0.23655205  1
  Cl  Cl32  1  0.63915225  0.56428765  0.23655205  1
  Cl  Cl33  1  0.13915225  0.93571235  0.76344795  1
  Cl  Cl34  1  0.63915225  0.43571235  0.73655205  1
  Cl  Cl35  1  0.36084775  0.56428765  0.26344795  1
