# generated using pymatgen
data_Sm2Mg
_symmetry_space_group_name_H-M   'P 1'
_cell_length_a   3.73226952
_cell_length_b   7.03946166
_cell_length_c   7.49433501
_cell_angle_alpha   74.70717320
_cell_angle_beta   90.00000000
_cell_angle_gamma   105.37267098
_symmetry_Int_Tables_number   1
_chemical_formula_structural   Sm2Mg
_chemical_formula_sum   'Sm4 Mg2'
_cell_volume   182.61432681
_cell_formula_units_Z   2
loop_
 _symmetry_equiv_pos_site_id
 _symmetry_equiv_pos_as_xyz
  1  'x, y, z'
loop_
 _atom_site_type_symbol
 _atom_site_label
 _atom_site_symmetry_multiplicity
 _atom_site_fract_x
 _atom_site_fract_y
 _atom_site_fract_z
 _atom_site_occupancy
  Sm  Sm0  1  0.34737910  0.69475921  0.28982175  1
  Sm  Sm1  1  0.04150890  0.08301679  0.43239925  1
  Sm  Sm2  1  0.35824741  0.71649582  0.77389362  1
  Sm  Sm3  1  0.03064259  0.06128418  0.94832738  1
  Mg  Mg4  1  0.69824293  0.39648586  0.09724048  1
  Mg  Mg5  1  0.69064507  0.38129014  0.62498252  1
