# generated using pymatgen
data_TmScZn2
_symmetry_space_group_name_H-M   'P 1'
_cell_length_a   4.87187109
_cell_length_b   4.87216224
_cell_length_c   4.87159425
_cell_angle_alpha   60.00053730
_cell_angle_beta   60.00681124
_cell_angle_gamma   59.99320910
_symmetry_Int_Tables_number   1
_chemical_formula_structural   TmScZn2
_chemical_formula_sum   'Tm1 Sc1 Zn2'
_cell_volume   81.76650966
_cell_formula_units_Z   1
loop_
 _symmetry_equiv_pos_site_id
 _symmetry_equiv_pos_as_xyz
  1  'x, y, z'
loop_
 _atom_site_type_symbol
 _atom_site_label
 _atom_site_symmetry_multiplicity
 _atom_site_fract_x
 _atom_site_fract_y
 _atom_site_fract_z
 _atom_site_occupancy
  Tm  Tm0  1  0.75000090  0.74999726  0.75000315  1
  Sc  Sc1  1  0.24999614  0.25000929  0.24998755  1
  Zn  Zn2  1  0.00000130  0.99999581  0.00000526  1
  Zn  Zn3  1  0.50000066  0.49999664  0.50000304  1
