# generated using pymatgen
data_CaCO3
_symmetry_space_group_name_H-M   'P 1'
_cell_length_a   6.26283342
_cell_length_b   6.50302901
_cell_length_c   6.49429486
_cell_angle_alpha   93.05720802
_cell_angle_beta   105.91556137
_cell_angle_gamma   106.76730364
_symmetry_Int_Tables_number   1
_chemical_formula_structural   CaCO3
_chemical_formula_sum   'Ca4 C4 O12'
_cell_volume   241.01008172
_cell_formula_units_Z   4
loop_
 _symmetry_equiv_pos_site_id
 _symmetry_equiv_pos_as_xyz
  1  'x, y, z'
loop_
 _atom_site_type_symbol
 _atom_site_label
 _atom_site_symmetry_multiplicity
 _atom_site_fract_x
 _atom_site_fract_y
 _atom_site_fract_z
 _atom_site_occupancy
  Ca  Ca0  1  0.95307186  0.22177676  0.30965325  1
  Ca  Ca1  1  0.04692814  0.77822324  0.69034675  1
  Ca  Ca2  1  0.45715618  0.66533126  0.23567922  1
  Ca  Ca3  1  0.54284382  0.33466874  0.76432078  1
  C  C4  1  0.51125800  0.77952206  0.74214243  1
  C  C5  1  0.48874200  0.22047794  0.25785757  1
  C  C6  1  0.98970645  0.26795169  0.77278090  1
  C  C7  1  0.01029355  0.73204831  0.22721910  1
  O  O8  1  0.58791263  0.36126508  0.14809630  1
  O  O9  1  0.41208737  0.63873492  0.85190370  1
  O  O10  1  0.88871574  0.83370099  0.30230269  1
  O  O11  1  0.11128426  0.16629901  0.69769731  1
  O  O12  1  0.87966466  0.37617490  0.64022895  1
  O  O13  1  0.12033534  0.62382510  0.35977105  1
  O  O14  1  0.46870922  0.96051631  0.73478657  1
  O  O15  1  0.53129078  0.03948369  0.26521343  1
  O  O16  1  0.63674183  0.72159813  0.63367969  1
  O  O17  1  0.36325817  0.27840187  0.36632031  1
  O  O18  1  0.02800690  0.73813618  0.03723106  1
  O  O19  1  0.97199310  0.26186382  0.96276894  1
