# generated using pymatgen
data_U7(Se6O)2
_symmetry_space_group_name_H-M   'P 1'
_cell_length_a   4.11768556
_cell_length_b   11.36693106
_cell_length_c   11.34451310
_cell_angle_alpha   119.91728736
_cell_angle_beta   90.00000000
_cell_angle_gamma   90.00000000
_symmetry_Int_Tables_number   1
_chemical_formula_structural   U7(Se6O)2
_chemical_formula_sum   'U7 Se12 O2'
_cell_volume   460.22930156
_cell_formula_units_Z   1
loop_
 _symmetry_equiv_pos_site_id
 _symmetry_equiv_pos_as_xyz
  1  'x, y, z'
loop_
 _atom_site_type_symbol
 _atom_site_label
 _atom_site_symmetry_multiplicity
 _atom_site_fract_x
 _atom_site_fract_y
 _atom_site_fract_z
 _atom_site_occupancy
  U  U0  1  0.50000000  0.28297146  0.82903412  1
  U  U1  1  0.50000000  0.17197300  0.45336224  1
  U  U2  1  0.50000000  0.54564019  0.71732346  1
  U  U3  1  0.00000000  0.82560599  0.55125929  1
  U  U4  1  0.00000000  0.44889306  0.27352598  1
  U  U5  1  0.00000000  0.72689855  0.17660508  1
  U  U6  1  -0.00000000  0.99952863  0.00012127  1
  Se  Se7  1  -0.00000000  0.24519938  0.98386720  1
  Se  Se8  1  0.00000000  0.01619586  0.26258312  1
  Se  Se9  1  -0.00000000  0.73720635  0.75401906  1
  Se  Se10  1  0.50000000  0.98717064  0.78240452  1
  Se  Se11  1  0.50000000  0.21734308  0.20391735  1
  Se  Se12  1  0.50000000  0.79665820  0.01308514  1
  Se  Se13  1  0.50000000  0.60584018  0.48773489  1
  Se  Se14  1  0.50000000  0.51207898  0.11733775  1
  Se  Se15  1  0.50000000  0.88272873  0.39492123  1
  Se  Se16  1  0.00000000  0.11826218  0.62183929  1
  Se  Se17  1  -0.00000000  0.37826461  0.49623768  1
  Se  Se18  1  0.00000000  0.50363976  0.88244692  1
  O  O19  1  0.50000000  0.33349619  0.66668902  1
  O  O20  1  -0.00000000  0.66440500  0.33168540  1
