# generated using pymatgen
data_PuTcB2
_symmetry_space_group_name_H-M   'P 1'
_cell_length_a   5.39696714
_cell_length_b   5.80516178
_cell_length_c   6.40177612
_cell_angle_alpha   90.00000000
_cell_angle_beta   90.00000000
_cell_angle_gamma   90.00000000
_symmetry_Int_Tables_number   1
_chemical_formula_structural   PuTcB2
_chemical_formula_sum   'Pu4 Tc4 B8'
_cell_volume   200.56935748
_cell_formula_units_Z   4
loop_
 _symmetry_equiv_pos_site_id
 _symmetry_equiv_pos_as_xyz
  1  'x, y, z'
loop_
 _atom_site_type_symbol
 _atom_site_label
 _atom_site_symmetry_multiplicity
 _atom_site_fract_x
 _atom_site_fract_y
 _atom_site_fract_z
 _atom_site_occupancy
  Pu  Pu0  1  0.75000000  0.49914013  0.15968293  1
  Pu  Pu1  1  0.75000000  -0.00085987  0.34031707  1
  Pu  Pu2  1  0.25000000  0.50085987  0.84031707  1
  Pu  Pu3  1  0.25000000  0.00085987  0.65968293  1
  Tc  Tc4  1  0.75000000  0.31165654  0.68363640  1
  Tc  Tc5  1  0.75000000  0.81165654  0.81636360  1
  Tc  Tc6  1  0.25000000  0.68834346  0.31636360  1
  Tc  Tc7  1  0.25000000  0.18834346  0.18363640  1
  B  B8  1  0.91747842  0.12928110  0.96382204  1
  B  B9  1  0.58252158  0.62928110  0.53617796  1
  B  B10  1  0.41747842  0.87071890  0.03617796  1
  B  B11  1  0.08252158  0.37071890  0.46382204  1
  B  B12  1  0.08252158  0.87071890  0.03617796  1
  B  B13  1  0.41747842  0.37071890  0.46382204  1
  B  B14  1  0.58252158  0.12928110  0.96382204  1
  B  B15  1  0.91747842  0.62928110  0.53617796  1
