# generated using pymatgen
data_Li2In2GeSe6
_symmetry_space_group_name_H-M   'P 1'
_cell_length_a   7.52404509
_cell_length_b   7.52404509
_cell_length_c   12.89273833
_cell_angle_alpha   90.37029760
_cell_angle_beta   107.02143055
_cell_angle_gamma   119.16476038
_symmetry_Int_Tables_number   1
_chemical_formula_structural   Li2In2GeSe6
_chemical_formula_sum   'Li4 In4 Ge2 Se12'
_cell_volume   599.62630257
_cell_formula_units_Z   2
loop_
 _symmetry_equiv_pos_site_id
 _symmetry_equiv_pos_as_xyz
  1  'x, y, z'
loop_
 _atom_site_type_symbol
 _atom_site_label
 _atom_site_symmetry_multiplicity
 _atom_site_fract_x
 _atom_site_fract_y
 _atom_site_fract_z
 _atom_site_occupancy
  Li  Li0  1  0.85553295  0.59585038  0.84137891  1
  Li  Li1  1  0.74552853  0.98584596  0.34137891  1
  Li  Li2  1  0.09989423  0.59882166  0.49652081  1
  Li  Li3  1  0.39769914  0.39662657  0.99652081  1
  In  In4  1  0.11890057  0.88929611  0.18832124  1
  In  In5  1  0.79902513  0.06942067  0.68832124  1
  In  In6  1  0.40733014  0.22680803  0.49239044  1
  In  In7  1  0.76558242  0.08506030  0.99239044  1
  Ge  Ge8  1  0.25307673  0.45685636  0.24733117  1
  Ge  Ge9  1  0.29047481  0.99425444  0.74733117  1
  Se  Se10  1  0.77758303  0.74018273  0.00681604  1
  Se  Se11  1  0.76663331  0.22923301  0.50681604  1
  Se  Se12  1  0.99964288  0.32829401  0.87863340  1
  Se  Se13  1  0.05033939  0.87899053  0.37863340  1
  Se  Se14  1  0.40967360  0.28092770  0.19411155  1
  Se  Se15  1  0.41318385  0.78443794  0.69411155  1
  Se  Se16  1  0.87323544  0.27328606  0.19482225  1
  Se  Se17  1  0.42153619  0.32158681  0.69482225  1
  Se  Se18  1  0.37868766  0.75927249  0.16729386  1
  Se  Se19  1  0.90802137  0.78860620  0.66729386  1
  Se  Se20  1  0.40105459  0.56398630  0.44113032  1
  Se  Se21  1  0.37714403  0.04007573  0.94113032  1
