# generated using pymatgen
data_Er2Al3Ge4
_symmetry_space_group_name_H-M   'P 1'
_cell_length_a   5.99761743
_cell_length_b   7.86761405
_cell_length_c   7.94741238
_cell_angle_alpha   90.00000000
_cell_angle_beta   112.16848045
_cell_angle_gamma   90.00000000
_symmetry_Int_Tables_number   1
_chemical_formula_structural   Er2Al3Ge4
_chemical_formula_sum   'Er4 Al6 Ge8'
_cell_volume   347.29238816
_cell_formula_units_Z   2
loop_
 _symmetry_equiv_pos_site_id
 _symmetry_equiv_pos_as_xyz
  1  'x, y, z'
loop_
 _atom_site_type_symbol
 _atom_site_label
 _atom_site_symmetry_multiplicity
 _atom_site_fract_x
 _atom_site_fract_y
 _atom_site_fract_z
 _atom_site_occupancy
  Er  Er0  1  0.61376610  0.08210818  0.22753221  1
  Er  Er1  1  0.38623390  0.91789182  0.77246779  1
  Er  Er2  1  0.88623390  0.58210818  0.77246779  1
  Er  Er3  1  0.11376610  0.41789182  0.22753221  1
  Al  Al4  1  0.50000000  0.50000000  -0.00000000  1
  Al  Al5  1  0.00000000  -0.00000000  0.00000000  1
  Al  Al6  1  0.03266661  0.25000000  0.56533322  1
  Al  Al7  1  0.46733339  0.75000000  0.43466678  1
  Al  Al8  1  0.96733339  0.75000000  0.43466678  1
  Al  Al9  1  0.53266661  0.25000000  0.56533322  1
  Ge  Ge10  1  0.20436134  0.25000000  0.90872268  1
  Ge  Ge11  1  0.29563866  0.75000000  0.09127732  1
  Ge  Ge12  1  0.79563866  0.75000000  0.09127732  1
  Ge  Ge13  1  0.70436134  0.25000000  0.90872268  1
  Ge  Ge14  1  0.68449703  0.44844457  0.36899406  1
  Ge  Ge15  1  0.31550297  0.55155543  0.63100594  1
  Ge  Ge16  1  0.81550297  0.94844457  0.63100594  1
  Ge  Ge17  1  0.18449703  0.05155543  0.36899406  1
