# generated using pymatgen
data_Bi2O3
_symmetry_space_group_name_H-M   'P 1'
_cell_length_a   5.70355279
_cell_length_b   5.82929490
_cell_length_c   11.85341115
_cell_angle_alpha   90.00000000
_cell_angle_beta   90.00000000
_cell_angle_gamma   90.00000000
_symmetry_Int_Tables_number   1
_chemical_formula_structural   Bi2O3
_chemical_formula_sum   'Bi8 O12'
_cell_volume   394.09855347
_cell_formula_units_Z   4
loop_
 _symmetry_equiv_pos_site_id
 _symmetry_equiv_pos_as_xyz
  1  'x, y, z'
loop_
 _atom_site_type_symbol
 _atom_site_label
 _atom_site_symmetry_multiplicity
 _atom_site_fract_x
 _atom_site_fract_y
 _atom_site_fract_z
 _atom_site_occupancy
  Bi  Bi0  1  0.94946299  0.31436880  0.87203541  1
  Bi  Bi1  1  0.44946299  0.18563120  0.62796459  1
  Bi  Bi2  1  0.05053701  0.18563120  0.37203541  1
  Bi  Bi3  1  0.55053701  0.31436880  0.12796459  1
  Bi  Bi4  1  0.05053701  0.68563120  0.12796459  1
  Bi  Bi5  1  0.55053701  0.81436880  0.37203541  1
  Bi  Bi6  1  0.94946299  0.81436880  0.62796459  1
  Bi  Bi7  1  0.44946299  0.68563120  0.87203541  1
  O  O8  1  0.25000000  0.44681846  0.00000000  1
  O  O9  1  0.75000000  0.05318154  0.50000000  1
  O  O10  1  0.75000000  0.55318154  -0.00000000  1
  O  O11  1  0.25000000  0.94681846  0.50000000  1
  O  O12  1  0.38753392  0.09111441  0.28472364  1
  O  O13  1  0.88753392  0.40888559  0.21527636  1
  O  O14  1  0.61246608  0.40888559  0.78472364  1
  O  O15  1  0.11246608  0.09111441  0.71527636  1
  O  O16  1  0.61246608  0.90888559  0.71527636  1
  O  O17  1  0.11246608  0.59111441  0.78472364  1
  O  O18  1  0.38753392  0.59111441  0.21527636  1
  O  O19  1  0.88753392  0.90888559  0.28472364  1
