# generated using pymatgen
data_Er2CuTe2(SO7)2
_symmetry_space_group_name_H-M   'P 1'
_cell_length_a   5.18927168
_cell_length_b   7.92849231
_cell_length_c   8.17641403
_cell_angle_alpha   62.25335551
_cell_angle_beta   74.14330898
_cell_angle_gamma   85.20072991
_symmetry_Int_Tables_number   1
_chemical_formula_structural   Er2CuTe2(SO7)2
_chemical_formula_sum   'Er2 Cu1 Te2 S2 O14'
_cell_volume   286.01800216
_cell_formula_units_Z   1
loop_
 _symmetry_equiv_pos_site_id
 _symmetry_equiv_pos_as_xyz
  1  'x, y, z'
loop_
 _atom_site_type_symbol
 _atom_site_label
 _atom_site_symmetry_multiplicity
 _atom_site_fract_x
 _atom_site_fract_y
 _atom_site_fract_z
 _atom_site_occupancy
  Er  Er0  1  0.92678615  0.74783973  0.98181024  1
  Er  Er1  1  0.07321385  0.25216027  0.01818976  1
  Cu  Cu2  1  -0.00000000  -0.00000000  0.50000000  1
  Te  Te3  1  0.48988339  0.72730928  0.65572601  1
  Te  Te4  1  0.51011661  0.27269072  0.34427399  1
  S  S5  1  0.25312385  0.74839322  0.24944009  1
  S  S6  1  0.74687615  0.25160678  0.75055991  1
  O  O7  1  0.13811637  0.58806737  0.23928438  1
  O  O8  1  0.86188363  0.41193263  0.76071562  1
  O  O9  1  0.14156812  0.74697414  0.43546542  1
  O  O10  1  0.85843188  0.25302586  0.56453458  1
  O  O11  1  0.54946298  0.73680510  0.21266320  1
  O  O12  1  0.45053702  0.26319490  0.78733680  1
  O  O13  1  0.17597874  0.92386789  0.09128589  1
  O  O14  1  0.82402126  0.07613211  0.90871411  1
  O  O15  1  0.24796706  0.55999574  0.89193530  1
  O  O16  1  0.75203294  0.44000426  0.10806470  1
  O  O17  1  0.73033739  0.81154330  0.74688391  1
  O  O18  1  0.26966261  0.18845670  0.25311609  1
  O  O19  1  0.24921058  0.92730941  0.65974101  1
  O  O20  1  0.75078942  0.07269059  0.34025899  1
