# generated using pymatgen
data_Ta5Ga3
_symmetry_space_group_name_H-M   'P 1'
_cell_length_a   6.77982277
_cell_length_b   6.77982277
_cell_length_c   7.60985673
_cell_angle_alpha   116.45298309
_cell_angle_beta   116.45298309
_cell_angle_gamma   90.00000000
_symmetry_Int_Tables_number   1
_chemical_formula_structural   Ta5Ga3
_chemical_formula_sum   'Ta10 Ga6'
_cell_volume   271.65443755
_cell_formula_units_Z   2
loop_
 _symmetry_equiv_pos_site_id
 _symmetry_equiv_pos_as_xyz
  1  'x, y, z'
loop_
 _atom_site_type_symbol
 _atom_site_label
 _atom_site_symmetry_multiplicity
 _atom_site_fract_x
 _atom_site_fract_y
 _atom_site_fract_z
 _atom_site_occupancy
  Ta  Ta0  1  0.50000000  0.50000000  -0.00000000  1
  Ta  Ta1  1  -0.00000000  -0.00000000  -0.00000000  1
  Ta  Ta2  1  0.99505555  0.81740491  0.31246047  1
  Ta  Ta3  1  0.31740491  0.49505555  0.31246047  1
  Ta  Ta4  1  0.81740491  0.31740491  0.31246047  1
  Ta  Ta5  1  0.49505555  0.99505555  0.31246047  1
  Ta  Ta6  1  0.00494445  0.18259509  0.68753953  1
  Ta  Ta7  1  0.68259509  0.50494445  0.68753953  1
  Ta  Ta8  1  0.18259509  0.68259509  0.68753953  1
  Ta  Ta9  1  0.50494445  0.00494445  0.68753953  1
  Ga  Ga10  1  0.75000000  0.75000000  0.50000000  1
  Ga  Ga11  1  0.25000000  0.25000000  0.50000000  1
  Ga  Ga12  1  0.63376435  0.86623565  -0.00000000  1
  Ga  Ga13  1  0.36623565  0.13376435  -0.00000000  1
  Ga  Ga14  1  0.86623565  0.36623565  0.00000000  1
  Ga  Ga15  1  0.13376435  0.63376435  1.00000000  1
