# generated using pymatgen
data_K4Ti4I12O
_symmetry_space_group_name_H-M   'P 1'
_cell_length_a   8.21574796
_cell_length_b   10.63594234
_cell_length_c   10.63594234
_cell_angle_alpha   81.42115698
_cell_angle_beta   67.28015093
_cell_angle_gamma   67.28015093
_symmetry_Int_Tables_number   1
_chemical_formula_structural   K4Ti4I12O
_chemical_formula_sum   'K4 Ti4 I12 O1'
_cell_volume   790.75461525
_cell_formula_units_Z   1
loop_
 _symmetry_equiv_pos_site_id
 _symmetry_equiv_pos_as_xyz
  1  'x, y, z'
loop_
 _atom_site_type_symbol
 _atom_site_label
 _atom_site_symmetry_multiplicity
 _atom_site_fract_x
 _atom_site_fract_y
 _atom_site_fract_z
 _atom_site_occupancy
  K  K0  1  0.81867870  0.59704316  0.76559944  1
  K  K1  1  0.18132130  0.40295684  0.23440056  1
  K  K2  1  0.41572186  0.76559944  0.40295684  1
  K  K3  1  0.58427814  0.23440056  0.59704316  1
  Ti  Ti4  1  0.14146470  0.82997957  0.88709103  1
  Ti  Ti5  1  0.85853530  0.17002043  0.11290897  1
  Ti  Ti6  1  0.97144427  0.88709103  0.17002043  1
  Ti  Ti7  1  0.02855573  0.11290897  0.82997957  1
  I  I8  1  0.06276097  0.28665049  0.58782757  1
  I  I9  1  0.93723903  0.71334951  0.41217243  1
  I  I10  1  0.34941146  0.58782757  0.71334951  1
  I  I11  1  0.65058854  0.41217243  0.28665049  1
  I  I12  1  0.35784856  0.71053365  0.05762439  1
  I  I13  1  0.12600660  0.28946635  0.94237561  1
  I  I14  1  0.06838221  0.05762439  0.28946635  1
  I  I15  1  0.41547295  0.94237561  0.71053365  1
  I  I16  1  0.64215144  0.28946635  0.94237561  1
  I  I17  1  0.87399340  0.71053365  0.05762439  1
  I  I18  1  0.93161779  0.94237561  0.71053365  1
  I  I19  1  0.58452705  0.05762439  0.28946635  1
  O  O20  1  -0.00000000  0.00000000  0.00000000  1
