# generated using pymatgen
data_Zr5Se8
_symmetry_space_group_name_H-M   'P 1'
_cell_length_a   3.83518005
_cell_length_b   3.83518005
_cell_length_c   25.87195501
_cell_angle_alpha   89.99999930
_cell_angle_beta   94.25057440
_cell_angle_gamma   60.00000819
_symmetry_Int_Tables_number   1
_chemical_formula_structural   Zr5Se8
_chemical_formula_sum   'Zr5 Se8'
_cell_volume   328.34849453
_cell_formula_units_Z   1
loop_
 _symmetry_equiv_pos_site_id
 _symmetry_equiv_pos_as_xyz
  1  'x, y, z'
loop_
 _atom_site_type_symbol
 _atom_site_label
 _atom_site_symmetry_multiplicity
 _atom_site_fract_x
 _atom_site_fract_y
 _atom_site_fract_z
 _atom_site_occupancy
  Zr  Zr0  1  0.75001867  0.12499066  0.62502801  1
  Zr  Zr1  1  0.24903772  0.37548114  0.87355658  1
  Zr  Zr2  1  0.75096228  0.62451886  0.12644342  1
  Zr  Zr3  1  0.24998133  0.87500934  0.37497199  1
  Zr  Zr4  1  0.00000000  -0.00000000  0.00000000  1
  Se  Se5  1  0.37581771  0.81209115  0.56372656  1
  Se  Se6  1  0.87537680  0.06231160  0.81306520  1
  Se  Se7  1  0.37497257  0.31251371  0.06245886  1
  Se  Se8  1  0.87568274  0.56215863  0.31352411  1
  Se  Se9  1  0.12431726  0.43784137  0.68647589  1
  Se  Se10  1  0.62502743  0.68748629  0.93754114  1
  Se  Se11  1  0.12462320  0.93768840  0.18693480  1
  Se  Se12  1  0.62418229  0.18790885  0.43627344  1
