# generated using pymatgen
data_CeGePd2
_symmetry_space_group_name_H-M   'P 1'
_cell_length_a   5.68016903
_cell_length_b   7.85415575
_cell_length_c   6.98109851
_cell_angle_alpha   90.00000000
_cell_angle_beta   90.00000000
_cell_angle_gamma   90.00000000
_symmetry_Int_Tables_number   1
_chemical_formula_structural   CeGePd2
_chemical_formula_sum   'Ce4 Ge4 Pd8'
_cell_volume   311.44727484
_cell_formula_units_Z   4
loop_
 _symmetry_equiv_pos_site_id
 _symmetry_equiv_pos_as_xyz
  1  'x, y, z'
loop_
 _atom_site_type_symbol
 _atom_site_label
 _atom_site_symmetry_multiplicity
 _atom_site_fract_x
 _atom_site_fract_y
 _atom_site_fract_z
 _atom_site_occupancy
  Ce  Ce0  1  0.84660928  0.54303004  0.25000000  1
  Ce  Ce1  1  0.65339072  0.04303004  0.25000000  1
  Ce  Ce2  1  0.15339072  0.45696996  0.75000000  1
  Ce  Ce3  1  0.34660928  0.95696996  0.75000000  1
  Ge  Ge4  1  0.15838234  0.88529634  0.25000000  1
  Ge  Ge5  1  0.34161766  0.38529634  0.25000000  1
  Ge  Ge6  1  0.84161766  0.11470366  0.75000000  1
  Ge  Ge7  1  0.65838234  0.61470366  0.75000000  1
  Pd  Pd8  1  0.41062425  0.68070362  0.04995835  1
  Pd  Pd9  1  0.08937575  0.18070362  0.45004165  1
  Pd  Pd10  1  0.58937575  0.31929638  0.54995835  1
  Pd  Pd11  1  0.91062425  0.81929638  0.95004165  1
  Pd  Pd12  1  0.58937575  0.31929638  0.95004165  1
  Pd  Pd13  1  0.91062425  0.81929638  0.54995835  1
  Pd  Pd14  1  0.41062425  0.68070362  0.45004165  1
  Pd  Pd15  1  0.08937575  0.18070362  0.04995835  1
