# generated using pymatgen
data_Sm6Fe23
_symmetry_space_group_name_H-M   'P 1'
_cell_length_a   8.57143894
_cell_length_b   8.57143894
_cell_length_c   8.57143894
_cell_angle_alpha   60.00000000
_cell_angle_beta   60.00000000
_cell_angle_gamma   60.00000000
_symmetry_Int_Tables_number   1
_chemical_formula_structural   Sm6Fe23
_chemical_formula_sum   'Sm6 Fe23'
_cell_volume   445.29335011
_cell_formula_units_Z   1
loop_
 _symmetry_equiv_pos_site_id
 _symmetry_equiv_pos_as_xyz
  1  'x, y, z'
loop_
 _atom_site_type_symbol
 _atom_site_label
 _atom_site_symmetry_multiplicity
 _atom_site_fract_x
 _atom_site_fract_y
 _atom_site_fract_z
 _atom_site_occupancy
  Sm  Sm0  1  0.71009759  0.28990241  0.28990241  1
  Sm  Sm1  1  0.71009759  0.28990241  0.71009759  1
  Sm  Sm2  1  0.71009759  0.71009759  0.28990241  1
  Sm  Sm3  1  0.28990241  0.71009759  0.71009759  1
  Sm  Sm4  1  0.28990241  0.71009759  0.28990241  1
  Sm  Sm5  1  0.28990241  0.28990241  0.71009759  1
  Fe  Fe6  1  -0.00000000  0.00000000  -0.00000000  1
  Fe  Fe7  1  0.50000000  0.00000000  -0.00000000  1
  Fe  Fe8  1  0.50000000  0.00000000  0.50000000  1
  Fe  Fe9  1  0.50000000  0.50000000  -0.00000000  1
  Fe  Fe10  1  -0.00000000  0.50000000  0.50000000  1
  Fe  Fe11  1  -0.00000000  0.50000000  -0.00000000  1
  Fe  Fe12  1  -0.00000000  0.00000000  0.50000000  1
  Fe  Fe13  1  0.63320848  0.12226384  0.12226384  1
  Fe  Fe14  1  0.12226384  0.63320848  0.12226384  1
  Fe  Fe15  1  0.12226384  0.12226384  0.63320848  1
  Fe  Fe16  1  0.12226384  0.12226384  0.12226384  1
  Fe  Fe17  1  0.36679152  0.87773616  0.87773616  1
  Fe  Fe18  1  0.87773616  0.36679152  0.87773616  1
  Fe  Fe19  1  0.87773616  0.87773616  0.36679152  1
  Fe  Fe20  1  0.87773616  0.87773616  0.87773616  1
  Fe  Fe21  1  0.03133075  0.32288975  0.32288975  1
  Fe  Fe22  1  0.32288975  0.03133075  0.32288975  1
  Fe  Fe23  1  0.32288975  0.32288975  0.03133075  1
  Fe  Fe24  1  0.32288975  0.32288975  0.32288975  1
  Fe  Fe25  1  0.96866925  0.67711025  0.67711025  1
  Fe  Fe26  1  0.67711025  0.96866925  0.67711025  1
  Fe  Fe27  1  0.67711025  0.67711025  0.96866925  1
  Fe  Fe28  1  0.67711025  0.67711025  0.67711025  1
