# generated using pymatgen
data_La3TiAlS7
_symmetry_space_group_name_H-M   'P 1'
_cell_length_a   5.83747227
_cell_length_b   10.41239795
_cell_length_c   10.41274828
_cell_angle_alpha   120.00400806
_cell_angle_beta   90.00000000
_cell_angle_gamma   90.00000000
_symmetry_Int_Tables_number   1
_chemical_formula_structural   La3TiAlS7
_chemical_formula_sum   'La6 Ti2 Al2 S14'
_cell_volume   548.09273871
_cell_formula_units_Z   2
loop_
 _symmetry_equiv_pos_site_id
 _symmetry_equiv_pos_as_xyz
  1  'x, y, z'
loop_
 _atom_site_type_symbol
 _atom_site_label
 _atom_site_symmetry_multiplicity
 _atom_site_fract_x
 _atom_site_fract_y
 _atom_site_fract_z
 _atom_site_occupancy
  La  La0  1  0.26113957  0.24332695  0.37288625  1
  La  La1  1  0.26124481  0.62730312  0.87047836  1
  La  La2  1  0.26125411  0.12956628  0.75675070  1
  La  La3  1  0.76113957  0.75667305  0.62711375  1
  La  La4  1  0.76124481  0.37269688  0.12952164  1
  La  La5  1  0.76125411  0.87043372  0.24324930  1
  Ti  Ti6  1  0.50112081  0.00000089  -0.00000056  1
  Ti  Ti7  1  0.00112081  0.99999911  0.00000056  1
  Al  Al8  1  0.84578438  0.33335928  0.66666340  1
  Al  Al9  1  0.34578438  0.66664072  0.33333660  1
  S  S10  1  0.74961282  0.15060069  0.22951439  1
  S  S11  1  0.74959511  0.77037390  0.92106844  1
  S  S12  1  0.74960968  0.07905821  0.84948265  1
  S  S13  1  0.24961282  0.84939931  0.77048561  1
  S  S14  1  0.24959511  0.22962610  0.07893156  1
  S  S15  1  0.24960968  0.92094179  0.15051735  1
  S  S16  1  0.99012472  0.10534862  0.51437981  1
  S  S17  1  0.99027249  0.48560383  0.59093690  1
  S  S18  1  0.99011361  0.40905028  0.89462788  1
  S  S19  1  0.49012472  0.89465138  0.48562019  1
  S  S20  1  0.49027249  0.51439617  0.40906310  1
  S  S21  1  0.49011361  0.59094972  0.10537212  1
  S  S22  1  0.46812789  0.33335921  0.66663211  1
  S  S23  1  0.96812789  0.66664079  0.33336789  1
