# generated using pymatgen
data_MnInO3
_symmetry_space_group_name_H-M   'P 1'
_cell_length_a   6.03236090
_cell_length_b   6.02526866
_cell_length_c   11.66941995
_cell_angle_alpha   90.00000000
_cell_angle_beta   90.00000000
_cell_angle_gamma   120.03894092
_symmetry_Int_Tables_number   1
_chemical_formula_structural   MnInO3
_chemical_formula_sum   'Mn6 In6 O18'
_cell_volume   367.17498423
_cell_formula_units_Z   6
loop_
 _symmetry_equiv_pos_site_id
 _symmetry_equiv_pos_as_xyz
  1  'x, y, z'
loop_
 _atom_site_type_symbol
 _atom_site_label
 _atom_site_symmetry_multiplicity
 _atom_site_fract_x
 _atom_site_fract_y
 _atom_site_fract_z
 _atom_site_occupancy
  Mn  Mn0  1  0.66614491  1.00000000  0.50750777  1
  Mn  Mn1  1  0.33440436  0.33405491  0.50746010  1
  Mn  Mn2  1  0.00034945  0.66594509  0.50746010  1
  Mn  Mn3  1  0.33385509  0.00000000  0.00750777  1
  Mn  Mn4  1  0.66559564  0.66594509  0.00746010  1
  Mn  Mn5  1  0.99965055  0.33405491  0.00746010  1
  In  In6  1  0.00001236  0.00000000  0.23728280  1
  In  In7  1  0.99998764  1.00000000  0.73728280  1
  In  In8  1  0.66666117  0.33333285  0.26990620  1
  In  In9  1  0.33332831  0.66666715  0.26990620  1
  In  In10  1  0.33333883  0.66666715  0.76990620  1
  In  In11  1  0.66667169  0.33333285  0.76990620  1
  O  O12  1  0.68699365  0.00000000  0.34141596  1
  O  O13  1  0.31313412  0.31307489  0.34136541  1
  O  O14  1  0.00005922  0.68692511  0.34136541  1
  O  O15  1  0.31300635  1.00000000  0.84141596  1
  O  O16  1  0.68686588  0.68692511  0.84136541  1
  O  O17  1  0.99994078  0.31307489  0.84136541  1
  O  O18  1  0.35443629  1.00000000  0.17341561  1
  O  O19  1  0.64552686  0.64561054  0.17339858  1
  O  O20  1  0.99991633  0.35438946  0.17339858  1
  O  O21  1  0.64556371  0.00000000  0.67341561  1
  O  O22  1  0.35447314  0.35438946  0.67339858  1
  O  O23  1  0.00008367  0.64561054  0.67339858  1
  O  O24  1  0.99962157  0.00000000  0.53018032  1
  O  O25  1  0.00037843  1.00000000  0.03018032  1
  O  O26  1  0.66635648  0.33331003  0.49231849  1
  O  O27  1  0.33304645  0.66668997  0.49231849  1
  O  O28  1  0.33364352  0.66668997  0.99231849  1
  O  O29  1  0.66695355  0.33331003  0.99231849  1
