# generated using pymatgen
data_TiAg2(IO3)6
_symmetry_space_group_name_H-M   'P 1'
_cell_length_a   7.46942744
_cell_length_b   7.46940938
_cell_length_c   7.46944971
_cell_angle_alpha   95.77841272
_cell_angle_beta   95.77936807
_cell_angle_gamma   95.77928099
_symmetry_Int_Tables_number   1
_chemical_formula_structural   TiAg2(IO3)6
_chemical_formula_sum   'Ti1 Ag2 I6 O18'
_cell_volume   409.91800582
_cell_formula_units_Z   1
loop_
 _symmetry_equiv_pos_site_id
 _symmetry_equiv_pos_as_xyz
  1  'x, y, z'
loop_
 _atom_site_type_symbol
 _atom_site_label
 _atom_site_symmetry_multiplicity
 _atom_site_fract_x
 _atom_site_fract_y
 _atom_site_fract_z
 _atom_site_occupancy
  Ti  Ti0  1  0.00000000  0.00000000  0.00000000  1
  Ag  Ag1  1  0.32058525  0.32047510  0.32047543  1
  Ag  Ag2  1  0.67941475  0.67952490  0.67952457  1
  I  I3  1  0.37485501  0.16603622  0.78040673  1
  I  I4  1  0.16603499  0.78040487  0.37485507  1
  I  I5  1  0.78041509  0.37485754  0.16603626  1
  I  I6  1  0.62514499  0.83396378  0.21959327  1
  I  I7  1  0.83396501  0.21959513  0.62514493  1
  I  I8  1  0.21958491  0.62514246  0.83396374  1
  O  O9  1  0.18889256  0.17909729  0.93652180  1
  O  O10  1  0.17909782  0.93652197  0.18889219  1
  O  O11  1  0.93651916  0.18888840  0.17909533  1
  O  O12  1  0.81110744  0.82090271  0.06347820  1
  O  O13  1  0.82090218  0.06347803  0.81110781  1
  O  O14  1  0.06348084  0.81111160  0.82090467  1
  O  O15  1  0.21603004  0.13488992  0.57242070  1
  O  O16  1  0.13488904  0.57242063  0.21602949  1
  O  O17  1  0.57242366  0.21603112  0.13489038  1
  O  O18  1  0.78396996  0.86511008  0.42757930  1
  O  O19  1  0.86511096  0.42757937  0.78397051  1
  O  O20  1  0.42757634  0.78396888  0.86510962  1
  O  O21  1  0.43452054  0.41296657  0.81214605  1
  O  O22  1  0.41296578  0.81214401  0.43452159  1
  O  O23  1  0.81214414  0.43452082  0.41296273  1
  O  O24  1  0.56547946  0.58703343  0.18785395  1
  O  O25  1  0.58703422  0.18785599  0.56547841  1
  O  O26  1  0.18785586  0.56547918  0.58703727  1
