# generated using pymatgen
data_Eu5Ta4O15
_symmetry_space_group_name_H-M   'P 1'
_cell_length_a   5.70206415
_cell_length_b   5.70216929
_cell_length_c   11.53694435
_cell_angle_alpha   90.00000001
_cell_angle_beta   89.99859707
_cell_angle_gamma   120.00060635
_symmetry_Int_Tables_number   1
_chemical_formula_structural   Eu5Ta4O15
_chemical_formula_sum   'Eu5 Ta4 O15'
_cell_volume   324.85606656
_cell_formula_units_Z   1
loop_
 _symmetry_equiv_pos_site_id
 _symmetry_equiv_pos_as_xyz
  1  'x, y, z'
loop_
 _atom_site_type_symbol
 _atom_site_label
 _atom_site_symmetry_multiplicity
 _atom_site_fract_x
 _atom_site_fract_y
 _atom_site_fract_z
 _atom_site_occupancy
  Eu  Eu0  1  -0.00000000  0.00000000  -0.00000000  1
  Eu  Eu1  1  0.33333241  0.66666620  0.76902189  1
  Eu  Eu2  1  0.66666759  0.33333380  0.23097811  1
  Eu  Eu3  1  0.33338072  0.66669036  0.43861543  1
  Eu  Eu4  1  0.66661928  0.33330964  0.56138457  1
  Ta  Ta5  1  0.33333850  0.66666925  0.10448015  1
  Ta  Ta6  1  0.66666150  0.33333075  0.89551985  1
  Ta  Ta7  1  0.99999848  0.99999924  0.31954512  1
  Ta  Ta8  1  0.00000152  0.00000076  0.68045488  1
  O  O9  1  0.50000000  0.50000000  -0.00000000  1
  O  O10  1  0.50000000  0.00000000  -0.00000000  1
  O  O11  1  -0.00000000  0.50000000  -0.00000000  1
  O  O12  1  0.67061913  0.83530956  0.19735185  1
  O  O13  1  0.16467149  0.83533264  0.19734081  1
  O  O14  1  0.16467149  0.32933884  0.19734081  1
  O  O15  1  0.32938087  0.16469044  0.80264815  1
  O  O16  1  0.83532851  0.16466736  0.80265919  1
  O  O17  1  0.83532851  0.67066116  0.80265919  1
  O  O18  1  0.65937150  0.82968575  0.60433791  1
  O  O19  1  0.17033996  0.82970174  0.60433942  1
  O  O20  1  0.17033996  0.34063821  0.60433942  1
  O  O21  1  0.34062850  0.17031425  0.39566209  1
  O  O22  1  0.82966004  0.17029826  0.39566058  1
  O  O23  1  0.82966004  0.65936179  0.39566058  1
