# generated using pymatgen
data_Li8Sm7Ge10
_symmetry_space_group_name_H-M   'P 1'
_cell_length_a   4.42022895
_cell_length_b   6.79733953
_cell_length_c   16.98380589
_cell_angle_alpha   101.54353224
_cell_angle_beta   90.00000000
_cell_angle_gamma   90.00000000
_symmetry_Int_Tables_number   1
_chemical_formula_structural   Li8Sm7Ge10
_chemical_formula_sum   'Li8 Sm7 Ge10'
_cell_volume   499.97028007
_cell_formula_units_Z   1
loop_
 _symmetry_equiv_pos_site_id
 _symmetry_equiv_pos_as_xyz
  1  'x, y, z'
loop_
 _atom_site_type_symbol
 _atom_site_label
 _atom_site_symmetry_multiplicity
 _atom_site_fract_x
 _atom_site_fract_y
 _atom_site_fract_z
 _atom_site_occupancy
  Li  Li0  1  0.50000000  0.11577227  0.85024073  1
  Li  Li1  1  0.50000000  0.88422773  0.14975927  1
  Li  Li2  1  0.50000000  0.26553153  0.14975927  1
  Li  Li3  1  0.50000000  0.73446847  0.85024073  1
  Li  Li4  1  -0.00000000  0.16820524  0.71368566  1
  Li  Li5  1  -0.00000000  0.83179476  0.28631434  1
  Li  Li6  1  0.00000000  0.45451959  0.28631434  1
  Li  Li7  1  -0.00000000  0.54548041  0.71368566  1
  Sm  Sm8  1  0.50000000  0.83772925  0.67545850  1
  Sm  Sm9  1  0.50000000  0.16227075  0.32454150  1
  Sm  Sm10  1  0.50000000  0.72065205  0.44130411  1
  Sm  Sm11  1  0.50000000  0.27934795  0.55869589  1
  Sm  Sm12  1  -0.00000000  0.55635541  0.11271082  1
  Sm  Sm13  1  -0.00000000  0.44364459  0.88728918  1
  Sm  Sm14  1  -0.00000000  -0.00000000  -0.00000000  1
  Ge  Ge15  1  -0.00000000  0.97132353  0.57026599  1
  Ge  Ge16  1  -0.00000000  0.02867647  0.42973401  1
  Ge  Ge17  1  -0.00000000  0.40105755  0.42973401  1
  Ge  Ge18  1  -0.00000000  0.59894245  0.57026599  1
  Ge  Ge19  1  0.50000000  0.62609800  0.25219600  1
  Ge  Ge20  1  0.50000000  0.37390200  0.74780400  1
  Ge  Ge21  1  0.00000000  0.90627603  0.81255206  1
  Ge  Ge22  1  -0.00000000  0.09372397  0.18744794  1
  Ge  Ge23  1  0.50000000  0.31192296  0.00000000  1
  Ge  Ge24  1  0.50000000  0.68807704  1.00000000  1
