# generated using pymatgen
data_MgVAgO4
_symmetry_space_group_name_H-M   'P 1'
_cell_length_a   5.39778529
_cell_length_b   6.81654584
_cell_length_c   9.57968461
_cell_angle_alpha   90.00000000
_cell_angle_beta   90.00000000
_cell_angle_gamma   90.00000000
_symmetry_Int_Tables_number   1
_chemical_formula_structural   MgVAgO4
_chemical_formula_sum   'Mg4 V4 Ag4 O16'
_cell_volume   352.47731874
_cell_formula_units_Z   4
loop_
 _symmetry_equiv_pos_site_id
 _symmetry_equiv_pos_as_xyz
  1  'x, y, z'
loop_
 _atom_site_type_symbol
 _atom_site_label
 _atom_site_symmetry_multiplicity
 _atom_site_fract_x
 _atom_site_fract_y
 _atom_site_fract_z
 _atom_site_occupancy
  Mg  Mg0  1  -0.00000000  -0.00000000  -0.00000000  1
  Mg  Mg1  1  0.50000000  0.50000000  0.50000000  1
  Mg  Mg2  1  -0.00000000  0.50000000  0.00000000  1
  Mg  Mg3  1  0.50000000  -0.00000000  0.50000000  1
  V  V4  1  0.02472887  0.75000000  0.32052825  1
  V  V5  1  0.47527113  0.75000000  0.82052825  1
  V  V6  1  0.97527113  0.25000000  0.67947175  1
  V  V7  1  0.52472887  0.25000000  0.17947175  1
  Ag  Ag8  1  0.99850483  0.25000000  0.35012910  1
  Ag  Ag9  1  0.50149517  0.25000000  0.85012910  1
  Ag  Ag10  1  0.00149517  0.75000000  0.64987090  1
  Ag  Ag11  1  0.49850483  0.75000000  0.14987090  1
  O  O12  1  0.05981373  0.75000000  0.13263270  1
  O  O13  1  0.44018627  0.75000000  0.63263270  1
  O  O14  1  0.94018627  0.25000000  0.86736730  1
  O  O15  1  0.55981373  0.25000000  0.36736730  1
  O  O16  1  0.71569653  0.75000000  0.38391513  1
  O  O17  1  0.78430347  0.75000000  0.88391513  1
  O  O18  1  0.28430347  0.25000000  0.61608487  1
  O  O19  1  0.21569653  0.25000000  0.11608487  1
  O  O20  1  0.18621327  0.55065245  0.38478116  1
  O  O21  1  0.31378673  0.94934755  0.88478116  1
  O  O22  1  0.81378673  0.05065245  0.61521884  1
  O  O23  1  0.68621327  0.44934755  0.11521884  1
  O  O24  1  0.81378673  0.44934755  0.61521884  1
  O  O25  1  0.68621327  0.05065245  0.11521884  1
  O  O26  1  0.18621327  0.94934755  0.38478116  1
  O  O27  1  0.31378673  0.55065245  0.88478116  1
