# generated using pymatgen
data_Zr5NiSb9
_symmetry_space_group_name_H-M   'P 1'
_cell_length_a   8.85376927
_cell_length_b   8.89461023
_cell_length_c   8.89461023
_cell_angle_alpha   90.00000000
_cell_angle_beta   90.00000000
_cell_angle_gamma   90.00000000
_symmetry_Int_Tables_number   1
_chemical_formula_structural   Zr5NiSb9
_chemical_formula_sum   'Zr10 Ni2 Sb18'
_cell_volume   700.45790899
_cell_formula_units_Z   2
loop_
 _symmetry_equiv_pos_site_id
 _symmetry_equiv_pos_as_xyz
  1  'x, y, z'
loop_
 _atom_site_type_symbol
 _atom_site_label
 _atom_site_symmetry_multiplicity
 _atom_site_fract_x
 _atom_site_fract_y
 _atom_site_fract_z
 _atom_site_occupancy
  Zr  Zr0  1  0.25591451  0.00000000  0.50000000  1
  Zr  Zr1  1  0.74408549  0.50000000  -0.00000000  1
  Zr  Zr2  1  0.26622255  0.60336310  0.29605777  1
  Zr  Zr3  1  0.26622255  0.39663690  0.70394223  1
  Zr  Zr4  1  0.73377745  0.10336310  0.79605777  1
  Zr  Zr5  1  0.73377745  0.89663690  0.20394223  1
  Zr  Zr6  1  0.73377745  0.29605777  0.39663690  1
  Zr  Zr7  1  0.73377745  0.70394223  0.60336310  1
  Zr  Zr8  1  0.26622255  0.79605777  0.89663690  1
  Zr  Zr9  1  0.26622255  0.20394223  0.10336310  1
  Ni  Ni10  1  0.00000000  0.50000000  0.50000000  1
  Ni  Ni11  1  0.00000000  0.00000000  -0.00000000  1
  Sb  Sb12  1  0.99895682  0.58408206  0.77318077  1
  Sb  Sb13  1  0.99895682  0.41591794  0.22681923  1
  Sb  Sb14  1  0.00104318  0.08408206  0.27318077  1
  Sb  Sb15  1  0.00104318  0.91591794  0.72681923  1
  Sb  Sb16  1  0.00104318  0.77318077  0.41591794  1
  Sb  Sb17  1  0.00104318  0.22681923  0.58408206  1
  Sb  Sb18  1  0.99895682  0.27318077  0.91591794  1
  Sb  Sb19  1  0.99895682  0.72681923  0.08408206  1
  Sb  Sb20  1  0.39272440  0.50000000  -0.00000000  1
  Sb  Sb21  1  0.60727560  0.00000000  0.50000000  1
  Sb  Sb22  1  0.38497505  0.90206882  0.19795267  1
  Sb  Sb23  1  0.38497505  0.09793118  0.80204733  1
  Sb  Sb24  1  0.61502495  0.40206882  0.69795267  1
  Sb  Sb25  1  0.61502495  0.59793118  0.30204733  1
  Sb  Sb26  1  0.61502495  0.19795267  0.09793118  1
  Sb  Sb27  1  0.61502495  0.80204733  0.90206882  1
  Sb  Sb28  1  0.38497505  0.69795267  0.59793118  1
  Sb  Sb29  1  0.38497505  0.30204733  0.40206882  1
