# generated using pymatgen
data_NaH4ClO6
_symmetry_space_group_name_H-M   'P 1'
_cell_length_a   6.37296401
_cell_length_b   7.23130506
_cell_length_c   7.73269882
_cell_angle_alpha   64.16136686
_cell_angle_beta   84.12382483
_cell_angle_gamma   68.66384985
_symmetry_Int_Tables_number   1
_chemical_formula_structural   NaH4ClO6
_chemical_formula_sum   'Na2 H8 Cl2 O12'
_cell_volume   298.07875251
_cell_formula_units_Z   2
loop_
 _symmetry_equiv_pos_site_id
 _symmetry_equiv_pos_as_xyz
  1  'x, y, z'
loop_
 _atom_site_type_symbol
 _atom_site_label
 _atom_site_symmetry_multiplicity
 _atom_site_fract_x
 _atom_site_fract_y
 _atom_site_fract_z
 _atom_site_occupancy
  Na  Na0  1  0.80024205  0.88316585  0.48242118  1
  Na  Na1  1  0.19975795  0.11683415  0.51757882  1
  H  H2  1  0.56472227  0.82999483  0.83378654  1
  H  H3  1  0.43527773  0.17000517  0.16621346  1
  H  H4  1  0.56203075  0.06775967  0.75814434  1
  H  H5  1  0.43796925  0.93224033  0.24185566  1
  H  H6  1  0.73530911  0.36130035  0.35389853  1
  H  H7  1  0.26469089  0.63869965  0.64610147  1
  H  H8  1  0.85788314  0.28917006  0.19835472  1
  H  H9  1  0.14211686  0.71082994  0.80164528  1
  Cl  Cl10  1  0.77855954  0.35741636  0.77818397  1
  Cl  Cl11  1  0.22144046  0.64258364  0.22181603  1
  O  O12  1  0.71737991  0.54690053  0.58818328  1
  O  O13  1  0.28262009  0.45309947  0.41181672  1
  O  O14  1  0.58235323  0.28914510  0.84284576  1
  O  O15  1  0.41764677  0.71085490  0.15715424  1
  O  O16  1  0.96588859  0.17647617  0.76360666  1
  O  O17  1  0.03411141  0.82352383  0.23639334  1
  O  O18  1  0.84125475  0.42213331  0.91404148  1
  O  O19  1  0.15874525  0.57786669  0.08595852  1
  O  O20  1  0.54871151  0.96286126  0.71520125  1
  O  O21  1  0.45128849  0.03713874  0.28479875  1
  O  O22  1  0.85005433  0.23667075  0.33879533  1
  O  O23  1  0.14994567  0.76332925  0.66120467  1
