# generated using pymatgen
data_Zn(GaS2)2
_symmetry_space_group_name_H-M   'P 1'
_cell_length_a   3.72526822
_cell_length_b   3.72526827
_cell_length_c   24.42555813
_cell_angle_alpha   85.60422369
_cell_angle_beta   85.60422438
_cell_angle_gamma   60.01933108
_symmetry_Int_Tables_number   1
_chemical_formula_structural   Zn(GaS2)2
_chemical_formula_sum   'Zn2 Ga4 S8'
_cell_volume   292.46029283
_cell_formula_units_Z   2
loop_
 _symmetry_equiv_pos_site_id
 _symmetry_equiv_pos_as_xyz
  1  'x, y, z'
loop_
 _atom_site_type_symbol
 _atom_site_label
 _atom_site_symmetry_multiplicity
 _atom_site_fract_x
 _atom_site_fract_y
 _atom_site_fract_z
 _atom_site_occupancy
  Zn  Zn0  1  0.67642031  0.67642031  0.97211769  1
  Zn  Zn1  1  0.50773711  0.50773711  0.47487990  1
  Ga  Ga2  1  0.39448247  0.39448247  0.81726273  1
  Ga  Ga3  1  0.11132011  0.11132011  0.66484272  1
  Ga  Ga4  1  0.22793783  0.22793783  0.31689375  1
  Ga  Ga5  1  0.94511134  0.94511134  0.16431529  1
  S  S6  1  0.99953832  0.99953832  0.99959051  1
  S  S7  1  0.71149540  0.71149540  0.86551662  1
  S  S8  1  0.08057881  0.08057881  0.75802636  1
  S  S9  1  0.45858993  0.45858993  0.62560607  1
  S  S10  1  0.16642249  0.16642249  0.50181023  1
  S  S11  1  0.54496505  0.54496505  0.36489325  1
  S  S12  1  0.91402304  0.91402304  0.25750977  1
  S  S13  1  0.62517780  0.62517780  0.12523511  1
