# generated using pymatgen
data_Zr(V3Ge2)3
_symmetry_space_group_name_H-M   'P 1'
_cell_length_a   4.89694577
_cell_length_b   7.29965864
_cell_length_c   7.29965864
_cell_angle_alpha   96.45994228
_cell_angle_beta   109.59825808
_cell_angle_gamma   70.40174192
_symmetry_Int_Tables_number   1
_chemical_formula_structural   Zr(V3Ge2)3
_chemical_formula_sum   'Zr1 V9 Ge6'
_cell_volume   231.57654960
_cell_formula_units_Z   1
loop_
 _symmetry_equiv_pos_site_id
 _symmetry_equiv_pos_as_xyz
  1  'x, y, z'
loop_
 _atom_site_type_symbol
 _atom_site_label
 _atom_site_symmetry_multiplicity
 _atom_site_fract_x
 _atom_site_fract_y
 _atom_site_fract_z
 _atom_site_occupancy
  Zr  Zr0  1  0.75000000  0.50000000  0.50000000  1
  V  V1  1  0.43070741  0.84731460  0.70568779  1
  V  V2  1  0.57233423  0.15268540  0.29431221  1
  V  V3  1  0.92766577  0.29431221  0.15268540  1
  V  V4  1  0.06929259  0.70568779  0.84731460  1
  V  V5  1  0.72197798  0.70568779  0.15268540  1
  V  V6  1  0.27498037  0.29431221  0.84731460  1
  V  V7  1  0.77802202  0.15268540  0.70568779  1
  V  V8  1  0.22501963  0.84731460  0.29431221  1
  V  V9  1  0.25000000  0.50000000  0.50000000  1
  Ge  Ge10  1  0.25000000  -0.00000000  0.00000000  1
  Ge  Ge11  1  0.75000000  -0.00000000  0.00000000  1
  Ge  Ge12  1  0.31266377  0.50000000  0.15505151  1
  Ge  Ge13  1  0.65761227  0.50000000  0.84494849  1
  Ge  Ge14  1  0.84238773  0.84494849  0.50000000  1
  Ge  Ge15  1  0.18733623  0.15505151  0.50000000  1
