# generated using pymatgen
data_Ti6Al16Pd7
_symmetry_space_group_name_H-M   'P 1'
_cell_length_a   8.63491426
_cell_length_b   8.63491426
_cell_length_c   8.63491426
_cell_angle_alpha   60.00000000
_cell_angle_beta   60.00000000
_cell_angle_gamma   60.00000000
_symmetry_Int_Tables_number   1
_chemical_formula_structural   Ti6Al16Pd7
_chemical_formula_sum   'Ti6 Al16 Pd7'
_cell_volume   455.25957791
_cell_formula_units_Z   1
loop_
 _symmetry_equiv_pos_site_id
 _symmetry_equiv_pos_as_xyz
  1  'x, y, z'
loop_
 _atom_site_type_symbol
 _atom_site_label
 _atom_site_symmetry_multiplicity
 _atom_site_fract_x
 _atom_site_fract_y
 _atom_site_fract_z
 _atom_site_occupancy
  Ti  Ti0  1  0.67230682  0.32769318  0.32769318  1
  Ti  Ti1  1  0.67230682  0.32769318  0.67230682  1
  Ti  Ti2  1  0.67230682  0.67230682  0.32769318  1
  Ti  Ti3  1  0.32769318  0.67230682  0.67230682  1
  Ti  Ti4  1  0.32769318  0.67230682  0.32769318  1
  Ti  Ti5  1  0.32769318  0.32769318  0.67230682  1
  Al  Al6  1  0.63857666  0.12047445  0.12047445  1
  Al  Al7  1  0.12047445  0.63857666  0.12047445  1
  Al  Al8  1  0.12047445  0.12047445  0.63857666  1
  Al  Al9  1  0.12047445  0.12047445  0.12047445  1
  Al  Al10  1  0.36142334  0.87952555  0.87952555  1
  Al  Al11  1  0.87952555  0.36142334  0.87952555  1
  Al  Al12  1  0.87952555  0.87952555  0.36142334  1
  Al  Al13  1  0.87952555  0.87952555  0.87952555  1
  Al  Al14  1  0.97939951  0.34020016  0.34020016  1
  Al  Al15  1  0.34020016  0.97939951  0.34020016  1
  Al  Al16  1  0.34020016  0.34020016  0.97939951  1
  Al  Al17  1  0.34020016  0.34020016  0.34020016  1
  Al  Al18  1  0.02060049  0.65979984  0.65979984  1
  Al  Al19  1  0.65979984  0.02060049  0.65979984  1
  Al  Al20  1  0.65979984  0.65979984  0.02060049  1
  Al  Al21  1  0.65979984  0.65979984  0.65979984  1
  Pd  Pd22  1  -0.00000000  -0.00000000  0.00000000  1
  Pd  Pd23  1  0.50000000  -0.00000000  0.00000000  1
  Pd  Pd24  1  0.50000000  -0.00000000  0.50000000  1
  Pd  Pd25  1  0.50000000  0.50000000  0.00000000  1
  Pd  Pd26  1  -0.00000000  0.50000000  0.50000000  1
  Pd  Pd27  1  -0.00000000  0.50000000  0.00000000  1
  Pd  Pd28  1  -0.00000000  -0.00000000  0.50000000  1
