# generated using pymatgen
data_Ir(SeBr3)3
_symmetry_space_group_name_H-M   'P 1'
_cell_length_a   8.94199841
_cell_length_b   13.27431337
_cell_length_c   15.55909628
_cell_angle_alpha   90.00000000
_cell_angle_beta   94.68961128
_cell_angle_gamma   90.00000000
_symmetry_Int_Tables_number   1
_chemical_formula_structural   Ir(SeBr3)3
_chemical_formula_sum   'Ir4 Se12 Br36'
_cell_volume   1840.66461754
_cell_formula_units_Z   4
loop_
 _symmetry_equiv_pos_site_id
 _symmetry_equiv_pos_as_xyz
  1  'x, y, z'
loop_
 _atom_site_type_symbol
 _atom_site_label
 _atom_site_symmetry_multiplicity
 _atom_site_fract_x
 _atom_site_fract_y
 _atom_site_fract_z
 _atom_site_occupancy
  Ir  Ir0  1  0.42387369  0.73849985  0.12841443  1
  Ir  Ir1  1  0.92387369  0.76150015  0.62841443  1
  Ir  Ir2  1  0.57612631  0.26150015  0.87158557  1
  Ir  Ir3  1  0.07612631  0.23849985  0.37158557  1
  Se  Se4  1  0.57799322  0.68079584  0.25980069  1
  Se  Se5  1  0.07799322  0.81920416  0.75980069  1
  Se  Se6  1  0.42200678  0.31920416  0.74019931  1
  Se  Se7  1  0.92200678  0.18079584  0.24019931  1
  Se  Se8  1  0.35925688  0.57639319  0.07252687  1
  Se  Se9  1  0.85925688  0.92360681  0.57252687  1
  Se  Se10  1  0.64074312  0.42360681  0.92747313  1
  Se  Se11  1  0.14074312  0.07639319  0.42747313  1
  Se  Se12  1  0.27154532  0.82298971  0.01309919  1
  Se  Se13  1  0.77154532  0.67701029  0.51309919  1
  Se  Se14  1  0.72845468  0.17701029  0.98690081  1
  Se  Se15  1  0.22845468  0.32298971  0.48690081  1
  Br  Br16  1  0.61696578  0.73365880  0.01592822  1
  Br  Br17  1  0.11696578  0.76634120  0.51592822  1
  Br  Br18  1  0.38303422  0.26634120  0.98407178  1
  Br  Br19  1  0.88303422  0.23365880  0.48407178  1
  Br  Br20  1  0.56168142  0.88635444  0.20375290  1
  Br  Br21  1  0.06168142  0.61364556  0.70375290  1
  Br  Br22  1  0.43831858  0.11364556  0.79624710  1
  Br  Br23  1  0.93831858  0.38635444  0.29624710  1
  Br  Br24  1  0.25142015  0.74298990  0.24737895  1
  Br  Br25  1  0.75142015  0.75701010  0.74737895  1
  Br  Br26  1  0.74857985  0.25701010  0.75262105  1
  Br  Br27  1  0.24857985  0.24298990  0.25262105  1
  Br  Br28  1  0.83778622  0.66701397  0.23685542  1
  Br  Br29  1  0.33778622  0.83298603  0.73685542  1
  Br  Br30  1  0.16221378  0.33298603  0.76314458  1
  Br  Br31  1  0.66221378  0.16701397  0.26314458  1
  Br  Br32  1  0.52665457  0.50459766  0.27982669  1
  Br  Br33  1  0.02665457  0.99540234  0.77982669  1
  Br  Br34  1  0.47334543  0.49540234  0.72017331  1
  Br  Br35  1  0.97334543  0.00459766  0.22017331  1
  Br  Br36  1  0.26178962  0.59547654  0.92389481  1
  Br  Br37  1  0.76178962  0.90452346  0.42389481  1
  Br  Br38  1  0.73821038  0.40452346  0.07610519  1
  Br  Br39  1  0.23821038  0.09547654  0.57610519  1
  Br  Br40  1  0.14982249  0.50557695  0.13367090  1
  Br  Br41  1  0.64982249  0.99442305  0.63367090  1
  Br  Br42  1  0.85017751  0.49442305  0.86632910  1
  Br  Br43  1  0.35017751  0.00557695  0.36632910  1
  Br  Br44  1  0.01424451  0.79341167  0.03336747  1
  Br  Br45  1  0.51424451  0.70658833  0.53336747  1
  Br  Br46  1  0.98575549  0.20658833  0.96663253  1
  Br  Br47  1  0.48575549  0.29341167  0.46663253  1
  Br  Br48  1  0.29075971  0.99858217  0.03556265  1
  Br  Br49  1  0.79075971  0.50141783  0.53556265  1
  Br  Br50  1  0.70924029  0.00141783  0.96443735  1
  Br  Br51  1  0.20924029  0.49858217  0.46443735  1
