# generated using pymatgen
data_Si2Te(H3C)6
_symmetry_space_group_name_H-M   'P 1'
_cell_length_a   7.86918526
_cell_length_b   7.86918526
_cell_length_c   12.48704876
_cell_angle_alpha   98.29040949
_cell_angle_beta   98.29040949
_cell_angle_gamma   100.77687219
_symmetry_Int_Tables_number   1
_chemical_formula_structural   Si2Te(H3C)6
_chemical_formula_sum   'Si4 Te2 H36 C12'
_cell_volume   739.93085065
_cell_formula_units_Z   2
loop_
 _symmetry_equiv_pos_site_id
 _symmetry_equiv_pos_as_xyz
  1  'x, y, z'
loop_
 _atom_site_type_symbol
 _atom_site_label
 _atom_site_symmetry_multiplicity
 _atom_site_fract_x
 _atom_site_fract_y
 _atom_site_fract_z
 _atom_site_occupancy
  Si  Si0  1  0.43168668  0.20187918  0.29234787  1
  Si  Si1  1  0.79812082  0.56831332  0.20765213  1
  Si  Si2  1  0.56831332  0.79812082  0.70765213  1
  Si  Si3  1  0.20187918  0.43168668  0.79234787  1
  Te  Te4  1  0.48591845  0.51408155  0.25000000  1
  Te  Te5  1  0.51408155  0.48591845  0.75000000  1
  H  H6  1  0.48583590  0.05266906  0.11435936  1
  H  H7  1  0.94733094  0.51416410  0.38564064  1
  H  H8  1  0.51416410  0.94733094  0.88564064  1
  H  H9  1  0.05266906  0.48583590  0.61435936  1
  H  H10  1  0.34862153  0.90287704  0.17600991  1
  H  H11  1  0.09712296  0.65137847  0.32399009  1
  H  H12  1  0.65137847  0.09712296  0.82399009  1
  H  H13  1  0.90287704  0.34862153  0.67600991  1
  H  H14  1  0.26036097  0.05987663  0.10763189  1
  H  H15  1  0.94012337  0.73963903  0.39236811  1
  H  H16  1  0.73963903  0.94012337  0.89236811  1
  H  H17  1  0.05987663  0.26036097  0.60763189  1
  H  H18  1  0.74409230  0.18260665  0.34448885  1
  H  H19  1  0.81739335  0.25590770  0.15551115  1
  H  H20  1  0.25590770  0.81739335  0.65551115  1
  H  H21  1  0.18260665  0.74409230  0.84448885  1
  H  H22  1  0.65652412  0.25716806  0.46202953  1
  H  H23  1  0.74283194  0.34347588  0.03797047  1
  H  H24  1  0.34347588  0.74283194  0.53797047  1
  H  H25  1  0.25716806  0.65652412  0.96202953  1
  H  H26  1  0.60408814  0.02951191  0.40196125  1
  H  H27  1  0.97048809  0.39591186  0.09803875  1
  H  H28  1  0.39591186  0.97048809  0.59803875  1
  H  H29  1  0.02951191  0.60408814  0.90196125  1
  H  H30  1  0.20759044  0.05278563  0.38506173  1
  H  H31  1  0.94721437  0.79240956  0.11493827  1
  H  H32  1  0.79240956  0.94721437  0.61493827  1
  H  H33  1  0.05278563  0.20759044  0.88506173  1
  H  H34  1  0.26347965  0.28138882  0.44133499  1
  H  H35  1  0.71861118  0.73652035  0.05866501  1
  H  H36  1  0.73652035  0.71861118  0.55866501  1
  H  H37  1  0.28138882  0.26347965  0.94133499  1
  H  H38  1  0.11958381  0.20410043  0.31211699  1
  H  H39  1  0.79589957  0.88041619  0.18788301  1
  H  H40  1  0.88041619  0.79589957  0.68788301  1
  H  H41  1  0.20410043  0.11958381  0.81211699  1
  C  C42  1  0.37614061  0.03873144  0.16020068  1
  C  C43  1  0.96126856  0.62385939  0.33979932  1
  C  C44  1  0.62385939  0.96126856  0.83979932  1
  C  C45  1  0.03873144  0.37614061  0.66020068  1
  C  C46  1  0.62744606  0.16431285  0.38410398  1
  C  C47  1  0.83568715  0.37255394  0.11589602  1
  C  C48  1  0.37255394  0.83568715  0.61589602  1
  C  C49  1  0.16431285  0.62744606  0.88410398  1
  C  C50  1  0.23693157  0.18563130  0.36463617  1
  C  C51  1  0.81436870  0.76306843  0.13536383  1
  C  C52  1  0.76306843  0.81436870  0.63536383  1
  C  C53  1  0.18563130  0.23693157  0.86463617  1
