# generated using pymatgen
data_CaPHO4
_symmetry_space_group_name_H-M   'P 1'
_cell_length_a   6.95880622
_cell_length_b   10.19408657
_cell_length_c   10.71058067
_cell_angle_alpha   115.00929493
_cell_angle_beta   90.00000000
_cell_angle_gamma   90.00000000
_symmetry_Int_Tables_number   1
_chemical_formula_structural   CaPHO4
_chemical_formula_sum   'Ca8 P8 H8 O32'
_cell_volume   688.55546297
_cell_formula_units_Z   8
loop_
 _symmetry_equiv_pos_site_id
 _symmetry_equiv_pos_as_xyz
  1  'x, y, z'
loop_
 _atom_site_type_symbol
 _atom_site_label
 _atom_site_symmetry_multiplicity
 _atom_site_fract_x
 _atom_site_fract_y
 _atom_site_fract_z
 _atom_site_occupancy
  Ca  Ca0  1  0.98748436  0.20751148  0.24729951  1
  Ca  Ca1  1  0.51251564  0.70751148  0.74729951  1
  Ca  Ca2  1  0.01251564  0.79248852  0.75270049  1
  Ca  Ca3  1  0.48748436  0.29248852  0.25270049  1
  Ca  Ca4  1  0.18951091  0.23654855  0.93425302  1
  Ca  Ca5  1  0.31048909  0.73654855  0.43425302  1
  Ca  Ca6  1  0.81048909  0.76345145  0.06574698  1
  Ca  Ca7  1  0.68951091  0.26345145  0.56574698  1
  P  P8  1  0.24965400  0.95691878  0.06099987  1
  P  P9  1  0.25034600  0.45691878  0.56099987  1
  P  P10  1  0.75034600  0.04308122  0.93900013  1
  P  P11  1  0.74965400  0.54308122  0.43900013  1
  P  P12  1  0.49127667  0.96871076  0.29913556  1
  P  P13  1  0.00872333  0.46871076  0.79913556  1
  P  P14  1  0.50872333  0.03128924  0.70086444  1
  P  P15  1  0.99127667  0.53128924  0.20086444  1
  H  H16  1  0.08048000  0.06213366  0.41662930  1
  H  H17  1  0.41952000  0.56213366  0.91662930  1
  H  H18  1  0.91952000  0.93786634  0.58337070  1
  H  H19  1  0.58048000  0.43786634  0.08337070  1
  H  H20  1  0.86598654  0.01130992  0.36928451  1
  H  H21  1  0.63401346  0.51130992  0.86928451  1
  H  H22  1  0.13401346  0.98869008  0.63071549  1
  H  H23  1  0.36598654  0.48869008  0.13071549  1
  O  O24  1  0.05678161  0.93682234  0.11979101  1
  O  O25  1  0.44321839  0.43682234  0.61979101  1
  O  O26  1  0.94321839  0.06317766  0.88020899  1
  O  O27  1  0.55678161  0.56317766  0.38020899  1
  O  O28  1  0.27012864  0.12174732  0.09927371  1
  O  O29  1  0.22987136  0.62174732  0.59927371  1
  O  O30  1  0.72987136  0.87825268  0.90072629  1
  O  O31  1  0.77012864  0.37825268  0.40072629  1
  O  O32  1  0.42385842  0.91180128  0.13537110  1
  O  O33  1  0.07614158  0.41180128  0.63537110  1
  O  O34  1  0.57614158  0.08819872  0.86462890  1
  O  O35  1  0.92385842  0.58819872  0.36462890  1
  O  O36  1  0.27662787  0.86188981  0.90718442  1
  O  O37  1  0.22337213  0.36188981  0.40718442  1
  O  O38  1  0.72337213  0.13811019  0.09281558  1
  O  O39  1  0.77662787  0.63811019  0.59281558  1
  O  O40  1  0.33283202  0.92944836  0.37482292  1
  O  O41  1  0.16716798  0.42944836  0.87482292  1
  O  O42  1  0.66716798  0.07055164  0.62517708  1
  O  O43  1  0.83283202  0.57055164  0.12517708  1
  O  O44  1  0.68247053  0.88887892  0.28297308  1
  O  O45  1  0.81752947  0.38887892  0.78297308  1
  O  O46  1  0.31752947  0.11112108  0.71702692  1
  O  O47  1  0.18247053  0.61112108  0.21702692  1
  O  O48  1  0.52344911  0.13317611  0.35561868  1
  O  O49  1  0.97655089  0.63317611  0.85561868  1
  O  O50  1  0.47655089  0.86682389  0.64438132  1
  O  O51  1  0.02344911  0.36682389  0.14438132  1
  O  O52  1  0.95073694  0.09946287  0.41293008  1
  O  O53  1  0.54926306  0.59946287  0.91293008  1
  O  O54  1  0.04926306  0.90053713  0.58706992  1
  O  O55  1  0.45073694  0.40053713  0.08706992  1
