# generated using pymatgen
data_K23(Sn3Au4)3
_symmetry_space_group_name_H-M   'P 1'
_cell_length_a   7.58272075
_cell_length_b   14.87113422
_cell_length_c   14.87113422
_cell_angle_alpha   86.27324490
_cell_angle_beta   75.22951817
_cell_angle_gamma   75.22951817
_symmetry_Int_Tables_number   1
_chemical_formula_structural   K23(Sn3Au4)3
_chemical_formula_sum   'K23 Sn9 Au12'
_cell_volume   1567.92632963
_cell_formula_units_Z   1
loop_
 _symmetry_equiv_pos_site_id
 _symmetry_equiv_pos_as_xyz
  1  'x, y, z'
loop_
 _atom_site_type_symbol
 _atom_site_label
 _atom_site_symmetry_multiplicity
 _atom_site_fract_x
 _atom_site_fract_y
 _atom_site_fract_z
 _atom_site_occupancy
  K  K0  1  0.30665672  0.78434703  0.13131086  1
  K  K1  1  0.22231461  0.21565297  0.86868914  1
  K  K2  1  0.69334328  0.86868914  0.21565297  1
  K  K3  1  0.77768539  0.13131086  0.78434703  1
  K  K4  1  0.90899625  0.86868914  0.78434703  1
  K  K5  1  0.56203242  0.13131086  0.21565297  1
  K  K6  1  0.09100375  0.21565297  0.13131086  1
  K  K7  1  0.43796758  0.78434703  0.86868914  1
  K  K8  1  0.86527035  0.76094217  0.44064077  1
  K  K9  1  0.06685329  0.23905783  0.55935923  1
  K  K10  1  0.13472965  0.55935923  0.23905783  1
  K  K11  1  0.93314671  0.44064077  0.76094217  1
  K  K12  1  0.37378748  0.55935923  0.76094217  1
  K  K13  1  0.69408887  0.44064077  0.23905783  1
  K  K14  1  0.62621252  0.23905783  0.44064077  1
  K  K15  1  0.30591113  0.76094217  0.55935923  1
  K  K16  1  -0.00000000  -0.00000000  -0.00000000  1
  K  K17  1  0.42029841  -0.00000000  0.43766191  1
  K  K18  1  0.85796032  -0.00000000  0.56233809  1
  K  K19  1  0.57970159  0.56233809  0.00000000  1
  K  K20  1  0.14203968  0.43766191  -0.00000000  1
  K  K21  1  0.75000000  0.50000000  0.50000000  1
  K  K22  1  0.25000000  0.50000000  0.50000000  1
  Sn  Sn23  1  0.50000000  -0.00000000  -0.00000000  1
  Sn  Sn24  1  0.96662352  0.00000000  0.32284305  1
  Sn  Sn25  1  0.28946658  0.00000000  0.67715695  1
  Sn  Sn26  1  0.03337648  0.67715695  0.00000000  1
  Sn  Sn27  1  0.71053342  0.32284305  -0.00000000  1
  Sn  Sn28  1  0.50000000  0.67042428  0.32957572  1
  Sn  Sn29  1  0.50000000  0.32957572  0.67042428  1
  Sn  Sn30  1  0.82957572  0.67042428  0.67042428  1
  Sn  Sn31  1  0.17042428  0.32957572  0.32957572  1
  Au  Au32  1  0.24129734  0.00000000  0.16551634  1
  Au  Au33  1  0.40681367  -0.00000000  0.83448366  1
  Au  Au34  1  0.75870266  0.83448366  0.00000000  1
  Au  Au35  1  0.59318633  0.16551634  -0.00000000  1
  Au  Au36  1  0.24853469  0.84189139  0.34342941  1
  Au  Au37  1  0.43385548  0.15810861  0.65657059  1
  Au  Au38  1  0.75146531  0.65657059  0.15810861  1
  Au  Au39  1  0.56614452  0.34342941  0.84189139  1
  Au  Au40  1  0.90957392  0.65657059  0.84189139  1
  Au  Au41  1  0.40803590  0.34342941  0.15810861  1
  Au  Au42  1  0.09042608  0.15810861  0.34342941  1
  Au  Au43  1  0.59196410  0.84189139  0.65657059  1
