# generated using pymatgen
data_MgSiO3
_symmetry_space_group_name_H-M   'P 1'
_cell_length_a   5.22871006
_cell_length_b   8.89642089
_cell_length_c   9.40671248
_cell_angle_alpha   90.00000000
_cell_angle_beta   93.94853045
_cell_angle_gamma   90.00000000
_symmetry_Int_Tables_number   1
_chemical_formula_structural   MgSiO3
_chemical_formula_sum   'Mg8 Si8 O24'
_cell_volume   436.53155795
_cell_formula_units_Z   8
loop_
 _symmetry_equiv_pos_site_id
 _symmetry_equiv_pos_as_xyz
  1  'x, y, z'
loop_
 _atom_site_type_symbol
 _atom_site_label
 _atom_site_symmetry_multiplicity
 _atom_site_fract_x
 _atom_site_fract_y
 _atom_site_fract_z
 _atom_site_occupancy
  Mg  Mg0  1  0.75000000  0.59895846  -0.00000000  1
  Mg  Mg1  1  0.25000000  0.40104154  -0.00000000  1
  Mg  Mg2  1  0.75000000  0.23778460  -0.00000000  1
  Mg  Mg3  1  0.25000000  0.76221540  -0.00000000  1
  Mg  Mg4  1  0.75000000  0.09902864  0.50000000  1
  Mg  Mg5  1  0.25000000  0.90097136  0.50000000  1
  Mg  Mg6  1  0.75000000  0.73470592  0.50000000  1
  Mg  Mg7  1  0.25000000  0.26529408  0.50000000  1
  Si  Si8  1  0.13588276  0.58992260  0.29464182  1
  Si  Si9  1  0.36411724  0.58992260  0.70535818  1
  Si  Si10  1  0.86411724  0.41007740  0.70535818  1
  Si  Si11  1  0.63588276  0.41007740  0.29464182  1
  Si  Si12  1  0.56043962  0.91034006  0.20889166  1
  Si  Si13  1  0.93956038  0.91034006  0.79110834  1
  Si  Si14  1  0.43956038  0.08965994  0.79110834  1
  Si  Si15  1  0.06043962  0.08965994  0.20889166  1
  O  O16  1  0.10340068  0.59196590  0.12026082  1
  O  O17  1  0.39659932  0.59196590  0.87973918  1
  O  O18  1  0.89659932  0.40803410  0.87973918  1
  O  O19  1  0.60340068  0.40803410  0.12026082  1
  O  O20  1  0.05278452  0.73926832  0.37777686  1
  O  O21  1  0.44721548  0.73926832  0.62222314  1
  O  O22  1  0.94721548  0.26073168  0.62222314  1
  O  O23  1  0.55278452  0.26073168  0.37777686  1
  O  O24  1  0.94081272  0.45289364  0.34917289  1
  O  O25  1  0.55918728  0.45289364  0.65082711  1
  O  O26  1  0.05918728  0.54710636  0.65082711  1
  O  O27  1  0.44081272  0.54710636  0.34917289  1
  O  O28  1  0.07549012  0.09206575  0.38307436  1
  O  O29  1  0.42450988  0.09206575  0.61692564  1
  O  O30  1  0.92450988  0.90793425  0.61692564  1
  O  O31  1  0.57549012  0.90793425  0.38307436  1
  O  O32  1  0.08858950  0.24155928  0.12052884  1
  O  O33  1  0.41141050  0.24155928  0.87947116  1
  O  O34  1  0.91141050  0.75844072  0.87947116  1
  O  O35  1  0.58858950  0.75844072  0.12052884  1
  O  O36  1  0.25850309  0.95858685  0.15385527  1
  O  O37  1  0.24149691  0.95858685  0.84614473  1
  O  O38  1  0.74149691  0.04141315  0.84614473  1
  O  O39  1  0.75850309  0.04141315  0.15385527  1
