# generated using pymatgen
data_MgFe(SiO3)2
_symmetry_space_group_name_H-M   'P 1'
_cell_length_a   5.29134572
_cell_length_b   9.09353351
_cell_length_c   18.63024690
_cell_angle_alpha   90.00000000
_cell_angle_beta   90.00000000
_cell_angle_gamma   90.00000000
_symmetry_Int_Tables_number   1
_chemical_formula_structural   MgFe(SiO3)2
_chemical_formula_sum   'Mg8 Fe8 Si16 O48'
_cell_volume   896.43214187
_cell_formula_units_Z   8
loop_
 _symmetry_equiv_pos_site_id
 _symmetry_equiv_pos_as_xyz
  1  'x, y, z'
loop_
 _atom_site_type_symbol
 _atom_site_label
 _atom_site_symmetry_multiplicity
 _atom_site_fract_x
 _atom_site_fract_y
 _atom_site_fract_z
 _atom_site_occupancy
  Mg  Mg0  1  0.85985063  0.50745784  0.12567968  1
  Mg  Mg1  1  0.14014937  0.99254216  0.62567968  1
  Mg  Mg2  1  0.64014937  0.00745784  0.87432032  1
  Mg  Mg3  1  0.35985063  0.49254216  0.37432032  1
  Mg  Mg4  1  0.14014937  0.49254216  0.87432032  1
  Mg  Mg5  1  0.85985063  0.00745784  0.37432032  1
  Mg  Mg6  1  0.35985063  0.99254216  0.12567968  1
  Mg  Mg7  1  0.64014937  0.50745784  0.62567968  1
  Fe  Fe8  1  0.36390004  0.34731807  0.12301688  1
  Fe  Fe9  1  0.63609996  0.15268193  0.62301688  1
  Fe  Fe10  1  0.13609996  0.84731807  0.87698312  1
  Fe  Fe11  1  0.86390004  0.65268193  0.37698312  1
  Fe  Fe12  1  0.63609996  0.65268193  0.87698312  1
  Fe  Fe13  1  0.36390004  0.84731807  0.37698312  1
  Fe  Fe14  1  0.86390004  0.15268193  0.12301688  1
  Fe  Fe15  1  0.13609996  0.34731807  0.62301688  1
  Si  Si16  1  0.27620870  0.66473305  0.02583387  1
  Si  Si17  1  0.72379130  0.83526695  0.52583387  1
  Si  Si18  1  0.22379130  0.16473305  0.97416613  1
  Si  Si19  1  0.77620870  0.33526695  0.47416613  1
  Si  Si20  1  0.72379130  0.33526695  0.97416613  1
  Si  Si21  1  0.27620870  0.16473305  0.47416613  1
  Si  Si22  1  0.77620870  0.83526695  0.02583387  1
  Si  Si23  1  0.22379130  0.66473305  0.52583387  1
  Si  Si24  1  0.54866039  0.66074135  0.22641146  1
  Si  Si25  1  0.45133961  0.83925865  0.72641146  1
  Si  Si26  1  0.95133961  0.16074135  0.77358854  1
  Si  Si27  1  0.04866039  0.33925865  0.27358854  1
  Si  Si28  1  0.45133961  0.33925865  0.77358854  1
  Si  Si29  1  0.54866039  0.16074135  0.27358854  1
  Si  Si30  1  0.04866039  0.83925865  0.22641146  1
  Si  Si31  1  0.95133961  0.66074135  0.72641146  1
  O  O32  1  0.28062301  0.65956807  0.93774298  1
  O  O33  1  0.71937699  0.84043193  0.43774298  1
  O  O34  1  0.21937699  0.15956807  0.06225702  1
  O  O35  1  0.78062301  0.34043193  0.56225702  1
  O  O36  1  0.71937699  0.34043193  0.06225702  1
  O  O37  1  0.28062301  0.15956807  0.56225702  1
  O  O38  1  0.78062301  0.84043193  0.93774298  1
  O  O39  1  0.21937699  0.65956807  0.43774298  1
  O  O40  1  0.53911352  0.50442341  0.18600525  1
  O  O41  1  0.46088648  0.99557659  0.68600525  1
  O  O42  1  0.96088648  0.00442341  0.81399475  1
  O  O43  1  0.03911352  0.49557659  0.31399475  1
  O  O44  1  0.46088648  0.49557659  0.81399475  1
  O  O45  1  0.53911352  0.00442341  0.31399475  1
  O  O46  1  0.03911352  0.99557659  0.18600525  1
  O  O47  1  0.96088648  0.50442341  0.68600525  1
  O  O48  1  0.07597113  0.80011403  0.05055500  1
  O  O49  1  0.92402887  0.69988597  0.55055500  1
  O  O50  1  0.42402887  0.30011403  0.94944500  1
  O  O51  1  0.57597113  0.19988597  0.44944500  1
  O  O52  1  0.92402887  0.19988597  0.94944500  1
  O  O53  1  0.07597113  0.30011403  0.44944500  1
  O  O54  1  0.57597113  0.69988597  0.05055500  1
  O  O55  1  0.42402887  0.80011403  0.55055500  1
  O  O56  1  0.52772489  0.65575548  0.31353085  1
  O  O57  1  0.47227511  0.84424452  0.81353085  1
  O  O58  1  0.97227511  0.15575548  0.68646915  1
  O  O59  1  0.02772489  0.34424452  0.18646915  1
  O  O60  1  0.47227511  0.34424452  0.68646915  1
  O  O61  1  0.52772489  0.15575548  0.18646915  1
  O  O62  1  0.02772489  0.84424452  0.31353085  1
  O  O63  1  0.97227511  0.65575548  0.81353085  1
  O  O64  1  0.17580342  0.52159274  0.06794865  1
  O  O65  1  0.82419658  0.97840726  0.56794865  1
  O  O66  1  0.32419658  0.02159274  0.93205135  1
  O  O67  1  0.67580342  0.47840726  0.43205135  1
  O  O68  1  0.82419658  0.47840726  0.93205135  1
  O  O69  1  0.17580342  0.02159274  0.43205135  1
  O  O70  1  0.67580342  0.97840726  0.06794865  1
  O  O71  1  0.32419658  0.52159274  0.56794865  1
  O  O72  1  0.33291012  0.78051768  0.19706272  1
  O  O73  1  0.66708988  0.71948232  0.69706272  1
  O  O74  1  0.16708988  0.28051768  0.80293728  1
  O  O75  1  0.83291012  0.21948232  0.30293728  1
  O  O76  1  0.66708988  0.21948232  0.80293728  1
  O  O77  1  0.33291012  0.28051768  0.30293728  1
  O  O78  1  0.83291012  0.71948232  0.19706272  1
  O  O79  1  0.16708988  0.78051768  0.69706272  1
