# generated using pymatgen
data_BaGe4(RhS3)2
_symmetry_space_group_name_H-M   'P 1'
_cell_length_a   5.98264583
_cell_length_b   6.04408697
_cell_length_c   29.52946362
_cell_angle_alpha   90.00000000
_cell_angle_beta   90.00000000
_cell_angle_gamma   90.00000000
_symmetry_Int_Tables_number   1
_chemical_formula_structural   BaGe4(RhS3)2
_chemical_formula_sum   'Ba4 Ge16 Rh8 S24'
_cell_volume   1067.77452901
_cell_formula_units_Z   4
loop_
 _symmetry_equiv_pos_site_id
 _symmetry_equiv_pos_as_xyz
  1  'x, y, z'
loop_
 _atom_site_type_symbol
 _atom_site_label
 _atom_site_symmetry_multiplicity
 _atom_site_fract_x
 _atom_site_fract_y
 _atom_site_fract_z
 _atom_site_occupancy
  Ba  Ba0  1  -0.00000000  0.50000000  0.50000000  1
  Ba  Ba1  1  0.50000000  -0.00000000  0.50000000  1
  Ba  Ba2  1  0.50000000  0.50000000  0.00000000  1
  Ba  Ba3  1  -0.00000000  0.00000000  0.00000000  1
  Ge  Ge4  1  0.61247420  0.12048363  0.68423261  1
  Ge  Ge5  1  0.88752580  0.62048363  0.31576739  1
  Ge  Ge6  1  0.11247420  0.87951637  0.81576739  1
  Ge  Ge7  1  0.38752580  0.37951637  0.18423261  1
  Ge  Ge8  1  0.38752580  0.87951637  0.31576739  1
  Ge  Ge9  1  0.11247420  0.37951637  0.68423261  1
  Ge  Ge10  1  0.88752580  0.12048363  0.18423261  1
  Ge  Ge11  1  0.61247420  0.62048363  0.81576739  1
  Ge  Ge12  1  0.08300205  0.41837142  0.87664436  1
  Ge  Ge13  1  0.41699795  0.91837142  0.12335564  1
  Ge  Ge14  1  0.58300205  0.58162858  0.62335564  1
  Ge  Ge15  1  0.91699795  0.08162858  0.37664436  1
  Ge  Ge16  1  0.91699795  0.58162858  0.12335564  1
  Ge  Ge17  1  0.58300205  0.08162858  0.87664436  1
  Ge  Ge18  1  0.41699795  0.41837142  0.37664436  1
  Ge  Ge19  1  0.08300205  0.91837142  0.62335564  1
  Rh  Rh20  1  0.49030809  0.49707428  0.70101394  1
  Rh  Rh21  1  0.00969191  0.99707428  0.29898606  1
  Rh  Rh22  1  0.99030809  0.50292572  0.79898606  1
  Rh  Rh23  1  0.50969191  0.00292572  0.20101394  1
  Rh  Rh24  1  0.50969191  0.50292572  0.29898606  1
  Rh  Rh25  1  0.99030809  0.00292572  0.70101394  1
  Rh  Rh26  1  0.00969191  0.49707428  0.20101394  1
  Rh  Rh27  1  0.49030809  0.99707428  0.79898606  1
  S  S28  1  0.37560354  0.38028057  0.77663863  1
  S  S29  1  0.12439646  0.88028057  0.22336137  1
  S  S30  1  0.87560354  0.61971943  0.72336137  1
  S  S31  1  0.62439646  0.11971943  0.27663863  1
  S  S32  1  0.62439646  0.61971943  0.22336137  1
  S  S33  1  0.87560354  0.11971943  0.77663863  1
  S  S34  1  0.12439646  0.38028057  0.27663863  1
  S  S35  1  0.37560354  0.88028057  0.72336137  1
  S  S36  1  0.49017386  0.46298779  0.88666182  1
  S  S37  1  0.00982614  0.96298779  0.11333818  1
  S  S38  1  0.99017386  0.53701221  0.61333818  1
  S  S39  1  0.50982614  0.03701221  0.38666182  1
  S  S40  1  0.50982614  0.53701221  0.11333818  1
  S  S41  1  0.99017386  0.03701221  0.88666182  1
  S  S42  1  0.00982614  0.46298779  0.38666182  1
  S  S43  1  0.49017386  0.96298779  0.61333818  1
  S  S44  1  0.50491043  0.49587239  0.55119649  1
  S  S45  1  0.99508957  0.99587239  0.44880351  1
  S  S46  1  0.00491043  0.50412761  0.94880351  1
  S  S47  1  0.49508957  0.00412761  0.05119649  1
  S  S48  1  0.49508957  0.50412761  0.44880351  1
  S  S49  1  0.00491043  0.00412761  0.55119649  1
  S  S50  1  0.99508957  0.49587239  0.05119649  1
  S  S51  1  0.50491043  0.99587239  0.94880351  1
