# generated using pymatgen
data_SrV2(H4O5)2
_symmetry_space_group_name_H-M   'P 1'
_cell_length_a   7.27379921
_cell_length_b   10.80296822
_cell_length_c   13.12394028
_cell_angle_alpha   75.75964594
_cell_angle_beta   73.91163829
_cell_angle_gamma   70.32664251
_symmetry_Int_Tables_number   1
_chemical_formula_structural   SrV2(H4O5)2
_chemical_formula_sum   'Sr4 V8 H32 O40'
_cell_volume   919.64812589
_cell_formula_units_Z   4
loop_
 _symmetry_equiv_pos_site_id
 _symmetry_equiv_pos_as_xyz
  1  'x, y, z'
loop_
 _atom_site_type_symbol
 _atom_site_label
 _atom_site_symmetry_multiplicity
 _atom_site_fract_x
 _atom_site_fract_y
 _atom_site_fract_z
 _atom_site_occupancy
  Sr  Sr0  1  0.28209083  0.93937176  0.46057656  1
  Sr  Sr1  1  0.68203915  0.56062824  0.03942344  1
  Sr  Sr2  1  0.71790917  0.06062824  0.53942344  1
  Sr  Sr3  1  0.31796085  0.43937176  0.96057656  1
  V  V4  1  0.06425294  0.22055638  0.63277486  1
  V  V5  1  0.91758417  0.27944362  0.86722514  1
  V  V6  1  0.93574706  0.77944362  0.36722514  1
  V  V7  1  0.08241583  0.72055638  0.13277486  1
  V  V8  1  0.05808313  0.96793454  0.88291713  1
  V  V9  1  0.90893480  0.53206546  0.61708287  1
  V  V10  1  0.94191687  0.03206546  0.11708287  1
  V  V11  1  0.09106520  0.46793454  0.38291713  1
  H  H12  1  0.27002184  0.90469701  0.23117054  1
  H  H13  1  0.40588940  0.59530299  0.26882946  1
  H  H14  1  0.72997816  0.09530299  0.76882946  1
  H  H15  1  0.59411060  0.40469701  0.73117054  1
  H  H16  1  0.50091460  0.87829478  0.21376630  1
  H  H17  1  0.59297568  0.62170522  0.28623370  1
  H  H18  1  0.49908540  0.12170522  0.78623370  1
  H  H19  1  0.40702432  0.37829478  0.71376630  1
  H  H20  1  0.96555527  0.87565416  0.71693278  1
  H  H21  1  0.55814221  0.62434584  0.78306722  1
  H  H22  1  0.03444473  0.12434584  0.28306722  1
  H  H23  1  0.44185779  0.37565416  0.21693278  1
  H  H24  1  0.99572264  0.76705397  0.64935663  1
  H  H25  1  0.41213323  0.73294603  0.85064337  1
  H  H26  1  0.00427736  0.23294603  0.35064337  1
  H  H27  1  0.58786677  0.26705397  0.14935663  1
  H  H28  1  0.52782919  0.35918149  0.45151186  1
  H  H29  1  0.33852254  0.14081851  0.04848814  1
  H  H30  1  0.47217081  0.64081851  0.54848814  1
  H  H31  1  0.66147746  0.85918149  0.95151186  1
  H  H32  1  0.73248719  0.35777417  0.46907615  1
  H  H33  1  0.55933751  0.14222583  0.03092385  1
  H  H34  1  0.26751281  0.64222583  0.53092385  1
  H  H35  1  0.44066249  0.85777417  0.96907615  1
  H  H36  1  0.58541225  0.08732992  0.31766072  1
  H  H37  1  0.99040289  0.41267008  0.18233928  1
  H  H38  1  0.41458775  0.91267008  0.68233928  1
  H  H39  1  0.00959711  0.58732992  0.81766072  1
  H  H40  1  0.43644046  0.20266676  0.38004477  1
  H  H41  1  0.01915198  0.29733324  0.11995523  1
  H  H42  1  0.56355954  0.79733324  0.61995523  1
  H  H43  1  0.98084802  0.70266676  0.88004477  1
  O  O44  1  0.00605292  0.38612680  0.52968992  1
  O  O45  1  0.92186964  0.11387320  0.97031008  1
  O  O46  1  0.99394708  0.61387320  0.47031008  1
  O  O47  1  0.07813036  0.88612680  0.02968992  1
  O  O48  1  0.98509012  0.13135437  0.78062307  1
  O  O49  1  0.89706757  0.36864563  0.71937693  1
  O  O50  1  0.01490988  0.86864563  0.21937693  1
  O  O51  1  0.10293243  0.63135437  0.28062307  1
  O  O52  1  0.01346320  0.12174824  0.56934037  1
  O  O53  1  0.70455182  0.37825176  0.93065963  1
  O  O54  1  0.98653680  0.87825176  0.43065963  1
  O  O55  1  0.29544818  0.62174824  0.06934037  1
  O  O56  1  0.31001266  0.18207680  0.61506285  1
  O  O57  1  0.10715231  0.31792320  0.88493715  1
  O  O58  1  0.68998734  0.81792320  0.38493715  1
  O  O59  1  0.89284769  0.68207680  0.11506285  1
  O  O60  1  0.93109132  0.87627776  0.85868593  1
  O  O61  1  0.66605501  0.62372224  0.64131407  1
  O  O62  1  0.06890868  0.12372224  0.14131407  1
  O  O63  1  0.33394499  0.37627776  0.35868593  1
  O  O64  1  0.30195930  0.91170933  0.82586323  1
  O  O65  1  0.03953187  0.58829067  0.67413677  1
  O  O66  1  0.69804070  0.08829067  0.17413677  1
  O  O67  1  0.96046813  0.41170933  0.32586323  1
  O  O68  1  0.37425461  0.90631166  0.26407811  1
  O  O69  1  0.54464438  0.59368834  0.23592189  1
  O  O70  1  0.62574539  0.09368834  0.73592189  1
  O  O71  1  0.45535562  0.40631166  0.76407811  1
  O  O72  1  0.98572132  0.86251648  0.64228070  1
  O  O73  1  0.49051850  0.63748352  0.85771930  1
  O  O74  1  0.01427868  0.13748352  0.35771930  1
  O  O75  1  0.50948150  0.36251648  0.14228070  1
  O  O76  1  0.61922162  0.32168584  0.50173818  1
  O  O77  1  0.44264564  0.17831416  0.99826182  1
  O  O78  1  0.38077838  0.67831416  0.49826182  1
  O  O79  1  0.55735436  0.82168584  0.00173818  1
  O  O80  1  0.50909913  0.10556092  0.39046451  1
  O  O81  1  0.00512456  0.39443908  0.10953549  1
  O  O82  1  0.49090087  0.89443908  0.60953549  1
  O  O83  1  0.99487544  0.60556092  0.89046451  1
