# generated using pymatgen
data_Na2BeSi4(H4O7)2
_symmetry_space_group_name_H-M   'P 1'
_cell_length_a   9.88653162
_cell_length_b   10.22184746
_cell_length_c   12.09647041
_cell_angle_alpha   90.00000000
_cell_angle_beta   90.00000000
_cell_angle_gamma   90.00000000
_symmetry_Int_Tables_number   1
_chemical_formula_structural   Na2BeSi4(H4O7)2
_chemical_formula_sum   'Na8 Be4 Si16 H32 O56'
_cell_volume   1222.45258386
_cell_formula_units_Z   4
loop_
 _symmetry_equiv_pos_site_id
 _symmetry_equiv_pos_as_xyz
  1  'x, y, z'
loop_
 _atom_site_type_symbol
 _atom_site_label
 _atom_site_symmetry_multiplicity
 _atom_site_fract_x
 _atom_site_fract_y
 _atom_site_fract_z
 _atom_site_occupancy
  Na  Na0  1  0.97353759  0.69463015  0.68361145  1
  Na  Na1  1  0.52646241  0.30536985  0.18361145  1
  Na  Na2  1  0.47353759  0.80536985  0.31638855  1
  Na  Na3  1  0.02646241  0.19463015  0.81638855  1
  Na  Na4  1  0.63517864  0.75575991  0.75734492  1
  Na  Na5  1  0.86482136  0.24424009  0.25734492  1
  Na  Na6  1  0.13517864  0.74424009  0.24265508  1
  Na  Na7  1  0.36482136  0.25575991  0.74265508  1
  Be  Be8  1  0.75727726  0.76373661  0.24466721  1
  Be  Be9  1  0.74272274  0.23626339  0.74466721  1
  Be  Be10  1  0.25727726  0.73626339  0.75533279  1
  Be  Be11  1  0.24272274  0.26373661  0.25533279  1
  Si  Si12  1  0.91316303  0.85484949  0.43526448  1
  Si  Si13  1  0.58683697  0.14515051  0.93526448  1
  Si  Si14  1  0.41316303  0.64515051  0.56473552  1
  Si  Si15  1  0.08683697  0.35484949  0.06473552  1
  Si  Si16  1  0.60400188  0.86298788  0.05219848  1
  Si  Si17  1  0.89599812  0.13701212  0.55219848  1
  Si  Si18  1  0.10400188  0.63701212  0.94780152  1
  Si  Si19  1  0.39599812  0.36298788  0.44780152  1
  Si  Si20  1  0.70572190  0.65062133  0.46523527  1
  Si  Si21  1  0.79427810  0.34937867  0.96523527  1
  Si  Si22  1  0.20572190  0.84937867  0.53476473  1
  Si  Si23  1  0.29427810  0.15062133  0.03476473  1
  Si  Si24  1  0.80311612  0.64786139  0.02359270  1
  Si  Si25  1  0.69688388  0.35213861  0.52359270  1
  Si  Si26  1  0.30311612  0.85213861  0.97640730  1
  Si  Si27  1  0.19688388  0.14786139  0.47640730  1
  H  H28  1  0.74507097  0.49481942  0.69881571  1
  H  H29  1  0.75492903  0.50518058  0.19881571  1
  H  H30  1  0.24507097  0.00518058  0.30118429  1
  H  H31  1  0.25492903  0.99481942  0.80118429  1
  H  H32  1  0.80140797  0.53850859  0.80936821  1
  H  H33  1  0.69859203  0.46149141  0.30936821  1
  H  H34  1  0.30140797  0.96149141  0.19063179  1
  H  H35  1  0.19859203  0.03850859  0.69063179  1
  H  H36  1  0.83760513  0.96300667  0.72596823  1
  H  H37  1  0.66239487  0.03699333  0.22596823  1
  H  H38  1  0.33760513  0.53699333  0.27403177  1
  H  H39  1  0.16239487  0.46300667  0.77403177  1
  H  H40  1  0.88264307  0.89493414  0.83304998  1
  H  H41  1  0.61735693  0.10506586  0.33304998  1
  H  H42  1  0.38264307  0.60506586  0.16695002  1
  H  H43  1  0.11735693  0.39493414  0.66695002  1
  H  H44  1  0.08152649  0.53607800  0.48303324  1
  H  H45  1  0.41847351  0.46392200  0.98303324  1
  H  H46  1  0.58152649  0.96392200  0.51696676  1
  H  H47  1  0.91847351  0.03607800  0.01696676  1
  H  H48  1  0.94522475  0.50018201  0.53168203  1
  H  H49  1  0.55477525  0.49981799  0.03168203  1
  H  H50  1  0.44522475  0.99981799  0.46831797  1
  H  H51  1  0.05477525  0.00018201  0.96831797  1
  H  H52  1  0.56467767  0.02386442  0.73189727  1
  H  H53  1  0.93532233  0.97613558  0.23189727  1
  H  H54  1  0.06467767  0.47613558  0.26810273  1
  H  H55  1  0.43532233  0.52386442  0.76810273  1
  H  H56  1  0.44528287  0.92176918  0.73446879  1
  H  H57  1  0.05471713  0.07823082  0.23446879  1
  H  H58  1  0.94528287  0.57823082  0.26553121  1
  H  H59  1  0.55471713  0.42176918  0.76553121  1
  O  O60  1  0.88138027  0.84301308  0.30535869  1
  O  O61  1  0.61861973  0.15698692  0.80535869  1
  O  O62  1  0.38138027  0.65698692  0.69464131  1
  O  O63  1  0.11861973  0.34301308  0.19464131  1
  O  O64  1  0.87588207  0.99746855  0.48820131  1
  O  O65  1  0.62411793  0.00253145  0.98820131  1
  O  O66  1  0.37588207  0.50253145  0.51179869  1
  O  O67  1  0.12411793  0.49746855  0.01179869  1
  O  O68  1  0.07612816  0.82721520  0.45193989  1
  O  O69  1  0.42387184  0.17278480  0.95193989  1
  O  O70  1  0.57612816  0.67278480  0.54806011  1
  O  O71  1  0.92387184  0.32721520  0.04806011  1
  O  O72  1  0.83005688  0.74477566  0.51000381  1
  O  O73  1  0.66994312  0.25522434  0.01000381  1
  O  O74  1  0.33005688  0.75522434  0.48999619  1
  O  O75  1  0.16994312  0.24477566  0.98999619  1
  O  O76  1  0.65456680  0.86453609  0.17837426  1
  O  O77  1  0.84543320  0.13546391  0.67837426  1
  O  O78  1  0.15456680  0.63546391  0.82162574  1
  O  O79  1  0.34543320  0.36453609  0.32162574  1
  O  O80  1  0.44163498  0.82649661  0.04766086  1
  O  O81  1  0.05836502  0.17350339  0.54766086  1
  O  O82  1  0.94163498  0.67350339  0.95233914  1
  O  O83  1  0.55836502  0.32649661  0.45233914  1
  O  O84  1  0.68814116  0.75251839  0.97857936  1
  O  O85  1  0.81185884  0.24748161  0.47857936  1
  O  O86  1  0.18814116  0.74748161  0.02142064  1
  O  O87  1  0.31185884  0.25251839  0.52142064  1
  O  O88  1  0.67123700  0.68184621  0.33914825  1
  O  O89  1  0.82876300  0.31815379  0.83914825  1
  O  O90  1  0.17123700  0.81815379  0.66085175  1
  O  O91  1  0.32876300  0.18184621  0.16085175  1
  O  O92  1  0.75666351  0.49716370  0.48462243  1
  O  O93  1  0.74333649  0.50283630  0.98462243  1
  O  O94  1  0.25666351  0.00283630  0.51537757  1
  O  O95  1  0.24333649  0.99716370  0.01537757  1
  O  O96  1  0.82173168  0.65476106  0.15553858  1
  O  O97  1  0.67826832  0.34523894  0.65553858  1
  O  O98  1  0.32173168  0.84523894  0.84446142  1
  O  O99  1  0.17826832  0.15476106  0.34446142  1
  O  O100  1  0.77783503  0.57504407  0.73734904  1
  O  O101  1  0.72216497  0.42495593  0.23734904  1
  O  O102  1  0.27783503  0.92495593  0.26265096  1
  O  O103  1  0.22216497  0.07504407  0.76265096  1
  O  O104  1  0.84526796  0.87479690  0.75968557  1
  O  O105  1  0.65473204  0.12520310  0.25968557  1
  O  O106  1  0.34526796  0.62520310  0.24031443  1
  O  O107  1  0.15473204  0.37479690  0.74031443  1
  O  O108  1  0.03911624  0.51724167  0.55422122  1
  O  O109  1  0.46088376  0.48275833  0.05422122  1
  O  O110  1  0.53911624  0.98275833  0.44577878  1
  O  O111  1  0.96088376  0.01724167  0.94577878  1
  O  O112  1  0.52859393  0.94404714  0.69410274  1
  O  O113  1  0.97140607  0.05595286  0.19410274  1
  O  O114  1  0.02859393  0.55595286  0.30589726  1
  O  O115  1  0.47140607  0.44404714  0.80589726  1
