# generated using pymatgen
data_CeSnPd4
_symmetry_space_group_name_H-M   'P 1'
_cell_length_a   8.37699396
_cell_length_b   9.03181016
_cell_length_c   12.80883761
_cell_angle_alpha   110.64407608
_cell_angle_beta   90.00000000
_cell_angle_gamma   90.00000000
_symmetry_Int_Tables_number   1
_chemical_formula_structural   CeSnPd4
_chemical_formula_sum   'Ce8 Sn8 Pd32'
_cell_volume   906.88135092
_cell_formula_units_Z   8
loop_
 _symmetry_equiv_pos_site_id
 _symmetry_equiv_pos_as_xyz
  1  'x, y, z'
loop_
 _atom_site_type_symbol
 _atom_site_label
 _atom_site_symmetry_multiplicity
 _atom_site_fract_x
 _atom_site_fract_y
 _atom_site_fract_z
 _atom_site_occupancy
  Ce  Ce0  1  0.42216135  0.30820743  0.61641486  1
  Ce  Ce1  1  0.57783865  0.69179257  0.38358514  1
  Ce  Ce2  1  0.92216135  0.19179257  0.38358514  1
  Ce  Ce3  1  0.07783865  0.80820743  0.61641486  1
  Ce  Ce4  1  0.27085880  0.03741804  0.07483609  1
  Ce  Ce5  1  0.72914120  0.96258196  0.92516391  1
  Ce  Ce6  1  0.77085880  0.46258196  0.92516391  1
  Ce  Ce7  1  0.22914120  0.53741804  0.07483609  1
  Sn  Sn8  1  0.25000000  0.65971023  0.81942047  1
  Sn  Sn9  1  0.75000000  0.84028977  0.18057953  1
  Sn  Sn10  1  0.75000000  0.34028977  0.18057953  1
  Sn  Sn11  1  0.25000000  0.15971023  0.81942047  1
  Sn  Sn12  1  0.25000000  0.46257566  0.42515132  1
  Sn  Sn13  1  0.75000000  0.03742434  0.57484868  1
  Sn  Sn14  1  0.75000000  0.53742434  0.57484868  1
  Sn  Sn15  1  0.25000000  0.96257566  0.42515132  1
  Pd  Pd16  1  0.41027905  0.38715577  0.21978309  1
  Pd  Pd17  1  0.58972095  0.16737268  0.78021691  1
  Pd  Pd18  1  0.91027905  0.66737268  0.78021691  1
  Pd  Pd19  1  0.08972095  0.88715577  0.21978309  1
  Pd  Pd20  1  0.58972095  0.61284423  0.78021691  1
  Pd  Pd21  1  0.41027905  0.83262732  0.21978309  1
  Pd  Pd22  1  0.08972095  0.33262732  0.21978309  1
  Pd  Pd23  1  0.91027905  0.11284423  0.78021691  1
  Pd  Pd24  1  0.40793109  0.64310350  0.60410803  1
  Pd  Pd25  1  0.59206891  0.03899546  0.39589197  1
  Pd  Pd26  1  0.90793109  0.53899546  0.39589197  1
  Pd  Pd27  1  0.09206891  0.14310350  0.60410803  1
  Pd  Pd28  1  0.59206891  0.35689650  0.39589197  1
  Pd  Pd29  1  0.40793109  0.96100454  0.60410803  1
  Pd  Pd30  1  0.09206891  0.46100454  0.60410803  1
  Pd  Pd31  1  0.90793109  0.85689650  0.39589197  1
  Pd  Pd32  1  0.41854303  0.43995465  0.87990930  1
  Pd  Pd33  1  0.58145697  0.56004535  0.12009070  1
  Pd  Pd34  1  0.91854303  0.06004535  0.12009070  1
  Pd  Pd35  1  0.08145697  0.93995465  0.87990930  1
  Pd  Pd36  1  0.07831219  0.41194394  0.82388788  1
  Pd  Pd37  1  0.92168781  0.58805606  0.17611212  1
  Pd  Pd38  1  0.57831219  0.08805606  0.17611212  1
  Pd  Pd39  1  0.42168781  0.91194394  0.82388788  1
  Pd  Pd40  1  0.30481004  0.15858202  0.31716404  1
  Pd  Pd41  1  0.69518996  0.84141798  0.68283596  1
  Pd  Pd42  1  0.80481004  0.34141798  0.68283596  1
  Pd  Pd43  1  0.19518996  0.65858202  0.31716404  1
  Pd  Pd44  1  0.50000000  0.76497239  0.00000000  1
  Pd  Pd45  1  0.00000000  0.26497239  0.00000000  1
  Pd  Pd46  1  0.50000000  0.23502761  1.00000000  1
  Pd  Pd47  1  0.00000000  0.73502761  1.00000000  1
