# generated using pymatgen
data_Nd6Fe13Cu
_symmetry_space_group_name_H-M   'P 1'
_cell_length_a   8.03412479
_cell_length_b   8.03412479
_cell_length_c   12.76427211
_cell_angle_alpha   108.34339198
_cell_angle_beta   108.34339198
_cell_angle_gamma   90.00000000
_symmetry_Int_Tables_number   1
_chemical_formula_structural   Nd6Fe13Cu
_chemical_formula_sum   'Nd12 Fe26 Cu2'
_cell_volume   737.79711971
_cell_formula_units_Z   2
loop_
 _symmetry_equiv_pos_site_id
 _symmetry_equiv_pos_as_xyz
  1  'x, y, z'
loop_
 _atom_site_type_symbol
 _atom_site_label
 _atom_site_symmetry_multiplicity
 _atom_site_fract_x
 _atom_site_fract_y
 _atom_site_fract_z
 _atom_site_occupancy
  Nd  Nd0  1  0.60801441  0.60801441  0.21602883  1
  Nd  Nd1  1  0.10801441  0.10801441  0.21602883  1
  Nd  Nd2  1  0.39198559  0.39198559  0.78397117  1
  Nd  Nd3  1  0.89198559  0.89198559  0.78397117  1
  Nd  Nd4  1  0.97695096  0.47695096  0.62509623  1
  Nd  Nd5  1  0.64814527  0.14814527  0.62509623  1
  Nd  Nd6  1  0.14814527  0.97695096  0.62509623  1
  Nd  Nd7  1  0.47695096  0.64814527  0.62509623  1
  Nd  Nd8  1  0.02304904  0.52304904  0.37490377  1
  Nd  Nd9  1  0.35185473  0.85185473  0.37490377  1
  Nd  Nd10  1  0.85185473  0.02304904  0.37490377  1
  Nd  Nd11  1  0.52304904  0.35185473  0.37490377  1
  Fe  Fe12  1  0.00000000  0.50000000  0.00000000  1
  Fe  Fe13  1  0.50000000  -0.00000000  0.00000000  1
  Fe  Fe14  1  0.71056570  0.56754570  1.00000000  1
  Fe  Fe15  1  0.28943430  0.43245430  0.00000000  1
  Fe  Fe16  1  0.78943430  0.06754570  0.00000000  1
  Fe  Fe17  1  0.21056570  0.93245430  1.00000000  1
  Fe  Fe18  1  0.56754570  0.28943430  0.00000000  1
  Fe  Fe19  1  0.43245430  0.71056570  1.00000000  1
  Fe  Fe20  1  0.06754570  0.21056570  1.00000000  1
  Fe  Fe21  1  0.93245430  0.78943430  0.00000000  1
  Fe  Fe22  1  0.11920619  0.61920619  0.88085218  1
  Fe  Fe23  1  0.76164599  0.26164599  0.88085218  1
  Fe  Fe24  1  0.26164599  0.11920619  0.88085218  1
  Fe  Fe25  1  0.61920619  0.76164599  0.88085218  1
  Fe  Fe26  1  0.88079381  0.38079381  0.11914782  1
  Fe  Fe27  1  0.23835401  0.73835401  0.11914782  1
  Fe  Fe28  1  0.73835401  0.88079381  0.11914782  1
  Fe  Fe29  1  0.38079381  0.23835401  0.11914782  1
  Fe  Fe30  1  0.29038028  0.79038028  0.80848639  1
  Fe  Fe31  1  0.51810611  0.01810611  0.80848639  1
  Fe  Fe32  1  0.01810611  0.29038028  0.80848639  1
  Fe  Fe33  1  0.79038028  0.51810611  0.80848639  1
  Fe  Fe34  1  0.70961972  0.20961972  0.19151361  1
  Fe  Fe35  1  0.48189389  0.98189389  0.19151361  1
  Fe  Fe36  1  0.98189389  0.70961972  0.19151361  1
  Fe  Fe37  1  0.20961972  0.48189389  0.19151361  1
  Cu  Cu38  1  0.25000000  0.25000000  0.50000000  1
  Cu  Cu39  1  0.75000000  0.75000000  0.50000000  1
