# generated using pymatgen
data_MnVPbO5
_symmetry_space_group_name_H-M   'P 1'
_cell_length_a   6.03962774
_cell_length_b   7.87252720
_cell_length_c   9.45323220
_cell_angle_alpha   90.00000000
_cell_angle_beta   90.00000000
_cell_angle_gamma   90.00000000
_symmetry_Int_Tables_number   1
_chemical_formula_structural   MnVPbO5
_chemical_formula_sum   'Mn4 V4 Pb4 O20'
_cell_volume   449.47409494
_cell_formula_units_Z   4
loop_
 _symmetry_equiv_pos_site_id
 _symmetry_equiv_pos_as_xyz
  1  'x, y, z'
loop_
 _atom_site_type_symbol
 _atom_site_label
 _atom_site_symmetry_multiplicity
 _atom_site_fract_x
 _atom_site_fract_y
 _atom_site_fract_z
 _atom_site_occupancy
  Mn  Mn0  1  0.00000000  0.50000000  -0.00000000  1
  Mn  Mn1  1  0.50000000  -0.00000000  0.50000000  1
  Mn  Mn2  1  0.50000000  0.50000000  0.00000000  1
  Mn  Mn3  1  0.00000000  -0.00000000  0.50000000  1
  V  V4  1  0.25000000  0.14272435  0.80875015  1
  V  V5  1  0.25000000  0.64272435  0.69124985  1
  V  V6  1  0.75000000  0.85727565  0.19124985  1
  V  V7  1  0.75000000  0.35727565  0.30875015  1
  Pb  Pb8  1  0.75000000  0.38484595  0.67718101  1
  Pb  Pb9  1  0.75000000  0.88484595  0.82281899  1
  Pb  Pb10  1  0.25000000  0.61515405  0.32281899  1
  Pb  Pb11  1  0.25000000  0.11515405  0.17718101  1
  O  O12  1  0.25000000  0.32167867  0.92707954  1
  O  O13  1  0.25000000  0.82167867  0.57292046  1
  O  O14  1  0.75000000  0.67832133  0.07292046  1
  O  O15  1  0.75000000  0.17832133  0.42707954  1
  O  O16  1  0.25000000  0.96805738  0.91121189  1
  O  O17  1  0.25000000  0.46805738  0.58878811  1
  O  O18  1  0.75000000  0.03194262  0.08878811  1
  O  O19  1  0.75000000  0.53194262  0.41121189  1
  O  O20  1  0.49199159  0.12977321  0.70271006  1
  O  O21  1  0.00800841  0.62977321  0.79728994  1
  O  O22  1  0.99199159  0.87022679  0.29728994  1
  O  O23  1  0.50800841  0.37022679  0.20271006  1
  O  O24  1  0.50800841  0.87022679  0.29728994  1
  O  O25  1  0.99199159  0.37022679  0.20271006  1
  O  O26  1  0.00800841  0.12977321  0.70271006  1
  O  O27  1  0.49199159  0.62977321  0.79728994  1
  O  O28  1  0.75000000  0.37921075  0.93221515  1
  O  O29  1  0.75000000  0.87921075  0.56778485  1
  O  O30  1  0.25000000  0.62078925  0.06778485  1
  O  O31  1  0.25000000  0.12078925  0.43221515  1
