# generated using pymatgen
data_CdSb5OF28
_symmetry_space_group_name_H-M   'P 1'
_cell_length_a   10.23164914
_cell_length_b   12.78374854
_cell_length_c   18.60350841
_cell_angle_alpha   90.00000000
_cell_angle_beta   98.24192758
_cell_angle_gamma   90.00000000
_symmetry_Int_Tables_number   1
_chemical_formula_structural   CdSb5OF28
_chemical_formula_sum   'Cd4 Sb20 O4 F112'
_cell_volume   2408.18484163
_cell_formula_units_Z   4
loop_
 _symmetry_equiv_pos_site_id
 _symmetry_equiv_pos_as_xyz
  1  'x, y, z'
loop_
 _atom_site_type_symbol
 _atom_site_label
 _atom_site_symmetry_multiplicity
 _atom_site_fract_x
 _atom_site_fract_y
 _atom_site_fract_z
 _atom_site_occupancy
  Cd  Cd0  1  0.30492845  0.64304761  0.26043836  1
  Cd  Cd1  1  0.19507155  0.14304761  0.73956164  1
  Cd  Cd2  1  0.69507155  0.35695239  0.73956164  1
  Cd  Cd3  1  0.80492845  0.85695239  0.26043836  1
  Sb  Sb4  1  0.52621627  0.71922632  0.09626328  1
  Sb  Sb5  1  0.97378373  0.21922632  0.90373672  1
  Sb  Sb6  1  0.47378373  0.28077368  0.90373672  1
  Sb  Sb7  1  0.02621627  0.78077368  0.09626328  1
  Sb  Sb8  1  0.59647192  0.75983152  0.43040520  1
  Sb  Sb9  1  0.90352808  0.25983152  0.56959480  1
  Sb  Sb10  1  0.40352808  0.24016848  0.56959480  1
  Sb  Sb11  1  0.09647192  0.74016848  0.43040520  1
  Sb  Sb12  1  0.25825988  0.36884070  0.13897450  1
  Sb  Sb13  1  0.24174012  0.86884070  0.86102550  1
  Sb  Sb14  1  0.74174012  0.63115930  0.86102550  1
  Sb  Sb15  1  0.75825988  0.13115930  0.13897450  1
  Sb  Sb16  1  0.44068894  0.39788781  0.33845936  1
  Sb  Sb17  1  0.05931106  0.89788781  0.66154064  1
  Sb  Sb18  1  0.55931106  0.60211219  0.66154064  1
  Sb  Sb19  1  0.94068894  0.10211219  0.33845936  1
  Sb  Sb20  1  0.41008391  0.96335423  0.29200768  1
  Sb  Sb21  1  0.08991609  0.46335423  0.70799232  1
  Sb  Sb22  1  0.58991609  0.03664577  0.70799232  1
  Sb  Sb23  1  0.91008391  0.53664577  0.29200768  1
  O  O24  1  0.67413596  0.95156894  0.93816421  1
  O  O25  1  0.82586404  0.45156894  0.06183579  1
  O  O26  1  0.32586404  0.04843106  0.06183579  1
  O  O27  1  0.17413596  0.54843106  0.93816421  1
  F  F28  1  0.08622031  0.35906794  0.16512219  1
  F  F29  1  0.41377969  0.85906794  0.83487781  1
  F  F30  1  0.91377969  0.64093206  0.83487781  1
  F  F31  1  0.58622031  0.14093206  0.16512219  1
  F  F32  1  0.32568832  0.83093548  0.26480736  1
  F  F33  1  0.17431168  0.33093548  0.73519264  1
  F  F34  1  0.67431168  0.16906452  0.73519264  1
  F  F35  1  0.82568832  0.66906452  0.26480736  1
  F  F36  1  0.69651452  0.64217185  0.46364918  1
  F  F37  1  0.80348548  0.14217185  0.53635082  1
  F  F38  1  0.30348548  0.35782815  0.53635082  1
  F  F39  1  0.19651452  0.85782815  0.46364918  1
  F  F40  1  0.43609717  0.38094370  0.12500954  1
  F  F41  1  0.06390283  0.88094370  0.87499046  1
  F  F42  1  0.56390283  0.61905630  0.87499046  1
  F  F43  1  0.93609717  0.11905630  0.12500954  1
  F  F44  1  0.46537347  0.67391234  0.18600708  1
  F  F45  1  0.03462653  0.17391234  0.81399292  1
  F  F46  1  0.53462653  0.32608766  0.81399292  1
  F  F47  1  0.96537347  0.82608766  0.18600708  1
  F  F48  1  0.49523497  0.68598283  0.34982322  1
  F  F49  1  0.00476503  0.18598283  0.65017678  1
  F  F50  1  0.50476503  0.31401717  0.65017678  1
  F  F51  1  0.99523497  0.81401717  0.34982322  1
  F  F52  1  0.62704158  0.59395275  0.09501233  1
  F  F53  1  0.87295842  0.09395275  0.90498767  1
  F  F54  1  0.37295842  0.40604725  0.90498767  1
  F  F55  1  0.12704158  0.90604725  0.09501233  1
  F  F56  1  0.48894829  0.88794377  0.38575893  1
  F  F57  1  0.01105171  0.38794377  0.61424107  1
  F  F58  1  0.51105171  0.11205623  0.61424107  1
  F  F59  1  0.98894829  0.61205623  0.38575893  1
  F  F60  1  0.42864726  0.84541608  0.10235845  1
  F  F61  1  0.07135274  0.34541608  0.89764155  1
  F  F62  1  0.57135274  0.15458392  0.89764155  1
  F  F63  1  0.92864726  0.65458392  0.10235845  1
  F  F64  1  0.59287073  0.77083224  0.01180855  1
  F  F65  1  0.90712927  0.27083224  0.98819145  1
  F  F66  1  0.40712927  0.22916776  0.98819145  1
  F  F67  1  0.09287073  0.72916776  0.01180855  1
  F  F68  1  0.33556142  0.02528900  0.20223741  1
  F  F69  1  0.16443858  0.52528900  0.79776259  1
  F  F70  1  0.66443858  0.97471100  0.79776259  1
  F  F71  1  0.83556142  0.47471100  0.20223741  1
  F  F72  1  0.67577690  0.78189478  0.15765890  1
  F  F73  1  0.82422310  0.28189478  0.84234110  1
  F  F74  1  0.32422310  0.21810522  0.84234110  1
  F  F75  1  0.17577690  0.71810522  0.15765890  1
  F  F76  1  0.26815911  0.99647967  0.34175494  1
  F  F77  1  0.23184089  0.49647967  0.65824506  1
  F  F78  1  0.73184089  0.00352033  0.65824506  1
  F  F79  1  0.76815911  0.50352033  0.34175494  1
  F  F80  1  0.50782734  0.08072394  0.32842895  1
  F  F81  1  0.99217266  0.58072394  0.67157105  1
  F  F82  1  0.49217266  0.91927606  0.67157105  1
  F  F83  1  0.00782734  0.41927606  0.32842895  1
  F  F84  1  0.56167175  0.90969123  0.25360272  1
  F  F85  1  0.93832825  0.40969123  0.74639728  1
  F  F86  1  0.43832825  0.09030877  0.74639728  1
  F  F87  1  0.06167175  0.59030877  0.25360272  1
  F  F88  1  0.26036872  0.51319189  0.17098500  1
  F  F89  1  0.23963128  0.01319189  0.82901500  1
  F  F90  1  0.73963128  0.48680811  0.82901500  1
  F  F91  1  0.76036872  0.98680811  0.17098500  1
  F  F92  1  0.49553965  0.49783810  0.27174555  1
  F  F93  1  0.00446035  0.99783810  0.72825445  1
  F  F94  1  0.50446035  0.50216190  0.72825445  1
  F  F95  1  0.99553965  0.00216190  0.27174555  1
  F  F96  1  0.53100598  0.45890747  0.42302160  1
  F  F97  1  0.96899402  0.95890747  0.57697840  1
  F  F98  1  0.46899402  0.54109253  0.57697840  1
  F  F99  1  0.03100598  0.04109253  0.42302160  1
  F  F100  1  0.34483730  0.29869995  0.38418838  1
  F  F101  1  0.15516270  0.79869995  0.61581162  1
  F  F102  1  0.65516270  0.70130005  0.61581162  1
  F  F103  1  0.84483730  0.20130005  0.38418838  1
  F  F104  1  0.25687606  0.22184248  0.12093598  1
  F  F105  1  0.24312394  0.72184248  0.87906402  1
  F  F106  1  0.74312394  0.77815752  0.87906402  1
  F  F107  1  0.75687606  0.27815752  0.12093598  1
  F  F108  1  0.68223155  0.85903341  0.49543934  1
  F  F109  1  0.81776845  0.35903341  0.50456066  1
  F  F110  1  0.31776845  0.14096659  0.50456066  1
  F  F111  1  0.18223155  0.64096659  0.49543934  1
  F  F112  1  0.71599663  0.79427129  0.36177742  1
  F  F113  1  0.78400337  0.29427129  0.63822258  1
  F  F114  1  0.28400337  0.20572871  0.63822258  1
  F  F115  1  0.21599663  0.70572871  0.36177742  1
  F  F116  1  0.29297208  0.49620594  0.33492754  1
  F  F117  1  0.20702792  0.99620594  0.66507246  1
  F  F118  1  0.70702792  0.50379406  0.66507246  1
  F  F119  1  0.79297208  0.00379406  0.33492754  1
  F  F120  1  0.32661693  0.33474587  0.24473756  1
  F  F121  1  0.17338307  0.83474587  0.75526244  1
  F  F122  1  0.67338307  0.66525413  0.75526244  1
  F  F123  1  0.82661693  0.16525413  0.24473756  1
  F  F124  1  0.37824675  0.65239572  0.04117714  1
  F  F125  1  0.12175325  0.15239572  0.95882286  1
  F  F126  1  0.62175325  0.34760428  0.95882286  1
  F  F127  1  0.87824675  0.84760428  0.04117714  1
  F  F128  1  0.45518649  0.74067046  0.48394781  1
  F  F129  1  0.04481351  0.24067046  0.51605219  1
  F  F130  1  0.54481351  0.25932954  0.51605219  1
  F  F131  1  0.95518649  0.75932954  0.48394781  1
  F  F132  1  0.57319250  0.30410178  0.31948600  1
  F  F133  1  0.92680750  0.80410178  0.68051400  1
  F  F134  1  0.42680750  0.69589822  0.68051400  1
  F  F135  1  0.07319250  0.19589822  0.31948600  1
  F  F136  1  0.19000552  0.41014724  0.04191264  1
  F  F137  1  0.30999448  0.91014724  0.95808736  1
  F  F138  1  0.80999448  0.58985276  0.95808736  1
  F  F139  1  0.69000552  0.08985276  0.04191264  1
