# generated using pymatgen
data_Zn6P4H14O23
_symmetry_space_group_name_H-M   'P 1'
_cell_length_a   8.38589826
_cell_length_b   9.72836416
_cell_length_c   12.38106076
_cell_angle_alpha   71.16403469
_cell_angle_beta   82.41452289
_cell_angle_gamma   80.66533212
_symmetry_Int_Tables_number   1
_chemical_formula_structural   Zn6P4H14O23
_chemical_formula_sum   'Zn12 P8 H28 O46'
_cell_volume   939.87324074
_cell_formula_units_Z   2
loop_
 _symmetry_equiv_pos_site_id
 _symmetry_equiv_pos_as_xyz
  1  'x, y, z'
loop_
 _atom_site_type_symbol
 _atom_site_label
 _atom_site_symmetry_multiplicity
 _atom_site_fract_x
 _atom_site_fract_y
 _atom_site_fract_z
 _atom_site_occupancy
  Zn  Zn0  1  0.97060633  0.59701772  0.87504807  1
  Zn  Zn1  1  0.02939367  0.40298228  0.12495193  1
  Zn  Zn2  1  0.57456253  0.60427392  0.87989691  1
  Zn  Zn3  1  0.42543747  0.39572608  0.12010309  1
  Zn  Zn4  1  0.07771625  0.87695089  0.61114343  1
  Zn  Zn5  1  0.92228375  0.12304911  0.38885657  1
  Zn  Zn6  1  0.47669100  0.85737555  0.60502679  1
  Zn  Zn7  1  0.52330900  0.14262445  0.39497321  1
  Zn  Zn8  1  0.18565711  0.59776525  0.50441395  1
  Zn  Zn9  1  0.81434289  0.40223475  0.49558605  1
  Zn  Zn10  1  0.34392492  0.65707527  0.25405962  1
  Zn  Zn11  1  0.65607508  0.34292473  0.74594038  1
  P  P12  1  0.79035848  0.30036749  0.98033979  1
  P  P13  1  0.20964152  0.69963251  0.01966021  1
  P  P14  1  0.32152870  0.55843671  0.71716325  1
  P  P15  1  0.67847130  0.44156329  0.28283675  1
  P  P16  1  0.82380890  0.63930833  0.63323281  1
  P  P17  1  0.17619110  0.36069167  0.36676719  1
  P  P18  1  0.71259966  0.08075061  0.62826582  1
  P  P19  1  0.28740034  0.91924939  0.37173418  1
  H  H20  1  0.07328355  0.84690956  0.83661770  1
  H  H21  1  0.92671645  0.15309044  0.16338230  1
  H  H22  1  0.88648689  0.88915010  0.78474705  1
  H  H23  1  0.11351311  0.11084990  0.21525295  1
  H  H24  1  0.72526513  0.77549755  0.98182434  1
  H  H25  1  0.27473487  0.22450245  0.01817566  1
  H  H26  1  0.74309553  0.60548682  0.05355734  1
  H  H27  1  0.25690447  0.39451318  0.94644266  1
  H  H28  1  0.17955910  0.08777169  0.68457882  1
  H  H29  1  0.82044090  0.91222831  0.31542118  1
  H  H30  1  0.23931888  0.11013191  0.55534451  1
  H  H31  1  0.76068112  0.88986809  0.44465549  1
  H  H32  1  0.56821591  0.88831667  0.78758695  1
  H  H33  1  0.43178409  0.11168333  0.21241305  1
  H  H34  1  0.37755176  0.84201327  0.83298914  1
  H  H35  1  0.62244824  0.15798673  0.16701086  1
  H  H36  1  0.50206661  0.87903645  0.11093097  1
  H  H37  1  0.49793339  0.12096355  0.88906903  1
  H  H38  1  0.60251558  0.81287472  0.21896873  1
  H  H39  1  0.39748442  0.18712528  0.78103127  1
  H  H40  1  0.17163735  0.31462752  0.71231556  1
  H  H41  1  0.82836265  0.68537248  0.28768444  1
  H  H42  1  0.02522235  0.23946785  0.79234603  1
  H  H43  1  0.97477765  0.76053215  0.20765397  1
  H  H44  1  0.76265413  0.00140303  0.03128181  1
  H  H45  1  0.23734587  0.99859697  0.96871819  1
  H  H46  1  0.75383399  0.01145383  0.90388496  1
  H  H47  1  0.24616601  0.98854617  0.09611504  1
  O  O48  1  0.93176711  0.38612607  0.98084393  1
  O  O49  1  0.06823289  0.61387393  0.01915607  1
  O  O50  1  0.79351968  0.15836302  0.08559400  1
  O  O51  1  0.20648032  0.84163698  0.91440600  1
  O  O52  1  0.62349563  0.39715728  0.98933014  1
  O  O53  1  0.37650437  0.60284272  0.01066986  1
  O  O54  1  0.80973061  0.26147001  0.86627570  1
  O  O55  1  0.19026939  0.73852999  0.13372430  1
  O  O56  1  0.19861112  0.52108895  0.82273469  1
  O  O57  1  0.80138888  0.47891105  0.17726531  1
  O  O58  1  0.30345713  0.47054773  0.63509171  1
  O  O59  1  0.69654287  0.52945227  0.36490829  1
  O  O60  1  0.29694074  0.72716590  0.64937163  1
  O  O61  1  0.70305926  0.27283410  0.35062837  1
  O  O62  1  0.49770982  0.52032505  0.75659013  1
  O  O63  1  0.50229018  0.47967495  0.24340987  1
  O  O64  1  0.69436177  0.75458177  0.56666350  1
  O  O65  1  0.30563823  0.24541823  0.43333650  1
  O  O66  1  0.82078420  0.48476408  0.61985699  1
  O  O67  1  0.17921580  0.51523592  0.38014301  1
  O  O68  1  0.79914887  0.62116238  0.76370855  1
  O  O69  1  0.20085113  0.37883762  0.23629145  1
  O  O70  1  0.99447314  0.68894408  0.58404982  1
  O  O71  1  0.00552686  0.31105592  0.41595018  1
  O  O72  1  0.70987786  0.98573108  0.75545531  1
  O  O73  1  0.29012214  0.01426892  0.24454469  1
  O  O74  1  0.87589043  0.03933714  0.56405290  1
  O  O75  1  0.12410957  0.96066286  0.43594710  1
  O  O76  1  0.56854518  0.05715175  0.57113756  1
  O  O77  1  0.43145482  0.94284825  0.42886244  1
  O  O78  1  0.69972411  0.24739784  0.61799052  1
  O  O79  1  0.30027589  0.75260216  0.38200948  1
  O  O80  1  0.99592001  0.82645332  0.78643129  1
  O  O81  1  0.00407999  0.17354668  0.21356871  1
  O  O82  1  0.73093099  0.67543955  0.97401671  1
  O  O83  1  0.26906901  0.32456045  0.02598329  1
  O  O84  1  0.21957914  0.03126072  0.62915130  1
  O  O85  1  0.78042086  0.96873928  0.37084870  1
  O  O86  1  0.48583699  0.81968451  0.78970426  1
  O  O87  1  0.51416301  0.18031549  0.21029574  1
  O  O88  1  0.53032263  0.78959506  0.17340174  1
  O  O89  1  0.46967737  0.21040494  0.82659826  1
  O  O90  1  0.12991919  0.21970226  0.74934503  1
  O  O91  1  0.87008081  0.78029774  0.25065497  1
  O  O92  1  0.71773460  0.95686552  0.98246637  1
  O  O93  1  0.28226540  0.04313448  0.01753363  1
