# generated using pymatgen
data_KCu3P3(O4F3)2
_symmetry_space_group_name_H-M   'P 1'
_cell_length_a   7.61490064
_cell_length_b   7.91686182
_cell_length_c   10.36432375
_cell_angle_alpha   101.95532620
_cell_angle_beta   111.55296688
_cell_angle_gamma   90.00000000
_symmetry_Int_Tables_number   1
_chemical_formula_structural   KCu3P3(O4F3)2
_chemical_formula_sum   'K2 Cu6 P6 O16 F12'
_cell_volume   566.53906572
_cell_formula_units_Z   2
loop_
 _symmetry_equiv_pos_site_id
 _symmetry_equiv_pos_as_xyz
  1  'x, y, z'
loop_
 _atom_site_type_symbol
 _atom_site_label
 _atom_site_symmetry_multiplicity
 _atom_site_fract_x
 _atom_site_fract_y
 _atom_site_fract_z
 _atom_site_occupancy
  K  K0  1  0.34249772  0.75000000  0.00000000  1
  K  K1  1  0.65750228  0.25000000  0.00000000  1
  Cu  Cu2  1  0.12974962  0.31070411  0.32481492  1
  Cu  Cu3  1  0.80493470  0.18929589  0.67518508  1
  Cu  Cu4  1  0.87025038  0.68929589  0.67518508  1
  Cu  Cu5  1  0.19506530  0.81070411  0.32481492  1
  Cu  Cu6  1  0.50000000  0.50000000  0.50000000  1
  Cu  Cu7  1  0.00000000  -0.00000000  0.50000000  1
  P  P8  1  0.12447813  0.25000000  0.00000000  1
  P  P9  1  0.87552187  0.75000000  0.00000000  1
  P  P10  1  0.15337011  0.40990503  0.65203008  1
  P  P11  1  0.50134002  0.09009497  0.34796992  1
  P  P12  1  0.84662989  0.59009497  0.34796992  1
  P  P13  1  0.49865998  0.90990503  0.65203008  1
  O  O14  1  0.08439726  0.20474263  0.11981404  1
  O  O15  1  0.96458323  0.29525737  0.88018596  1
  O  O16  1  0.91560274  0.79525737  0.88018596  1
  O  O17  1  0.03541677  0.70474263  0.11981404  1
  O  O18  1  0.20355513  0.43437225  0.52753070  1
  O  O19  1  0.67602444  0.06562775  0.47246930  1
  O  O20  1  0.79644487  0.56562775  0.47246930  1
  O  O21  1  0.32397556  0.93437225  0.52753070  1
  O  O22  1  0.10630970  0.57249375  0.73660957  1
  O  O23  1  0.36970013  0.92750625  0.26339043  1
  O  O24  1  0.89369030  0.42750625  0.26339043  1
  O  O25  1  0.63029987  0.07249375  0.73660957  1
  O  O26  1  0.01535645  0.24963750  0.61450034  1
  O  O27  1  0.40085611  0.25036250  0.38549966  1
  O  O28  1  0.98464355  0.75036250  0.38549966  1
  O  O29  1  0.59914389  0.74963750  0.61450034  1
  F  F30  1  0.34764016  0.36828436  0.76656074  1
  F  F31  1  0.58107942  0.13171564  0.23343926  1
  F  F32  1  0.65235984  0.63171564  0.23343926  1
  F  F33  1  0.41892058  0.86828436  0.76656074  1
  F  F34  1  0.01233817  0.07198058  0.34153178  1
  F  F35  1  0.67080639  0.42801942  0.65846822  1
  F  F36  1  0.98766183  0.92801942  0.65846822  1
  F  F37  1  0.32919361  0.57198058  0.34153178  1
  F  F38  1  0.23603413  0.10203878  0.94518078  1
  F  F39  1  0.29085336  0.39796122  0.05481922  1
  F  F40  1  0.76396587  0.89796122  0.05481922  1
  F  F41  1  0.70914664  0.60203878  0.94518078  1
