# generated using pymatgen
data_YbTi2O5F
_symmetry_space_group_name_H-M   'P 1'
_cell_length_a   5.23690274
_cell_length_b   5.52791937
_cell_length_c   14.59390217
_cell_angle_alpha   90.00000000
_cell_angle_beta   90.00000000
_cell_angle_gamma   90.00000000
_symmetry_Int_Tables_number   1
_chemical_formula_structural   YbTi2O5F
_chemical_formula_sum   'Yb4 Ti8 O20 F4'
_cell_volume   422.48144384
_cell_formula_units_Z   4
loop_
 _symmetry_equiv_pos_site_id
 _symmetry_equiv_pos_as_xyz
  1  'x, y, z'
loop_
 _atom_site_type_symbol
 _atom_site_label
 _atom_site_symmetry_multiplicity
 _atom_site_fract_x
 _atom_site_fract_y
 _atom_site_fract_z
 _atom_site_occupancy
  Yb  Yb0  1  0.25000000  0.23789301  -0.00000000  1
  Yb  Yb1  1  0.75000000  0.26210699  0.50000000  1
  Yb  Yb2  1  0.75000000  0.76568727  -0.00000000  1
  Yb  Yb3  1  0.25000000  0.73431273  0.50000000  1
  Ti  Ti4  1  0.67639887  0.33639545  0.83523616  1
  Ti  Ti5  1  0.17639887  0.16360455  0.66476384  1
  Ti  Ti6  1  0.32360113  0.16360455  0.33523616  1
  Ti  Ti7  1  0.82360113  0.33639545  0.16476384  1
  Ti  Ti8  1  0.30736185  0.65030365  0.17366594  1
  Ti  Ti9  1  0.80736185  0.84969635  0.32633406  1
  Ti  Ti10  1  0.69263815  0.84969635  0.67366594  1
  Ti  Ti11  1  0.19263815  0.65030365  0.82633406  1
  O  O12  1  0.95722192  0.43924081  0.90453994  1
  O  O13  1  0.45722192  0.06075919  0.59546006  1
  O  O14  1  0.04277808  0.06075919  0.40453994  1
  O  O15  1  0.54277808  0.43924081  0.09546006  1
  O  O16  1  0.04241929  0.56697611  0.09420569  1
  O  O17  1  0.54241929  0.93302389  0.40579431  1
  O  O18  1  0.95758071  0.93302389  0.59420569  1
  O  O19  1  0.45758071  0.56697611  0.90579431  1
  O  O20  1  0.83314045  0.13074921  0.74058788  1
  O  O21  1  0.33314045  0.36925079  0.75941212  1
  O  O22  1  0.16685955  0.36925079  0.24058788  1
  O  O23  1  0.66685955  0.13074921  0.25941212  1
  O  O24  1  0.15332301  0.86300731  0.25653918  1
  O  O25  1  0.65332301  0.63699269  0.24346082  1
  O  O26  1  0.84667699  0.63699269  0.75653918  1
  O  O27  1  0.34667699  0.86300731  0.74346082  1
  O  O28  1  0.58990579  0.09610773  0.91145465  1
  O  O29  1  0.08990579  0.40389227  0.58854535  1
  O  O30  1  0.41009421  0.40389227  0.41145465  1
  O  O31  1  0.91009421  0.09610773  0.08854535  1
  F  F32  1  0.41388827  0.90843733  0.08596562  1
  F  F33  1  0.91388827  0.59156267  0.41403438  1
  F  F34  1  0.58611173  0.59156267  0.58596562  1
  F  F35  1  0.08611173  0.90843733  0.91403438  1
