# generated using pymatgen
data_Yb29Se32
_symmetry_space_group_name_H-M   'P 1'
_cell_length_a   11.80029980
_cell_length_b   14.46323771
_cell_length_c   11.80029980
_cell_angle_alpha   114.07556685
_cell_angle_beta   90.00000000
_cell_angle_gamma   65.92443315
_symmetry_Int_Tables_number   1
_chemical_formula_structural   Yb29Se32
_chemical_formula_sum   'Yb29 Se32'
_cell_volume   1645.01256367
_cell_formula_units_Z   1
loop_
 _symmetry_equiv_pos_site_id
 _symmetry_equiv_pos_as_xyz
  1  'x, y, z'
loop_
 _atom_site_type_symbol
 _atom_site_label
 _atom_site_symmetry_multiplicity
 _atom_site_fract_x
 _atom_site_fract_y
 _atom_site_fract_z
 _atom_site_occupancy
  Yb  Yb0  1  0.37868489  0.74765741  0.87382870  1
  Yb  Yb1  1  0.12533300  0.25017108  0.62508554  1
  Yb  Yb2  1  0.87466700  0.74982892  0.37491446  1
  Yb  Yb3  1  0.62131511  0.25234259  0.12617130  1
  Yb  Yb4  1  0.25247740  -0.00000000  0.25247740  1
  Yb  Yb5  1  -0.00000000  0.50000000  -0.00000000  1
  Yb  Yb6  1  0.74752260  -0.00000000  0.74752260  1
  Yb  Yb7  1  0.50000000  0.50000000  0.50000000  1
  Yb  Yb8  1  0.12617130  0.74765741  0.12634230  1
  Yb  Yb9  1  0.87382870  0.25234259  0.87365770  1
  Yb  Yb10  1  0.62508554  0.74982892  0.62449592  1
  Yb  Yb11  1  0.37491446  0.25017108  0.37550408  1
  Yb  Yb12  1  0.37550408  0.74982892  0.37491446  1
  Yb  Yb13  1  0.12634230  0.25234259  0.12617130  1
  Yb  Yb14  1  0.87365770  0.74765741  0.87382870  1
  Yb  Yb15  1  0.62449592  0.25017108  0.62508554  1
  Yb  Yb16  1  0.50000000  0.50000000  -0.00000000  1
  Yb  Yb17  1  0.25247740  -0.00000000  0.74752260  1
  Yb  Yb18  1  -0.00000000  0.50000000  0.50000000  1
  Yb  Yb19  1  0.74752260  -0.00000000  0.25247740  1
  Yb  Yb20  1  0.37491446  0.25017108  0.87466700  1
  Yb  Yb21  1  0.12617130  0.74765741  0.62131511  1
  Yb  Yb22  1  0.87382870  0.25234259  0.37868489  1
  Yb  Yb23  1  0.62508554  0.74982892  0.12533300  1
  Yb  Yb24  1  -0.00000000  -0.00000000  0.50000000  1
  Yb  Yb25  1  0.75069844  0.49860311  0.24930156  1
  Yb  Yb26  1  0.50000000  -0.00000000  -0.00000000  1
  Yb  Yb27  1  0.24930156  0.50139689  0.75069844  1
  Yb  Yb28  1  -0.00000000  -0.00000000  -0.00000000  1
  Se  Se29  1  0.37469581  0.75011192  0.12480773  1
  Se  Se30  1  0.12480773  0.24988808  0.87519227  1
  Se  Se31  1  0.87519227  0.75011192  0.62530419  1
  Se  Se32  1  0.62530419  0.24988808  0.37469581  1
  Se  Se33  1  0.62530419  0.24988808  0.87519227  1
  Se  Se34  1  0.37469581  0.75011192  0.62530419  1
  Se  Se35  1  0.12480773  0.24988808  0.37469581  1
  Se  Se36  1  0.87519227  0.75011192  0.12480773  1
  Se  Se37  1  -0.00000000  -0.00000000  0.24867336  1
  Se  Se38  1  0.74984062  0.50031875  0.00448045  1
  Se  Se39  1  0.50000000  -0.00000000  0.75494381  1
  Se  Se40  1  0.25015938  0.49968125  0.50416170  1
  Se  Se41  1  0.87731631  0.24536738  0.62268369  1
  Se  Se42  1  0.62693762  0.74612476  0.37306238  1
  Se  Se43  1  0.37731631  0.24536738  0.12268369  1
  Se  Se44  1  0.12424859  0.75150282  0.87575141  1
  Se  Se45  1  0.75494381  -0.00000000  0.50000000  1
  Se  Se46  1  0.50416170  0.50031875  0.25015938  1
  Se  Se47  1  0.24867336  -0.00000000  -0.00000000  1
  Se  Se48  1  0.00448045  0.49968125  0.74984062  1
  Se  Se49  1  -0.00000000  -0.00000000  0.75132664  1
  Se  Se50  1  0.74984062  0.50031875  0.49583830  1
  Se  Se51  1  0.50000000  -0.00000000  0.24505619  1
  Se  Se52  1  0.25015938  0.49968125  0.99551955  1
  Se  Se53  1  0.12268369  0.75463262  0.37731631  1
  Se  Se54  1  0.87575141  0.24849718  0.12424859  1
  Se  Se55  1  0.62268369  0.75463262  0.87731631  1
  Se  Se56  1  0.37306238  0.25387524  0.62693762  1
  Se  Se57  1  0.24505619  -0.00000000  0.50000000  1
  Se  Se58  1  0.99551955  0.50031875  0.25015938  1
  Se  Se59  1  0.75132664  -0.00000000  -0.00000000  1
  Se  Se60  1  0.49583830  0.49968125  0.74984062  1
