# generated using pymatgen
data_Li6Zr6HCl18
_symmetry_space_group_name_H-M   'P 1'
_cell_length_a   8.94268142
_cell_length_b   9.84162217
_cell_length_c   9.84162201
_cell_angle_alpha   111.24702453
_cell_angle_beta   107.63105400
_cell_angle_gamma   107.63105375
_symmetry_Int_Tables_number   1
_chemical_formula_structural   Li6Zr6HCl18
_chemical_formula_sum   'Li6 Zr6 H1 Cl18'
_cell_volume   681.30544582
_cell_formula_units_Z   1
loop_
 _symmetry_equiv_pos_site_id
 _symmetry_equiv_pos_as_xyz
  1  'x, y, z'
loop_
 _atom_site_type_symbol
 _atom_site_label
 _atom_site_symmetry_multiplicity
 _atom_site_fract_x
 _atom_site_fract_y
 _atom_site_fract_z
 _atom_site_occupancy
  Li  Li0  1  0.59393010  0.37657469  0.92792227  1
  Li  Li1  1  0.66600783  0.07207773  0.44865242  1
  Li  Li2  1  0.21735541  0.55134758  0.62342531  1
  Li  Li3  1  0.40606990  0.62342531  0.07207773  1
  Li  Li4  1  0.33399217  0.92792227  0.55134758  1
  Li  Li5  1  0.78264459  0.44865242  0.37657469  1
  Zr  Zr6  1  0.15967620  0.91073583  0.13740063  1
  Zr  Zr7  1  0.02227558  0.86259937  0.77333520  1
  Zr  Zr8  1  0.24894038  0.22666480  0.08926417  1
  Zr  Zr9  1  0.84032380  0.08926417  0.86259937  1
  Zr  Zr10  1  0.97772442  0.13740063  0.22666480  1
  Zr  Zr11  1  0.75105962  0.77333520  0.91073583  1
  H  H12  1  0.00000000  0.00000000  -0.00000000  1
  Cl  Cl13  1  0.79187957  0.25836877  0.10102049  1
  Cl  Cl14  1  0.69085908  0.89897951  0.15734828  1
  Cl  Cl15  1  0.53351080  0.84265172  0.74163123  1
  Cl  Cl16  1  0.20812043  0.74163123  0.89897951  1
  Cl  Cl17  1  0.30914092  0.10102049  0.84265172  1
  Cl  Cl18  1  0.46648920  0.15734828  0.25836877  1
  Cl  Cl19  1  0.15710596  0.05452754  0.41233862  1
  Cl  Cl20  1  0.74476734  0.58766138  0.64218892  1
  Cl  Cl21  1  0.10257842  0.35781108  0.94547246  1
  Cl  Cl22  1  0.84289404  0.94547246  0.58766138  1
  Cl  Cl23  1  0.25523266  0.41233862  0.35781108  1
  Cl  Cl24  1  0.89742158  0.64218892  0.05452754  1
  Cl  Cl25  1  0.63078762  0.18766920  0.69745655  1
  Cl  Cl26  1  0.93333107  0.30254345  0.49021265  1
  Cl  Cl27  1  0.44311842  0.50978735  0.81233080  1
  Cl  Cl28  1  0.36921238  0.81233080  0.30254345  1
  Cl  Cl29  1  0.06666893  0.69745655  0.50978735  1
  Cl  Cl30  1  0.55688158  0.49021265  0.18766920  1
