# generated using pymatgen
data_AlB5H16(NO7)2
_symmetry_space_group_name_H-M   'P 1'
_cell_length_a   7.13082043
_cell_length_b   7.13082043
_cell_length_c   14.21951814
_cell_angle_alpha   90.00000000
_cell_angle_beta   90.00000000
_cell_angle_gamma   91.91980881
_symmetry_Int_Tables_number   1
_chemical_formula_structural   AlB5H16(NO7)2
_chemical_formula_sum   'Al2 B10 H32 N4 O28'
_cell_volume   722.63674175
_cell_formula_units_Z   2
loop_
 _symmetry_equiv_pos_site_id
 _symmetry_equiv_pos_as_xyz
  1  'x, y, z'
loop_
 _atom_site_type_symbol
 _atom_site_label
 _atom_site_symmetry_multiplicity
 _atom_site_fract_x
 _atom_site_fract_y
 _atom_site_fract_z
 _atom_site_occupancy
  Al  Al0  1  0.14371941  0.14371941  -0.00000000  1
  Al  Al1  1  0.85628059  0.85628059  0.50000000  1
  B  B2  1  0.22562666  0.44528102  0.87108385  1
  B  B3  1  0.44528102  0.22562666  0.12891615  1
  B  B4  1  0.77437334  0.55471898  0.37108385  1
  B  B5  1  0.55471898  0.77437334  0.62891615  1
  B  B6  1  0.21184645  0.77886531  0.91583148  1
  B  B7  1  0.77886531  0.21184645  0.08416852  1
  B  B8  1  0.78815355  0.22113469  0.41583148  1
  B  B9  1  0.22113469  0.78815355  0.58416852  1
  B  B10  1  0.30563748  0.69436252  0.75000000  1
  B  B11  1  0.69436252  0.30563748  0.25000000  1
  H  H12  1  0.72896441  0.04060100  0.82743958  1
  H  H13  1  0.04060100  0.72896441  0.17256042  1
  H  H14  1  0.27103559  0.95939900  0.32743958  1
  H  H15  1  0.95939900  0.27103559  0.67256042  1
  H  H16  1  0.48945583  0.00693948  0.83866347  1
  H  H17  1  0.00693948  0.48945583  0.16133653  1
  H  H18  1  0.51054417  0.99306052  0.33866347  1
  H  H19  1  0.99306052  0.51054417  0.66133653  1
  H  H20  1  0.06695607  0.04837509  0.78698658  1
  H  H21  1  0.04837509  0.06695607  0.21301342  1
  H  H22  1  0.93304393  0.95162491  0.28698658  1
  H  H23  1  0.95162491  0.93304393  0.71301342  1
  H  H24  1  0.59719215  0.22576106  0.83628973  1
  H  H25  1  0.22576106  0.59719215  0.16371027  1
  H  H26  1  0.40280785  0.77423894  0.33628973  1
  H  H27  1  0.77423894  0.40280785  0.66371027  1
  H  H28  1  0.61929506  0.09197091  0.93080531  1
  H  H29  1  0.09197091  0.61929506  0.06919469  1
  H  H30  1  0.38070494  0.90802909  0.43080531  1
  H  H31  1  0.90802909  0.38070494  0.56919469  1
  H  H32  1  0.42136328  0.33839090  0.70042369  1
  H  H33  1  0.33839090  0.42136328  0.29957631  1
  H  H34  1  0.57863672  0.66160910  0.20042369  1
  H  H35  1  0.66160910  0.57863672  0.79957631  1
  H  H36  1  0.33990930  0.28551490  0.45009364  1
  H  H37  1  0.28551490  0.33990930  0.54990636  1
  H  H38  1  0.66009070  0.71448510  0.95009364  1
  H  H39  1  0.71448510  0.66009070  0.04990636  1
  H  H40  1  0.49382405  0.20073113  0.61903662  1
  H  H41  1  0.20073113  0.49382405  0.38096338  1
  H  H42  1  0.50617595  0.79926887  0.11903662  1
  H  H43  1  0.79926887  0.50617595  0.88096338  1
  N  N44  1  0.60690870  0.08761985  0.85815049  1
  N  N45  1  0.08761985  0.60690870  0.14184951  1
  N  N46  1  0.39309130  0.91238015  0.35815049  1
  N  N47  1  0.91238015  0.39309130  0.64184951  1
  O  O48  1  0.18272471  0.58689487  0.93652800  1
  O  O49  1  0.58689487  0.18272471  0.06347200  1
  O  O50  1  0.81727529  0.41310513  0.43652800  1
  O  O51  1  0.41310513  0.81727529  0.56347200  1
  O  O52  1  0.25144644  0.25144644  0.50000000  1
  O  O53  1  0.74855356  0.74855356  -0.00000000  1
  O  O54  1  0.27376458  0.83015788  0.82693031  1
  O  O55  1  0.83015788  0.27376458  0.17306969  1
  O  O56  1  0.72623542  0.16984212  0.32693031  1
  O  O57  1  0.16984212  0.72623542  0.67306969  1
  O  O58  1  0.27829809  0.49690181  0.78101591  1
  O  O59  1  0.49690181  0.27829809  0.21898409  1
  O  O60  1  0.72170191  0.50309819  0.28101591  1
  O  O61  1  0.50309819  0.72170191  0.71898409  1
  O  O62  1  0.95040889  0.04959111  0.75000000  1
  O  O63  1  0.04959111  0.95040889  0.25000000  1
  O  O64  1  0.21425616  0.26358843  0.89665752  1
  O  O65  1  0.26358843  0.21425616  0.10334248  1
  O  O66  1  0.78574384  0.73641157  0.39665752  1
  O  O67  1  0.73641157  0.78574384  0.60334248  1
  O  O68  1  0.18488381  0.90386456  0.98470650  1
  O  O69  1  0.90386456  0.18488381  0.01529350  1
  O  O70  1  0.81511619  0.09613544  0.48470650  1
  O  O71  1  0.09613544  0.81511619  0.51529350  1
  O  O72  1  0.53198217  0.29458941  0.66553781  1
  O  O73  1  0.29458941  0.53198217  0.33446219  1
  O  O74  1  0.46801783  0.70541059  0.16553781  1
  O  O75  1  0.70541059  0.46801783  0.83446219  1
