# generated using pymatgen
data_K2TcCl5O
_symmetry_space_group_name_H-M   'P 1'
_cell_length_a   7.00519790
_cell_length_b   10.19516799
_cell_length_c   13.57051772
_cell_angle_alpha   90.00000000
_cell_angle_beta   90.00000000
_cell_angle_gamma   90.00000000
_symmetry_Int_Tables_number   1
_chemical_formula_structural   K2TcCl5O
_chemical_formula_sum   'K8 Tc4 Cl20 O4'
_cell_volume   969.19510380
_cell_formula_units_Z   4
loop_
 _symmetry_equiv_pos_site_id
 _symmetry_equiv_pos_as_xyz
  1  'x, y, z'
loop_
 _atom_site_type_symbol
 _atom_site_label
 _atom_site_symmetry_multiplicity
 _atom_site_fract_x
 _atom_site_fract_y
 _atom_site_fract_z
 _atom_site_occupancy
  K  K0  1  0.33532542  0.49939813  0.35610036  1
  K  K1  1  0.16467458  0.00060187  0.85610036  1
  K  K2  1  0.66467458  0.99939813  0.64389964  1
  K  K3  1  0.83532542  0.50060187  0.14389964  1
  K  K4  1  0.66467458  0.50060187  0.64389964  1
  K  K5  1  0.83532542  0.99939813  0.14389964  1
  K  K6  1  0.33532542  0.00060187  0.35610036  1
  K  K7  1  0.16467458  0.49939813  0.85610036  1
  Tc  Tc8  1  0.83126127  0.75000000  0.40474917  1
  Tc  Tc9  1  0.66873873  0.75000000  0.90474917  1
  Tc  Tc10  1  0.16873873  0.25000000  0.59525083  1
  Tc  Tc11  1  0.33126127  0.25000000  0.09525083  1
  Cl  Cl12  1  0.60895147  0.75000000  0.25436846  1
  Cl  Cl13  1  0.89104853  0.75000000  0.75436846  1
  Cl  Cl14  1  0.39104853  0.25000000  0.74563154  1
  Cl  Cl15  1  0.10895147  0.25000000  0.24563154  1
  Cl  Cl16  1  0.81307493  0.98409862  0.39319662  1
  Cl  Cl17  1  0.68692507  0.51590138  0.89319662  1
  Cl  Cl18  1  0.18692507  0.48409862  0.60680338  1
  Cl  Cl19  1  0.31307493  0.01590138  0.10680338  1
  Cl  Cl20  1  0.18692507  0.01590138  0.60680338  1
  Cl  Cl21  1  0.31307493  0.48409862  0.10680338  1
  Cl  Cl22  1  0.81307493  0.51590138  0.39319662  1
  Cl  Cl23  1  0.68692507  0.98409862  0.89319662  1
  Cl  Cl24  1  0.07513309  0.75000000  0.28070586  1
  Cl  Cl25  1  0.42486691  0.75000000  0.78070586  1
  Cl  Cl26  1  0.92486691  0.25000000  0.71929414  1
  Cl  Cl27  1  0.57513309  0.25000000  0.21929414  1
  Cl  Cl28  1  0.53836601  0.75000000  0.49655250  1
  Cl  Cl29  1  0.96163399  0.75000000  0.99655250  1
  Cl  Cl30  1  0.46163399  0.25000000  0.50344750  1
  Cl  Cl31  1  0.03836601  0.25000000  0.00344750  1
  O  O32  1  0.97964135  0.75000000  0.50065475  1
  O  O33  1  0.52035865  0.75000000  0.00065475  1
  O  O34  1  0.02035865  0.25000000  0.49934525  1
  O  O35  1  0.47964135  0.25000000  0.99934525  1
