# generated using pymatgen
data_Tb5(Ge5Ir2)2
_symmetry_space_group_name_H-M   'P 1'
_cell_length_a   4.36635240
_cell_length_b   13.04759392
_cell_length_c   13.04759392
_cell_angle_alpha   90.00000000
_cell_angle_beta   90.00000000
_cell_angle_gamma   90.00000000
_symmetry_Int_Tables_number   1
_chemical_formula_structural   Tb5(Ge5Ir2)2
_chemical_formula_sum   'Tb10 Ge20 Ir8'
_cell_volume   743.32655368
_cell_formula_units_Z   2
loop_
 _symmetry_equiv_pos_site_id
 _symmetry_equiv_pos_as_xyz
  1  'x, y, z'
loop_
 _atom_site_type_symbol
 _atom_site_label
 _atom_site_symmetry_multiplicity
 _atom_site_fract_x
 _atom_site_fract_y
 _atom_site_fract_z
 _atom_site_occupancy
  Tb  Tb0  1  -0.00000000  0.50000000  0.50000000  1
  Tb  Tb1  1  0.00000000  0.00000000  -0.00000000  1
  Tb  Tb2  1  0.50000000  0.17467057  0.67467057  1
  Tb  Tb3  1  0.50000000  0.82532943  0.32532943  1
  Tb  Tb4  1  0.50000000  0.32532943  0.17467057  1
  Tb  Tb5  1  0.50000000  0.67467057  0.82532943  1
  Tb  Tb6  1  0.50000000  0.38385926  0.88385926  1
  Tb  Tb7  1  0.50000000  0.61614074  0.11614074  1
  Tb  Tb8  1  0.50000000  0.11614074  0.38385926  1
  Tb  Tb9  1  0.50000000  0.88385926  0.61614074  1
  Ge  Ge10  1  0.00000000  0.06671975  0.56671975  1
  Ge  Ge11  1  -0.00000000  0.93328025  0.43328025  1
  Ge  Ge12  1  0.00000000  0.43328025  0.06671975  1
  Ge  Ge13  1  -0.00000000  0.56671975  0.93328025  1
  Ge  Ge14  1  -0.00000000  0.70044352  0.66258401  1
  Ge  Ge15  1  0.00000000  0.29955648  0.33741599  1
  Ge  Ge16  1  -0.00000000  0.79955648  0.16258401  1
  Ge  Ge17  1  0.00000000  0.20044352  0.83741599  1
  Ge  Ge18  1  -0.00000000  0.66258401  0.29955648  1
  Ge  Ge19  1  0.00000000  0.33741599  0.70044352  1
  Ge  Ge20  1  0.00000000  0.16258401  0.20044352  1
  Ge  Ge21  1  -0.00000000  0.83741599  0.79955648  1
  Ge  Ge22  1  0.50000000  0.50808840  0.65737800  1
  Ge  Ge23  1  0.50000000  0.49191160  0.34262200  1
  Ge  Ge24  1  0.50000000  0.99191160  0.15737800  1
  Ge  Ge25  1  0.50000000  0.00808840  0.84262200  1
  Ge  Ge26  1  0.50000000  0.65737800  0.49191160  1
  Ge  Ge27  1  0.50000000  0.34262200  0.50808840  1
  Ge  Ge28  1  0.50000000  0.15737800  0.00808840  1
  Ge  Ge29  1  0.50000000  0.84262200  0.99191160  1
  Ir  Ir30  1  -0.00000000  0.52158409  0.74591714  1
  Ir  Ir31  1  0.00000000  0.47841591  0.25408286  1
  Ir  Ir32  1  -0.00000000  0.97841591  0.24591714  1
  Ir  Ir33  1  0.00000000  0.02158409  0.75408286  1
  Ir  Ir34  1  -0.00000000  0.74591714  0.47841591  1
  Ir  Ir35  1  0.00000000  0.25408286  0.52158409  1
  Ir  Ir36  1  0.00000000  0.24591714  0.02158409  1
  Ir  Ir37  1  -0.00000000  0.75408286  0.97841591  1
