# generated using pymatgen
data_Cu2MoSeO7
_symmetry_space_group_name_H-M   'P 1'
_cell_length_a   8.34328786
_cell_length_b   8.47190372
_cell_length_c   9.15844339
_cell_angle_alpha   90.00000000
_cell_angle_beta   90.00000000
_cell_angle_gamma   104.48558562
_symmetry_Int_Tables_number   1
_chemical_formula_structural   Cu2MoSeO7
_chemical_formula_sum   'Cu8 Mo4 Se4 O28'
_cell_volume   626.77221805
_cell_formula_units_Z   4
loop_
 _symmetry_equiv_pos_site_id
 _symmetry_equiv_pos_as_xyz
  1  'x, y, z'
loop_
 _atom_site_type_symbol
 _atom_site_label
 _atom_site_symmetry_multiplicity
 _atom_site_fract_x
 _atom_site_fract_y
 _atom_site_fract_z
 _atom_site_occupancy
  Cu  Cu0  1  0.68791072  0.11811280  0.49349952  1
  Cu  Cu1  1  0.31208928  0.38188720  0.99349952  1
  Cu  Cu2  1  0.31208928  0.88188720  0.50650048  1
  Cu  Cu3  1  0.68791072  0.61811280  0.00650048  1
  Cu  Cu4  1  0.68522710  0.47347257  0.49359366  1
  Cu  Cu5  1  0.31477290  0.02652743  0.99359366  1
  Cu  Cu6  1  0.31477290  0.52652743  0.50640634  1
  Cu  Cu7  1  0.68522710  0.97347257  0.00640634  1
  Mo  Mo8  1  0.87702472  0.34215763  0.79071572  1
  Mo  Mo9  1  0.12297528  0.15784237  0.29071572  1
  Mo  Mo10  1  0.12297528  0.65784237  0.20928428  1
  Mo  Mo11  1  0.87702472  0.84215763  0.70928428  1
  Se  Se12  1  0.68392073  0.29494939  0.17185501  1
  Se  Se13  1  0.31607927  0.20505061  0.67185501  1
  Se  Se14  1  0.31607927  0.70505061  0.82814499  1
  Se  Se15  1  0.68392073  0.79494939  0.32814499  1
  O  O16  1  0.61903754  0.28028305  0.35744558  1
  O  O17  1  0.38096246  0.21971695  0.85744558  1
  O  O18  1  0.38096246  0.71971695  0.64255442  1
  O  O19  1  0.61903754  0.78028305  0.14255442  1
  O  O20  1  0.56574285  0.10693025  0.11253044  1
  O  O21  1  0.43425715  0.39306975  0.61253044  1
  O  O22  1  0.43425715  0.89306975  0.88746956  1
  O  O23  1  0.56574285  0.60693025  0.38746956  1
  O  O24  1  0.56607496  0.42250563  0.10722488  1
  O  O25  1  0.43392504  0.07749437  0.60722488  1
  O  O26  1  0.43392504  0.57749437  0.89277512  1
  O  O27  1  0.56607496  0.92250563  0.39277512  1
  O  O28  1  0.77989304  0.31939397  0.60526618  1
  O  O29  1  0.22010696  0.18060603  0.10526618  1
  O  O30  1  0.22010696  0.68060603  0.39473382  1
  O  O31  1  0.77989304  0.81939397  0.89473382  1
  O  O32  1  0.82333480  0.50251391  0.89097179  1
  O  O33  1  0.17666520  0.99748609  0.39097179  1
  O  O34  1  0.17666520  0.49748609  0.10902821  1
  O  O35  1  0.82333480  0.00251391  0.60902821  1
  O  O36  1  0.09460583  0.39207266  0.77142950  1
  O  O37  1  0.90539417  0.10792734  0.27142950  1
  O  O38  1  0.90539417  0.60792734  0.22857050  1
  O  O39  1  0.09460583  0.89207266  0.72857050  1
  O  O40  1  0.81589233  0.15925137  0.89569783  1
  O  O41  1  0.18410767  0.34074863  0.39569783  1
  O  O42  1  0.18410767  0.84074863  0.10430217  1
  O  O43  1  0.81589233  0.65925137  0.60430217  1
