# generated using pymatgen
data_RbSi
_symmetry_space_group_name_H-M   'P 1'
_cell_length_a   11.02107339
_cell_length_b   11.02107339
_cell_length_c   11.88240607
_cell_angle_alpha   117.62973989
_cell_angle_beta   117.62973989
_cell_angle_gamma   90.00000000
_symmetry_Int_Tables_number   1
_chemical_formula_structural   RbSi
_chemical_formula_sum   'Rb16 Si16'
_cell_volume   1089.52343085
_cell_formula_units_Z   16
loop_
 _symmetry_equiv_pos_site_id
 _symmetry_equiv_pos_as_xyz
  1  'x, y, z'
loop_
 _atom_site_type_symbol
 _atom_site_label
 _atom_site_symmetry_multiplicity
 _atom_site_fract_x
 _atom_site_fract_y
 _atom_site_fract_z
 _atom_site_occupancy
  Rb  Rb0  1  0.25000000  0.39334361  -0.00000000  1
  Rb  Rb1  1  0.25000000  0.89334361  -0.00000000  1
  Rb  Rb2  1  0.10665639  0.75000000  0.50000000  1
  Rb  Rb3  1  0.89334361  0.25000000  0.50000000  1
  Rb  Rb4  1  0.75000000  0.60665639  -0.00000000  1
  Rb  Rb5  1  0.75000000  0.10665639  -0.00000000  1
  Rb  Rb6  1  0.60665639  0.75000000  0.50000000  1
  Rb  Rb7  1  0.39334361  0.25000000  0.50000000  1
  Rb  Rb8  1  0.75555209  0.24444791  0.75000000  1
  Rb  Rb9  1  0.49444791  0.74444791  0.75000000  1
  Rb  Rb10  1  0.00555209  0.99444791  0.25000000  1
  Rb  Rb11  1  0.74444791  0.49444791  0.25000000  1
  Rb  Rb12  1  0.24444791  0.75555209  0.25000000  1
  Rb  Rb13  1  0.50555209  0.25555209  0.25000000  1
  Rb  Rb14  1  0.99444791  0.00555209  0.75000000  1
  Rb  Rb15  1  0.25555209  0.50555209  0.75000000  1
  Si  Si16  1  0.26751481  0.48004496  0.34524724  1
  Si  Si17  1  0.57773243  0.98004496  0.34524724  1
  Si  Si18  1  0.36520228  0.07773243  0.84524724  1
  Si  Si19  1  0.98004496  0.57773243  0.84524724  1
  Si  Si20  1  0.73248519  0.51995504  0.65475276  1
  Si  Si21  1  0.42226757  0.01995504  0.65475276  1
  Si  Si22  1  0.63479772  0.92226757  0.15475276  1
  Si  Si23  1  0.01995504  0.42226757  0.15475276  1
  Si  Si24  1  0.76751481  0.86520228  0.34524724  1
  Si  Si25  1  0.07773243  0.36520228  0.34524724  1
  Si  Si26  1  0.86520228  0.76751481  0.84524724  1
  Si  Si27  1  0.48004496  0.26751481  0.84524724  1
  Si  Si28  1  0.23248519  0.13479772  0.65475276  1
  Si  Si29  1  0.92226757  0.63479772  0.65475276  1
  Si  Si30  1  0.13479772  0.23248519  0.15475276  1
  Si  Si31  1  0.51995504  0.73248519  0.15475276  1
