# generated using pymatgen
data_ErSbMo2O9
_symmetry_space_group_name_H-M   'P 1'
_cell_length_a   9.65508924
_cell_length_b   9.65508924
_cell_length_c   10.79321082
_cell_angle_alpha   111.97495318
_cell_angle_beta   111.97495318
_cell_angle_gamma   95.19700731
_symmetry_Int_Tables_number   1
_chemical_formula_structural   ErSbMo2O9
_chemical_formula_sum   'Er4 Sb4 Mo8 O36'
_cell_volume   833.57343031
_cell_formula_units_Z   4
loop_
 _symmetry_equiv_pos_site_id
 _symmetry_equiv_pos_as_xyz
  1  'x, y, z'
loop_
 _atom_site_type_symbol
 _atom_site_label
 _atom_site_symmetry_multiplicity
 _atom_site_fract_x
 _atom_site_fract_y
 _atom_site_fract_z
 _atom_site_occupancy
  Er  Er0  1  0.67111183  0.32888817  0.25000000  1
  Er  Er1  1  0.32888817  0.67111183  0.75000000  1
  Er  Er2  1  0.12608030  0.87391970  0.25000000  1
  Er  Er3  1  0.87391970  0.12608030  0.75000000  1
  Sb  Sb4  1  0.65243655  0.61736784  0.03433783  1
  Sb  Sb5  1  0.38263216  0.34756345  0.46566217  1
  Sb  Sb6  1  0.34756345  0.38263216  0.96566217  1
  Sb  Sb7  1  0.61736784  0.65243655  0.53433783  1
  Mo  Mo8  1  0.04566414  0.25945434  0.52574767  1
  Mo  Mo9  1  0.74054566  0.95433586  0.97425233  1
  Mo  Mo10  1  0.95433586  0.74054566  0.47425233  1
  Mo  Mo11  1  0.25945434  0.04566414  0.02574767  1
  Mo  Mo12  1  0.05848820  0.43390011  0.19356935  1
  Mo  Mo13  1  0.56609989  0.94151180  0.30643065  1
  Mo  Mo14  1  0.94151180  0.56609989  0.80643065  1
  Mo  Mo15  1  0.43390011  0.05848820  0.69356935  1
  O  O16  1  0.06658271  0.09443037  0.39754163  1
  O  O17  1  0.90556963  0.93341729  0.10245837  1
  O  O18  1  0.93341729  0.90556963  0.60245837  1
  O  O19  1  0.09443037  0.06658271  0.89754163  1
  O  O20  1  0.86799372  0.29791043  0.43120878  1
  O  O21  1  0.70208957  0.13200628  0.06879122  1
  O  O22  1  0.13200628  0.70208957  0.56879122  1
  O  O23  1  0.29791043  0.86799372  0.93120878  1
  O  O24  1  0.04222554  0.22057660  0.67534267  1
  O  O25  1  0.77942340  0.95777446  0.82465733  1
  O  O26  1  0.95777446  0.77942340  0.32465733  1
  O  O27  1  0.22057660  0.04222554  0.17534267  1
  O  O28  1  0.77815506  0.59410415  0.42027762  1
  O  O29  1  0.40589585  0.22184494  0.07972238  1
  O  O30  1  0.22184494  0.40589585  0.57972238  1
  O  O31  1  0.59410415  0.77815506  0.92027762  1
  O  O32  1  0.97808078  0.30491387  0.00057176  1
  O  O33  1  0.69508613  0.02191922  0.49942824  1
  O  O34  1  0.02191922  0.69508613  0.99942824  1
  O  O35  1  0.30491387  0.97808078  0.50057176  1
  O  O36  1  0.14718479  0.62171580  0.22866786  1
  O  O37  1  0.37828420  0.85281521  0.27133214  1
  O  O38  1  0.85281521  0.37828420  0.77133214  1
  O  O39  1  0.62171580  0.14718479  0.72866786  1
  O  O40  1  0.90697922  0.44456693  0.25052893  1
  O  O41  1  0.55543307  0.09302078  0.24947107  1
  O  O42  1  0.09302078  0.55543307  0.74947107  1
  O  O43  1  0.44456693  0.90697922  0.75052893  1
  O  O44  1  0.20878389  0.36185102  0.29766804  1
  O  O45  1  0.63814898  0.79121611  0.20233196  1
  O  O46  1  0.79121611  0.63814898  0.70233196  1
  O  O47  1  0.36185102  0.20878389  0.79766804  1
  O  O48  1  0.57709934  0.45857215  0.10155663  1
  O  O49  1  0.54142785  0.42290066  0.39844337  1
  O  O50  1  0.42290066  0.54142785  0.89844337  1
  O  O51  1  0.45857215  0.57709934  0.60155663  1
