# generated using pymatgen
data_Zn3As2(HO)16
_symmetry_space_group_name_H-M   'P 1'
_cell_length_a   4.80182293
_cell_length_b   8.71241688
_cell_length_c   8.71241688
_cell_angle_alpha   106.38182179
_cell_angle_beta   99.20974303
_cell_angle_gamma   99.20974303
_symmetry_Int_Tables_number   1
_chemical_formula_structural   Zn3As2(HO)16
_chemical_formula_sum   'Zn3 As2 H16 O16'
_cell_volume   336.98395637
_cell_formula_units_Z   1
loop_
 _symmetry_equiv_pos_site_id
 _symmetry_equiv_pos_as_xyz
  1  'x, y, z'
loop_
 _atom_site_type_symbol
 _atom_site_label
 _atom_site_symmetry_multiplicity
 _atom_site_fract_x
 _atom_site_fract_y
 _atom_site_fract_z
 _atom_site_occupancy
  Zn  Zn0  1  0.00000000  0.00000000  -0.00000000  1
  Zn  Zn1  1  -0.00000000  0.61162233  0.38837767  1
  Zn  Zn2  1  -0.00000000  0.38837767  0.61162233  1
  As  As3  1  0.37686692  0.31323329  0.31323329  1
  As  As4  1  0.62313308  0.68676671  0.68676671  1
  H  H5  1  0.36563994  0.96302059  0.80344226  1
  H  H6  1  0.36563994  0.80344226  0.96302059  1
  H  H7  1  0.63436006  0.03697941  0.19655774  1
  H  H8  1  0.63436006  0.19655774  0.03697941  1
  H  H9  1  0.05699360  0.93825810  0.69108915  1
  H  H10  1  0.05699360  0.69108915  0.93825810  1
  H  H11  1  0.94300640  0.06174190  0.30891085  1
  H  H12  1  0.94300640  0.30891085  0.06174190  1
  H  H13  1  0.48573993  0.81418670  0.43432446  1
  H  H14  1  0.48573993  0.43432446  0.81418670  1
  H  H15  1  0.51426007  0.18581330  0.56567554  1
  H  H16  1  0.51426007  0.56567554  0.18581330  1
  H  H17  1  0.28864046  0.81474734  0.26664980  1
  H  H18  1  0.28864046  0.26664980  0.81474734  1
  H  H19  1  0.71135954  0.18525266  0.73335020  1
  H  H20  1  0.71135954  0.73335020  0.18525266  1
  O  O21  1  0.38350573  0.14700035  0.14700035  1
  O  O22  1  0.61649427  0.85299965  0.85299965  1
  O  O23  1  0.73226244  0.40620829  0.40620829  1
  O  O24  1  0.26773756  0.59379171  0.59379171  1
  O  O25  1  0.21319770  0.23314939  0.44450007  1
  O  O26  1  0.21319770  0.44450007  0.23314939  1
  O  O27  1  0.78680230  0.76685061  0.55549993  1
  O  O28  1  0.78680230  0.55549993  0.76685061  1
  O  O29  1  0.80306276  0.98349826  0.20935833  1
  O  O30  1  0.80306276  0.20935833  0.98349826  1
  O  O31  1  0.19693724  0.01650174  0.79064167  1
  O  O32  1  0.19693724  0.79064167  0.01650174  1
  O  O33  1  0.71218609  0.18363521  0.62034443  1
  O  O34  1  0.71218609  0.62034443  0.18363521  1
  O  O35  1  0.28781391  0.81636479  0.37965557  1
  O  O36  1  0.28781391  0.37965557  0.81636479  1
