# generated using pymatgen
data_FeH24C2S2(N3O7)2
_symmetry_space_group_name_H-M   'P 1'
_cell_length_a   7.63961602
_cell_length_b   10.73373817
_cell_length_c   12.00534061
_cell_angle_alpha   96.05161748
_cell_angle_beta   90.00000000
_cell_angle_gamma   90.00000000
_symmetry_Int_Tables_number   1
_chemical_formula_structural   FeH24C2S2(N3O7)2
_chemical_formula_sum   'Fe2 H48 C4 S4 N12 O28'
_cell_volume   978.97153123
_cell_formula_units_Z   2
loop_
 _symmetry_equiv_pos_site_id
 _symmetry_equiv_pos_as_xyz
  1  'x, y, z'
loop_
 _atom_site_type_symbol
 _atom_site_label
 _atom_site_symmetry_multiplicity
 _atom_site_fract_x
 _atom_site_fract_y
 _atom_site_fract_z
 _atom_site_occupancy
  Fe  Fe0  1  0.50000000  0.50000000  0.50000000  1
  Fe  Fe1  1  -0.00000000  0.50000000  0.00000000  1
  H  H2  1  0.82134996  0.39064465  0.53493286  1
  H  H3  1  0.32134996  0.60935535  0.96506714  1
  H  H4  1  0.17865004  0.60935535  0.46506714  1
  H  H5  1  0.67865004  0.39064465  0.03493286  1
  H  H6  1  0.84245608  0.50785331  0.46160813  1
  H  H7  1  0.34245608  0.49214669  0.03839187  1
  H  H8  1  0.15754392  0.49214669  0.53839187  1
  H  H9  1  0.65754392  0.50785331  0.96160813  1
  H  H10  1  0.49618532  0.48426422  0.26258636  1
  H  H11  1  0.99618532  0.51573578  0.23741364  1
  H  H12  1  0.50381468  0.51573578  0.73741364  1
  H  H13  1  0.00381468  0.48426422  0.76258636  1
  H  H14  1  0.63817862  0.73289477  0.51250068  1
  H  H15  1  0.13817862  0.26710523  0.98749932  1
  H  H16  1  0.36182138  0.26710523  0.48749932  1
  H  H17  1  0.86182138  0.73289477  0.01250068  1
  H  H18  1  0.54904322  0.72493244  0.63122742  1
  H  H19  1  0.04904322  0.27506756  0.86877258  1
  H  H20  1  0.45095678  0.27506756  0.36877258  1
  H  H21  1  0.95095678  0.72493244  0.13122742  1
  H  H22  1  0.66264649  0.56287723  0.31355182  1
  H  H23  1  0.16264649  0.43712277  0.18644818  1
  H  H24  1  0.33735351  0.43712277  0.68644818  1
  H  H25  1  0.83735351  0.56287723  0.81355182  1
  H  H26  1  0.71526052  0.87049199  0.22376556  1
  H  H27  1  0.21526052  0.12950801  0.27623444  1
  H  H28  1  0.28473948  0.12950801  0.77623444  1
  H  H29  1  0.78473948  0.87049199  0.72376556  1
  H  H30  1  0.61352510  0.86519229  0.09358167  1
  H  H31  1  0.11352510  0.13480771  0.40641833  1
  H  H32  1  0.38647490  0.13480771  0.90641833  1
  H  H33  1  0.88647490  0.86519229  0.59358167  1
  H  H34  1  0.32358707  0.84492436  0.37483955  1
  H  H35  1  0.82358707  0.15507564  0.12516045  1
  H  H36  1  0.67641293  0.15507564  0.62516045  1
  H  H37  1  0.17641293  0.84492436  0.87483955  1
  H  H38  1  0.54840894  0.87139394  0.38417781  1
  H  H39  1  0.04840894  0.12860606  0.11582219  1
  H  H40  1  0.45159106  0.12860606  0.61582219  1
  H  H41  1  0.95159106  0.87139394  0.88417781  1
  H  H42  1  0.31462508  0.83033784  0.08160511  1
  H  H43  1  0.81462508  0.16966216  0.41839489  1
  H  H44  1  0.68537492  0.16966216  0.91839489  1
  H  H45  1  0.18537492  0.83033784  0.58160511  1
  H  H46  1  0.18291647  0.84320499  0.20285811  1
  H  H47  1  0.68291647  0.15679501  0.29714189  1
  H  H48  1  0.81708353  0.15679501  0.79714189  1
  H  H49  1  0.31708353  0.84320499  0.70285811  1
  C  C50  1  0.44657789  0.86804622  0.22812698  1
  C  C51  1  0.94657789  0.13195378  0.27187302  1
  C  C52  1  0.55342211  0.13195378  0.77187302  1
  C  C53  1  0.05342211  0.86804622  0.72812698  1
  S  S54  1  0.06442062  0.25380809  0.62807970  1
  S  S55  1  0.56442062  0.74619191  0.87192030  1
  S  S56  1  0.93557938  0.74619191  0.37192030  1
  S  S57  1  0.43557938  0.25380809  0.12807970  1
  N  N58  1  0.60246761  0.87714556  0.17906309  1
  N  N59  1  0.10246761  0.12285444  0.32093691  1
  N  N60  1  0.39753239  0.12285444  0.82093691  1
  N  N61  1  0.89753239  0.87714556  0.67906309  1
  N  N62  1  0.43475993  0.87782258  0.34047825  1
  N  N63  1  0.93475993  0.12217742  0.15952175  1
  N  N64  1  0.56524007  0.12217742  0.65952175  1
  N  N65  1  0.06524007  0.87782258  0.84047825  1
  N  N66  1  0.30133843  0.85493170  0.16573407  1
  N  N67  1  0.80133843  0.14506830  0.33426593  1
  N  N68  1  0.69866157  0.14506830  0.83426593  1
  N  N69  1  0.19866157  0.85493170  0.66573407  1
  O  O70  1  0.77427108  0.47398246  0.52103531  1
  O  O71  1  0.27427108  0.52601754  0.97896469  1
  O  O72  1  0.22572892  0.52601754  0.47896469  1
  O  O73  1  0.72572892  0.47398246  0.02103531  1
  O  O74  1  0.54151159  0.53769172  0.32855227  1
  O  O75  1  0.04151159  0.46230828  0.17144773  1
  O  O76  1  0.45848841  0.46230828  0.67144773  1
  O  O77  1  0.95848841  0.53769172  0.82855227  1
  O  O78  1  0.53673723  0.69717012  0.55017245  1
  O  O79  1  0.03673723  0.30282988  0.94982755  1
  O  O80  1  0.46326277  0.30282988  0.44982755  1
  O  O81  1  0.96326277  0.69717012  0.05017245  1
  O  O82  1  0.89282959  0.24438375  0.56743695  1
  O  O83  1  0.39282959  0.75561625  0.93256305  1
  O  O84  1  0.10717041  0.75561625  0.43256305  1
  O  O85  1  0.60717041  0.24438375  0.06743695  1
  O  O86  1  0.04983762  0.19471966  0.73456039  1
  O  O87  1  0.54983762  0.80528034  0.76543961  1
  O  O88  1  0.95016238  0.80528034  0.26543961  1
  O  O89  1  0.45016238  0.19471966  0.23456039  1
  O  O90  1  0.20356112  0.18849675  0.55632587  1
  O  O91  1  0.70356112  0.81150325  0.94367413  1
  O  O92  1  0.79643888  0.81150325  0.44367413  1
  O  O93  1  0.29643888  0.18849675  0.05632587  1
  O  O94  1  0.11170626  0.38998275  0.65371262  1
  O  O95  1  0.61170626  0.61001725  0.84628738  1
  O  O96  1  0.88829374  0.61001725  0.34628738  1
  O  O97  1  0.38829374  0.38998275  0.15371262  1
