# generated using pymatgen
data_Na2MgH20(SO9)2
_symmetry_space_group_name_H-M   'P 1'
_cell_length_a   6.51253353
_cell_length_b   10.19170496
_cell_length_c   12.71143162
_cell_angle_alpha   106.34340882
_cell_angle_beta   90.00000000
_cell_angle_gamma   90.00000000
_symmetry_Int_Tables_number   1
_chemical_formula_structural   Na2MgH20(SO9)2
_chemical_formula_sum   'Na4 Mg2 H40 S4 O36'
_cell_volume   809.61411147
_cell_formula_units_Z   2
loop_
 _symmetry_equiv_pos_site_id
 _symmetry_equiv_pos_as_xyz
  1  'x, y, z'
loop_
 _atom_site_type_symbol
 _atom_site_label
 _atom_site_symmetry_multiplicity
 _atom_site_fract_x
 _atom_site_fract_y
 _atom_site_fract_z
 _atom_site_occupancy
  Na  Na0  1  0.24412127  0.89673141  0.98100442  1
  Na  Na1  1  0.74412127  0.60326859  0.01899558  1
  Na  Na2  1  0.75587873  0.10326859  0.01899558  1
  Na  Na3  1  0.25587873  0.39673141  0.98100442  1
  Mg  Mg4  1  0.50000000  0.00000000  0.50000000  1
  Mg  Mg5  1  0.00000000  0.50000000  0.50000000  1
  H  H6  1  0.92480378  0.92545034  0.83359047  1
  H  H7  1  0.42480378  0.57454966  0.16640953  1
  H  H8  1  0.07519622  0.07454966  0.16640953  1
  H  H9  1  0.57519622  0.42545034  0.83359047  1
  H  H10  1  0.80631171  0.82442907  0.88682440  1
  H  H11  1  0.30631171  0.67557093  0.11317560  1
  H  H12  1  0.19368829  0.17557093  0.11317560  1
  H  H13  1  0.69368829  0.32442907  0.88682440  1
  H  H14  1  0.38684195  0.09143254  0.85794874  1
  H  H15  1  0.88684195  0.40856746  0.14205126  1
  H  H16  1  0.61315805  0.90856746  0.14205126  1
  H  H17  1  0.11315805  0.59143254  0.85794874  1
  H  H18  1  0.52179671  0.95962836  0.82751704  1
  H  H19  1  0.02179671  0.54037164  0.17248296  1
  H  H20  1  0.47820329  0.04037164  0.17248296  1
  H  H21  1  0.97820329  0.45962836  0.82751704  1
  H  H22  1  0.57803611  0.15657303  0.36272075  1
  H  H23  1  0.07803611  0.34342697  0.63727925  1
  H  H24  1  0.42196389  0.84342697  0.63727925  1
  H  H25  1  0.92196389  0.65657303  0.36272075  1
  H  H26  1  0.78044929  0.06880941  0.36491978  1
  H  H27  1  0.28044929  0.43119059  0.63508022  1
  H  H28  1  0.21955071  0.93119059  0.63508022  1
  H  H29  1  0.71955071  0.56880941  0.36491978  1
  H  H30  1  0.79288276  0.81757754  0.50413540  1
  H  H31  1  0.29288276  0.68242246  0.49586460  1
  H  H32  1  0.20711724  0.18242246  0.49586460  1
  H  H33  1  0.70711724  0.31757754  0.50413540  1
  H  H34  1  0.85202789  0.95218092  0.60043332  1
  H  H35  1  0.35202789  0.54781908  0.39956668  1
  H  H36  1  0.14797211  0.04781908  0.39956668  1
  H  H37  1  0.64797211  0.45218092  0.60043332  1
  H  H38  1  0.67126657  0.19997777  0.66568735  1
  H  H39  1  0.17126657  0.30002223  0.33431265  1
  H  H40  1  0.32873343  0.80002223  0.33431265  1
  H  H41  1  0.82873343  0.69997777  0.66568735  1
  H  H42  1  0.43249895  0.18624703  0.69681242  1
  H  H43  1  0.93249895  0.31375297  0.30318758  1
  H  H44  1  0.56750105  0.81375297  0.30318758  1
  H  H45  1  0.06750105  0.68624703  0.69681242  1
  S  S46  1  0.01580398  0.16860628  0.77571908  1
  S  S47  1  0.51580398  0.33139372  0.22428092  1
  S  S48  1  0.98419602  0.83139372  0.22428092  1
  S  S49  1  0.48419602  0.66860628  0.77571908  1
  O  O50  1  0.23807998  0.20344141  0.79771140  1
  O  O51  1  0.73807998  0.29655859  0.20228860  1
  O  O52  1  0.76192002  0.79655859  0.20228860  1
  O  O53  1  0.26192002  0.70344141  0.79771140  1
  O  O54  1  0.92798079  0.25270048  0.70640097  1
  O  O55  1  0.42798079  0.24729952  0.29359903  1
  O  O56  1  0.07201921  0.74729952  0.29359903  1
  O  O57  1  0.57201921  0.75270048  0.70640097  1
  O  O58  1  0.90257458  0.20108369  0.88132509  1
  O  O59  1  0.40257458  0.29891631  0.11867491  1
  O  O60  1  0.09742542  0.79891631  0.11867491  1
  O  O61  1  0.59742542  0.70108369  0.88132509  1
  O  O62  1  0.99657993  0.01932199  0.71661436  1
  O  O63  1  0.49657993  0.48067801  0.28338564  1
  O  O64  1  0.00342007  0.98067801  0.28338564  1
  O  O65  1  0.50342007  0.51932199  0.71661436  1
  O  O66  1  0.90692804  0.89961154  0.90197636  1
  O  O67  1  0.40692804  0.60038846  0.09802364  1
  O  O68  1  0.09307196  0.10038846  0.09802364  1
  O  O69  1  0.59307196  0.39961154  0.90197636  1
  O  O70  1  0.46323529  0.02823907  0.89012200  1
  O  O71  1  0.96323529  0.47176093  0.10987800  1
  O  O72  1  0.53676471  0.97176093  0.10987800  1
  O  O73  1  0.03676471  0.52823907  0.89012200  1
  O  O74  1  0.66546507  0.11698081  0.41059198  1
  O  O75  1  0.16546507  0.38301919  0.58940802  1
  O  O76  1  0.33453493  0.88301919  0.58940802  1
  O  O77  1  0.83453493  0.61698081  0.41059198  1
  O  O78  1  0.77198655  0.91627174  0.53149454  1
  O  O79  1  0.27198655  0.58372826  0.46850546  1
  O  O80  1  0.22801345  0.08372826  0.46850546  1
  O  O81  1  0.72801345  0.41627174  0.53149454  1
  O  O82  1  0.53351977  0.16846909  0.63598272  1
  O  O83  1  0.03351977  0.33153091  0.36401728  1
  O  O84  1  0.46648023  0.83153091  0.36401728  1
  O  O85  1  0.96648023  0.66846909  0.63598272  1
