# generated using pymatgen
data_Ba5P3O13
_symmetry_space_group_name_H-M   'P 1'
_cell_length_a   7.72523473
_cell_length_b   10.28512235
_cell_length_c   10.21290025
_cell_angle_alpha   119.97496874
_cell_angle_beta   90.00000000
_cell_angle_gamma   90.00000000
_symmetry_Int_Tables_number   1
_chemical_formula_structural   Ba5P3O13
_chemical_formula_sum   'Ba10 P6 O26'
_cell_volume   702.92721162
_cell_formula_units_Z   2
loop_
 _symmetry_equiv_pos_site_id
 _symmetry_equiv_pos_as_xyz
  1  'x, y, z'
loop_
 _atom_site_type_symbol
 _atom_site_label
 _atom_site_symmetry_multiplicity
 _atom_site_fract_x
 _atom_site_fract_y
 _atom_site_fract_z
 _atom_site_occupancy
  Ba  Ba0  1  0.49812273  0.66591698  0.33258266  1
  Ba  Ba1  1  0.99812273  0.33408302  0.66741734  1
  Ba  Ba2  1  0.50187727  0.33408302  0.66741734  1
  Ba  Ba3  1  0.00187727  0.66591698  0.33258266  1
  Ba  Ba4  1  0.75000000  0.24447212  0.01684125  1
  Ba  Ba5  1  0.75000000  0.98373128  0.22891407  1
  Ba  Ba6  1  0.75000000  0.76881804  0.75776376  1
  Ba  Ba7  1  0.25000000  0.75552788  0.98315875  1
  Ba  Ba8  1  0.25000000  0.01626872  0.77108593  1
  Ba  Ba9  1  0.25000000  0.23118196  0.24223624  1
  P  P10  1  0.75000000  0.02809570  0.62391605  1
  P  P11  1  0.75000000  0.37566772  0.40489278  1
  P  P12  1  0.75000000  0.59360892  0.97054612  1
  P  P13  1  0.25000000  0.97190430  0.37608395  1
  P  P14  1  0.25000000  0.62433228  0.59510722  1
  P  P15  1  0.25000000  0.40639108  0.02945388  1
  O  O16  1  0.75000000  0.85581215  0.51746894  1
  O  O17  1  0.75000000  0.48168651  0.33770874  1
  O  O18  1  0.75000000  0.66207142  0.14464622  1
  O  O19  1  0.25000000  0.14418785  0.48253106  1
  O  O20  1  0.25000000  0.51831349  0.66229126  1
  O  O21  1  0.25000000  0.33792858  0.85535378  1
  O  O22  1  0.75000000  0.11055113  0.53043558  1
  O  O23  1  0.75000000  0.46969913  0.58130395  1
  O  O24  1  0.75000000  0.41833662  0.88931423  1
  O  O25  1  0.25000000  0.88944887  0.46956442  1
  O  O26  1  0.25000000  0.53030087  0.41869605  1
  O  O27  1  0.25000000  0.58166338  0.11068577  1
  O  O28  1  0.58663143  0.07811604  0.72837469  1
  O  O29  1  0.58693032  0.27205477  0.35114650  1
  O  O30  1  0.58674537  0.64646057  0.91987335  1
  O  O31  1  0.08663143  0.92188396  0.27162531  1
  O  O32  1  0.08693032  0.72794523  0.64885350  1
  O  O33  1  0.08674537  0.35353943  0.08012665  1
  O  O34  1  0.41336857  0.92188396  0.27162531  1
  O  O35  1  0.41306968  0.72794523  0.64885350  1
  O  O36  1  0.41325463  0.35353943  0.08012665  1
  O  O37  1  0.91336857  0.07811604  0.72837469  1
  O  O38  1  0.91306968  0.27205477  0.35114650  1
  O  O39  1  0.91325463  0.64646057  0.91987335  1
  O  O40  1  0.50000000  -0.00000000  -0.00000000  1
  O  O41  1  0.00000000  -0.00000000  -0.00000000  1
