# generated using pymatgen
data_AlCrMo6(H19O20)2
_symmetry_space_group_name_H-M   'P 1'
_cell_length_a   6.88919980
_cell_length_b   11.46886720
_cell_length_c   11.96694092
_cell_angle_alpha   101.83478342
_cell_angle_beta   96.36676307
_cell_angle_gamma   103.25500127
_symmetry_Int_Tables_number   1
_chemical_formula_structural   AlCrMo6(H19O20)2
_chemical_formula_sum   'Al1 Cr1 Mo6 H38 O40'
_cell_volume   888.30930236
_cell_formula_units_Z   1
loop_
 _symmetry_equiv_pos_site_id
 _symmetry_equiv_pos_as_xyz
  1  'x, y, z'
loop_
 _atom_site_type_symbol
 _atom_site_label
 _atom_site_symmetry_multiplicity
 _atom_site_fract_x
 _atom_site_fract_y
 _atom_site_fract_z
 _atom_site_occupancy
  Al  Al0  1  -0.00000000  0.50000000  0.50000000  1
  Cr  Cr1  1  -0.00000000  -0.00000000  -0.00000000  1
  Mo  Mo2  1  0.62592162  0.82938802  0.09951971  1
  Mo  Mo3  1  0.37407838  0.17061198  0.90048029  1
  Mo  Mo4  1  0.65657419  0.75380230  0.81732450  1
  Mo  Mo5  1  0.34342581  0.24619770  0.18267550  1
  Mo  Mo6  1  0.02520201  0.92971845  0.70903965  1
  Mo  Mo7  1  0.97479799  0.07028155  0.29096035  1
  H  H8  1  0.70418267  0.08728403  0.08532465  1
  H  H9  1  0.29581733  0.91271597  0.91467535  1
  H  H10  1  0.95900040  0.76460040  0.01647838  1
  H  H11  1  0.04099960  0.23539960  0.98352162  1
  H  H12  1  0.72123617  0.01591508  0.84118014  1
  H  H13  1  0.27876383  0.98408492  0.15881986  1
  H  H14  1  0.74935884  0.61247715  0.42702368  1
  H  H15  1  0.25064116  0.38752285  0.57297632  1
  H  H16  1  0.97300647  0.68275741  0.41310038  1
  H  H17  1  0.02699353  0.31724259  0.58689962  1
  H  H18  1  0.03087097  0.35110495  0.30925302  1
  H  H19  1  0.96912903  0.64889505  0.69074698  1
  H  H20  1  0.92906660  0.45450488  0.27102542  1
  H  H21  1  0.07093340  0.54549512  0.72897458  1
  H  H22  1  0.65755952  0.34162111  0.41791302  1
  H  H23  1  0.34244048  0.65837889  0.58208698  1
  H  H24  1  0.64919701  0.40525332  0.55332379  1
  H  H25  1  0.35080299  0.59474668  0.44667621  1
  H  H26  1  0.98878263  0.80046536  0.29450753  1
  H  H27  1  0.01121737  0.19953464  0.70549247  1
  H  H28  1  0.20605252  0.78642739  0.33725832  1
  H  H29  1  0.79394748  0.21357261  0.66274168  1
  H  H30  1  0.80346601  0.27010972  0.89213172  1
  H  H31  1  0.19653399  0.72989028  0.10786828  1
  H  H32  1  0.87591569  0.37450180  0.00946359  1
  H  H33  1  0.12408431  0.62549820  0.99053641  1
  H  H34  1  0.89288480  0.55404314  0.11923656  1
  H  H35  1  0.10711520  0.44595686  0.88076344  1
  H  H36  1  0.68006965  0.46470415  0.11675351  1
  H  H37  1  0.31993035  0.53529585  0.88324649  1
  H  H38  1  0.46744242  0.55921091  0.28149668  1
  H  H39  1  0.53255758  0.44078909  0.71850332  1
  H  H40  1  0.51639922  0.70026887  0.35583422  1
  H  H41  1  0.48360078  0.29973113  0.64416578  1
  H  H42  1  0.53923386  0.91472005  0.35760684  1
  H  H43  1  0.46076614  0.08527995  0.64239316  1
  H  H44  1  0.46275687  0.88539836  0.47041167  1
  H  H45  1  0.53724313  0.11460164  0.52958833  1
  O  O46  1  0.79018931  0.03236110  0.09966205  1
  O  O47  1  0.20981069  0.96763890  0.90033795  1
  O  O48  1  0.84818369  0.89099324  0.23078957  1
  O  O49  1  0.15181631  0.10900676  0.76921043  1
  O  O50  1  0.42485609  0.87958173  0.15768662  1
  O  O51  1  0.57514391  0.12041827  0.84231338  1
  O  O52  1  0.57932190  0.67494117  0.10187160  1
  O  O53  1  0.42067810  0.32505883  0.89812840  1
  O  O54  1  0.87536775  0.82186756  0.99433124  1
  O  O55  1  0.12463225  0.17813244  0.00566876  1
  O  O56  1  0.50913885  0.81707519  0.93718055  1
  O  O57  1  0.49086115  0.18292481  0.06281945  1
  O  O58  1  0.62221974  0.59989471  0.82625855  1
  O  O59  1  0.37778026  0.40010529  0.17374145  1
  O  O60  1  0.48308417  0.74730703  0.69760959  1
  O  O61  1  0.51691583  0.25269297  0.30239041  1
  O  O62  1  0.90449459  0.77019587  0.74639020  1
  O  O63  1  0.09550541  0.22980413  0.25360980  1
  O  O64  1  0.81403904  0.96157928  0.84820681  1
  O  O65  1  0.18596096  0.03842072  0.15179319  1
  O  O66  1  0.83762420  0.93709330  0.60409512  1
  O  O67  1  0.16237580  0.06290670  0.39590488  1
  O  O68  1  0.21612592  0.89313222  0.63676586  1
  O  O69  1  0.78387408  0.10686778  0.36323414  1
  O  O70  1  0.89457010  0.62848885  0.46080924  1
  O  O71  1  0.10542990  0.37151115  0.53919076  1
  O  O72  1  0.99264024  0.43061208  0.33866906  1
  O  O73  1  0.00735976  0.56938792  0.66133094  1
  O  O74  1  0.73531893  0.40295960  0.49076863  1
  O  O75  1  0.26468107  0.59704040  0.50923137  1
  O  O76  1  0.06040194  0.74220689  0.31878874  1
  O  O77  1  0.93959806  0.25779311  0.68121126  1
  O  O78  1  0.92425188  0.32686713  0.94322504  1
  O  O79  1  0.07574812  0.67313287  0.05677496  1
  O  O80  1  0.82566040  0.47157256  0.12934838  1
  O  O81  1  0.17433960  0.52842744  0.87065162  1
  O  O82  1  0.51420121  0.61437070  0.35971041  1
  O  O83  1  0.48579879  0.38562930  0.64028959  1
  O  O84  1  0.46192960  0.84969274  0.38905573  1
  O  O85  1  0.53807040  0.15030726  0.61094427  1
