# generated using pymatgen
data_VFe(CuO2)2
_symmetry_space_group_name_H-M   'P 1'
_cell_length_a   3.04203848
_cell_length_b   3.04203880
_cell_length_c   11.73517596
_cell_angle_alpha   82.55283203
_cell_angle_beta   89.99999762
_cell_angle_gamma   119.99999199
_symmetry_Int_Tables_number   1
_chemical_formula_structural   VFe(CuO2)2
_chemical_formula_sum   'V1 Fe1 Cu2 O4'
_cell_volume   92.98877826
_cell_formula_units_Z   1
loop_
 _symmetry_equiv_pos_site_id
 _symmetry_equiv_pos_as_xyz
  1  'x, y, z'
loop_
 _atom_site_type_symbol
 _atom_site_label
 _atom_site_symmetry_multiplicity
 _atom_site_fract_x
 _atom_site_fract_y
 _atom_site_fract_z
 _atom_site_occupancy
  V  V0  1  0.75000000  0.50000000  0.75000000  1
  Fe  Fe1  1  0.25000000  0.50000000  0.25000000  1
  Cu  Cu2  1  -0.00004931  -0.00009863  0.00014794  1
  Cu  Cu3  1  0.50004931  0.00009863  0.49985206  1
  O  O4  1  0.55315536  0.10631071  0.34053393  1
  O  O5  1  0.05316692  0.10633383  0.84049925  1
  O  O6  1  0.94684464  0.89368929  0.15946607  1
  O  O7  1  0.44683308  0.89366617  0.65950075  1
