# generated using pymatgen
data_Rb2PrH8N5O19
_symmetry_space_group_name_H-M   'P 1'
_cell_length_a   7.19575822
_cell_length_b   7.19575822
_cell_length_c   18.52709880
_cell_angle_alpha   80.94478409
_cell_angle_beta   80.94478409
_cell_angle_gamma   78.07156356
_symmetry_Int_Tables_number   1
_chemical_formula_structural   Rb2PrH8N5O19
_chemical_formula_sum   'Rb4 Pr2 H16 N10 O38'
_cell_volume   919.12947711
_cell_formula_units_Z   2
loop_
 _symmetry_equiv_pos_site_id
 _symmetry_equiv_pos_as_xyz
  1  'x, y, z'
loop_
 _atom_site_type_symbol
 _atom_site_label
 _atom_site_symmetry_multiplicity
 _atom_site_fract_x
 _atom_site_fract_y
 _atom_site_fract_z
 _atom_site_occupancy
  Rb  Rb0  1  0.94643049  0.13241475  0.37736001  1
  Rb  Rb1  1  0.13241475  0.94643049  0.87736001  1
  Rb  Rb2  1  0.35684427  0.54382534  0.42945187  1
  Rb  Rb3  1  0.54382534  0.35684427  0.92945187  1
  Pr  Pr4  1  0.69472385  0.79963274  0.60135583  1
  Pr  Pr5  1  0.79963274  0.69472385  0.10135583  1
  H  H6  1  0.89924023  0.16604183  0.57888803  1
  H  H7  1  0.16604183  0.89924023  0.07888803  1
  H  H8  1  0.06646120  0.99440423  0.56128365  1
  H  H9  1  0.99440423  0.06646120  0.06128365  1
  H  H10  1  0.32772779  0.59468362  0.62715361  1
  H  H11  1  0.59468362  0.32772779  0.12715361  1
  H  H12  1  0.49714653  0.42246457  0.64166767  1
  H  H13  1  0.42246457  0.49714653  0.14166767  1
  H  H14  1  0.21837735  0.52124269  0.81873707  1
  H  H15  1  0.52124269  0.21837735  0.31873707  1
  H  H16  1  0.37504491  0.62119873  0.76993044  1
  H  H17  1  0.62119873  0.37504491  0.26993044  1
  H  H18  1  0.76748016  0.11107299  0.79110300  1
  H  H19  1  0.11107299  0.76748016  0.29110300  1
  H  H20  1  0.80772970  0.32052269  0.77504066  1
  H  H21  1  0.32052269  0.80772970  0.27504066  1
  N  N22  1  0.04533276  0.45989818  0.59791170  1
  N  N23  1  0.45989818  0.04533276  0.09791170  1
  N  N24  1  0.08258818  0.43236591  0.20036954  1
  N  N25  1  0.43236591  0.08258818  0.70036954  1
  N  N26  1  0.63713618  0.84360337  0.94906707  1
  N  N27  1  0.84360337  0.63713618  0.44906707  1
  N  N28  1  0.70209326  0.82226473  0.25772903  1
  N  N29  1  0.82226473  0.70209326  0.75772903  1
  N  N30  1  0.03495948  0.41838778  0.99144862  1
  N  N31  1  0.41838778  0.03495948  0.49144862  1
  O  O32  1  0.18832727  0.33545453  0.58400130  1
  O  O33  1  0.33545453  0.18832727  0.08400130  1
  O  O34  1  0.43358992  0.87566755  0.09541864  1
  O  O35  1  0.87566755  0.43358992  0.59541864  1
  O  O36  1  0.62300592  0.06067355  0.11395821  1
  O  O37  1  0.06067355  0.62300592  0.61395821  1
  O  O38  1  0.18404906  0.33768089  0.24640721  1
  O  O39  1  0.33768089  0.18404906  0.74640721  1
  O  O40  1  0.90527508  0.42293851  0.20407311  1
  O  O41  1  0.42293851  0.90527508  0.70407311  1
  O  O42  1  0.14854660  0.54685650  0.14639965  1
  O  O43  1  0.54685650  0.14854660  0.64639965  1
  O  O44  1  0.54262253  0.91516489  0.89736188  1
  O  O45  1  0.91516489  0.54262253  0.39736188  1
  O  O46  1  0.73822577  0.94039429  0.97412324  1
  O  O47  1  0.94039429  0.73822577  0.47412324  1
  O  O48  1  0.63614435  0.67304196  0.98077088  1
  O  O49  1  0.67304196  0.63614435  0.48077088  1
  O  O50  1  0.65688728  0.88797191  0.31744114  1
  O  O51  1  0.88797191  0.65688728  0.81744114  1
  O  O52  1  0.86731184  0.82270905  0.22028553  1
  O  O53  1  0.82270905  0.86731184  0.72028553  1
  O  O54  1  0.58375867  0.75077745  0.22993600  1
  O  O55  1  0.75077745  0.58375867  0.72993600  1
  O  O56  1  0.12289706  0.31654784  0.94388707  1
  O  O57  1  0.31654784  0.12289706  0.44388707  1
  O  O58  1  0.05770256  0.59052793  0.98980691  1
  O  O59  1  0.59052793  0.05770256  0.48980691  1
  O  O60  1  0.91728025  0.35511971  0.04450325  1
  O  O61  1  0.35511971  0.91728025  0.54450325  1
  O  O62  1  0.92711513  0.03804964  0.56265719  1
  O  O63  1  0.03804964  0.92711513  0.06265719  1
  O  O64  1  0.46175574  0.56360507  0.63732307  1
  O  O65  1  0.56360507  0.46175574  0.13732307  1
  O  O66  1  0.32328245  0.58572649  0.82109714  1
  O  O67  1  0.58572649  0.32328245  0.32109714  1
  O  O68  1  0.81645597  0.20529834  0.81173077  1
  O  O69  1  0.20529834  0.81645597  0.31173077  1
