# generated using pymatgen
data_Pr6CdFe13
_symmetry_space_group_name_H-M   'P 1'
_cell_length_a   8.11746142
_cell_length_b   8.11746142
_cell_length_c   13.13292924
_cell_angle_alpha   108.00198349
_cell_angle_beta   108.00198349
_cell_angle_gamma   90.00000000
_symmetry_Int_Tables_number   1
_chemical_formula_structural   Pr6CdFe13
_chemical_formula_sum   'Pr12 Cd2 Fe26'
_cell_volume   778.34110946
_cell_formula_units_Z   2
loop_
 _symmetry_equiv_pos_site_id
 _symmetry_equiv_pos_as_xyz
  1  'x, y, z'
loop_
 _atom_site_type_symbol
 _atom_site_label
 _atom_site_symmetry_multiplicity
 _atom_site_fract_x
 _atom_site_fract_y
 _atom_site_fract_z
 _atom_site_occupancy
  Pr  Pr0  1  0.97828633  0.47828633  0.63089856  1
  Pr  Pr1  1  0.65261222  0.15261222  0.63089856  1
  Pr  Pr2  1  0.15261222  0.97828633  0.63089856  1
  Pr  Pr3  1  0.47828633  0.65261222  0.63089856  1
  Pr  Pr4  1  0.02171367  0.52171367  0.36910144  1
  Pr  Pr5  1  0.34738778  0.84738778  0.36910144  1
  Pr  Pr6  1  0.84738778  0.02171367  0.36910144  1
  Pr  Pr7  1  0.52171367  0.34738778  0.36910144  1
  Pr  Pr8  1  0.60472102  0.60472102  0.20944203  1
  Pr  Pr9  1  0.10472102  0.10472102  0.20944203  1
  Pr  Pr10  1  0.39527898  0.39527898  0.79055797  1
  Pr  Pr11  1  0.89527898  0.89527898  0.79055797  1
  Cd  Cd12  1  0.25000000  0.25000000  0.50000000  1
  Cd  Cd13  1  0.75000000  0.75000000  0.50000000  1
  Fe  Fe14  1  0.12050814  0.62050814  0.88369209  1
  Fe  Fe15  1  0.76318394  0.26318394  0.88369209  1
  Fe  Fe16  1  0.26318394  0.12050814  0.88369209  1
  Fe  Fe17  1  0.62050814  0.76318394  0.88369209  1
  Fe  Fe18  1  0.87949186  0.37949186  0.11630791  1
  Fe  Fe19  1  0.23681606  0.73681606  0.11630791  1
  Fe  Fe20  1  0.73681606  0.87949186  0.11630791  1
  Fe  Fe21  1  0.37949186  0.23681606  0.11630791  1
  Fe  Fe22  1  0.71102908  0.56631218  -0.00000000  1
  Fe  Fe23  1  0.28897092  0.43368782  -0.00000000  1
  Fe  Fe24  1  0.78897092  0.06631218  -0.00000000  1
  Fe  Fe25  1  0.21102908  0.93368782  -0.00000000  1
  Fe  Fe26  1  0.56631218  0.28897092  -0.00000000  1
  Fe  Fe27  1  0.43368782  0.71102908  -0.00000000  1
  Fe  Fe28  1  0.06631218  0.21102908  -0.00000000  1
  Fe  Fe29  1  0.93368782  0.78897092  -0.00000000  1
  Fe  Fe30  1  0.29351343  0.79351343  0.81337038  1
  Fe  Fe31  1  0.51985695  0.01985695  0.81337038  1
  Fe  Fe32  1  0.01985695  0.29351343  0.81337038  1
  Fe  Fe33  1  0.79351343  0.51985695  0.81337038  1
  Fe  Fe34  1  0.70648657  0.20648657  0.18662962  1
  Fe  Fe35  1  0.48014305  0.98014305  0.18662962  1
  Fe  Fe36  1  0.98014305  0.70648657  0.18662962  1
  Fe  Fe37  1  0.20648657  0.48014305  0.18662962  1
  Fe  Fe38  1  -0.00000000  0.50000000  -0.00000000  1
  Fe  Fe39  1  0.50000000  0.00000000  -0.00000000  1
