# generated using pymatgen
data_Lu2Si2O7
_symmetry_space_group_name_H-M   'P 1'
_cell_length_a   6.59326689
_cell_length_b   6.59326689
_cell_length_c   12.02407057
_cell_angle_alpha   90.00000000
_cell_angle_beta   90.00000000
_cell_angle_gamma   90.00000000
_symmetry_Int_Tables_number   1
_chemical_formula_structural   Lu2Si2O7
_chemical_formula_sum   'Lu8 Si8 O28'
_cell_volume   522.70039519
_cell_formula_units_Z   4
loop_
 _symmetry_equiv_pos_site_id
 _symmetry_equiv_pos_as_xyz
  1  'x, y, z'
loop_
 _atom_site_type_symbol
 _atom_site_label
 _atom_site_symmetry_multiplicity
 _atom_site_fract_x
 _atom_site_fract_y
 _atom_site_fract_z
 _atom_site_occupancy
  Lu  Lu0  1  0.14831710  0.37678036  0.11641376  1
  Lu  Lu1  1  0.85168290  0.62321964  0.61641376  1
  Lu  Lu2  1  0.87678036  0.35168290  0.36641376  1
  Lu  Lu3  1  0.12321964  0.64831710  0.86641376  1
  Lu  Lu4  1  0.62321964  0.85168290  0.38358624  1
  Lu  Lu5  1  0.37678036  0.14831710  0.88358624  1
  Lu  Lu6  1  0.35168290  0.87678036  0.63358624  1
  Lu  Lu7  1  0.64831710  0.12321964  0.13358624  1
  Si  Si8  1  0.15354873  0.90263125  0.12190946  1
  Si  Si9  1  0.84645127  0.09736875  0.62190946  1
  Si  Si10  1  0.40263125  0.34645127  0.37190946  1
  Si  Si11  1  0.59736875  0.65354873  0.87190946  1
  Si  Si12  1  0.09736875  0.84645127  0.37809054  1
  Si  Si13  1  0.90263125  0.15354873  0.87809054  1
  Si  Si14  1  0.34645127  0.40263125  0.62809054  1
  Si  Si15  1  0.65354873  0.59736875  0.12809054  1
  O  O16  1  0.33698714  0.05410994  0.07276460  1
  O  O17  1  0.66301286  0.94589006  0.57276460  1
  O  O18  1  0.55410994  0.16301286  0.32276460  1
  O  O19  1  0.44589006  0.83698714  0.82276460  1
  O  O20  1  0.94589006  0.66301286  0.42723540  1
  O  O21  1  0.05410994  0.33698714  0.92723540  1
  O  O22  1  0.16301286  0.55410994  0.67723540  1
  O  O23  1  0.83698714  0.44589006  0.17723540  1
  O  O24  1  0.97166125  0.07126970  0.12580588  1
  O  O25  1  0.02833875  0.92873030  0.62580588  1
  O  O26  1  0.57126970  0.52833875  0.37580588  1
  O  O27  1  0.42873030  0.47166125  0.87580588  1
  O  O28  1  0.92873030  0.02833875  0.37419412  1
  O  O29  1  0.07126970  0.97166125  0.87419412  1
  O  O30  1  0.52833875  0.57126970  0.62419412  1
  O  O31  1  0.47166125  0.42873030  0.12419412  1
  O  O32  1  0.13795452  0.69431377  0.04789414  1
  O  O33  1  0.86204548  0.30568623  0.54789414  1
  O  O34  1  0.19431377  0.36204548  0.29789414  1
  O  O35  1  0.80568623  0.63795452  0.79789414  1
  O  O36  1  0.30568623  0.86204548  0.45210586  1
  O  O37  1  0.69431377  0.13795452  0.95210586  1
  O  O38  1  0.36204548  0.19431377  0.70210586  1
  O  O39  1  0.63795452  0.80568623  0.20210586  1
  O  O40  1  0.18486392  0.81513608  0.25000000  1
  O  O41  1  0.81513608  0.18486392  0.75000000  1
  O  O42  1  0.31513608  0.31513608  0.50000000  1
  O  O43  1  0.68486392  0.68486392  0.00000000  1
