# generated using pymatgen
data_K3Fe5F15
_symmetry_space_group_name_H-M   'P 1'
_cell_length_a   4.02262130
_cell_length_b   12.97654435
_cell_length_c   13.02774085
_cell_angle_alpha   90.00000000
_cell_angle_beta   90.00000000
_cell_angle_gamma   90.00000000
_symmetry_Int_Tables_number   1
_chemical_formula_structural   K3Fe5F15
_chemical_formula_sum   'K6 Fe10 F30'
_cell_volume   680.04447284
_cell_formula_units_Z   2
loop_
 _symmetry_equiv_pos_site_id
 _symmetry_equiv_pos_as_xyz
  1  'x, y, z'
loop_
 _atom_site_type_symbol
 _atom_site_label
 _atom_site_symmetry_multiplicity
 _atom_site_fract_x
 _atom_site_fract_y
 _atom_site_fract_z
 _atom_site_occupancy
  K  K0  1  0.97238125  0.50000000  0.50000000  1
  K  K1  1  0.97238125  -0.00000000  0.00000000  1
  K  K2  1  0.97175977  0.17627315  0.32334542  1
  K  K3  1  0.97175977  0.82372685  0.67665458  1
  K  K4  1  0.97175977  0.67627315  0.17665458  1
  K  K5  1  0.97175977  0.32372685  0.82334542  1
  Fe  Fe6  1  0.44339564  -0.00000000  0.50000000  1
  Fe  Fe7  1  0.44339564  0.50000000  0.00000000  1
  Fe  Fe8  1  0.46167518  0.71282210  0.42408612  1
  Fe  Fe9  1  0.46167518  0.28717790  0.57591388  1
  Fe  Fe10  1  0.46167518  0.21282210  0.07591388  1
  Fe  Fe11  1  0.46167518  0.78717790  0.92408612  1
  Fe  Fe12  1  0.46130043  0.57646495  0.71369737  1
  Fe  Fe13  1  0.46130043  0.42353505  0.28630263  1
  Fe  Fe14  1  0.46130043  0.07646495  0.78630263  1
  Fe  Fe15  1  0.46130043  0.92353505  0.21369737  1
  F  F16  1  0.94633068  -0.00000000  0.50000000  1
  F  F17  1  0.94633068  0.50000000  0.00000000  1
  F  F18  1  0.96199399  0.71101621  0.42567307  1
  F  F19  1  0.96199399  0.28898379  0.57432693  1
  F  F20  1  0.96199399  0.21101621  0.07432693  1
  F  F21  1  0.96199399  0.78898379  0.92567307  1
  F  F22  1  0.46176335  0.27412009  0.21810219  1
  F  F23  1  0.46176335  0.72587991  0.78189781  1
  F  F24  1  0.46176335  0.77412009  0.28189781  1
  F  F25  1  0.46176335  0.22587991  0.71810219  1
  F  F26  1  0.96119398  0.57471634  0.70841521  1
  F  F27  1  0.96119398  0.42528366  0.29158479  1
  F  F28  1  0.96119398  0.07471634  0.79158479  1
  F  F29  1  0.96119398  0.92528366  0.20841521  1
  F  F30  1  0.44857043  0.50870032  0.14770214  1
  F  F31  1  0.44857043  0.49129968  0.85229786  1
  F  F32  1  0.44857043  0.00870032  0.35229786  1
  F  F33  1  0.44857043  0.99129968  0.64770214  1
  F  F34  1  0.45070799  0.84917197  0.50468408  1
  F  F35  1  0.45070799  0.15082803  0.49531592  1
  F  F36  1  0.45070799  0.34917197  0.99531592  1
  F  F37  1  0.45070799  0.65082803  0.00468408  1
  F  F38  1  0.46703337  0.57220292  0.35848851  1
  F  F39  1  0.46703337  0.42779708  0.64151149  1
  F  F40  1  0.46703337  0.07220292  0.14151149  1
  F  F41  1  0.46703337  0.92779708  0.85848851  1
  F  F42  1  0.46844773  0.64602647  0.56422873  1
  F  F43  1  0.46844773  0.35397353  0.43577127  1
  F  F44  1  0.46844773  0.14602647  0.93577127  1
  F  F45  1  0.46844773  0.85397353  0.06422873  1
