# generated using pymatgen
data_Zn2H18Cl4O9
_symmetry_space_group_name_H-M   'P 1'
_cell_length_a   7.15575351
_cell_length_b   12.96675622
_cell_length_c   18.49028553
_cell_angle_alpha   90.00000000
_cell_angle_beta   89.99991354
_cell_angle_gamma   90.00000000
_symmetry_Int_Tables_number   1
_chemical_formula_structural   Zn2H18Cl4O9
_chemical_formula_sum   'Zn8 H72 Cl16 O36'
_cell_volume   1715.65648402
_cell_formula_units_Z   4
loop_
 _symmetry_equiv_pos_site_id
 _symmetry_equiv_pos_as_xyz
  1  'x, y, z'
loop_
 _atom_site_type_symbol
 _atom_site_label
 _atom_site_symmetry_multiplicity
 _atom_site_fract_x
 _atom_site_fract_y
 _atom_site_fract_z
 _atom_site_occupancy
  Zn  Zn0  1  0.22969216  0.50758600  0.43756604  1
  Zn  Zn1  1  0.27030956  0.49241428  0.93756653  1
  Zn  Zn2  1  0.72969044  0.99241428  0.56243347  1
  Zn  Zn3  1  0.77030784  0.00758600  0.06243396  1
  Zn  Zn4  1  0.68298035  0.53527750  0.68256184  1
  Zn  Zn5  1  0.81701956  0.46472229  0.18256231  1
  Zn  Zn6  1  0.18298044  0.96472229  0.31743769  1
  Zn  Zn7  1  0.31701965  0.03527750  0.81743816  1
  H  H8  1  0.89228170  0.49431300  0.37414075  1
  H  H9  1  0.60771877  0.50568689  0.87414047  1
  H  H10  1  0.39228123  0.00568689  0.62585953  1
  H  H11  1  0.10771830  0.99431300  0.12585925  1
  H  H12  1  0.25393435  0.25977601  0.61081105  1
  H  H13  1  0.24606543  0.74022411  0.11081120  1
  H  H14  1  0.75393457  0.24022411  0.38918880  1
  H  H15  1  0.74606565  0.75977601  0.88918895  1
  H  H16  1  0.31954116  0.31306868  0.48649278  1
  H  H17  1  0.18045842  0.68693093  0.98649268  1
  H  H18  1  0.81954158  0.18693093  0.51350732  1
  H  H19  1  0.68045884  0.81306868  0.01350722  1
  H  H20  1  0.17644645  0.70260493  0.48224485  1
  H  H21  1  0.32355170  0.29739525  0.98224525  1
  H  H22  1  0.67644830  0.79739525  0.51775475  1
  H  H23  1  0.82355355  0.20260493  0.01775515  1
  H  H24  1  0.22721124  0.52189934  0.58817128  1
  H  H25  1  0.27278872  0.47810056  0.08817111  1
  H  H26  1  0.72721128  0.97810056  0.41182889  1
  H  H27  1  0.77278876  0.02189934  0.91182872  1
  H  H28  1  0.23695018  0.48924723  0.28981976  1
  H  H29  1  0.26305015  0.51075282  0.78981977  1
  H  H30  1  0.73694985  0.01075282  0.71018023  1
  H  H31  1  0.76304982  0.98924723  0.21018024  1
  H  H32  1  0.43245576  0.53327783  0.31640003  1
  H  H33  1  0.06754431  0.46672236  0.81640004  1
  H  H34  1  0.93245569  0.96672236  0.68359996  1
  H  H35  1  0.56754424  0.03327783  0.18359997  1
  H  H36  1  0.57122719  0.50970226  0.49783117  1
  H  H37  1  0.92877320  0.49029721  0.99783103  1
  H  H38  1  0.07122680  0.99029721  0.50216897  1
  H  H39  1  0.42877281  0.00970226  0.00216883  1
  H  H40  1  0.19110123  0.70644117  0.39752185  1
  H  H41  1  0.30889870  0.29355866  0.89752154  1
  H  H42  1  0.69110130  0.79355866  0.60247846  1
  H  H43  1  0.80889877  0.20644117  0.10247815  1
  H  H44  1  0.57482547  0.61390714  0.45214973  1
  H  H45  1  0.92517479  0.38609339  0.95214949  1
  H  H46  1  0.07482521  0.88609339  0.54785051  1
  H  H47  1  0.42517453  0.11390714  0.04785027  1
  H  H48  1  0.93085838  0.38852947  0.41591579  1
  H  H49  1  0.56914115  0.61147085  0.91591554  1
  H  H50  1  0.43085885  0.11147085  0.58408446  1
  H  H51  1  0.06914162  0.88852947  0.08408421  1
  H  H52  1  0.02700351  0.48469578  0.55970232  1
  H  H53  1  0.47299567  0.51530433  0.05970219  1
  H  H54  1  0.52700433  0.01530433  0.44029781  1
  H  H55  1  0.97299649  0.98469578  0.94029768  1
  H  H56  1  0.38145764  0.31829884  0.40283358  1
  H  H57  1  0.11854186  0.68170146  0.90283331  1
  H  H58  1  0.88145814  0.18170146  0.59716669  1
  H  H59  1  0.61854236  0.81829884  0.09716642  1
  H  H60  1  0.21205305  0.73711905  0.60383133  1
  H  H61  1  0.28794632  0.26288055  0.10383075  1
  H  H62  1  0.71205368  0.76288055  0.39616925  1
  H  H63  1  0.78794695  0.23711905  0.89616867  1
  H  H64  1  0.94894580  0.72335041  0.78675319  1
  H  H65  1  0.55105429  0.27664974  0.28675296  1
  H  H66  1  0.44894571  0.77664974  0.21324704  1
  H  H67  1  0.05105420  0.22335041  0.71324681  1
  H  H68  1  0.46127360  0.29320770  0.59438525  1
  H  H69  1  0.03872563  0.70679211  0.09438534  1
  H  H70  1  0.96127437  0.20679211  0.40561466  1
  H  H71  1  0.53872640  0.79320770  0.90561475  1
  H  H72  1  0.36606997  0.79628482  0.56119325  1
  H  H73  1  0.13392801  0.20371497  0.06119333  1
  H  H74  1  0.86607199  0.70371497  0.43880667  1
  H  H75  1  0.63393003  0.29628482  0.93880675  1
  H  H76  1  0.04673488  0.81405643  0.82615714  1
  H  H77  1  0.45326549  0.18594361  0.32615716  1
  H  H78  1  0.54673451  0.68594361  0.17384284  1
  H  H79  1  0.95326512  0.31405643  0.67384286  1
  Cl  Cl80  1  0.72239286  0.42479696  0.58587853  1
  Cl  Cl81  1  0.77760473  0.57520293  0.08587813  1
  Cl  Cl82  1  0.22239527  0.07520293  0.41412187  1
  Cl  Cl83  1  0.27760714  0.92479696  0.91412147  1
  Cl  Cl84  1  0.77367141  0.44225413  0.78219757  1
  Cl  Cl85  1  0.72632605  0.55774558  0.28219809  1
  Cl  Cl86  1  0.27367395  0.05774558  0.21780191  1
  Cl  Cl87  1  0.22632859  0.94225413  0.71780243  1
  Cl  Cl88  1  0.37726525  0.58351234  0.68913510  1
  Cl  Cl89  1  0.12273222  0.41648816  0.18913477  1
  Cl  Cl90  1  0.87726778  0.91648816  0.31086523  1
  Cl  Cl91  1  0.62273475  0.08351234  0.81086490  1
  Cl  Cl92  1  0.86962934  0.67641575  0.66735705  1
  Cl  Cl93  1  0.63037270  0.32358361  0.16735703  1
  Cl  Cl94  1  0.36962730  0.82358361  0.33264297  1
  Cl  Cl95  1  0.13037066  0.17641575  0.83264295  1
  O  O96  1  0.29997932  0.52548217  0.32980248  1
  O  O97  1  0.20002132  0.47451717  0.82980255  1
  O  O98  1  0.79997868  0.97451717  0.67019745  1
  O  O99  1  0.70002068  0.02548217  0.17019752  1
  O  O100  1  0.95709515  0.46354665  0.41596449  1
  O  O101  1  0.54290264  0.53645312  0.91596456  1
  O  O102  1  0.45709736  0.03645312  0.58403544  1
  O  O103  1  0.04290485  0.96354665  0.08403551  1
  O  O104  1  0.30810774  0.35240063  0.44103514  1
  O  O105  1  0.19189206  0.64759869  0.94103467  1
  O  O106  1  0.80810794  0.14759869  0.55896533  1
  O  O107  1  0.69189226  0.85240063  0.05896486  1
  O  O108  1  0.13077564  0.66794555  0.43730217  1
  O  O109  1  0.36922548  0.33205535  0.93730200  1
  O  O110  1  0.63077452  0.83205535  0.56269800  1
  O  O111  1  0.86922436  0.16794555  0.06269783  1
  O  O112  1  0.23306686  0.77577741  0.55912281  1
  O  O113  1  0.26693084  0.22422215  0.05912212  1
  O  O114  1  0.73306916  0.72422215  0.44087788  1
  O  O115  1  0.76693314  0.27577741  0.94087719  1
  O  O116  1  0.97277367  0.75198737  0.83529893  1
  O  O117  1  0.52722633  0.24801284  0.33529864  1
  O  O118  1  0.47277367  0.74801284  0.16470136  1
  O  O119  1  0.02722633  0.25198737  0.66470107  1
  O  O120  1  0.36040206  0.24757020  0.57788984  1
  O  O121  1  0.13959761  0.75243015  0.07788979  1
  O  O122  1  0.86040239  0.25243015  0.42211021  1
  O  O123  1  0.63959794  0.74757020  0.92211016  1
  O  O124  1  0.49469545  0.55619987  0.46813308  1
  O  O125  1  0.00530387  0.44380040  0.96813235  1
  O  O126  1  0.99469613  0.94380040  0.53186765  1
  O  O127  1  0.50530455  0.05619987  0.03186692  1
  O  O128  1  0.15901813  0.49268560  0.54687882  1
  O  O129  1  0.34098040  0.50731526  0.04687840  1
  O  O130  1  0.65901960  0.00731526  0.45312160  1
  O  O131  1  0.84098187  0.99268560  0.95312118  1
