# generated using pymatgen
data_Lu2NiGe6
_symmetry_space_group_name_H-M   'P 1'
_cell_length_a   4.00239389
_cell_length_b   3.98273799
_cell_length_c   10.76081960
_cell_angle_alpha   100.66447537
_cell_angle_beta   90.00000000
_cell_angle_gamma   90.00000000
_symmetry_Int_Tables_number   1
_chemical_formula_structural   Lu2NiGe6
_chemical_formula_sum   'Lu2 Ni1 Ge6'
_cell_volume   168.56993632
_cell_formula_units_Z   1
loop_
 _symmetry_equiv_pos_site_id
 _symmetry_equiv_pos_as_xyz
  1  'x, y, z'
loop_
 _atom_site_type_symbol
 _atom_site_label
 _atom_site_symmetry_multiplicity
 _atom_site_fract_x
 _atom_site_fract_y
 _atom_site_fract_z
 _atom_site_occupancy
  Lu  Lu0  1  0.50000000  0.22333438  0.44666876  1
  Lu  Lu1  1  0.50000000  0.88615263  0.77230526  1
  Ni  Ni2  1  0.00000000  0.44320648  0.88641296  1
  Ge  Ge3  1  0.50000000  0.50182713  0.00365425  1
  Ge  Ge4  1  0.50000000  0.61991027  0.23982054  1
  Ge  Ge5  1  -0.00000000  0.00186210  0.00372420  1
  Ge  Ge6  1  0.00000000  0.12084005  0.24168011  1
  Ge  Ge7  1  -0.00000000  0.33583483  0.67166966  1
  Ge  Ge8  1  -0.00000000  0.76003213  0.52006426  1
