# generated using pymatgen
data_NbTe4Cl4O
_symmetry_space_group_name_H-M   'P 1'
_cell_length_a   8.14173423
_cell_length_b   12.49183734
_cell_length_c   12.94292721
_cell_angle_alpha   81.24996651
_cell_angle_beta   82.18012655
_cell_angle_gamma   78.71799309
_symmetry_Int_Tables_number   1
_chemical_formula_structural   NbTe4Cl4O
_chemical_formula_sum   'Nb4 Te16 Cl16 O4'
_cell_volume   1268.20548292
_cell_formula_units_Z   4
loop_
 _symmetry_equiv_pos_site_id
 _symmetry_equiv_pos_as_xyz
  1  'x, y, z'
loop_
 _atom_site_type_symbol
 _atom_site_label
 _atom_site_symmetry_multiplicity
 _atom_site_fract_x
 _atom_site_fract_y
 _atom_site_fract_z
 _atom_site_occupancy
  Nb  Nb0  1  0.55744357  0.75929632  0.26824817  1
  Nb  Nb1  1  0.44255643  0.24070368  0.73175183  1
  Nb  Nb2  1  0.05571783  0.75790393  0.27354704  1
  Nb  Nb3  1  0.94428217  0.24209607  0.72645296  1
  Te  Te4  1  0.56471839  0.57848452  0.72013627  1
  Te  Te5  1  0.43528161  0.42151548  0.27986373  1
  Te  Te6  1  0.75736481  0.87317481  0.75869060  1
  Te  Te7  1  0.24263519  0.12682519  0.24130940  1
  Te  Te8  1  0.25123561  0.65890684  0.64156129  1
  Te  Te9  1  0.74876439  0.34109316  0.35843871  1
  Te  Te10  1  0.77714598  0.73224017  0.61580289  1
  Te  Te11  1  0.22285402  0.26775983  0.38419711  1
  Te  Te12  1  0.23095391  0.84346432  0.87660822  1
  Te  Te13  1  0.76904609  0.15653568  0.12339178  1
  Te  Te14  1  0.48238514  0.65038671  0.91548982  1
  Te  Te15  1  0.51761486  0.34961329  0.08451018  1
  Te  Te16  1  0.27541546  0.86801846  0.65582762  1
  Te  Te17  1  0.72458454  0.13198154  0.34417238  1
  Te  Te18  1  0.93326416  0.75379145  0.91738864  1
  Te  Te19  1  0.06673584  0.24620855  0.08261136  1
  Cl  Cl20  1  0.14871558  0.64168731  0.13328153  1
  Cl  Cl21  1  0.85128442  0.35831269  0.86671847  1
  Cl  Cl22  1  0.56952091  0.89869053  0.12094157  1
  Cl  Cl23  1  0.43047909  0.10130947  0.87905843  1
  Cl  Cl24  1  0.09299973  0.59580582  0.39878636  1
  Cl  Cl25  1  0.90700027  0.40419418  0.60121364  1
  Cl  Cl26  1  0.51284187  0.89444277  0.38845064  1
  Cl  Cl27  1  0.48715813  0.10555723  0.61154936  1
  Cl  Cl28  1  0.61767705  0.61284547  0.41349601  1
  Cl  Cl29  1  0.38232295  0.38715453  0.58650399  1
  Cl  Cl30  1  0.03992206  0.87036453  0.41021113  1
  Cl  Cl31  1  0.96007794  0.12963547  0.58978887  1
  Cl  Cl32  1  0.67432419  0.62053525  0.15327617  1
  Cl  Cl33  1  0.32567581  0.37946475  0.84672383  1
  Cl  Cl34  1  0.08227009  0.91685322  0.14135404  1
  Cl  Cl35  1  0.91772991  0.08314678  0.85864596  1
  O  O36  1  0.83588596  0.76775649  0.27077306  1
  O  O37  1  0.16411404  0.23224351  0.72922694  1
  O  O38  1  0.34112251  0.74946389  0.27022667  1
  O  O39  1  0.65887749  0.25053611  0.72977333  1
