# generated using pymatgen
data_Nd4Bi2S9
_symmetry_space_group_name_H-M   'P 1'
_cell_length_a   3.97753360
_cell_length_b   12.84667889
_cell_length_c   28.45851371
_cell_angle_alpha   90.00000000
_cell_angle_beta   90.00000000
_cell_angle_gamma   90.00000000
_symmetry_Int_Tables_number   1
_chemical_formula_structural   Nd4Bi2S9
_chemical_formula_sum   'Nd16 Bi8 S36'
_cell_volume   1454.17589213
_cell_formula_units_Z   4
loop_
 _symmetry_equiv_pos_site_id
 _symmetry_equiv_pos_as_xyz
  1  'x, y, z'
loop_
 _atom_site_type_symbol
 _atom_site_label
 _atom_site_symmetry_multiplicity
 _atom_site_fract_x
 _atom_site_fract_y
 _atom_site_fract_z
 _atom_site_occupancy
  Nd  Nd0  1  0.25000000  0.89424882  0.68763040  1
  Nd  Nd1  1  0.25000000  0.60575118  0.18763040  1
  Nd  Nd2  1  0.75000000  0.10575118  0.31236960  1
  Nd  Nd3  1  0.75000000  0.39424882  0.81236960  1
  Nd  Nd4  1  0.25000000  0.74190896  0.82047491  1
  Nd  Nd5  1  0.25000000  0.75809104  0.32047491  1
  Nd  Nd6  1  0.75000000  0.25809104  0.17952509  1
  Nd  Nd7  1  0.75000000  0.24190896  0.67952509  1
  Nd  Nd8  1  0.25000000  0.74150817  0.05439572  1
  Nd  Nd9  1  0.25000000  0.75849183  0.55439572  1
  Nd  Nd10  1  0.75000000  0.25849183  0.94560428  1
  Nd  Nd11  1  0.75000000  0.24150817  0.44560428  1
  Nd  Nd12  1  0.25000000  0.07507592  0.80564684  1
  Nd  Nd13  1  0.25000000  0.42492408  0.30564684  1
  Nd  Nd14  1  0.75000000  0.92492408  0.19435316  1
  Nd  Nd15  1  0.75000000  0.57507592  0.69435316  1
  Bi  Bi16  1  0.25000000  0.42906034  0.55939393  1
  Bi  Bi17  1  0.25000000  0.07093966  0.05939393  1
  Bi  Bi18  1  0.75000000  0.57093966  0.44060607  1
  Bi  Bi19  1  0.75000000  0.92906034  0.94060607  1
  Bi  Bi20  1  0.25000000  0.56106232  0.93427143  1
  Bi  Bi21  1  0.25000000  0.93893768  0.43427143  1
  Bi  Bi22  1  0.75000000  0.43893768  0.06572857  1
  Bi  Bi23  1  0.75000000  0.06106232  0.56572857  1
  S  S24  1  0.25000000  0.38654511  0.99558179  1
  S  S25  1  0.25000000  0.11345489  0.49558179  1
  S  S26  1  0.75000000  0.61345489  0.00441821  1
  S  S27  1  0.75000000  0.88654511  0.50441821  1
  S  S28  1  0.25000000  0.10463212  0.63565653  1
  S  S29  1  0.25000000  0.39536788  0.13565653  1
  S  S30  1  0.75000000  0.89536788  0.36434347  1
  S  S31  1  0.75000000  0.60463212  0.86434347  1
  S  S32  1  0.25000000  0.09990919  0.95746431  1
  S  S33  1  0.25000000  0.40009081  0.45746431  1
  S  S34  1  0.75000000  0.90009081  0.04253569  1
  S  S35  1  0.75000000  0.59990919  0.54253569  1
  S  S36  1  0.25000000  0.71102737  0.44210762  1
  S  S37  1  0.25000000  0.78897263  0.94210762  1
  S  S38  1  0.75000000  0.28897263  0.55789238  1
  S  S39  1  0.75000000  0.21102737  0.05789238  1
  S  S40  1  0.25000000  0.53868800  0.76965577  1
  S  S41  1  0.25000000  0.96131200  0.26965577  1
  S  S42  1  0.75000000  0.46131200  0.23034423  1
  S  S43  1  0.75000000  0.03868800  0.73034423  1
  S  S44  1  0.25000000  0.37555349  0.88598235  1
  S  S45  1  0.25000000  0.12444651  0.38598235  1
  S  S46  1  0.75000000  0.62444651  0.11401765  1
  S  S47  1  0.75000000  0.87555349  0.61401765  1
  S  S48  1  0.25000000  0.40928439  0.65714417  1
  S  S49  1  0.25000000  0.09071561  0.15714417  1
  S  S50  1  0.75000000  0.59071561  0.34285583  1
  S  S51  1  0.75000000  0.90928439  0.84285583  1
  S  S52  1  0.25000000  0.27153040  0.75453527  1
  S  S53  1  0.25000000  0.22846960  0.25453527  1
  S  S54  1  0.75000000  0.72846960  0.24546473  1
  S  S55  1  0.75000000  0.77153040  0.74546473  1
  S  S56  1  0.25000000  0.68508231  0.64891250  1
  S  S57  1  0.25000000  0.81491769  0.14891250  1
  S  S58  1  0.75000000  0.31491769  0.35108750  1
  S  S59  1  0.75000000  0.18508231  0.85108750  1
