# generated using pymatgen
data_Y4Fe29Si5
_symmetry_space_group_name_H-M   'P 1'
_cell_length_a   6.38889489
_cell_length_b   6.38041285
_cell_length_c   12.76629489
_cell_angle_alpha   81.52048458
_cell_angle_beta   82.45154969
_cell_angle_gamma   82.43027396
_symmetry_Int_Tables_number   1
_chemical_formula_structural   Y4Fe29Si5
_chemical_formula_sum   'Y4 Fe29 Si5'
_cell_volume   506.89185707
_cell_formula_units_Z   1
loop_
 _symmetry_equiv_pos_site_id
 _symmetry_equiv_pos_as_xyz
  1  'x, y, z'
loop_
 _atom_site_type_symbol
 _atom_site_label
 _atom_site_symmetry_multiplicity
 _atom_site_fract_x
 _atom_site_fract_y
 _atom_site_fract_z
 _atom_site_occupancy
  Y  Y0  1  0.65368355  0.65497913  0.32622001  1
  Y  Y1  1  0.65947675  0.65037306  0.82663998  1
  Y  Y2  1  0.34052325  0.34962694  0.17336002  1
  Y  Y3  1  0.34631645  0.34502087  0.67377999  1
  Fe  Fe4  1  0.30951802  0.69439338  0.99896735  1
  Fe  Fe5  1  0.30004084  0.70012557  0.49976720  1
  Fe  Fe6  1  0.69053786  0.00317861  0.15175073  1
  Fe  Fe7  1  0.69972691  0.99981272  0.65122265  1
  Fe  Fe8  1  0.99895111  0.29653726  0.35144582  1
  Fe  Fe9  1  0.00084941  0.28999865  0.85521914  1
  Fe  Fe10  1  0.30027309  0.00018728  0.34877735  1
  Fe  Fe11  1  0.30946214  0.99682139  0.84824927  1
  Fe  Fe12  1  0.99915059  0.71000135  0.14478086  1
  Fe  Fe13  1  0.00104889  0.70346274  0.64855418  1
  Fe  Fe14  1  0.69995916  0.29987443  0.50023280  1
  Fe  Fe15  1  0.69048198  0.30560662  0.00103265  1
  Fe  Fe16  1  0.33924691  0.33909463  0.42183135  1
  Fe  Fe17  1  0.33624308  0.33530077  0.92496012  1
  Fe  Fe18  1  0.33553049  0.84950067  0.16754032  1
  Fe  Fe19  1  0.34029328  0.84479261  0.66951809  1
  Fe  Fe20  1  0.83591426  0.34440908  0.17109016  1
  Fe  Fe21  1  0.84480713  0.33934521  0.67070303  1
  Fe  Fe22  1  0.66375692  0.66469923  0.07503988  1
  Fe  Fe23  1  0.66075309  0.66090537  0.57816865  1
  Fe  Fe24  1  0.65970672  0.15520739  0.33048191  1
  Fe  Fe25  1  0.66446951  0.15049933  0.83245968  1
  Fe  Fe26  1  0.15519287  0.66065479  0.32929697  1
  Fe  Fe27  1  0.16408574  0.65559092  0.82890984  1
  Fe  Fe28  1  0.99820048  0.00136598  0.24968534  1
  Fe  Fe29  1  0.00179952  0.99863402  0.75031466  1
  Fe  Fe30  1  -0.00000000  0.50000000  -0.00000000  1
  Fe  Fe31  1  -0.00000000  0.50000000  0.50000000  1
  Fe  Fe32  1  0.50000000  0.00000000  0.50000000  1
  Si  Si33  1  0.50000000  0.00000000  -0.00000000  1
  Si  Si34  1  0.89884393  0.89851677  0.44934424  1
  Si  Si35  1  0.92437093  0.88920712  0.94471674  1
  Si  Si36  1  0.07562907  0.11079288  0.05528326  1
  Si  Si37  1  0.10115607  0.10148323  0.55065576  1
