# generated using pymatgen
data_ZnH16(IO8)2
_symmetry_space_group_name_H-M   'P 1'
_cell_length_a   5.60796683
_cell_length_b   10.84919231
_cell_length_c   12.34477540
_cell_angle_alpha   113.77375823
_cell_angle_beta   90.00000000
_cell_angle_gamma   90.00000000
_symmetry_Int_Tables_number   1
_chemical_formula_structural   ZnH16(IO8)2
_chemical_formula_sum   'Zn2 H32 I4 O32'
_cell_volume   687.34639923
_cell_formula_units_Z   2
loop_
 _symmetry_equiv_pos_site_id
 _symmetry_equiv_pos_as_xyz
  1  'x, y, z'
loop_
 _atom_site_type_symbol
 _atom_site_label
 _atom_site_symmetry_multiplicity
 _atom_site_fract_x
 _atom_site_fract_y
 _atom_site_fract_z
 _atom_site_occupancy
  Zn  Zn0  1  0.50000000  0.00000000  0.50000000  1
  Zn  Zn1  1  -0.00000000  0.00000000  0.00000000  1
  H  H2  1  0.10057094  0.63601324  0.10577790  1
  H  H3  1  0.60057094  0.36398676  0.39422210  1
  H  H4  1  0.89942906  0.36398676  0.89422210  1
  H  H5  1  0.39942906  0.63601324  0.60577790  1
  H  H6  1  0.85309143  0.48967446  0.16887210  1
  H  H7  1  0.35309143  0.51032554  0.33112790  1
  H  H8  1  0.14690857  0.51032554  0.83112790  1
  H  H9  1  0.64690857  0.48967446  0.66887210  1
  H  H10  1  0.67086289  0.75392031  0.38680399  1
  H  H11  1  0.17086289  0.24607969  0.11319601  1
  H  H12  1  0.32913711  0.24607969  0.61319601  1
  H  H13  1  0.82913711  0.75392031  0.88680399  1
  H  H14  1  0.76749968  0.80875662  0.52056909  1
  H  H15  1  0.26749968  0.19124338  0.97943091  1
  H  H16  1  0.23250032  0.19124338  0.47943091  1
  H  H17  1  0.73250032  0.80875662  0.02056909  1
  H  H18  1  0.27736477  0.78751040  0.34178768  1
  H  H19  1  0.77736477  0.21248960  0.15821232  1
  H  H20  1  0.72263523  0.21248960  0.65821232  1
  H  H21  1  0.22263523  0.78751040  0.84178768  1
  H  H22  1  0.05812065  0.87104615  0.41827810  1
  H  H23  1  0.55812065  0.12895385  0.08172190  1
  H  H24  1  0.94187935  0.12895385  0.58172190  1
  H  H25  1  0.44187935  0.87104615  0.91827810  1
  H  H26  1  0.66828168  0.11108507  0.34649760  1
  H  H27  1  0.16828168  0.88891493  0.15350240  1
  H  H28  1  0.33171832  0.88891493  0.65350240  1
  H  H29  1  0.83171832  0.11108507  0.84649760  1
  H  H30  1  0.64846930  0.94981063  0.27294346  1
  H  H31  1  0.14846930  0.05018937  0.22705654  1
  H  H32  1  0.35153070  0.05018937  0.72705654  1
  H  H33  1  0.85153070  0.94981063  0.77294346  1
  I  I34  1  0.53749826  0.62524486  0.12094568  1
  I  I35  1  0.03749826  0.37475514  0.37905432  1
  I  I36  1  0.46250174  0.37475514  0.87905432  1
  I  I37  1  0.96250174  0.62524486  0.62094568  1
  O  O38  1  0.46533923  0.64250950  0.27149091  1
  O  O39  1  0.96533923  0.35749050  0.22850909  1
  O  O40  1  0.53466077  0.35749050  0.72850909  1
  O  O41  1  0.03466077  0.64250950  0.77149091  1
  O  O42  1  0.23108442  0.69621885  0.10001270  1
  O  O43  1  0.73108442  0.30378115  0.39998730  1
  O  O44  1  0.76891558  0.30378115  0.89998730  1
  O  O45  1  0.26891558  0.69621885  0.60001270  1
  O  O46  1  0.67508808  0.78479173  0.14261582  1
  O  O47  1  0.17508808  0.21520827  0.35738418  1
  O  O48  1  0.32491192  0.21520827  0.85738418  1
  O  O49  1  0.82491192  0.78479173  0.64261582  1
  O  O50  1  0.85495929  0.55212585  0.12819020  1
  O  O51  1  0.35495929  0.44787415  0.37180980  1
  O  O52  1  0.14504071  0.44787415  0.87180980  1
  O  O53  1  0.64504071  0.55212585  0.62819020  1
  O  O54  1  0.59672017  0.56078370  0.94497824  1
  O  O55  1  0.09672017  0.43921630  0.55502176  1
  O  O56  1  0.40327983  0.43921630  0.05502176  1
  O  O57  1  0.90327983  0.56078370  0.44497824  1
  O  O58  1  0.73670189  0.83452690  0.45218714  1
  O  O59  1  0.23670189  0.16547310  0.04781286  1
  O  O60  1  0.26329811  0.16547310  0.54781286  1
  O  O61  1  0.76329811  0.83452690  0.95218714  1
  O  O62  1  0.22024159  0.87963861  0.39091037  1
  O  O63  1  0.72024159  0.12036139  0.10908963  1
  O  O64  1  0.77975841  0.12036139  0.60908963  1
  O  O65  1  0.27975841  0.87963861  0.89091037  1
  O  O66  1  0.63902901  0.02484024  0.35184559  1
  O  O67  1  0.13902901  0.97515976  0.14815441  1
  O  O68  1  0.36097099  0.97515976  0.64815441  1
  O  O69  1  0.86097099  0.02484024  0.85184559  1
