# generated using pymatgen
data_Na2O9
_symmetry_space_group_name_H-M   'P 1'
_cell_length_a   5.20280407
_cell_length_b   12.77579735
_cell_length_c   11.25989759
_cell_angle_alpha   90.00000000
_cell_angle_beta   90.00000000
_cell_angle_gamma   108.19737067
_symmetry_Int_Tables_number   1
_chemical_formula_structural   Na2O9
_chemical_formula_sum   'Na8 O36'
_cell_volume   711.01261607
_cell_formula_units_Z   4
loop_
 _symmetry_equiv_pos_site_id
 _symmetry_equiv_pos_as_xyz
  1  'x, y, z'
loop_
 _atom_site_type_symbol
 _atom_site_label
 _atom_site_symmetry_multiplicity
 _atom_site_fract_x
 _atom_site_fract_y
 _atom_site_fract_z
 _atom_site_occupancy
  Na  Na0  1  0.18120504  0.59938294  0.11631425  1
  Na  Na1  1  0.81879496  0.90061706  0.61631425  1
  Na  Na2  1  0.81879496  0.40061706  0.88368575  1
  Na  Na3  1  0.18120504  0.09938294  0.38368575  1
  Na  Na4  1  0.12071169  0.66993797  0.67580112  1
  Na  Na5  1  0.87928831  0.83006203  0.17580112  1
  Na  Na6  1  0.87928831  0.33006203  0.32419888  1
  Na  Na7  1  0.12071169  0.16993797  0.82419888  1
  O  O8  1  0.03094254  0.59827372  0.92016332  1
  O  O9  1  0.96905746  0.90172628  0.42016332  1
  O  O10  1  0.96905746  0.40172628  0.07983668  1
  O  O11  1  0.03094254  0.09827372  0.57983668  1
  O  O12  1  0.98527970  0.80232210  0.41360301  1
  O  O13  1  0.01472030  0.69767790  0.91360301  1
  O  O14  1  0.01472030  0.19767790  0.58639699  1
  O  O15  1  0.98527970  0.30232210  0.08639699  1
  O  O16  1  0.25281360  0.87958162  0.76786402  1
  O  O17  1  0.74718640  0.62041838  0.26786402  1
  O  O18  1  0.74718640  0.12041838  0.23213598  1
  O  O19  1  0.25281360  0.37958162  0.73213598  1
  O  O20  1  0.67945409  0.57226142  0.04922649  1
  O  O21  1  0.32054591  0.92773858  0.54922649  1
  O  O22  1  0.32054591  0.42773858  0.95077351  1
  O  O23  1  0.67945409  0.07226142  0.45077351  1
  O  O24  1  0.00152924  0.50368412  0.44300641  1
  O  O25  1  0.99847076  0.99631588  0.94300641  1
  O  O26  1  0.99847076  0.49631588  0.55699359  1
  O  O27  1  0.00152924  0.00368412  0.05699359  1
  O  O28  1  0.30698619  0.80382613  0.21251848  1
  O  O29  1  0.69301381  0.69617387  0.71251848  1
  O  O30  1  0.69301381  0.19617387  0.78748152  1
  O  O31  1  0.30698619  0.30382613  0.28748152  1
  O  O32  1  0.56590878  0.68198359  0.61080011  1
  O  O33  1  0.43409122  0.81801641  0.11080011  1
  O  O34  1  0.43409122  0.31801641  0.38919989  1
  O  O35  1  0.56590878  0.18198359  0.88919989  1
  O  O36  1  0.33166733  0.92192428  0.86704889  1
  O  O37  1  0.66833267  0.57807572  0.36704889  1
  O  O38  1  0.66833267  0.07807572  0.13295111  1
  O  O39  1  0.33166733  0.42192428  0.63295111  1
  O  O40  1  0.29815212  0.82738884  0.52302535  1
  O  O41  1  0.70184788  0.67261116  0.02302535  1
  O  O42  1  0.70184788  0.17261116  0.47697465  1
  O  O43  1  0.29815212  0.32738884  0.97697465  1
