# generated using pymatgen
data_Er11Cd45
_symmetry_space_group_name_H-M   'P 1'
_cell_length_a   15.34871362
_cell_length_b   15.34871362
_cell_length_c   15.34871362
_cell_angle_alpha   60.00000000
_cell_angle_beta   60.00000000
_cell_angle_gamma   60.00000000
_symmetry_Int_Tables_number   1
_chemical_formula_structural   Er11Cd45
_chemical_formula_sum   'Er22 Cd90'
_cell_volume   2556.82468617
_cell_formula_units_Z   2
loop_
 _symmetry_equiv_pos_site_id
 _symmetry_equiv_pos_as_xyz
  1  'x, y, z'
loop_
 _atom_site_type_symbol
 _atom_site_label
 _atom_site_symmetry_multiplicity
 _atom_site_fract_x
 _atom_site_fract_y
 _atom_site_fract_z
 _atom_site_occupancy
  Er  Er0  1  0.00000000  -0.00000000  0.00000000  1
  Er  Er1  1  0.36162915  0.66601489  0.98617798  1
  Er  Er2  1  0.36162915  0.98617798  0.98617798  1
  Er  Er3  1  0.36162915  0.98617798  0.66601489  1
  Er  Er4  1  0.66601489  0.36162915  0.98617798  1
  Er  Er5  1  0.98617798  0.36162915  0.66601489  1
  Er  Er6  1  0.98617798  0.36162915  0.98617798  1
  Er  Er7  1  0.98617798  0.98617798  0.36162915  1
  Er  Er8  1  0.98617798  0.66601489  0.36162915  1
  Er  Er9  1  0.66601489  0.98617798  0.36162915  1
  Er  Er10  1  0.98617798  0.98617798  0.66601489  1
  Er  Er11  1  0.66601489  0.98617798  0.98617798  1
  Er  Er12  1  0.98617798  0.66601489  0.98617798  1
  Er  Er13  1  0.75000000  0.75000000  0.75000000  1
  Er  Er14  1  0.21877255  0.59374248  0.59374248  1
  Er  Er15  1  0.59374248  0.21877255  0.59374248  1
  Er  Er16  1  0.59374248  0.59374248  0.21877255  1
  Er  Er17  1  0.59374248  0.59374248  0.59374248  1
  Er  Er18  1  0.98563526  0.33812158  0.33812158  1
  Er  Er19  1  0.33812158  0.98563526  0.33812158  1
  Er  Er20  1  0.33812158  0.33812158  0.98563526  1
  Er  Er21  1  0.33812158  0.33812158  0.33812158  1
  Cd  Cd22  1  0.24959781  0.91680073  0.91680073  1
  Cd  Cd23  1  0.91680073  0.24959781  0.91680073  1
  Cd  Cd24  1  0.91680073  0.91680073  0.24959781  1
  Cd  Cd25  1  0.91680073  0.91680073  0.91680073  1
  Cd  Cd26  1  0.73974871  0.08675043  0.08675043  1
  Cd  Cd27  1  0.08675043  0.73974871  0.08675043  1
  Cd  Cd28  1  0.08675043  0.08675043  0.73974871  1
  Cd  Cd29  1  0.08675043  0.08675043  0.08675043  1
  Cd  Cd30  1  0.15634615  0.84365385  0.84365385  1
  Cd  Cd31  1  0.15634615  0.84365385  0.15634615  1
  Cd  Cd32  1  0.15634615  0.15634615  0.84365385  1
  Cd  Cd33  1  0.84365385  0.15634615  0.15634615  1
  Cd  Cd34  1  0.84365385  0.15634615  0.84365385  1
  Cd  Cd35  1  0.84365385  0.84365385  0.15634615  1
  Cd  Cd36  1  0.98236005  0.79878311  0.60942842  1
  Cd  Cd37  1  0.98236005  0.60942842  0.60942842  1
  Cd  Cd38  1  0.98236005  0.60942842  0.79878311  1
  Cd  Cd39  1  0.79878311  0.98236005  0.60942842  1
  Cd  Cd40  1  0.60942842  0.98236005  0.79878311  1
  Cd  Cd41  1  0.60942842  0.98236005  0.60942842  1
  Cd  Cd42  1  0.60942842  0.60942842  0.98236005  1
  Cd  Cd43  1  0.60942842  0.79878311  0.98236005  1
  Cd  Cd44  1  0.79878311  0.60942842  0.98236005  1
  Cd  Cd45  1  0.60942842  0.60942842  0.79878311  1
  Cd  Cd46  1  0.79878311  0.60942842  0.60942842  1
  Cd  Cd47  1  0.60942842  0.79878311  0.60942842  1
  Cd  Cd48  1  0.49074022  0.83641993  0.83641993  1
  Cd  Cd49  1  0.83641993  0.49074022  0.83641993  1
  Cd  Cd50  1  0.83641993  0.83641993  0.49074022  1
  Cd  Cd51  1  0.83641993  0.83641993  0.83641993  1
  Cd  Cd52  1  0.13837217  0.38809106  0.73676838  1
  Cd  Cd53  1  0.13837217  0.73676838  0.73676838  1
  Cd  Cd54  1  0.13837217  0.73676838  0.38809106  1
  Cd  Cd55  1  0.38809106  0.13837217  0.73676838  1
  Cd  Cd56  1  0.73676838  0.13837217  0.38809106  1
  Cd  Cd57  1  0.73676838  0.13837217  0.73676838  1
  Cd  Cd58  1  0.73676838  0.73676838  0.13837217  1
  Cd  Cd59  1  0.73676838  0.38809106  0.13837217  1
  Cd  Cd60  1  0.38809106  0.73676838  0.13837217  1
  Cd  Cd61  1  0.73676838  0.73676838  0.38809106  1
  Cd  Cd62  1  0.38809106  0.73676838  0.73676838  1
  Cd  Cd63  1  0.73676838  0.38809106  0.73676838  1
  Cd  Cd64  1  0.50000000  0.50000000  0.50000000  1
  Cd  Cd65  1  0.73130230  0.54955961  0.35956904  1
  Cd  Cd66  1  0.73130230  0.35956904  0.35956904  1
  Cd  Cd67  1  0.73130230  0.35956904  0.54955961  1
  Cd  Cd68  1  0.54955961  0.73130230  0.35956904  1
  Cd  Cd69  1  0.35956904  0.73130230  0.54955961  1
  Cd  Cd70  1  0.35956904  0.73130230  0.35956904  1
  Cd  Cd71  1  0.35956904  0.35956904  0.73130230  1
  Cd  Cd72  1  0.35956904  0.54955961  0.73130230  1
  Cd  Cd73  1  0.54955961  0.35956904  0.73130230  1
  Cd  Cd74  1  0.35956904  0.35956904  0.54955961  1
  Cd  Cd75  1  0.54955961  0.35956904  0.35956904  1
  Cd  Cd76  1  0.35956904  0.54955961  0.35956904  1
  Cd  Cd77  1  0.85855992  0.16622099  0.48760954  1
  Cd  Cd78  1  0.85855992  0.48760954  0.48760954  1
  Cd  Cd79  1  0.85855992  0.48760954  0.16622099  1
  Cd  Cd80  1  0.16622099  0.85855992  0.48760954  1
  Cd  Cd81  1  0.48760954  0.85855992  0.16622099  1
  Cd  Cd82  1  0.48760954  0.85855992  0.48760954  1
  Cd  Cd83  1  0.48760954  0.48760954  0.85855992  1
  Cd  Cd84  1  0.48760954  0.16622099  0.85855992  1
  Cd  Cd85  1  0.16622099  0.48760954  0.85855992  1
  Cd  Cd86  1  0.48760954  0.48760954  0.16622099  1
  Cd  Cd87  1  0.16622099  0.48760954  0.48760954  1
  Cd  Cd88  1  0.48760954  0.16622099  0.48760954  1
  Cd  Cd89  1  0.25000000  0.25000000  0.25000000  1
  Cd  Cd90  1  0.49014499  0.16995167  0.16995167  1
  Cd  Cd91  1  0.16995167  0.49014499  0.16995167  1
  Cd  Cd92  1  0.16995167  0.16995167  0.49014499  1
  Cd  Cd93  1  0.16995167  0.16995167  0.16995167  1
  Cd  Cd94  1  0.41088215  0.08911785  0.08911785  1
  Cd  Cd95  1  0.41088215  0.08911785  0.41088215  1
  Cd  Cd96  1  0.41088215  0.41088215  0.08911785  1
  Cd  Cd97  1  0.08911785  0.41088215  0.41088215  1
  Cd  Cd98  1  0.08911785  0.41088215  0.08911785  1
  Cd  Cd99  1  0.08911785  0.08911785  0.41088215  1
  Cd  Cd100  1  0.59512878  0.93263216  0.23611953  1
  Cd  Cd101  1  0.59512878  0.23611953  0.23611953  1
  Cd  Cd102  1  0.59512878  0.23611953  0.93263216  1
  Cd  Cd103  1  0.93263216  0.59512878  0.23611953  1
  Cd  Cd104  1  0.23611953  0.59512878  0.93263216  1
  Cd  Cd105  1  0.23611953  0.59512878  0.23611953  1
  Cd  Cd106  1  0.23611953  0.23611953  0.59512878  1
  Cd  Cd107  1  0.23611953  0.93263216  0.59512878  1
  Cd  Cd108  1  0.93263216  0.23611953  0.59512878  1
  Cd  Cd109  1  0.23611953  0.23611953  0.93263216  1
  Cd  Cd110  1  0.93263216  0.23611953  0.23611953  1
  Cd  Cd111  1  0.23611953  0.93263216  0.23611953  1
