# generated using pymatgen
data_ZnCdB2O5
_symmetry_space_group_name_H-M   'P 1'
_cell_length_a   3.47760188
_cell_length_b   6.50265924
_cell_length_c   17.94926177
_cell_angle_alpha   90.00000000
_cell_angle_beta   90.00000000
_cell_angle_gamma   90.00000000
_symmetry_Int_Tables_number   1
_chemical_formula_structural   ZnCdB2O5
_chemical_formula_sum   'Zn4 Cd4 B8 O20'
_cell_volume   405.89850288
_cell_formula_units_Z   4
loop_
 _symmetry_equiv_pos_site_id
 _symmetry_equiv_pos_as_xyz
  1  'x, y, z'
loop_
 _atom_site_type_symbol
 _atom_site_label
 _atom_site_symmetry_multiplicity
 _atom_site_fract_x
 _atom_site_fract_y
 _atom_site_fract_z
 _atom_site_occupancy
  Zn  Zn0  1  0.01623322  0.60038698  0.20779601  1
  Zn  Zn1  1  0.48376678  0.39961302  0.70779601  1
  Zn  Zn2  1  0.98376678  0.10038698  0.29220399  1
  Zn  Zn3  1  0.51623322  0.89961302  0.79220399  1
  Cd  Cd4  1  0.62115788  0.48185426  0.02647401  1
  Cd  Cd5  1  0.87884212  0.51814574  0.52647401  1
  Cd  Cd6  1  0.37884212  0.98185426  0.47352599  1
  Cd  Cd7  1  0.12115788  0.01814574  0.97352599  1
  B  B8  1  0.01606475  0.14512342  0.61491829  1
  B  B9  1  0.48393525  0.85487658  0.11491829  1
  B  B10  1  0.98393525  0.64512342  0.88508171  1
  B  B11  1  0.51606475  0.35487658  0.38508171  1
  B  B12  1  0.15078010  0.19890184  0.14373400  1
  B  B13  1  0.34921990  0.80109816  0.64373400  1
  B  B14  1  0.84921990  0.69890184  0.35626600  1
  B  B15  1  0.65078010  0.30109816  0.85626600  1
  O  O16  1  0.29440056  0.00114109  0.15832169  1
  O  O17  1  0.20559944  0.99885891  0.65832169  1
  O  O18  1  0.70559944  0.50114109  0.34167831  1
  O  O19  1  0.79440056  0.49885891  0.84167831  1
  O  O20  1  0.39154504  0.38375871  0.45577322  1
  O  O21  1  0.10845496  0.61624129  0.95577322  1
  O  O22  1  0.60845496  0.88375871  0.04422678  1
  O  O23  1  0.89154504  0.11624129  0.54422678  1
  O  O24  1  0.02164422  0.29650496  0.20728253  1
  O  O25  1  0.47835578  0.70349504  0.70728253  1
  O  O26  1  0.97835578  0.79650496  0.29271747  1
  O  O27  1  0.52164422  0.20349504  0.79271747  1
  O  O28  1  0.12900692  0.28043312  0.07364357  1
  O  O29  1  0.37099308  0.71956688  0.57364357  1
  O  O30  1  0.87099308  0.78043312  0.42635643  1
  O  O31  1  0.62900692  0.21956688  0.92635643  1
  O  O32  1  0.48146444  0.16078025  0.35113579  1
  O  O33  1  0.01853556  0.83921975  0.85113579  1
  O  O34  1  0.51853556  0.66078025  0.14886421  1
  O  O35  1  0.98146444  0.33921975  0.64886421  1
