# generated using pymatgen
data_Tl3SnI5
_symmetry_space_group_name_H-M   'P 1'
_cell_length_a   9.11141214
_cell_length_b   9.87700548
_cell_length_c   16.50127457
_cell_angle_alpha   90.00000000
_cell_angle_beta   90.00000000
_cell_angle_gamma   90.00000000
_symmetry_Int_Tables_number   1
_chemical_formula_structural   Tl3SnI5
_chemical_formula_sum   'Tl12 Sn4 I20'
_cell_volume   1485.00691899
_cell_formula_units_Z   4
loop_
 _symmetry_equiv_pos_site_id
 _symmetry_equiv_pos_as_xyz
  1  'x, y, z'
loop_
 _atom_site_type_symbol
 _atom_site_label
 _atom_site_symmetry_multiplicity
 _atom_site_fract_x
 _atom_site_fract_y
 _atom_site_fract_z
 _atom_site_occupancy
  Tl  Tl0  1  0.43859342  0.41157738  0.21347175  1
  Tl  Tl1  1  0.06140658  0.58842262  0.71347175  1
  Tl  Tl2  1  0.56140658  0.91157738  0.28652825  1
  Tl  Tl3  1  0.93859342  0.08842262  0.78652825  1
  Tl  Tl4  1  0.72505012  0.29287532  0.05283495  1
  Tl  Tl5  1  0.77494988  0.70712468  0.55283495  1
  Tl  Tl6  1  0.27494988  0.79287532  0.44716505  1
  Tl  Tl7  1  0.22505012  0.20712468  0.94716505  1
  Tl  Tl8  1  0.08489944  0.66875663  0.02481275  1
  Tl  Tl9  1  0.41510056  0.33124337  0.52481275  1
  Tl  Tl10  1  0.91510056  0.16875663  0.47518725  1
  Tl  Tl11  1  0.58489944  0.83124337  0.97518725  1
  Sn  Sn12  1  0.07728363  0.05884921  0.20208793  1
  Sn  Sn13  1  0.42271637  0.94115079  0.70208793  1
  Sn  Sn14  1  0.92271637  0.55884921  0.29791207  1
  Sn  Sn15  1  0.57728363  0.44115079  0.79791207  1
  I  I16  1  0.39806085  0.05248898  0.10997269  1
  I  I17  1  0.10193915  0.94751102  0.60997269  1
  I  I18  1  0.60193915  0.55248898  0.39002731  1
  I  I19  1  0.89806085  0.44751102  0.89002731  1
  I  I20  1  0.07563470  0.49559930  0.47721684  1
  I  I21  1  0.42436530  0.50440070  0.97721684  1
  I  I22  1  0.92436530  0.99559930  0.02278316  1
  I  I23  1  0.57563470  0.00440070  0.52278316  1
  I  I24  1  0.26243728  0.15068311  0.34967402  1
  I  I25  1  0.23756272  0.84931689  0.84967402  1
  I  I26  1  0.73756272  0.65068311  0.15032598  1
  I  I27  1  0.76243728  0.34931689  0.65032598  1
  I  I28  1  0.08588387  0.34795419  0.13401047  1
  I  I29  1  0.41411613  0.65204581  0.63401047  1
  I  I30  1  0.91411613  0.84795419  0.36598953  1
  I  I31  1  0.58588387  0.15204581  0.86598953  1
  I  I32  1  0.22460082  0.70415509  0.22594170  1
  I  I33  1  0.27539918  0.29584491  0.72594170  1
  I  I34  1  0.77539918  0.20415509  0.27405830  1
  I  I35  1  0.72460082  0.79584491  0.77405830  1
