# generated using pymatgen
data_Zn3B7IO13
_symmetry_space_group_name_H-M   'P 1'
_cell_length_a   8.69605477
_cell_length_b   8.69425972
_cell_length_c   12.29967744
_cell_angle_alpha   90.00000000
_cell_angle_beta   90.00000000
_cell_angle_gamma   90.00000000
_symmetry_Int_Tables_number   1
_chemical_formula_structural   Zn3B7IO13
_chemical_formula_sum   'Zn12 B28 I4 O52'
_cell_volume   929.92644474
_cell_formula_units_Z   4
loop_
 _symmetry_equiv_pos_site_id
 _symmetry_equiv_pos_as_xyz
  1  'x, y, z'
loop_
 _atom_site_type_symbol
 _atom_site_label
 _atom_site_symmetry_multiplicity
 _atom_site_fract_x
 _atom_site_fract_y
 _atom_site_fract_z
 _atom_site_occupancy
  Zn  Zn0  1  0.24915000  0.73935305  0.88323600  1
  Zn  Zn1  1  0.75085000  0.26064695  0.38323600  1
  Zn  Zn2  1  0.75085000  0.23935305  0.88323600  1
  Zn  Zn3  1  0.24915000  0.76064695  0.38323600  1
  Zn  Zn4  1  0.97330770  0.48868954  0.65569693  1
  Zn  Zn5  1  0.02669230  0.51131046  0.15569693  1
  Zn  Zn6  1  0.02669230  0.98868954  0.65569693  1
  Zn  Zn7  1  0.97330770  0.01131046  0.15569693  1
  Zn  Zn8  1  0.47285643  0.98879081  0.65866152  1
  Zn  Zn9  1  0.52714357  0.01120919  0.15866152  1
  Zn  Zn10  1  0.52714357  0.48879081  0.65866152  1
  Zn  Zn11  1  0.47285643  0.51120919  0.15866152  1
  B  B12  1  0.75016251  0.90532827  0.97737564  1
  B  B13  1  0.24983749  0.09467173  0.47737564  1
  B  B14  1  0.24983749  0.40532827  0.97737564  1
  B  B15  1  0.75016251  0.59467173  0.47737564  1
  B  B16  1  0.59726258  0.75405443  0.82534109  1
  B  B17  1  0.40273742  0.24594557  0.32534109  1
  B  B18  1  0.40273742  0.25405443  0.82534109  1
  B  B19  1  0.59726258  0.74594557  0.32534109  1
  B  B20  1  0.74935139  0.95452599  0.50522781  1
  B  B21  1  0.25064861  0.04547401  0.00522781  1
  B  B22  1  0.25064861  0.45452599  0.50522781  1
  B  B23  1  0.74935139  0.54547401  0.00522781  1
  B  B24  1  0.74708323  0.75637892  0.65225150  1
  B  B25  1  0.25291677  0.24362108  0.15225150  1
  B  B26  1  0.25291677  0.25637892  0.65225150  1
  B  B27  1  0.74708323  0.74362108  0.15225150  1
  B  B28  1  0.99677841  0.49800108  0.90459262  1
  B  B29  1  0.00322159  0.50199892  0.40459262  1
  B  B30  1  0.00322159  0.99800108  0.90459262  1
  B  B31  1  0.99677841  0.00199892  0.40459262  1
  B  B32  1  0.90247999  0.75339417  0.82469659  1
  B  B33  1  0.09752001  0.24660583  0.32469659  1
  B  B34  1  0.09752001  0.25339417  0.82469659  1
  B  B35  1  0.90247999  0.74660583  0.32469659  1
  B  B36  1  0.49783767  0.99881547  0.90519797  1
  B  B37  1  0.50216233  0.00118453  0.40519797  1
  B  B38  1  0.50216233  0.49881547  0.90519797  1
  B  B39  1  0.49783767  0.50118453  0.40519797  1
  I  I40  1  0.74994672  0.26195651  0.66019301  1
  I  I41  1  0.25005328  0.73804349  0.16019301  1
  I  I42  1  0.25005328  0.76195651  0.66019301  1
  I  I43  1  0.74994672  0.23804349  0.16019301  1
  O  O44  1  0.47613294  0.83450984  0.88326222  1
  O  O45  1  0.52386706  0.16549016  0.38326222  1
  O  O46  1  0.52386706  0.33450984  0.88326222  1
  O  O47  1  0.47613294  0.66549016  0.38326222  1
  O  O48  1  0.90865123  0.95037084  0.99787270  1
  O  O49  1  0.09134877  0.04962916  0.49787270  1
  O  O50  1  0.09134877  0.45037084  0.99787270  1
  O  O51  1  0.90865123  0.54962916  0.49787270  1
  O  O52  1  0.67644174  0.64269601  0.57876832  1
  O  O53  1  0.32355826  0.35730399  0.07876832  1
  O  O54  1  0.32355826  0.14269601  0.57876832  1
  O  O55  1  0.67644174  0.85730399  0.07876832  1
  O  O56  1  0.75040603  0.76898796  0.89332940  1
  O  O57  1  0.24959397  0.23101204  0.39332940  1
  O  O58  1  0.24959397  0.26898796  0.89332940  1
  O  O59  1  0.75040603  0.73101204  0.39332940  1
  O  O60  1  0.62713884  0.82623961  0.71999535  1
  O  O61  1  0.37286116  0.17376039  0.21999535  1
  O  O62  1  0.37286116  0.32623961  0.71999535  1
  O  O63  1  0.62713884  0.67376039  0.21999535  1
  O  O64  1  0.98396639  0.16347017  0.88473464  1
  O  O65  1  0.01603361  0.83652983  0.38473464  1
  O  O66  1  0.01603361  0.66347017  0.88473464  1
  O  O67  1  0.98396639  0.33652983  0.38473464  1
  O  O68  1  0.82655796  0.88219287  0.58914270  1
  O  O69  1  0.17344204  0.11780713  0.08914270  1
  O  O70  1  0.17344204  0.38219287  0.58914270  1
  O  O71  1  0.82655796  0.61780713  0.08914270  1
  O  O72  1  0.86375377  0.68018948  0.72113613  1
  O  O73  1  0.13624623  0.31981052  0.22113613  1
  O  O74  1  0.13624623  0.18018948  0.72113613  1
  O  O75  1  0.86375377  0.81981052  0.22113613  1
  O  O76  1  0.59060184  0.96277837  0.50703613  1
  O  O77  1  0.40939816  0.03722163  0.00703613  1
  O  O78  1  0.40939816  0.46277837  0.50703613  1
  O  O79  1  0.59060184  0.53722163  0.00703613  1
  O  O80  1  0.33823102  0.53180178  0.92748544  1
  O  O81  1  0.66176898  0.46819822  0.42748544  1
  O  O82  1  0.66176898  0.03180178  0.92748544  1
  O  O83  1  0.33823102  0.96819822  0.42748544  1
  O  O84  1  0.55670297  0.59107065  0.81178890  1
  O  O85  1  0.44329703  0.40892935  0.31178890  1
  O  O86  1  0.44329703  0.09107065  0.81178890  1
  O  O87  1  0.55670297  0.90892935  0.31178890  1
  O  O88  1  0.95917689  0.91065541  0.80726311  1
  O  O89  1  0.04082311  0.08934459  0.30726311  1
  O  O90  1  0.04082311  0.41065541  0.80726311  1
  O  O91  1  0.95917689  0.58934459  0.30726311  1
  O  O92  1  0.83123479  0.45895396  0.93051428  1
  O  O93  1  0.16876521  0.54104604  0.43051428  1
  O  O94  1  0.16876521  0.95895396  0.93051428  1
  O  O95  1  0.83123479  0.04104604  0.43051428  1
