# generated using pymatgen
data_TlHg5Br11
_symmetry_space_group_name_H-M   'P 1'
_cell_length_a   6.96008135
_cell_length_b   10.18987523
_cell_length_c   10.18987523
_cell_angle_alpha   101.21075197
_cell_angle_beta   107.68538587
_cell_angle_gamma   107.68538587
_symmetry_Int_Tables_number   1
_chemical_formula_structural   TlHg5Br11
_chemical_formula_sum   'Tl1 Hg5 Br11'
_cell_volume   622.41172166
_cell_formula_units_Z   1
loop_
 _symmetry_equiv_pos_site_id
 _symmetry_equiv_pos_as_xyz
  1  'x, y, z'
loop_
 _atom_site_type_symbol
 _atom_site_label
 _atom_site_symmetry_multiplicity
 _atom_site_fract_x
 _atom_site_fract_y
 _atom_site_fract_z
 _atom_site_occupancy
  Tl  Tl0  1  -0.00000000  -0.00000000  0.00000000  1
  Hg  Hg1  1  0.68484906  0.34888877  0.01541221  1
  Hg  Hg2  1  0.31515094  0.65111123  0.98458779  1
  Hg  Hg3  1  0.31515094  0.98458779  0.65111123  1
  Hg  Hg4  1  0.68484906  0.01541221  0.34888877  1
  Hg  Hg5  1  -0.00000000  0.50000000  0.50000000  1
  Br  Br6  1  0.39104809  0.64835709  0.64835709  1
  Br  Br7  1  0.60895191  0.35164291  0.35164291  1
  Br  Br8  1  0.69834989  0.70381785  0.13990225  1
  Br  Br9  1  0.30165011  0.29618215  0.86009775  1
  Br  Br10  1  0.30165011  0.86009775  0.29618215  1
  Br  Br11  1  0.69834989  0.13990225  0.70381785  1
  Br  Br12  1  0.50000000  -0.00000000  0.00000000  1
  Br  Br13  1  0.92683489  0.58198783  0.83094834  1
  Br  Br14  1  0.07316511  0.41801217  0.16905166  1
  Br  Br15  1  0.07316511  0.16905166  0.41801217  1
  Br  Br16  1  0.92683489  0.83094834  0.58198783  1
