# generated using pymatgen
data_V3Pb5F19
_symmetry_space_group_name_H-M   'P 1'
_cell_length_a   7.76956556
_cell_length_b   11.12671797
_cell_length_c   11.12671797
_cell_angle_alpha   82.99830138
_cell_angle_beta   69.56527473
_cell_angle_gamma   69.56527473
_symmetry_Int_Tables_number   1
_chemical_formula_structural   V3Pb5F19
_chemical_formula_sum   'V6 Pb10 F38'
_cell_volume   844.64746315
_cell_formula_units_Z   2
loop_
 _symmetry_equiv_pos_site_id
 _symmetry_equiv_pos_as_xyz
  1  'x, y, z'
loop_
 _atom_site_type_symbol
 _atom_site_label
 _atom_site_symmetry_multiplicity
 _atom_site_fract_x
 _atom_site_fract_y
 _atom_site_fract_z
 _atom_site_occupancy
  V  V0  1  0.71725569  0.50000000  0.17542166  1
  V  V1  1  0.39267736  0.50000000  0.82457834  1
  V  V2  1  0.89267736  0.82457834  0.50000000  1
  V  V3  1  0.21725569  0.17542166  0.50000000  1
  V  V4  1  0.24832055  -0.00000000  0.00000000  1
  V  V5  1  0.74832055  -0.00000000  0.00000000  1
  Pb  Pb6  1  0.33046326  0.83988352  0.70155707  1
  Pb  Pb7  1  0.87190385  0.16011648  0.29844293  1
  Pb  Pb8  1  0.03202033  0.29844293  0.83988352  1
  Pb  Pb9  1  0.83046326  0.70155707  0.83988352  1
  Pb  Pb10  1  0.17034678  0.70155707  0.16011648  1
  Pb  Pb11  1  0.37190385  0.29844293  0.16011648  1
  Pb  Pb12  1  0.53202033  0.83988352  0.29844293  1
  Pb  Pb13  1  0.67034678  0.16011648  0.70155707  1
  Pb  Pb14  1  0.71287389  0.50000000  0.50000000  1
  Pb  Pb15  1  0.21287389  0.50000000  0.50000000  1
  F  F16  1  0.53927609  0.50000000  0.35339666  1
  F  F17  1  0.39267274  0.50000000  0.64660334  1
  F  F18  1  0.89267274  0.64660334  0.50000000  1
  F  F19  1  0.03927609  0.35339666  0.50000000  1
  F  F20  1  0.28796363  0.24204914  0.62797692  1
  F  F21  1  0.15798970  0.75795086  0.37202308  1
  F  F22  1  0.91594056  0.37202308  0.24204914  1
  F  F23  1  0.78796363  0.62797692  0.24204914  1
  F  F24  1  0.53001278  0.62797692  0.75795086  1
  F  F25  1  0.65798970  0.37202308  0.75795086  1
  F  F26  1  0.41594056  0.24204914  0.37202308  1
  F  F27  1  0.03001278  0.75795086  0.62797692  1
  F  F28  1  0.36418424  0.50000000  0.00599261  1
  F  F29  1  0.87017685  0.50000000  0.99400739  1
  F  F30  1  0.37017685  0.99400739  0.50000000  1
  F  F31  1  0.86418424  0.00599261  0.50000000  1
  F  F32  1  0.21026709  0.50000000  0.27242945  1
  F  F33  1  0.98269654  0.50000000  0.72757055  1
  F  F34  1  0.48269654  0.72757055  0.50000000  1
  F  F35  1  0.71026709  0.27242945  0.50000000  1
  F  F36  1  0.99731888  -0.00000000  0.00000000  1
  F  F37  1  0.49731888  -0.00000000  0.00000000  1
  F  F38  1  0.29746973  0.06248579  0.82146009  1
  F  F39  1  0.18141561  0.93751421  0.17853991  1
  F  F40  1  0.11892981  0.17853991  0.06248579  1
  F  F41  1  0.79746973  0.82146009  0.06248579  1
  F  F42  1  0.35995552  0.82146009  0.93751421  1
  F  F43  1  0.68141561  0.17853991  0.93751421  1
  F  F44  1  0.61892981  0.06248579  0.17853991  1
  F  F45  1  0.85995552  0.93751421  0.82146009  1
  F  F46  1  0.64582859  0.85775042  0.64887666  1
  F  F47  1  0.15245567  0.14224958  0.35112334  1
  F  F48  1  0.29470525  0.35112334  0.85775042  1
  F  F49  1  0.14582859  0.64887666  0.85775042  1
  F  F50  1  0.50357902  0.64887666  0.14224958  1
  F  F51  1  0.65245567  0.35112334  0.14224958  1
  F  F52  1  0.79470525  0.85775042  0.35112334  1
  F  F53  1  0.00357902  0.14224958  0.64887666  1
