# generated using pymatgen
data_ThH6(NO5)2
_symmetry_space_group_name_H-M   'P 1'
_cell_length_a   6.09731957
_cell_length_b   8.39896949
_cell_length_c   8.39896949
_cell_angle_alpha   65.86615355
_cell_angle_beta   81.78129040
_cell_angle_gamma   81.78129040
_symmetry_Int_Tables_number   1
_chemical_formula_structural   ThH6(NO5)2
_chemical_formula_sum   'Th2 H12 N4 O20'
_cell_volume   386.79022697
_cell_formula_units_Z   2
loop_
 _symmetry_equiv_pos_site_id
 _symmetry_equiv_pos_as_xyz
  1  'x, y, z'
loop_
 _atom_site_type_symbol
 _atom_site_label
 _atom_site_symmetry_multiplicity
 _atom_site_fract_x
 _atom_site_fract_y
 _atom_site_fract_z
 _atom_site_occupancy
  Th  Th0  1  0.25000000  0.35779573  0.64220427  1
  Th  Th1  1  0.75000000  0.64220427  0.35779573  1
  H  H2  1  0.61624654  0.03988526  0.81622524  1
  H  H3  1  0.38375346  0.96011474  0.18377476  1
  H  H4  1  0.88375346  0.18377476  0.96011474  1
  H  H5  1  0.11624654  0.81622524  0.03988526  1
  H  H6  1  0.35978291  0.93917340  0.37869039  1
  H  H7  1  0.64021709  0.06082660  0.62130961  1
  H  H8  1  0.14021709  0.62130961  0.06082660  1
  H  H9  1  0.85978291  0.37869039  0.93917340  1
  H  H10  1  0.03045119  0.71326868  0.58691176  1
  H  H11  1  0.96954881  0.28673132  0.41308824  1
  H  H12  1  0.46954881  0.41308824  0.28673132  1
  H  H13  1  0.53045119  0.58691176  0.71326868  1
  N  N14  1  0.16315547  0.96879242  0.69433389  1
  N  N15  1  0.83684453  0.03120758  0.30566611  1
  N  N16  1  0.33684453  0.30566611  0.03120758  1
  N  N17  1  0.66315547  0.69433389  0.96879242  1
  O  O18  1  0.13341784  0.03228177  0.81320925  1
  O  O19  1  0.86658216  0.96771823  0.18679075  1
  O  O20  1  0.36658216  0.18679075  0.96771823  1
  O  O21  1  0.63341784  0.81320925  0.03228177  1
  O  O22  1  0.10394853  0.82211255  0.72821533  1
  O  O23  1  0.89605147  0.17788745  0.27178467  1
  O  O24  1  0.39605147  0.27178467  0.17788745  1
  O  O25  1  0.60394853  0.72821533  0.82211255  1
  O  O26  1  0.25377778  0.06312409  0.54558578  1
  O  O27  1  0.74622222  0.93687591  0.45441422  1
  O  O28  1  0.24622222  0.45441422  0.93687591  1
  O  O29  1  0.75377778  0.54558578  0.06312409  1
  O  O30  1  0.39402945  0.87220695  0.30447727  1
  O  O31  1  0.60597055  0.12779305  0.69552273  1
  O  O32  1  0.10597055  0.69552273  0.12779305  1
  O  O33  1  0.89402945  0.30447727  0.87220695  1
  O  O34  1  0.01003001  0.61676658  0.55458687  1
  O  O35  1  0.98996999  0.38323342  0.44541313  1
  O  O36  1  0.48996999  0.44541313  0.38323342  1
  O  O37  1  0.51003001  0.55458687  0.61676658  1
