# generated using pymatgen
data_Tb3Co6Sn5
_symmetry_space_group_name_H-M   'P 1'
_cell_length_a   4.31660328
_cell_length_b   8.11254676
_cell_length_c   8.11254676
_cell_angle_alpha   72.81956703
_cell_angle_beta   74.57095022
_cell_angle_gamma   74.57095022
_symmetry_Int_Tables_number   1
_chemical_formula_structural   Tb3Co6Sn5
_chemical_formula_sum   'Tb3 Co6 Sn5'
_cell_volume   256.15503971
_cell_formula_units_Z   1
loop_
 _symmetry_equiv_pos_site_id
 _symmetry_equiv_pos_as_xyz
  1  'x, y, z'
loop_
 _atom_site_type_symbol
 _atom_site_label
 _atom_site_symmetry_multiplicity
 _atom_site_fract_x
 _atom_site_fract_y
 _atom_site_fract_z
 _atom_site_occupancy
  Tb  Tb0  1  -0.00000000  0.00000000  0.00000000  1
  Tb  Tb1  1  0.68275575  0.31724425  0.31724425  1
  Tb  Tb2  1  0.31724425  0.68275575  0.68275575  1
  Co  Co3  1  0.50000000  0.30321164  0.69678836  1
  Co  Co4  1  0.50000000  0.69678836  0.30321164  1
  Co  Co5  1  0.89273701  0.83352884  0.38099715  1
  Co  Co6  1  0.10726299  0.16647116  0.61900285  1
  Co  Co7  1  0.89273701  0.38099715  0.83352884  1
  Co  Co8  1  0.10726299  0.61900285  0.16647116  1
  Sn  Sn9  1  0.67653166  0.98266266  0.66427402  1
  Sn  Sn10  1  0.32346834  0.01733734  0.33572598  1
  Sn  Sn11  1  0.67653166  0.66427402  0.98266266  1
  Sn  Sn12  1  0.32346834  0.33572598  0.01733734  1
  Sn  Sn13  1  -0.00000000  0.50000000  0.50000000  1
