# generated using pymatgen
data_Sr5Al3F19
_symmetry_space_group_name_H-M   'P 1'
_cell_length_a   7.24654223
_cell_length_b   10.75055391
_cell_length_c   10.75055391
_cell_angle_alpha   83.47769668
_cell_angle_beta   70.30390386
_cell_angle_gamma   70.30390386
_symmetry_Int_Tables_number   1
_chemical_formula_structural   Sr5Al3F19
_chemical_formula_sum   'Sr10 Al6 F38'
_cell_volume   742.38155323
_cell_formula_units_Z   2
loop_
 _symmetry_equiv_pos_site_id
 _symmetry_equiv_pos_as_xyz
  1  'x, y, z'
loop_
 _atom_site_type_symbol
 _atom_site_label
 _atom_site_symmetry_multiplicity
 _atom_site_fract_x
 _atom_site_fract_y
 _atom_site_fract_z
 _atom_site_occupancy
  Sr  Sr0  1  0.21923997  0.83487372  0.72664633  1
  Sr  Sr1  1  0.78076003  0.16512628  0.27335367  1
  Sr  Sr2  1  0.94588630  0.27335367  0.83487372  1
  Sr  Sr3  1  0.05411370  0.72664633  0.16512628  1
  Sr  Sr4  1  0.42229790  0.82972533  0.32567887  1
  Sr  Sr5  1  0.57770210  0.17027467  0.67432113  1
  Sr  Sr6  1  0.74797677  0.67432113  0.82972533  1
  Sr  Sr7  1  0.25202323  0.32567887  0.17027467  1
  Sr  Sr8  1  0.25000000  0.50000000  0.50000000  1
  Sr  Sr9  1  0.75000000  0.50000000  0.50000000  1
  Al  Al10  1  0.17662639  0.16414147  0.48260574  1
  Al  Al11  1  0.82337361  0.83585853  0.51739426  1
  Al  Al12  1  0.65923213  0.51739426  0.16414147  1
  Al  Al13  1  0.34076787  0.48260574  0.83585853  1
  Al  Al14  1  0.25283101  0.00000000  -0.00000000  1
  Al  Al15  1  0.74716899  0.00000000  -0.00000000  1
  F  F16  1  0.57487736  0.85673205  0.64771709  1
  F  F17  1  0.42512264  0.14326795  0.35228291  1
  F  F18  1  0.07932650  0.14326795  0.35228291  1
  F  F19  1  0.22259445  0.35228291  0.85673205  1
  F  F20  1  0.92067350  0.85673205  0.64771709  1
  F  F21  1  0.77740555  0.64771709  0.14326795  1
  F  F22  1  0.43160941  0.64771709  0.14326795  1
  F  F23  1  0.56839059  0.35228291  0.85673205  1
  F  F24  1  0.28763207  0.07142306  0.83518953  1
  F  F25  1  0.71236793  0.92857694  0.16481047  1
  F  F26  1  0.19424466  0.92857694  0.16481047  1
  F  F27  1  0.12282160  0.16481047  0.07142306  1
  F  F28  1  0.80575534  0.07142306  0.83518953  1
  F  F29  1  0.87717840  0.83518953  0.92857694  1
  F  F30  1  0.35905513  0.83518953  0.92857694  1
  F  F31  1  0.64094487  0.16481047  0.07142306  1
  F  F32  1  0.38272176  0.69372817  0.54082831  1
  F  F33  1  0.61727824  0.30627183  0.45917169  1
  F  F34  1  0.92355007  0.45917169  0.69372817  1
  F  F35  1  0.07644993  0.54082831  0.30627183  1
  F  F36  1  -0.00000000  0.00000000  -0.00000000  1
  F  F37  1  0.11107074  0.34045881  0.43739971  1
  F  F38  1  0.88892926  0.65954119  0.56260029  1
  F  F39  1  0.54847045  0.56260029  0.34045881  1
  F  F40  1  0.45152955  0.43739971  0.65954119  1
  F  F41  1  0.26743549  0.20564983  0.60850041  1
  F  F42  1  0.73256451  0.79435017  0.39149959  1
  F  F43  1  0.08158572  0.79435017  0.39149959  1
  F  F44  1  0.87593590  0.39149959  0.20564983  1
  F  F45  1  0.91841428  0.20564983  0.60850041  1
  F  F46  1  0.12406410  0.60850041  0.79435017  1
  F  F47  1  0.47308531  0.60850041  0.79435017  1
  F  F48  1  0.52691469  0.39149959  0.20564983  1
  F  F49  1  0.24342897  0.98984933  0.52329272  1
  F  F50  1  0.75657103  0.01015067  0.47670728  1
  F  F51  1  0.76672169  0.47670728  0.98984933  1
  F  F52  1  0.23327831  0.52329272  0.01015067  1
  F  F53  1  0.50000000  0.00000000  -0.00000000  1
