# generated using pymatgen
data_SrCeCuSe3
_symmetry_space_group_name_H-M   'P 1'
_cell_length_a   4.13854924
_cell_length_b   8.51351926
_cell_length_c   16.82615424
_cell_angle_alpha   90.00000000
_cell_angle_beta   90.00000000
_cell_angle_gamma   90.00000000
_symmetry_Int_Tables_number   1
_chemical_formula_structural   SrCeCuSe3
_chemical_formula_sum   'Sr4 Ce4 Cu4 Se12'
_cell_volume   592.84630206
_cell_formula_units_Z   4
loop_
 _symmetry_equiv_pos_site_id
 _symmetry_equiv_pos_as_xyz
  1  'x, y, z'
loop_
 _atom_site_type_symbol
 _atom_site_label
 _atom_site_symmetry_multiplicity
 _atom_site_fract_x
 _atom_site_fract_y
 _atom_site_fract_z
 _atom_site_occupancy
  Sr  Sr0  1  0.75000000  0.74197538  0.96604193  1
  Sr  Sr1  1  0.25000000  0.25802462  0.03395807  1
  Sr  Sr2  1  0.25000000  0.75802462  0.46604193  1
  Sr  Sr3  1  0.75000000  0.24197538  0.53395807  1
  Ce  Ce4  1  0.75000000  0.91025450  0.21606564  1
  Ce  Ce5  1  0.25000000  0.08974550  0.78393436  1
  Ce  Ce6  1  0.25000000  0.58974550  0.71606564  1
  Ce  Ce7  1  0.75000000  0.41025450  0.28393436  1
  Cu  Cu8  1  0.75000000  0.87669394  0.63613074  1
  Cu  Cu9  1  0.25000000  0.12330606  0.36386926  1
  Cu  Cu10  1  0.25000000  0.62330606  0.13613074  1
  Cu  Cu11  1  0.75000000  0.37669394  0.86386926  1
  Se  Se12  1  0.75000000  0.61144938  0.58092064  1
  Se  Se13  1  0.25000000  0.38855062  0.41907936  1
  Se  Se14  1  0.25000000  0.88855062  0.08092064  1
  Se  Se15  1  0.75000000  0.11144938  0.91907936  1
  Se  Se16  1  0.75000000  0.81994826  0.77883150  1
  Se  Se17  1  0.25000000  0.18005174  0.22116850  1
  Se  Se18  1  0.25000000  0.68005174  0.27883150  1
  Se  Se19  1  0.75000000  0.31994826  0.72116850  1
  Se  Se20  1  0.75000000  0.98430162  0.39292326  1
  Se  Se21  1  0.25000000  0.01569838  0.60707674  1
  Se  Se22  1  0.25000000  0.51569838  0.89292326  1
  Se  Se23  1  0.75000000  0.48430162  0.10707674  1
