# generated using pymatgen
data_Sc2SnAu2
_symmetry_space_group_name_H-M   'P 1'
_cell_length_a   7.06654766
_cell_length_b   7.68438181
_cell_length_c   7.68438181
_cell_angle_alpha   90.00000000
_cell_angle_beta   90.00000000
_cell_angle_gamma   90.00000000
_symmetry_Int_Tables_number   1
_chemical_formula_structural   Sc2SnAu2
_chemical_formula_sum   'Sc8 Sn4 Au8'
_cell_volume   417.27768756
_cell_formula_units_Z   4
loop_
 _symmetry_equiv_pos_site_id
 _symmetry_equiv_pos_as_xyz
  1  'x, y, z'
loop_
 _atom_site_type_symbol
 _atom_site_label
 _atom_site_symmetry_multiplicity
 _atom_site_fract_x
 _atom_site_fract_y
 _atom_site_fract_z
 _atom_site_occupancy
  Sc  Sc0  1  -0.00000000  0.15096063  0.15096063  1
  Sc  Sc1  1  -0.00000000  0.84903937  0.84903937  1
  Sc  Sc2  1  0.50000000  0.34903937  0.65096063  1
  Sc  Sc3  1  0.50000000  0.65096063  0.34903937  1
  Sc  Sc4  1  -0.00000000  0.31612539  0.68387461  1
  Sc  Sc5  1  0.00000000  0.68387461  0.31612539  1
  Sc  Sc6  1  0.50000000  0.81612539  0.81612539  1
  Sc  Sc7  1  0.50000000  0.18387461  0.18387461  1
  Sn  Sn8  1  0.25000000  -0.00000000  0.50000000  1
  Sn  Sn9  1  0.75000000  -0.00000000  0.50000000  1
  Sn  Sn10  1  0.25000000  0.50000000  -0.00000000  1
  Sn  Sn11  1  0.75000000  0.50000000  -0.00000000  1
  Au  Au12  1  0.21592822  0.37021659  0.37021659  1
  Au  Au13  1  0.78407178  0.62978341  0.62978341  1
  Au  Au14  1  0.21592822  0.62978341  0.62978341  1
  Au  Au15  1  0.71592822  0.12978341  0.87021659  1
  Au  Au16  1  0.28407178  0.12978341  0.87021659  1
  Au  Au17  1  0.78407178  0.37021659  0.37021659  1
  Au  Au18  1  0.28407178  0.87021659  0.12978341  1
  Au  Au19  1  0.71592822  0.87021659  0.12978341  1
