# generated using pymatgen
data_Sb2AsS2
_symmetry_space_group_name_H-M   'P 1'
_cell_length_a   4.00585861
_cell_length_b   5.86266607
_cell_length_c   11.65934226
_cell_angle_alpha   88.35524838
_cell_angle_beta   80.10823753
_cell_angle_gamma   70.02309780
_symmetry_Int_Tables_number   1
_chemical_formula_structural   Sb2AsS2
_chemical_formula_sum   'Sb4 As2 S4'
_cell_volume   253.38548707
_cell_formula_units_Z   2
loop_
 _symmetry_equiv_pos_site_id
 _symmetry_equiv_pos_as_xyz
  1  'x, y, z'
loop_
 _atom_site_type_symbol
 _atom_site_label
 _atom_site_symmetry_multiplicity
 _atom_site_fract_x
 _atom_site_fract_y
 _atom_site_fract_z
 _atom_site_occupancy
  Sb  Sb0  1  0.95546302  0.76113455  0.32793942  1
  Sb  Sb1  1  0.04453698  0.23886545  0.67206058  1
  Sb  Sb2  1  0.81070218  0.28022043  0.09837521  1
  Sb  Sb3  1  0.18929782  0.71977957  0.90162479  1
  As  As4  1  0.60512078  0.27787193  0.51188652  1
  As  As5  1  0.39487922  0.72212807  0.48811348  1
  S  S6  1  0.59964062  0.72329475  0.07742401  1
  S  S7  1  0.40035938  0.27670525  0.92257599  1
  S  S8  1  0.79089624  0.67930627  0.73890126  1
  S  S9  1  0.20910376  0.32069373  0.26109874  1
