# generated using pymatgen
data_Sm6Co2Sn
_symmetry_space_group_name_H-M   'P 1'
_cell_length_a   8.57812835
_cell_length_b   8.57812835
_cell_length_c   8.57812835
_cell_angle_alpha   107.22925978
_cell_angle_beta   110.43967559
_cell_angle_gamma   110.76789843
_symmetry_Int_Tables_number   1
_chemical_formula_structural   Sm6Co2Sn
_chemical_formula_sum   'Sm12 Co4 Sn2'
_cell_volume   485.35045901
_cell_formula_units_Z   2
loop_
 _symmetry_equiv_pos_site_id
 _symmetry_equiv_pos_as_xyz
  1  'x, y, z'
loop_
 _atom_site_type_symbol
 _atom_site_label
 _atom_site_symmetry_multiplicity
 _atom_site_fract_x
 _atom_site_fract_y
 _atom_site_fract_z
 _atom_site_occupancy
  Sm  Sm0  1  0.52456827  0.71097904  0.81358923  1
  Sm  Sm1  1  0.47543173  0.28902096  0.18641077  1
  Sm  Sm2  1  0.10261019  0.28902096  0.81358923  1
  Sm  Sm3  1  0.89738981  0.71097904  0.18641077  1
  Sm  Sm4  1  0.78826523  0.77060495  0.55887018  1
  Sm  Sm5  1  0.21173477  0.22939505  0.44112982  1
  Sm  Sm6  1  0.21173477  0.77060495  0.98233972  1
  Sm  Sm7  1  0.78826523  0.22939505  0.01766028  1
  Sm  Sm8  1  0.69387516  0.37947304  0.68559789  1
  Sm  Sm9  1  0.30612484  0.62052696  0.31440211  1
  Sm  Sm10  1  0.30612484  0.99172273  0.68559789  1
  Sm  Sm11  1  0.69387516  0.00827727  0.31440211  1
  Co  Co12  1  0.50000000  0.39163827  0.89163827  1
  Co  Co13  1  0.50000000  0.60836173  0.10836173  1
  Co  Co14  1  0.61456688  0.00000000  0.61456688  1
  Co  Co15  1  0.38543312  -0.00000000  0.38543312  1
  Sn  Sn16  1  0.00000000  0.50000000  0.50000000  1
  Sn  Sn17  1  0.00000000  -0.00000000  -0.00000000  1
