# generated using pymatgen
data_Sr2GdBeO5
_symmetry_space_group_name_H-M   'P 1'
_cell_length_a   6.58424221
_cell_length_b   7.34284197
_cell_length_c   9.65076679
_cell_angle_alpha   90.00000000
_cell_angle_beta   90.00000000
_cell_angle_gamma   90.00000000
_symmetry_Int_Tables_number   1
_chemical_formula_structural   Sr2GdBeO5
_chemical_formula_sum   'Sr8 Gd4 Be4 O20'
_cell_volume   466.58610492
_cell_formula_units_Z   4
loop_
 _symmetry_equiv_pos_site_id
 _symmetry_equiv_pos_as_xyz
  1  'x, y, z'
loop_
 _atom_site_type_symbol
 _atom_site_label
 _atom_site_symmetry_multiplicity
 _atom_site_fract_x
 _atom_site_fract_y
 _atom_site_fract_z
 _atom_site_occupancy
  Sr  Sr0  1  0.91203341  0.97635704  0.67358200  1
  Sr  Sr1  1  0.08796659  0.02364296  0.32641800  1
  Sr  Sr2  1  0.41203341  0.02364296  0.82641800  1
  Sr  Sr3  1  0.08796659  0.47635704  0.32641800  1
  Sr  Sr4  1  0.58796659  0.97635704  0.17358200  1
  Sr  Sr5  1  0.91203341  0.52364296  0.67358200  1
  Sr  Sr6  1  0.58796659  0.52364296  0.17358200  1
  Sr  Sr7  1  0.41203341  0.47635704  0.82641800  1
  Gd  Gd8  1  0.41342458  0.75000000  0.52467781  1
  Gd  Gd9  1  0.58657542  0.25000000  0.47532219  1
  Gd  Gd10  1  0.91342458  0.25000000  0.97532219  1
  Gd  Gd11  1  0.08657542  0.75000000  0.02467781  1
  Be  Be12  1  0.68735495  0.75000000  0.89817829  1
  Be  Be13  1  0.31264505  0.25000000  0.10182171  1
  Be  Be14  1  0.18735495  0.25000000  0.60182171  1
  Be  Be15  1  0.81264505  0.75000000  0.39817829  1
  O  O16  1  0.16730346  0.75000000  0.79176069  1
  O  O17  1  0.83269654  0.25000000  0.20823931  1
  O  O18  1  0.66730346  0.25000000  0.70823931  1
  O  O19  1  0.33269654  0.75000000  0.29176069  1
  O  O20  1  0.62295828  0.75000000  0.72894640  1
  O  O21  1  0.37704172  0.25000000  0.27105360  1
  O  O22  1  0.12295828  0.25000000  0.77105360  1
  O  O23  1  0.87704172  0.75000000  0.22894640  1
  O  O24  1  0.81375839  0.93738138  0.93709851  1
  O  O25  1  0.18624161  0.06261862  0.06290149  1
  O  O26  1  0.31375839  0.06261862  0.56290149  1
  O  O27  1  0.18624161  0.43738138  0.06290149  1
  O  O28  1  0.68624161  0.93738138  0.43709851  1
  O  O29  1  0.81375839  0.56261862  0.93709851  1
  O  O30  1  0.68624161  0.56261862  0.43709851  1
  O  O31  1  0.31375839  0.43738138  0.56290149  1
  O  O32  1  0.46941181  0.75000000  0.98855285  1
  O  O33  1  0.53058819  0.25000000  0.01144715  1
  O  O34  1  0.96941181  0.25000000  0.51144715  1
  O  O35  1  0.03058819  0.75000000  0.48855285  1
