# generated using pymatgen
data_RbYbBeF6
_symmetry_space_group_name_H-M   'P 1'
_cell_length_a   6.09499148
_cell_length_b   6.47975040
_cell_length_c   7.30612581
_cell_angle_alpha   112.58164025
_cell_angle_beta   90.00000000
_cell_angle_gamma   90.00000000
_symmetry_Int_Tables_number   1
_chemical_formula_structural   RbYbBeF6
_chemical_formula_sum   'Rb2 Yb2 Be2 F12'
_cell_volume   266.42626159
_cell_formula_units_Z   2
loop_
 _symmetry_equiv_pos_site_id
 _symmetry_equiv_pos_as_xyz
  1  'x, y, z'
loop_
 _atom_site_type_symbol
 _atom_site_label
 _atom_site_symmetry_multiplicity
 _atom_site_fract_x
 _atom_site_fract_y
 _atom_site_fract_z
 _atom_site_occupancy
  Rb  Rb0  1  0.75000000  0.08213188  0.22938341  1
  Rb  Rb1  1  0.25000000  0.91786812  0.77061659  1
  Yb  Yb2  1  0.75000000  0.35658108  0.77748709  1
  Yb  Yb3  1  0.25000000  0.64341892  0.22251291  1
  Be  Be4  1  0.75000000  0.76797813  0.53861504  1
  Be  Be5  1  0.25000000  0.23202187  0.46138496  1
  F  F6  1  0.95755919  0.77242290  0.41612991  1
  F  F7  1  0.04244081  0.22757710  0.58387009  1
  F  F8  1  0.45755919  0.22757710  0.58387009  1
  F  F9  1  0.54244081  0.77242290  0.41612991  1
  F  F10  1  0.75000000  0.56137614  0.59532599  1
  F  F11  1  0.25000000  0.43862386  0.40467401  1
  F  F12  1  0.99742930  0.63772521  0.97267262  1
  F  F13  1  0.00257070  0.36227479  0.02732738  1
  F  F14  1  0.49742930  0.36227479  0.02732738  1
  F  F15  1  0.50257070  0.63772521  0.97267262  1
  F  F16  1  0.75000000  0.98566533  0.74142548  1
  F  F17  1  0.25000000  0.01433467  0.25857452  1
