# generated using pymatgen
data_Rb5(DyI4)3
_symmetry_space_group_name_H-M   'P 1'
_cell_length_a   4.58281810
_cell_length_b   15.26446673
_cell_length_c   15.26446673
_cell_angle_alpha   119.99999787
_cell_angle_beta   90.00000000
_cell_angle_gamma   90.00000000
_symmetry_Int_Tables_number   1
_chemical_formula_structural   Rb5(DyI4)3
_chemical_formula_sum   'Rb5 Dy3 I12'
_cell_volume   924.75467159
_cell_formula_units_Z   1
loop_
 _symmetry_equiv_pos_site_id
 _symmetry_equiv_pos_as_xyz
  1  'x, y, z'
loop_
 _atom_site_type_symbol
 _atom_site_label
 _atom_site_symmetry_multiplicity
 _atom_site_fract_x
 _atom_site_fract_y
 _atom_site_fract_z
 _atom_site_occupancy
  Rb  Rb0  1  0.00000000  0.66666700  0.33333300  1
  Rb  Rb1  1  0.00000000  0.33333300  0.66666700  1
  Rb  Rb2  1  0.00000000  0.28236578  0.28236578  1
  Rb  Rb3  1  -0.00000000  1.00000000  0.71763422  1
  Rb  Rb4  1  -0.00000000  0.71763422  1.00000000  1
  Dy  Dy5  1  0.50000000  0.67720457  0.67720457  1
  Dy  Dy6  1  0.50000000  0.00000000  0.32279543  1
  Dy  Dy7  1  0.50000000  0.32279543  0.00000000  1
  I  I8  1  0.00000000  0.81723774  0.81723774  1
  I  I9  1  -0.00000000  1.00000000  0.18276226  1
  I  I10  1  -0.00000000  0.18276226  1.00000000  1
  I  I11  1  -0.00000000  0.54005915  0.54005915  1
  I  I12  1  0.00000000  0.00000000  0.45994085  1
  I  I13  1  0.00000000  0.45994085  0.00000000  1
  I  I14  1  0.50000000  0.76657698  0.20795874  1
  I  I15  1  0.50000000  0.44138176  0.23342302  1
  I  I16  1  0.50000000  0.55861824  0.79204126  1
  I  I17  1  0.50000000  0.79204126  0.55861824  1
  I  I18  1  0.50000000  0.20795874  0.76657698  1
  I  I19  1  0.50000000  0.23342302  0.44138176  1
