# generated using pymatgen
data_Nd7BP2O17
_symmetry_space_group_name_H-M   'P 1'
_cell_length_a   6.91733556
_cell_length_b   12.48312382
_cell_length_c   17.80227433
_cell_angle_alpha   90.00000000
_cell_angle_beta   90.00000000
_cell_angle_gamma   97.40058070
_symmetry_Int_Tables_number   1
_chemical_formula_structural   Nd7BP2O17
_chemical_formula_sum   'Nd28 B4 P8 O68'
_cell_volume   1524.42030151
_cell_formula_units_Z   4
loop_
 _symmetry_equiv_pos_site_id
 _symmetry_equiv_pos_as_xyz
  1  'x, y, z'
loop_
 _atom_site_type_symbol
 _atom_site_label
 _atom_site_symmetry_multiplicity
 _atom_site_fract_x
 _atom_site_fract_y
 _atom_site_fract_z
 _atom_site_occupancy
  Nd  Nd0  1  0.02167886  0.82060454  0.27497545  1
  Nd  Nd1  1  0.97832114  0.17939546  0.72502455  1
  Nd  Nd2  1  0.47832114  0.67939546  0.77497545  1
  Nd  Nd3  1  0.52167886  0.32060454  0.22502455  1
  Nd  Nd4  1  0.78621056  0.56870947  0.13210137  1
  Nd  Nd5  1  0.21378944  0.43129053  0.86789863  1
  Nd  Nd6  1  0.71378944  0.93129053  0.63210137  1
  Nd  Nd7  1  0.28621056  0.06870947  0.36789863  1
  Nd  Nd8  1  0.49452535  0.80272391  0.39405041  1
  Nd  Nd9  1  0.50547465  0.19727609  0.60594959  1
  Nd  Nd10  1  0.00547465  0.69727609  0.89405041  1
  Nd  Nd11  1  0.99452535  0.30272391  0.10594959  1
  Nd  Nd12  1  0.18901098  0.90312792  0.72452794  1
  Nd  Nd13  1  0.81098902  0.09687208  0.27547206  1
  Nd  Nd14  1  0.31098902  0.59687208  0.22452794  1
  Nd  Nd15  1  0.68901098  0.40312792  0.77547206  1
  Nd  Nd16  1  0.77446798  0.49108940  0.55464705  1
  Nd  Nd17  1  0.22553202  0.50891060  0.44535295  1
  Nd  Nd18  1  0.72553202  0.00891060  0.05464705  1
  Nd  Nd19  1  0.27446798  0.99108940  0.94535295  1
  Nd  Nd20  1  0.98938904  0.78651962  0.48213475  1
  Nd  Nd21  1  0.01061096  0.21348038  0.51786525  1
  Nd  Nd22  1  0.51061096  0.71348038  0.98213475  1
  Nd  Nd23  1  0.48938904  0.28651962  0.01786525  1
  Nd  Nd24  1  0.75854579  0.57292955  0.34564336  1
  Nd  Nd25  1  0.24145421  0.42707045  0.65435664  1
  Nd  Nd26  1  0.74145421  0.92707045  0.84564336  1
  Nd  Nd27  1  0.25854579  0.07292955  0.15435664  1
  B  B28  1  0.24908132  0.99871322  0.56848676  1
  B  B29  1  0.75091868  0.00128678  0.43151324  1
  B  B30  1  0.25091868  0.50128678  0.06848676  1
  B  B31  1  0.74908132  0.49871322  0.93151324  1
  P  P32  1  0.54901670  0.83644485  0.19797453  1
  P  P33  1  0.45098330  0.16355515  0.80202547  1
  P  P34  1  0.95098330  0.66355515  0.69797453  1
  P  P35  1  0.04901670  0.33644485  0.30202547  1
  P  P36  1  0.03590599  0.81715352  0.06182954  1
  P  P37  1  0.96409401  0.18284648  0.93817046  1
  P  P38  1  0.46409401  0.68284648  0.56182954  1
  P  P39  1  0.53590599  0.31715352  0.43817046  1
  O  O40  1  0.47865980  0.90468692  0.13366633  1
  O  O41  1  0.52134020  0.09531308  0.86633367  1
  O  O42  1  0.02134020  0.59531308  0.63366633  1
  O  O43  1  0.97865980  0.40468692  0.36633367  1
  O  O44  1  0.40197173  0.99859521  0.62130125  1
  O  O45  1  0.59802827  0.00140479  0.37869875  1
  O  O46  1  0.09802827  0.50140479  0.12130125  1
  O  O47  1  0.90197173  0.49859521  0.87869875  1
  O  O48  1  0.60182986  0.50817846  0.23318210  1
  O  O49  1  0.39817014  0.49182154  0.76681790  1
  O  O50  1  0.89817014  0.99182154  0.73318210  1
  O  O51  1  0.10182986  0.00817846  0.26681790  1
  O  O52  1  0.80658459  0.75883368  0.36820015  1
  O  O53  1  0.19341541  0.24116632  0.63179985  1
  O  O54  1  0.69341541  0.74116632  0.86820015  1
  O  O55  1  0.30658459  0.25883368  0.13179985  1
  O  O56  1  0.08596092  0.94294635  0.06529884  1
  O  O57  1  0.91403908  0.05705365  0.93470116  1
  O  O58  1  0.41403908  0.55705365  0.56529884  1
  O  O59  1  0.58596092  0.44294635  0.43470116  1
  O  O60  1  0.04922649  0.76151529  0.13783254  1
  O  O61  1  0.95077351  0.23848471  0.86216746  1
  O  O62  1  0.45077351  0.73848471  0.63783254  1
  O  O63  1  0.54922649  0.26151529  0.36216746  1
  O  O64  1  0.08457010  0.88030046  0.85550051  1
  O  O65  1  0.91542990  0.11969954  0.14449949  1
  O  O66  1  0.41542990  0.61969954  0.35550051  1
  O  O67  1  0.58457010  0.38030046  0.64449949  1
  O  O68  1  0.38119904  0.80682905  0.25689691  1
  O  O69  1  0.61880096  0.19317095  0.74310309  1
  O  O70  1  0.11880096  0.69317095  0.75689691  1
  O  O71  1  0.88119904  0.30682905  0.24310309  1
  O  O72  1  0.96160691  0.59627717  0.45758322  1
  O  O73  1  0.03839309  0.40372283  0.54241678  1
  O  O74  1  0.53839309  0.90372283  0.95758322  1
  O  O75  1  0.46160691  0.09627717  0.04241678  1
  O  O76  1  0.17848736  0.77626473  0.00344771  1
  O  O77  1  0.82151264  0.22373527  0.99655229  1
  O  O78  1  0.32151264  0.72373527  0.50344771  1
  O  O79  1  0.67848736  0.27626473  0.49655229  1
  O  O80  1  0.89562912  0.77357789  0.67151386  1
  O  O81  1  0.10437088  0.22642211  0.32848614  1
  O  O82  1  0.60437088  0.72642211  0.17151386  1
  O  O83  1  0.39562912  0.27357789  0.82848614  1
  O  O84  1  0.19395732  0.87427908  0.39084822  1
  O  O85  1  0.80604268  0.12572092  0.60915178  1
  O  O86  1  0.30604268  0.62572092  0.89084822  1
  O  O87  1  0.69395732  0.37427908  0.10915178  1
  O  O88  1  0.82663172  0.79843768  0.02980052  1
  O  O89  1  0.17336828  0.20156232  0.97019948  1
  O  O90  1  0.67336828  0.70156232  0.52980052  1
  O  O91  1  0.32663172  0.29843768  0.47019948  1
  O  O92  1  0.08574519  0.92573698  0.58094887  1
  O  O93  1  0.91425481  0.07426302  0.41905113  1
  O  O94  1  0.41425481  0.57426302  0.08094887  1
  O  O95  1  0.58574519  0.42573698  0.91905113  1
  O  O96  1  0.72684272  0.92084725  0.48624112  1
  O  O97  1  0.27315728  0.07915275  0.51375888  1
  O  O98  1  0.77315728  0.57915275  0.98624112  1
  O  O99  1  0.22684272  0.42084725  0.01375888  1
  O  O100  1  0.99507303  0.62681082  0.25711926  1
  O  O101  1  0.00492697  0.37318918  0.74288074  1
  O  O102  1  0.50492697  0.87318918  0.75711926  1
  O  O103  1  0.49507303  0.12681082  0.24288074  1
  O  O104  1  0.77172789  0.59679647  0.73571329  1
  O  O105  1  0.22827211  0.40320353  0.26428671  1
  O  O106  1  0.72827211  0.90320353  0.23571329  1
  O  O107  1  0.27172789  0.09679647  0.76428671  1
