# generated using pymatgen
data_Tm4FeS7
_symmetry_space_group_name_H-M   'P 1'
_cell_length_a   3.74125674
_cell_length_b   6.41581380
_cell_length_c   11.25884272
_cell_angle_alpha   103.94484519
_cell_angle_beta   90.00000005
_cell_angle_gamma   73.04831557
_symmetry_Int_Tables_number   1
_chemical_formula_structural   Tm4FeS7
_chemical_formula_sum   'Tm4 Fe1 S7'
_cell_volume   250.16802486
_cell_formula_units_Z   1
loop_
 _symmetry_equiv_pos_site_id
 _symmetry_equiv_pos_as_xyz
  1  'x, y, z'
loop_
 _atom_site_type_symbol
 _atom_site_label
 _atom_site_symmetry_multiplicity
 _atom_site_fract_x
 _atom_site_fract_y
 _atom_site_fract_z
 _atom_site_occupancy
  Tm  Tm0  1  0.69385888  0.61228225  0.20512645  1
  Tm  Tm1  1  0.30583711  0.38832579  0.80191289  1
  Tm  Tm2  1  0.99961973  0.00076054  0.00555260  1
  Tm  Tm3  1  0.11295440  0.77409120  0.56544574  1
  Fe  Fe4  1  0.88855132  0.22289736  0.42399796  1
  S  S5  1  0.74553054  0.50893891  0.63892104  1
  S  S6  1  0.26818946  0.46362109  0.35387984  1
  S  S7  1  0.33847640  0.32304720  0.05139818  1
  S  S8  1  0.65994724  0.68010553  0.94843999  1
  S  S9  1  0.03206220  0.93587560  0.22664071  1
  S  S10  1  0.96360448  0.07279104  0.78381389  1
  S  S11  1  0.49136825  0.01726350  0.49487072  1
