# generated using pymatgen
data_KV3O7
_symmetry_space_group_name_H-M   'P 1'
_cell_length_a   3.79229780
_cell_length_b   8.45506426
_cell_length_c   9.95332882
_cell_angle_alpha   83.76338911
_cell_angle_beta   79.01780180
_cell_angle_gamma   77.04052010
_symmetry_Int_Tables_number   1
_chemical_formula_structural   KV3O7
_chemical_formula_sum   'K2 V6 O14'
_cell_volume   304.59447621
_cell_formula_units_Z   2
loop_
 _symmetry_equiv_pos_site_id
 _symmetry_equiv_pos_as_xyz
  1  'x, y, z'
loop_
 _atom_site_type_symbol
 _atom_site_label
 _atom_site_symmetry_multiplicity
 _atom_site_fract_x
 _atom_site_fract_y
 _atom_site_fract_z
 _atom_site_occupancy
  K  K0  1  0.83168579  0.75494401  0.58168440  1
  K  K1  1  0.16831421  0.24505599  0.41831560  1
  V  V2  1  0.79211154  0.36331541  0.05246150  1
  V  V3  1  0.20788846  0.63668459  0.94753850  1
  V  V4  1  0.55723078  0.65577195  0.22976648  1
  V  V5  1  0.44276922  0.34422805  0.77023352  1
  V  V6  1  0.94245489  0.94222055  0.17286966  1
  V  V7  1  0.05754511  0.05777945  0.82713034  1
  O  O8  1  0.47508490  0.88894334  0.16088686  1
  O  O9  1  0.52491510  0.11105666  0.83911314  1
  O  O10  1  0.30057793  0.39600335  0.00284079  1
  O  O11  1  0.69942207  0.60399665  0.99715921  1
  O  O12  1  0.68533075  0.40601300  0.22332550  1
  O  O13  1  0.31466925  0.59398700  0.77667450  1
  O  O14  1  0.93056106  0.30906586  0.82981202  1
  O  O15  1  0.06943894  0.69093414  0.17018798  1
  O  O16  1  0.47053251  0.65961394  0.39932105  1
  O  O17  1  0.52946749  0.34038606  0.60067895  1
  O  O18  1  0.89845696  0.12874860  0.07433747  1
  O  O19  1  0.10154304  0.87125140  0.92566253  1
  O  O20  1  0.83575982  0.99536879  0.33311157  1
  O  O21  1  0.16424018  0.00463121  0.66688843  1
