# generated using pymatgen
data_VH12SO10
_symmetry_space_group_name_H-M   'P 1'
_cell_length_a   6.36925824
_cell_length_b   6.36925824
_cell_length_c   25.52778416
_cell_angle_alpha   80.44459948
_cell_angle_beta   80.44459948
_cell_angle_gamma   68.73427866
_symmetry_Int_Tables_number   1
_chemical_formula_structural   VH12SO10
_chemical_formula_sum   'V4 H48 S4 O40'
_cell_volume   945.36433969
_cell_formula_units_Z   4
loop_
 _symmetry_equiv_pos_site_id
 _symmetry_equiv_pos_as_xyz
  1  'x, y, z'
loop_
 _atom_site_type_symbol
 _atom_site_label
 _atom_site_symmetry_multiplicity
 _atom_site_fract_x
 _atom_site_fract_y
 _atom_site_fract_z
 _atom_site_occupancy
  V  V0  1  0.05127523  0.94872477  0.75000000  1
  V  V1  1  0.94872477  0.05127523  0.25000000  1
  V  V2  1  -0.00000000  -0.00000000  0.00000000  1
  V  V3  1  -0.00000000  -0.00000000  0.50000000  1
  H  H4  1  0.32826503  0.00076432  0.65682583  1
  H  H5  1  0.67173497  0.99923568  0.34317417  1
  H  H6  1  0.99923568  0.67173497  0.84317417  1
  H  H7  1  0.00076432  0.32826503  0.15682583  1
  H  H8  1  0.43633504  0.69710781  0.80136158  1
  H  H9  1  0.56366496  0.30289219  0.19863842  1
  H  H10  1  0.30289219  0.56366496  0.69863842  1
  H  H11  1  0.69710781  0.43633504  0.30136158  1
  H  H12  1  0.70818498  0.35171736  0.93918340  1
  H  H13  1  0.29181502  0.64828264  0.06081660  1
  H  H14  1  0.64828264  0.29181502  0.56081660  1
  H  H15  1  0.35171736  0.70818498  0.43918340  1
  H  H16  1  0.32977231  0.92964279  0.91032397  1
  H  H17  1  0.67022769  0.07035721  0.08967603  1
  H  H18  1  0.07035721  0.67022769  0.58967603  1
  H  H19  1  0.92964279  0.32977231  0.41032397  1
  H  H20  1  0.69417526  0.76307353  0.00334790  1
  H  H21  1  0.30582474  0.23692647  0.99665210  1
  H  H22  1  0.23692647  0.30582474  0.49665210  1
  H  H23  1  0.76307353  0.69417526  0.50334790  1
  H  H24  1  0.77849772  0.89864956  0.84534816  1
  H  H25  1  0.22150228  0.10135044  0.15465184  1
  H  H26  1  0.10135044  0.22150228  0.65465184  1
  H  H27  1  0.89864956  0.77849772  0.34534816  1
  H  H28  1  0.34814348  0.96334128  0.42005150  1
  H  H29  1  0.65185652  0.03665872  0.57994850  1
  H  H30  1  0.03665872  0.65185652  0.07994850  1
  H  H31  1  0.96334128  0.34814348  0.92005150  1
  H  H32  1  0.30578230  0.70822196  0.56901718  1
  H  H33  1  0.69421770  0.29177804  0.43098282  1
  H  H34  1  0.29177804  0.69421770  0.93098282  1
  H  H35  1  0.70822196  0.30578230  0.06901718  1
  H  H36  1  0.67334989  0.92827510  0.94862937  1
  H  H37  1  0.32665011  0.07172490  0.05137063  1
  H  H38  1  0.07172490  0.32665011  0.55137063  1
  H  H39  1  0.92827510  0.67334989  0.44862937  1
  H  H40  1  0.67089752  0.19511823  0.69861071  1
  H  H41  1  0.32910248  0.80488177  0.30138929  1
  H  H42  1  0.80488177  0.32910248  0.80138929  1
  H  H43  1  0.19511823  0.67089752  0.19861071  1
  H  H44  1  0.48758491  0.91379709  0.76858626  1
  H  H45  1  0.51241509  0.08620291  0.23141374  1
  H  H46  1  0.08620291  0.51241509  0.73141374  1
  H  H47  1  0.91379709  0.48758491  0.26858626  1
  H  H48  1  0.73624948  0.93935559  0.69000392  1
  H  H49  1  0.26375052  0.06064441  0.30999608  1
  H  H50  1  0.06064441  0.26375052  0.80999608  1
  H  H51  1  0.93935559  0.73624948  0.19000392  1
  S  S52  1  0.41949394  0.31705462  0.87694756  1
  S  S53  1  0.58050606  0.68294538  0.12305244  1
  S  S54  1  0.68294538  0.58050606  0.62305244  1
  S  S55  1  0.31705462  0.41949394  0.37694756  1
  O  O56  1  0.22042449  0.86060951  0.93078879  1
  O  O57  1  0.77957551  0.13939049  0.06921121  1
  O  O58  1  0.13939049  0.77957551  0.56921121  1
  O  O59  1  0.86060951  0.22042449  0.43078879  1
  O  O60  1  0.54053500  0.41993227  0.83077284  1
  O  O61  1  0.45946500  0.58006773  0.16922716  1
  O  O62  1  0.58006773  0.45946500  0.66922716  1
  O  O63  1  0.41993227  0.54053500  0.33077284  1
  O  O64  1  0.19859505  0.09907416  0.67854409  1
  O  O65  1  0.80140495  0.90092584  0.32145591  1
  O  O66  1  0.90092584  0.80140495  0.82145591  1
  O  O67  1  0.09907416  0.19859505  0.17854409  1
  O  O68  1  0.62116431  0.82165549  0.63278449  1
  O  O69  1  0.37883569  0.17834451  0.36721551  1
  O  O70  1  0.17834451  0.37883569  0.86721551  1
  O  O71  1  0.82165549  0.62116431  0.13278449  1
  O  O72  1  0.53328233  0.06425518  0.88345771  1
  O  O73  1  0.46671767  0.93574482  0.11654229  1
  O  O74  1  0.93574482  0.46671767  0.61654229  1
  O  O75  1  0.06425518  0.53328233  0.38345771  1
  O  O76  1  0.31695624  0.85889383  0.45103729  1
  O  O77  1  0.68304376  0.14110617  0.54896271  1
  O  O78  1  0.14110617  0.68304376  0.04896271  1
  O  O79  1  0.85889383  0.31695624  0.95103729  1
  O  O80  1  0.36633953  0.85429112  0.78425619  1
  O  O81  1  0.63366047  0.14570888  0.21574381  1
  O  O82  1  0.14570888  0.63366047  0.71574381  1
  O  O83  1  0.85429112  0.36633953  0.28425619  1
  O  O84  1  0.76434982  0.86016483  0.97868117  1
  O  O85  1  0.23565018  0.13983517  0.02131883  1
  O  O86  1  0.13983517  0.23565018  0.52131883  1
  O  O87  1  0.86016483  0.76434982  0.47868117  1
  O  O88  1  0.72601489  0.03684503  0.71717286  1
  O  O89  1  0.27398511  0.96315497  0.28282714  1
  O  O90  1  0.96315497  0.27398511  0.78282714  1
  O  O91  1  0.03684503  0.72601489  0.21717286  1
  O  O92  1  0.42720814  0.40192673  0.92780334  1
  O  O93  1  0.57279186  0.59807327  0.07219666  1
  O  O94  1  0.59807327  0.57279186  0.57219666  1
  O  O95  1  0.40192673  0.42720814  0.42780334  1
