# generated using pymatgen
data_Pr2(MoO4)3
_symmetry_space_group_name_H-M   'P 1'
_cell_length_a   10.45143609
_cell_length_b   10.45143609
_cell_length_c   16.19557430
_cell_angle_alpha   74.96937731
_cell_angle_beta   74.96937731
_cell_angle_gamma   70.00692592
_symmetry_Int_Tables_number   1
_chemical_formula_structural   Pr2(MoO4)3
_chemical_formula_sum   'Pr12 Mo18 O72'
_cell_volume   1576.94708157
_cell_formula_units_Z   6
loop_
 _symmetry_equiv_pos_site_id
 _symmetry_equiv_pos_as_xyz
  1  'x, y, z'
loop_
 _atom_site_type_symbol
 _atom_site_label
 _atom_site_symmetry_multiplicity
 _atom_site_fract_x
 _atom_site_fract_y
 _atom_site_fract_z
 _atom_site_occupancy
  Pr  Pr0  1  0.38231774  0.63112567  0.91123508  1
  Pr  Pr1  1  0.61768226  0.36887433  0.08876492  1
  Pr  Pr2  1  0.36887433  0.61768226  0.58876492  1
  Pr  Pr3  1  0.63112567  0.38231774  0.41123508  1
  Pr  Pr4  1  0.28708964  0.04398411  0.52284585  1
  Pr  Pr5  1  0.71291036  0.95601589  0.47715415  1
  Pr  Pr6  1  0.95601589  0.71291036  0.97715415  1
  Pr  Pr7  1  0.04398411  0.28708964  0.02284585  1
  Pr  Pr8  1  0.70608957  0.96223902  0.80271938  1
  Pr  Pr9  1  0.29391043  0.03776098  0.19728062  1
  Pr  Pr10  1  0.03776098  0.29391043  0.69728062  1
  Pr  Pr11  1  0.96223902  0.70608957  0.30271938  1
  Mo  Mo12  1  0.45338378  0.20467829  0.63685004  1
  Mo  Mo13  1  0.54661622  0.79532171  0.36314996  1
  Mo  Mo14  1  0.79532171  0.54661622  0.86314996  1
  Mo  Mo15  1  0.20467829  0.45338378  0.13685004  1
  Mo  Mo16  1  0.53497164  0.79903030  0.69044170  1
  Mo  Mo17  1  0.46502836  0.20096970  0.30955830  1
  Mo  Mo18  1  0.20096970  0.46502836  0.80955830  1
  Mo  Mo19  1  0.79903030  0.53497164  0.19044170  1
  Mo  Mo20  1  0.12646137  0.87353863  0.75000000  1
  Mo  Mo21  1  0.87353863  0.12646137  0.25000000  1
  Mo  Mo22  1  0.45289837  0.22318353  0.96584027  1
  Mo  Mo23  1  0.54710163  0.77681647  0.03415973  1
  Mo  Mo24  1  0.77681647  0.54710163  0.53415973  1
  Mo  Mo25  1  0.22318353  0.45289837  0.46584027  1
  Mo  Mo26  1  0.86524668  0.12099581  0.92093139  1
  Mo  Mo27  1  0.13475332  0.87900419  0.07906861  1
  Mo  Mo28  1  0.87900419  0.13475332  0.57906861  1
  Mo  Mo29  1  0.12099581  0.86524668  0.42093139  1
  O  O30  1  0.75834311  0.15083645  0.67860344  1
  O  O31  1  0.24165689  0.84916355  0.32139656  1
  O  O32  1  0.84916355  0.24165689  0.82139656  1
  O  O33  1  0.15083645  0.75834311  0.17860344  1
  O  O34  1  0.46873554  0.38447073  0.98428992  1
  O  O35  1  0.53126446  0.61552927  0.01571008  1
  O  O36  1  0.61552927  0.53126446  0.51571008  1
  O  O37  1  0.38447073  0.46873554  0.48428992  1
  O  O38  1  0.28942827  0.19302459  0.62347663  1
  O  O39  1  0.71057173  0.80697541  0.37652337  1
  O  O40  1  0.80697541  0.71057173  0.87652337  1
  O  O41  1  0.19302459  0.28942827  0.12347663  1
  O  O42  1  0.53460006  0.89480139  0.93340085  1
  O  O43  1  0.46539994  0.10519861  0.06659915  1
  O  O44  1  0.10519861  0.46539994  0.56659915  1
  O  O45  1  0.89480139  0.53460006  0.43340085  1
  O  O46  1  0.28300942  0.24629623  0.94790726  1
  O  O47  1  0.71699058  0.75370377  0.05209274  1
  O  O48  1  0.75370377  0.71699058  0.55209274  1
  O  O49  1  0.24629623  0.28300942  0.44790726  1
  O  O50  1  0.53223130  0.64017824  0.66876112  1
  O  O51  1  0.46776870  0.35982176  0.33123888  1
  O  O52  1  0.35982176  0.46776870  0.83123888  1
  O  O53  1  0.64017824  0.53223130  0.16876112  1
  O  O54  1  0.43112060  0.37077025  0.65698502  1
  O  O55  1  0.56887940  0.62922975  0.34301498  1
  O  O56  1  0.62922975  0.56887940  0.84301498  1
  O  O57  1  0.37077025  0.43112060  0.15698502  1
  O  O58  1  0.27166167  0.81940730  0.99295106  1
  O  O59  1  0.72833833  0.18059270  0.00704894  1
  O  O60  1  0.18059270  0.72833833  0.50704894  1
  O  O61  1  0.81940730  0.27166167  0.49295106  1
  O  O62  1  0.68909761  0.80124401  0.71797542  1
  O  O63  1  0.31090239  0.19875599  0.28202458  1
  O  O64  1  0.19875599  0.31090239  0.78202458  1
  O  O65  1  0.80124401  0.68909761  0.21797542  1
  O  O66  1  0.42099200  0.81630230  0.46515925  1
  O  O67  1  0.57900800  0.18369770  0.53484075  1
  O  O68  1  0.18369770  0.57900800  0.03484075  1
  O  O69  1  0.81630230  0.42099200  0.96515925  1
  O  O70  1  0.40292505  0.82351936  0.78572918  1
  O  O71  1  0.59707495  0.17648064  0.21427082  1
  O  O72  1  0.17648064  0.59707495  0.71427082  1
  O  O73  1  0.82351936  0.40292505  0.28572918  1
  O  O74  1  0.25208025  0.84559819  0.64727315  1
  O  O75  1  0.74791975  0.15440181  0.35272685  1
  O  O76  1  0.15440181  0.74791975  0.85272685  1
  O  O77  1  0.84559819  0.25208025  0.14727315  1
  O  O78  1  0.58360063  0.15498087  0.87943220  1
  O  O79  1  0.41639937  0.84501913  0.12056780  1
  O  O80  1  0.84501913  0.41639937  0.62056780  1
  O  O81  1  0.15498087  0.58360063  0.37943220  1
  O  O82  1  0.12567962  0.02040263  0.44683343  1
  O  O83  1  0.87432038  0.97959737  0.55316657  1
  O  O84  1  0.97959737  0.87432038  0.05316657  1
  O  O85  1  0.02040263  0.12567962  0.94683343  1
  O  O86  1  0.86051887  0.95463632  0.90277979  1
  O  O87  1  0.13948113  0.04536368  0.09722021  1
  O  O88  1  0.04536368  0.13948113  0.59722021  1
  O  O89  1  0.95463632  0.86051887  0.40277979  1
  O  O90  1  0.50066012  0.93517659  0.59230903  1
  O  O91  1  0.49933988  0.06482341  0.40769097  1
  O  O92  1  0.06482341  0.49933988  0.90769097  1
  O  O93  1  0.93517659  0.50066012  0.09230903  1
  O  O94  1  0.51188333  0.07569858  0.72564833  1
  O  O95  1  0.48811667  0.92430142  0.27435167  1
  O  O96  1  0.92430142  0.48811667  0.77435167  1
  O  O97  1  0.07569858  0.51188333  0.22564833  1
  O  O98  1  0.11292411  0.03904867  0.76613035  1
  O  O99  1  0.88707589  0.96095133  0.23386965  1
  O  O100  1  0.96095133  0.88707589  0.73386965  1
  O  O101  1  0.03904867  0.11292411  0.26613035  1
