# generated using pymatgen
data_Ni7(Mo3P2)3
_symmetry_space_group_name_H-M   'P 1'
_cell_length_a   7.01816025
_cell_length_b   7.04971957
_cell_length_c   7.06856794
_cell_angle_alpha   68.92972770
_cell_angle_beta   72.79776674
_cell_angle_gamma   60.44626443
_symmetry_Int_Tables_number   1
_chemical_formula_structural   Ni7(Mo3P2)3
_chemical_formula_sum   'Ni7 Mo9 P6'
_cell_volume   280.84600073
_cell_formula_units_Z   1
loop_
 _symmetry_equiv_pos_site_id
 _symmetry_equiv_pos_as_xyz
  1  'x, y, z'
loop_
 _atom_site_type_symbol
 _atom_site_label
 _atom_site_symmetry_multiplicity
 _atom_site_fract_x
 _atom_site_fract_y
 _atom_site_fract_z
 _atom_site_occupancy
  Ni  Ni0  1  0.64427125  0.61993268  0.16900458  1
  Ni  Ni1  1  0.35572875  0.38006732  0.83099542  1
  Ni  Ni2  1  0.21720152  0.41937864  0.49682876  1
  Ni  Ni3  1  0.78279848  0.58062136  0.50317124  1
  Ni  Ni4  1  0.50000000  0.00000000  0.50000000  1
  Ni  Ni5  1  0.63357065  0.28526856  0.49856243  1
  Ni  Ni6  1  0.36642935  0.71473144  0.50143757  1
  Mo  Mo7  1  0.05924712  0.13423064  0.55707651  1
  Mo  Mo8  1  0.94075288  0.86576936  0.44292349  1
  Mo  Mo9  1  0.30048123  0.05275218  0.16114789  1
  Mo  Mo10  1  0.69951877  0.94724782  0.83885211  1
  Mo  Mo11  1  0.07544248  0.53139216  0.15222765  1
  Mo  Mo12  1  0.92455752  0.46860784  0.84777235  1
  Mo  Mo13  1  0.56316206  0.28481976  0.14128889  1
  Mo  Mo14  1  0.43683794  0.71518024  0.85871111  1
  Mo  Mo15  1  -0.00000000  0.00000000  0.00000000  1
  P  P16  1  0.29753669  0.12640221  0.77759868  1
  P  P17  1  0.70246331  0.87359779  0.22240132  1
  P  P18  1  0.29961617  0.66699805  0.23237332  1
  P  P19  1  0.70038383  0.33300195  0.76762668  1
  P  P20  1  0.90083294  0.26486867  0.23446979  1
  P  P21  1  0.09916706  0.73513133  0.76553021  1
