# generated using pymatgen
data_Lu2MoO6
_symmetry_space_group_name_H-M   'P 1'
_cell_length_a   5.30642821
_cell_length_b   9.77822970
_cell_length_c   9.77822970
_cell_angle_alpha   67.84261008
_cell_angle_beta   74.92613188
_cell_angle_gamma   74.92613188
_symmetry_Int_Tables_number   1
_chemical_formula_structural   Lu2MoO6
_chemical_formula_sum   'Lu8 Mo4 O24'
_cell_volume   446.22563768
_cell_formula_units_Z   4
loop_
 _symmetry_equiv_pos_site_id
 _symmetry_equiv_pos_as_xyz
  1  'x, y, z'
loop_
 _atom_site_type_symbol
 _atom_site_label
 _atom_site_symmetry_multiplicity
 _atom_site_fract_x
 _atom_site_fract_y
 _atom_site_fract_z
 _atom_site_occupancy
  Lu  Lu0  1  0.25000000  0.36229947  0.63770053  1
  Lu  Lu1  1  0.75000000  0.63770053  0.36229947  1
  Lu  Lu2  1  0.25000000  0.89495544  0.10504456  1
  Lu  Lu3  1  0.75000000  0.10504456  0.89495544  1
  Lu  Lu4  1  0.37772844  0.94746890  0.71834422  1
  Lu  Lu5  1  0.62227156  0.05253110  0.28165578  1
  Lu  Lu6  1  0.12227156  0.28165578  0.05253110  1
  Lu  Lu7  1  0.87772844  0.71834422  0.94746890  1
  Mo  Mo8  1  0.06236338  0.79666566  0.51133704  1
  Mo  Mo9  1  0.93763662  0.20333434  0.48866296  1
  Mo  Mo10  1  0.43763662  0.48866296  0.20333434  1
  Mo  Mo11  1  0.56236338  0.51133704  0.79666566  1
  O  O12  1  0.08384606  0.16071235  0.69505248  1
  O  O13  1  0.91615394  0.83928765  0.30494752  1
  O  O14  1  0.41615394  0.30494752  0.83928765  1
  O  O15  1  0.58384606  0.69505248  0.16071235  1
  O  O16  1  0.37850322  0.82443879  0.38121311  1
  O  O17  1  0.62149678  0.17556121  0.61878689  1
  O  O18  1  0.12149678  0.61878689  0.17556121  1
  O  O19  1  0.87850322  0.38121311  0.82443879  1
  O  O20  1  0.13841425  0.78768359  0.68709471  1
  O  O21  1  0.86158575  0.21231641  0.31290529  1
  O  O22  1  0.36158575  0.31290529  0.21231641  1
  O  O23  1  0.63841425  0.68709471  0.78768359  1
  O  O24  1  0.24802444  0.06325725  0.47626159  1
  O  O25  1  0.75197556  0.93674275  0.52373841  1
  O  O26  1  0.25197556  0.52373841  0.93674275  1
  O  O27  1  0.74802444  0.47626159  0.06325725  1
  O  O28  1  0.01635327  0.60809172  0.54723449  1
  O  O29  1  0.98364673  0.39190828  0.45276551  1
  O  O30  1  0.48364673  0.45276551  0.39190828  1
  O  O31  1  0.51635327  0.54723449  0.60809172  1
  O  O32  1  0.57948796  0.92784188  0.88980012  1
  O  O33  1  0.42051204  0.07215812  0.11019988  1
  O  O34  1  0.92051204  0.11019988  0.07215812  1
  O  O35  1  0.07948796  0.88980012  0.92784188  1
