# generated using pymatgen
data_K2Na4Fe2O5
_symmetry_space_group_name_H-M   'P 1'
_cell_length_a   6.49616307
_cell_length_b   6.49616307
_cell_length_c   10.53708782
_cell_angle_alpha   90.00000000
_cell_angle_beta   90.00000000
_cell_angle_gamma   90.00000000
_symmetry_Int_Tables_number   1
_chemical_formula_structural   K2Na4Fe2O5
_chemical_formula_sum   'K4 Na8 Fe4 O10'
_cell_volume   444.66652463
_cell_formula_units_Z   2
loop_
 _symmetry_equiv_pos_site_id
 _symmetry_equiv_pos_as_xyz
  1  'x, y, z'
loop_
 _atom_site_type_symbol
 _atom_site_label
 _atom_site_symmetry_multiplicity
 _atom_site_fract_x
 _atom_site_fract_y
 _atom_site_fract_z
 _atom_site_occupancy
  K  K0  1  0.31133234  0.68866766  0.00000000  1
  K  K1  1  0.68866766  0.31133234  0.00000000  1
  K  K2  1  0.81133234  0.81133234  0.50000000  1
  K  K3  1  0.18866766  0.18866766  0.50000000  1
  Na  Na4  1  0.00000000  0.00000000  0.22408074  1
  Na  Na5  1  -0.00000000  0.00000000  0.77591926  1
  Na  Na6  1  0.50000000  0.50000000  0.72408074  1
  Na  Na7  1  0.50000000  0.50000000  0.27591926  1
  Na  Na8  1  0.00000000  0.50000000  0.25000000  1
  Na  Na9  1  0.00000000  0.50000000  0.75000000  1
  Na  Na10  1  0.50000000  0.00000000  0.25000000  1
  Na  Na11  1  0.50000000  0.00000000  0.75000000  1
  Fe  Fe12  1  0.20816417  0.20816417  0.00000000  1
  Fe  Fe13  1  0.79183583  0.79183583  0.00000000  1
  Fe  Fe14  1  0.29183583  0.70816417  0.50000000  1
  Fe  Fe15  1  0.70816417  0.29183583  0.50000000  1
  O  O16  1  0.00000000  0.00000000  0.00000000  1
  O  O17  1  0.50000000  0.50000000  0.50000000  1
  O  O18  1  0.29104580  0.29104580  0.16255452  1
  O  O19  1  0.70895420  0.70895420  0.83744548  1
  O  O20  1  0.70895420  0.70895420  0.16255452  1
  O  O21  1  0.20895420  0.79104580  0.66255452  1
  O  O22  1  0.20895420  0.79104580  0.33744548  1
  O  O23  1  0.29104580  0.29104580  0.83744548  1
  O  O24  1  0.79104580  0.20895420  0.33744548  1
  O  O25  1  0.79104580  0.20895420  0.66255452  1
