# generated using pymatgen
data_LiZnInF6
_symmetry_space_group_name_H-M   'P 1'
_cell_length_a   4.69448409
_cell_length_b   9.10013537
_cell_length_c   9.10013537
_cell_angle_alpha   120.00000577
_cell_angle_beta   90.00000000
_cell_angle_gamma   90.00000000
_symmetry_Int_Tables_number   1
_chemical_formula_structural   LiZnInF6
_chemical_formula_sum   'Li3 Zn3 In3 F18'
_cell_volume   336.67756990
_cell_formula_units_Z   3
loop_
 _symmetry_equiv_pos_site_id
 _symmetry_equiv_pos_as_xyz
  1  'x, y, z'
loop_
 _atom_site_type_symbol
 _atom_site_label
 _atom_site_symmetry_multiplicity
 _atom_site_fract_x
 _atom_site_fract_y
 _atom_site_fract_z
 _atom_site_occupancy
  Li  Li0  1  0.50000000  0.30576175  0.30576175  1
  Li  Li1  1  0.50000000  1.00000000  0.69423825  1
  Li  Li2  1  0.50000000  0.69423825  1.00000000  1
  Zn  Zn3  1  -0.00000000  0.64523773  0.64523773  1
  Zn  Zn4  1  -0.00000000  0.00000000  0.35476227  1
  Zn  Zn5  1  -0.00000000  0.35476227  0.00000000  1
  In  In6  1  -0.00000000  0.00000000  -0.00000000  1
  In  In7  1  0.50543033  0.66666700  0.33333300  1
  In  In8  1  0.49456967  0.33333300  0.66666700  1
  F  F9  1  0.74601556  0.89292060  0.45863975  1
  F  F10  1  0.74601556  0.56571916  0.10707940  1
  F  F11  1  0.25398444  0.43428084  0.54136025  1
  F  F12  1  0.74601556  0.54136025  0.43428084  1
  F  F13  1  0.25398444  0.45863975  0.89292060  1
  F  F14  1  0.25398444  0.10707940  0.56571916  1
  F  F15  1  0.76690251  0.89513057  0.12395933  1
  F  F16  1  0.76690251  0.22882877  0.10486943  1
  F  F17  1  0.23309749  0.77117123  0.87604067  1
  F  F18  1  0.76690251  0.87604067  0.77117123  1
  F  F19  1  0.23309749  0.12395933  0.89513057  1
  F  F20  1  0.23309749  0.10486943  0.22882877  1
  F  F21  1  0.73555644  0.55912476  0.77215958  1
  F  F22  1  0.73555644  0.21303482  0.44087524  1
  F  F23  1  0.26444356  0.78696518  0.22784042  1
  F  F24  1  0.73555644  0.22784042  0.78696518  1
  F  F25  1  0.26444356  0.77215958  0.55912476  1
  F  F26  1  0.26444356  0.44087524  0.21303482  1
