# generated using pymatgen
data_H6C2SN4
_symmetry_space_group_name_H-M   'P 1'
_cell_length_a   5.55036887
_cell_length_b   7.38449381
_cell_length_c   14.97522602
_cell_angle_alpha   95.40217131
_cell_angle_beta   90.00000000
_cell_angle_gamma   112.07453385
_symmetry_Int_Tables_number   1
_chemical_formula_structural   H6C2SN4
_chemical_formula_sum   'H24 C8 S4 N16'
_cell_volume   565.84863769
_cell_formula_units_Z   4
loop_
 _symmetry_equiv_pos_site_id
 _symmetry_equiv_pos_as_xyz
  1  'x, y, z'
loop_
 _atom_site_type_symbol
 _atom_site_label
 _atom_site_symmetry_multiplicity
 _atom_site_fract_x
 _atom_site_fract_y
 _atom_site_fract_z
 _atom_site_occupancy
  H  H0  1  0.55453709  0.12086945  0.86965764  1
  H  H1  1  0.44546291  0.87913055  0.13034236  1
  H  H2  1  0.43366764  0.87913055  0.63034236  1
  H  H3  1  0.56633236  0.12086945  0.36965764  1
  H  H4  1  0.75954068  0.90022976  0.48071279  1
  H  H5  1  0.24045932  0.09977024  0.51928721  1
  H  H6  1  0.85931093  0.09977024  0.01928721  1
  H  H7  1  0.14068907  0.90022976  0.98071279  1
  H  H8  1  0.38792965  0.59953770  0.84053513  1
  H  H9  1  0.61207035  0.40046230  0.15946487  1
  H  H10  1  0.78839196  0.40046230  0.65946487  1
  H  H11  1  0.21160804  0.59953770  0.34053513  1
  H  H12  1  0.55916466  0.66652128  0.50846306  1
  H  H13  1  0.44083534  0.33347872  0.49153694  1
  H  H14  1  0.89264338  0.33347872  -0.00846306  1
  H  H15  1  0.10735662  0.66652128  0.00846306  1
  H  H16  1  0.23608388  0.08597113  0.83729919  1
  H  H17  1  0.76391612  0.91402887  0.16270081  1
  H  H18  1  0.15011275  0.91402887  0.66270081  1
  H  H19  1  0.84988725  0.08597113  0.33729919  1
  H  H20  1  0.79574669  0.63324548  0.70224365  1
  H  H21  1  0.20425331  0.36675452  0.29775635  1
  H  H22  1  0.16250121  0.36675452  0.79775635  1
  H  H23  1  0.83749879  0.63324548  0.20224365  1
  C  C24  1  0.49222762  0.37523099  0.86420582  1
  C  C25  1  0.50777238  0.62476901  0.13579418  1
  C  C26  1  0.11699663  0.62476901  0.63579418  1
  C  C27  1  0.88300337  0.37523099  0.36420582  1
  C  C28  1  0.83016721  0.67696968  0.41034997  1
  C  C29  1  0.16983279  0.32303032  0.58965003  1
  C  C30  1  0.15319753  0.32303032  0.08965003  1
  C  C31  1  0.84680247  0.67696968  0.91034997  1
  S  S32  1  0.78201237  0.84321797  0.84910992  1
  S  S33  1  0.21798763  0.15678203  0.15089008  1
  S  S34  1  0.93879440  0.15678203  0.65089008  1
  S  S35  1  0.06120560  0.84321797  0.34910992  1
  N  N36  1  0.72662838  0.48014638  0.90484421  1
  N  N37  1  0.27337162  0.51985362  0.09515579  1
  N  N38  1  0.24648200  0.51985362  0.59515579  1
  N  N39  1  0.75351800  0.48014638  0.40484421  1
  N  N40  1  0.42492719  0.17878634  0.85123822  1
  N  N41  1  0.57507281  0.82121366  0.14876178  1
  N  N42  1  0.24614085  0.82121366  0.64876178  1
  N  N43  1  0.75385915  0.17878634  0.35123822  1
  N  N44  1  0.69832387  0.75239805  0.46858209  1
  N  N45  1  0.30167613  0.24760195  0.53141791  1
  N  N46  1  0.94592582  0.24760195  0.03141791  1
  N  N47  1  0.05407418  0.75239805  0.96858209  1
  N  N48  1  0.31788113  0.44956531  0.83988918  1
  N  N49  1  0.68211887  0.55043469  0.16011082  1
  N  N50  1  0.86831581  0.55043469  0.66011082  1
  N  N51  1  0.13168419  0.44956531  0.33988918  1
