# generated using pymatgen
data_Er2(GePt3)3
_symmetry_space_group_name_H-M   'P 1'
_cell_length_a   7.81079373
_cell_length_b   7.81079373
_cell_length_c   10.07321638
_cell_angle_alpha   90.25045004
_cell_angle_beta   112.69594094
_cell_angle_gamma   119.78600441
_symmetry_Int_Tables_number   1
_chemical_formula_structural   Er2(GePt3)3
_chemical_formula_sum   'Er4 Ge6 Pt18'
_cell_volume   477.08371578
_cell_formula_units_Z   2
loop_
 _symmetry_equiv_pos_site_id
 _symmetry_equiv_pos_as_xyz
  1  'x, y, z'
loop_
 _atom_site_type_symbol
 _atom_site_label
 _atom_site_symmetry_multiplicity
 _atom_site_fract_x
 _atom_site_fract_y
 _atom_site_fract_z
 _atom_site_occupancy
  Er  Er0  1  0.66636226  0.75564934  0.25068989  1
  Er  Er1  1  0.33363774  0.24435066  0.74931011  1
  Er  Er2  1  0.00495944  0.41567237  0.24931011  1
  Er  Er3  1  0.99504056  0.58432763  0.75068989  1
  Ge  Ge4  1  0.50000000  0.00000000  -0.00000000  1
  Ge  Ge5  1  0.50000000  0.50000000  0.50000000  1
  Ge  Ge6  1  0.13701093  0.81825028  0.49782575  1
  Ge  Ge7  1  0.86298907  0.18174972  0.50217425  1
  Ge  Ge8  1  0.82042453  0.63918518  0.00217425  1
  Ge  Ge9  1  0.17957547  0.36081482  0.99782575  1
  Pt  Pt10  1  0.55321297  0.08382653  0.25663826  1
  Pt  Pt11  1  0.44678703  0.91617347  0.74336174  1
  Pt  Pt12  1  0.32718828  0.29657471  0.24336174  1
  Pt  Pt13  1  0.67281172  0.70342529  0.75663826  1
  Pt  Pt14  1  0.55599600  0.36050190  0.07795905  1
  Pt  Pt15  1  0.44400400  0.63949810  0.92204095  1
  Pt  Pt16  1  0.78254285  0.47803695  0.42204095  1
  Pt  Pt17  1  0.21745715  0.52196305  0.57795905  1
  Pt  Pt18  1  0.11536112  0.86536112  0.25000000  1
  Pt  Pt19  1  0.88463888  0.13463888  0.75000000  1
  Pt  Pt20  1  0.87234375  0.02064664  0.07205644  1
  Pt  Pt21  1  0.12765625  0.97935336  0.92794356  1
  Pt  Pt22  1  0.44859020  0.80028731  0.42794356  1
  Pt  Pt23  1  0.55140980  0.19971269  0.57205644  1
  Pt  Pt24  1  0.11431374  0.13995265  0.42124276  1
  Pt  Pt25  1  0.88568626  0.86004735  0.57875724  1
  Pt  Pt26  1  0.21870989  0.69307098  0.07875724  1
  Pt  Pt27  1  0.78129011  0.30692902  0.92124276  1
