# generated using pymatgen
data_Cu2AgH(SeO5)2
_symmetry_space_group_name_H-M   'P 1'
_cell_length_a   5.40829073
_cell_length_b   5.40829073
_cell_length_c   7.83883440
_cell_angle_alpha   100.68084204
_cell_angle_beta   105.50693826
_cell_angle_gamma   110.11232882
_symmetry_Int_Tables_number   1
_chemical_formula_structural   Cu2AgH(SeO5)2
_chemical_formula_sum   'Cu2 Ag1 H1 Se2 O10'
_cell_volume   197.48331080
_cell_formula_units_Z   1
loop_
 _symmetry_equiv_pos_site_id
 _symmetry_equiv_pos_as_xyz
  1  'x, y, z'
loop_
 _atom_site_type_symbol
 _atom_site_label
 _atom_site_symmetry_multiplicity
 _atom_site_fract_x
 _atom_site_fract_y
 _atom_site_fract_z
 _atom_site_occupancy
  Cu  Cu0  1  0.00000000  -0.00000000  0.50000000  1
  Cu  Cu1  1  0.50000000  0.50000000  0.50000000  1
  Ag  Ag2  1  0.00000000  -0.00000000  -0.00000000  1
  H  H3  1  0.50000000  -0.00000000  0.50000000  1
  Se  Se4  1  0.78589336  0.41984865  0.20574200  1
  Se  Se5  1  0.21410664  0.58015135  0.79425800  1
  O  O6  1  0.39072189  0.15463373  0.54535562  1
  O  O7  1  0.60927811  0.84536627  0.45464438  1
  O  O8  1  0.93849141  0.77465041  0.25808456  1
  O  O9  1  0.06150859  0.22534959  0.74191544  1
  O  O10  1  0.51656584  0.68040684  0.74191544  1
  O  O11  1  0.48343416  0.31959316  0.25808456  1
  O  O12  1  0.01130409  0.32018441  0.33148849  1
  O  O13  1  0.98869591  0.67981559  0.66851151  1
  O  O14  1  0.30232627  0.71731954  0.01964581  1
  O  O15  1  0.69767373  0.28268046  0.98035419  1
