# generated using pymatgen
data_Ho4Al2O9
_symmetry_space_group_name_H-M   'P 1'
_cell_length_a   7.43200278
_cell_length_b   10.55088094
_cell_length_c   11.16038738
_cell_angle_alpha   90.00000000
_cell_angle_beta   108.73815305
_cell_angle_gamma   90.00000000
_symmetry_Int_Tables_number   1
_chemical_formula_structural   Ho4Al2O9
_chemical_formula_sum   'Ho16 Al8 O36'
_cell_volume   828.74755991
_cell_formula_units_Z   4
loop_
 _symmetry_equiv_pos_site_id
 _symmetry_equiv_pos_as_xyz
  1  'x, y, z'
loop_
 _atom_site_type_symbol
 _atom_site_label
 _atom_site_symmetry_multiplicity
 _atom_site_fract_x
 _atom_site_fract_y
 _atom_site_fract_z
 _atom_site_occupancy
  Ho  Ho0  1  0.52310146  0.40833983  0.30657737  1
  Ho  Ho1  1  0.47689854  0.59166017  0.69342263  1
  Ho  Ho2  1  0.47689854  0.90833983  0.19342263  1
  Ho  Ho3  1  0.52310146  0.09166017  0.80657737  1
  Ho  Ho4  1  0.02307843  0.39454374  0.28465268  1
  Ho  Ho5  1  0.97692157  0.60545626  0.71534732  1
  Ho  Ho6  1  0.97692157  0.89454374  0.21534732  1
  Ho  Ho7  1  0.02307843  0.10545626  0.78465268  1
  Ho  Ho8  1  0.16319237  0.62388596  0.06626825  1
  Ho  Ho9  1  0.83680763  0.37611404  0.93373175  1
  Ho  Ho10  1  0.83680763  0.12388596  0.43373175  1
  Ho  Ho11  1  0.16319237  0.87611404  0.56626825  1
  Ho  Ho12  1  0.33651665  0.12179792  0.41341901  1
  Ho  Ho13  1  0.66348335  0.87820208  0.58658099  1
  Ho  Ho14  1  0.66348335  0.62179792  0.08658099  1
  Ho  Ho15  1  0.33651665  0.37820208  0.91341901  1
  Al  Al16  1  0.15490653  0.18389879  0.11483457  1
  Al  Al17  1  0.84509347  0.81610121  0.88516543  1
  Al  Al18  1  0.84509347  0.68389879  0.38516543  1
  Al  Al19  1  0.15490653  0.31610121  0.61483457  1
  Al  Al20  1  0.71709738  0.18633041  0.12865350  1
  Al  Al21  1  0.28290262  0.81366959  0.87134650  1
  Al  Al22  1  0.28290262  0.68633041  0.37134650  1
  Al  Al23  1  0.71709738  0.31366959  0.62865350  1
  O  O24  1  0.57072743  0.26571131  0.47879516  1
  O  O25  1  0.42927257  0.73428869  0.52120484  1
  O  O26  1  0.42927257  0.76571131  0.02120484  1
  O  O27  1  0.57072743  0.23428869  0.97879516  1
  O  O28  1  0.13909141  0.27025483  0.46024151  1
  O  O29  1  0.86090859  0.72974517  0.53975849  1
  O  O30  1  0.86090859  0.77025483  0.03975849  1
  O  O31  1  0.13909141  0.22974517  0.96024151  1
  O  O32  1  0.19956802  0.02574662  0.16759251  1
  O  O33  1  0.80043198  0.97425338  0.83240749  1
  O  O34  1  0.80043198  0.52574662  0.33240749  1
  O  O35  1  0.19956802  0.47425338  0.66759251  1
  O  O36  1  0.42321164  0.49455942  0.10648045  1
  O  O37  1  0.57678836  0.50544058  0.89351955  1
  O  O38  1  0.57678836  0.99455942  0.39351955  1
  O  O39  1  0.42321164  0.00544058  0.60648045  1
  O  O40  1  0.28824992  0.27120634  0.24864165  1
  O  O41  1  0.71175008  0.72879366  0.75135835  1
  O  O42  1  0.71175008  0.77120634  0.25135835  1
  O  O43  1  0.28824992  0.22879366  0.74864165  1
  O  O44  1  0.73273944  0.26956720  0.27012691  1
  O  O45  1  0.26726056  0.73043280  0.72987309  1
  O  O46  1  0.26726056  0.76956720  0.22987309  1
  O  O47  1  0.73273944  0.23043280  0.77012691  1
  O  O48  1  0.06732437  0.74558572  0.38537765  1
  O  O49  1  0.93267563  0.25441428  0.61462235  1
  O  O50  1  0.93267563  0.24558572  0.11462235  1
  O  O51  1  0.06732437  0.75441428  0.88537765  1
  O  O52  1  0.28424774  0.52452826  0.33774187  1
  O  O53  1  0.71575226  0.47547174  0.66225813  1
  O  O54  1  0.71575226  0.02452826  0.16225813  1
  O  O55  1  0.28424774  0.97547174  0.83774187  1
  O  O56  1  0.06631314  0.00854892  0.39476152  1
  O  O57  1  0.93368686  0.99145108  0.60523848  1
  O  O58  1  0.93368686  0.50854892  0.10523848  1
  O  O59  1  0.06631314  0.49145108  0.89476152  1
