# generated using pymatgen
data_La7Cr2BO17
_symmetry_space_group_name_H-M   'P 1'
_cell_length_a   7.08265621
_cell_length_b   12.89375919
_cell_length_c   18.31208448
_cell_angle_alpha   90.00000000
_cell_angle_beta   90.00000000
_cell_angle_gamma   97.47441201
_symmetry_Int_Tables_number   1
_chemical_formula_structural   La7Cr2BO17
_chemical_formula_sum   'La28 Cr8 B4 O68'
_cell_volume   1658.08792419
_cell_formula_units_Z   4
loop_
 _symmetry_equiv_pos_site_id
 _symmetry_equiv_pos_as_xyz
  1  'x, y, z'
loop_
 _atom_site_type_symbol
 _atom_site_label
 _atom_site_symmetry_multiplicity
 _atom_site_fract_x
 _atom_site_fract_y
 _atom_site_fract_z
 _atom_site_occupancy
  La  La0  1  0.02156859  0.82119549  0.27606082  1
  La  La1  1  0.97843141  0.17880451  0.72393918  1
  La  La2  1  0.47843141  0.67880451  0.77606082  1
  La  La3  1  0.52156859  0.32119549  0.22393918  1
  La  La4  1  0.78334493  0.56324786  0.13006069  1
  La  La5  1  0.21665507  0.43675214  0.86993931  1
  La  La6  1  0.71665507  0.93675214  0.63006069  1
  La  La7  1  0.28334493  0.06324786  0.36993931  1
  La  La8  1  0.49687846  0.80261794  0.39236893  1
  La  La9  1  0.50312154  0.19738206  0.60763107  1
  La  La10  1  0.00312154  0.69738206  0.89236893  1
  La  La11  1  0.99687846  0.30261794  0.10763107  1
  La  La12  1  0.19314705  0.90431954  0.72687385  1
  La  La13  1  0.80685295  0.09568046  0.27312615  1
  La  La14  1  0.30685295  0.59568046  0.22687385  1
  La  La15  1  0.69314705  0.40431954  0.77312615  1
  La  La16  1  0.77484793  0.48616680  0.55340181  1
  La  La17  1  0.22515207  0.51383320  0.44659819  1
  La  La18  1  0.72515207  0.01383320  0.05340181  1
  La  La19  1  0.27484793  0.98616680  0.94659819  1
  La  La20  1  0.99229662  0.78925174  0.48072062  1
  La  La21  1  0.00770338  0.21074826  0.51927938  1
  La  La22  1  0.50770338  0.71074826  0.98072062  1
  La  La23  1  0.49229662  0.28925174  0.01927938  1
  La  La24  1  0.75989143  0.57403004  0.34481757  1
  La  La25  1  0.24010857  0.42596996  0.65518243  1
  La  La26  1  0.74010857  0.92596996  0.84481757  1
  La  La27  1  0.25989143  0.07403004  0.15518243  1
  Cr  Cr28  1  0.54663568  0.83537552  0.19697125  1
  Cr  Cr29  1  0.45336432  0.16462448  0.80302875  1
  Cr  Cr30  1  0.95336432  0.66462448  0.69697125  1
  Cr  Cr31  1  0.04663568  0.33537552  0.30302875  1
  Cr  Cr32  1  0.03725300  0.81695661  0.06362984  1
  Cr  Cr33  1  0.96274700  0.18304339  0.93637016  1
  Cr  Cr34  1  0.46274700  0.68304339  0.56362984  1
  Cr  Cr35  1  0.53725300  0.31695661  0.43637016  1
  B  B36  1  0.24990181  0.99903749  0.56952369  1
  B  B37  1  0.75009819  0.00096251  0.43047631  1
  B  B38  1  0.25009819  0.50096251  0.06952369  1
  B  B39  1  0.74990181  0.49903749  0.93047631  1
  O  O40  1  0.47134360  0.91223898  0.13013321  1
  O  O41  1  0.52865640  0.08776102  0.86986679  1
  O  O42  1  0.02865640  0.58776102  0.63013321  1
  O  O43  1  0.97134360  0.41223898  0.36986679  1
  O  O44  1  0.40028149  0.99841966  0.62100539  1
  O  O45  1  0.59971851  0.00158034  0.37899461  1
  O  O46  1  0.09971851  0.50158034  0.12100539  1
  O  O47  1  0.90028149  0.49841966  0.87899461  1
  O  O48  1  0.60759422  0.50786139  0.23110879  1
  O  O49  1  0.39240578  0.49213861  0.76889121  1
  O  O50  1  0.89240578  0.99213861  0.73110879  1
  O  O51  1  0.10759422  0.00786139  0.26889121  1
  O  O52  1  0.80808333  0.75789616  0.36811490  1
  O  O53  1  0.19191667  0.24210384  0.63188510  1
  O  O54  1  0.69191667  0.74210384  0.86811490  1
  O  O55  1  0.30808333  0.25789616  0.13188510  1
  O  O56  1  0.08434458  0.95272176  0.06325892  1
  O  O57  1  0.91565542  0.04727824  0.93674108  1
  O  O58  1  0.41565542  0.54727824  0.56325892  1
  O  O59  1  0.58434458  0.45272176  0.43674108  1
  O  O60  1  0.04412043  0.75091968  0.14261677  1
  O  O61  1  0.95587957  0.24908032  0.85738323  1
  O  O62  1  0.45587957  0.74908032  0.64261677  1
  O  O63  1  0.54412043  0.25091968  0.35738323  1
  O  O64  1  0.08266850  0.88015748  0.85514403  1
  O  O65  1  0.91733150  0.11984252  0.14485597  1
  O  O66  1  0.41733150  0.61984252  0.35514403  1
  O  O67  1  0.58266850  0.38015748  0.64485597  1
  O  O68  1  0.36607305  0.79869827  0.26085239  1
  O  O69  1  0.63392695  0.20130173  0.73914761  1
  O  O70  1  0.13392695  0.70130173  0.76085239  1
  O  O71  1  0.86607305  0.29869827  0.23914761  1
  O  O72  1  0.96053028  0.59544216  0.45730455  1
  O  O73  1  0.03946972  0.40455784  0.54269545  1
  O  O74  1  0.53946972  0.90455784  0.95730455  1
  O  O75  1  0.46053028  0.09544216  0.04269545  1
  O  O76  1  0.18909085  0.77565259  0.99750568  1
  O  O77  1  0.81090915  0.22434741  0.00249432  1
  O  O78  1  0.31090915  0.72434741  0.49750568  1
  O  O79  1  0.68909085  0.27565259  0.50249432  1
  O  O80  1  0.89104937  0.78254609  0.67274107  1
  O  O81  1  0.10895063  0.21745391  0.32725893  1
  O  O82  1  0.60895063  0.71745391  0.17274107  1
  O  O83  1  0.39104937  0.28254609  0.82725893  1
  O  O84  1  0.19535197  0.87513108  0.39031214  1
  O  O85  1  0.80464803  0.12486892  0.60968786  1
  O  O86  1  0.30464803  0.62486892  0.89031214  1
  O  O87  1  0.69535197  0.37513108  0.10968786  1
  O  O88  1  0.80910011  0.79623182  0.03079525  1
  O  O89  1  0.19089989  0.20376818  0.96920475  1
  O  O90  1  0.69089989  0.70376818  0.53079525  1
  O  O91  1  0.30910011  0.29623182  0.46920475  1
  O  O92  1  0.08951979  0.92715317  0.57973762  1
  O  O93  1  0.91048021  0.07284683  0.42026238  1
  O  O94  1  0.41048021  0.57284683  0.07973762  1
  O  O95  1  0.58951979  0.42715317  0.92026238  1
  O  O96  1  0.72780150  0.92225808  0.48317808  1
  O  O97  1  0.27219850  0.07774192  0.51682192  1
  O  O98  1  0.77219850  0.57774192  0.98317808  1
  O  O99  1  0.22780150  0.42225808  0.01682192  1
  O  O100  1  0.99766489  0.62720918  0.25961551  1
  O  O101  1  0.00233511  0.37279082  0.74038449  1
  O  O102  1  0.50233511  0.87279082  0.75961551  1
  O  O103  1  0.49766489  0.12720918  0.24038449  1
  O  O104  1  0.75823617  0.59189392  0.73742070  1
  O  O105  1  0.24176383  0.40810608  0.26257930  1
  O  O106  1  0.74176383  0.90810608  0.23742070  1
  O  O107  1  0.25823617  0.09189392  0.76257930  1
