# generated using pymatgen
data_Nd10Ti9GaO34
_symmetry_space_group_name_H-M   'P 1'
_cell_length_a   5.52184145
_cell_length_b   7.73793861
_cell_length_c   32.00899856
_cell_angle_alpha   97.01768568
_cell_angle_beta   90.00000000
_cell_angle_gamma   90.00000000
_symmetry_Int_Tables_number   1
_chemical_formula_structural   Nd10Ti9GaO34
_chemical_formula_sum   'Nd20 Ti18 Ga2 O68'
_cell_volume   1357.42401526
_cell_formula_units_Z   2
loop_
 _symmetry_equiv_pos_site_id
 _symmetry_equiv_pos_as_xyz
  1  'x, y, z'
loop_
 _atom_site_type_symbol
 _atom_site_label
 _atom_site_symmetry_multiplicity
 _atom_site_fract_x
 _atom_site_fract_y
 _atom_site_fract_z
 _atom_site_occupancy
  Nd  Nd0  1  0.49092613  0.74223830  0.99314529  1
  Nd  Nd1  1  0.50907387  0.25776170  0.00685471  1
  Nd  Nd2  1  0.99092613  0.25776170  0.50685471  1
  Nd  Nd3  1  0.00907387  0.74223830  0.49314529  1
  Nd  Nd4  1  0.48679473  0.78676419  0.58171571  1
  Nd  Nd5  1  0.51320527  0.21323581  0.41828429  1
  Nd  Nd6  1  0.98679473  0.21323581  0.91828429  1
  Nd  Nd7  1  0.01320527  0.78676419  0.08171571  1
  Nd  Nd8  1  0.50084571  0.69930467  0.40334940  1
  Nd  Nd9  1  0.49915429  0.30069533  0.59665060  1
  Nd  Nd10  1  0.00084571  0.30069533  0.09665060  1
  Nd  Nd11  1  0.99915429  0.69930467  0.90334940  1
  Nd  Nd12  1  0.87643069  0.85634322  0.72123372  1
  Nd  Nd13  1  0.12356931  0.14365678  0.27876628  1
  Nd  Nd14  1  0.37643069  0.14365678  0.77876628  1
  Nd  Nd15  1  0.62356931  0.85634322  0.22123372  1
  Nd  Nd16  1  0.42951561  0.64402118  0.79796239  1
  Nd  Nd17  1  0.57048439  0.35597882  0.20203761  1
  Nd  Nd18  1  0.92951561  0.35597882  0.70203761  1
  Nd  Nd19  1  0.07048439  0.64402118  0.29796239  1
  Ti  Ti20  1  0.94583872  0.92176030  0.82383545  1
  Ti  Ti21  1  0.05416128  0.07823970  0.17616455  1
  Ti  Ti22  1  0.44583872  0.07823970  0.67616455  1
  Ti  Ti23  1  0.55416128  0.92176030  0.32383545  1
  Ti  Ti24  1  0.98572504  0.54532170  0.59347602  1
  Ti  Ti25  1  0.01427496  0.45467830  0.40652398  1
  Ti  Ti26  1  0.48572504  0.45467830  0.90652398  1
  Ti  Ti27  1  0.51427496  0.54532170  0.09347602  1
  Ti  Ti28  1  0.93574925  0.40576709  0.82105703  1
  Ti  Ti29  1  0.06425075  0.59423291  0.17894297  1
  Ti  Ti30  1  0.43574925  0.59423291  0.67894297  1
  Ti  Ti31  1  0.56425075  0.40576709  0.32105703  1
  Ti  Ti32  1  -0.00000000  0.00000000  -0.00000000  1
  Ti  Ti33  1  0.50000000  0.00000000  0.50000000  1
  Ti  Ti34  1  0.48393034  0.95185042  0.90720150  1
  Ti  Ti35  1  0.51606966  0.04814958  0.09279850  1
  Ti  Ti36  1  0.98393034  0.04814958  0.59279850  1
  Ti  Ti37  1  0.01606966  0.95185042  0.40720150  1
  Ga  Ga38  1  -0.00000000  0.50000000  -0.00000000  1
  Ga  Ga39  1  0.50000000  0.50000000  0.50000000  1
  O  O40  1  0.80335040  0.41876543  0.88070814  1
  O  O41  1  0.19664960  0.58123457  0.11929186  1
  O  O42  1  0.30335040  0.58123457  0.61929186  1
  O  O43  1  0.69664960  0.41876543  0.38070814  1
  O  O44  1  0.71465747  0.48261123  0.55172005  1
  O  O45  1  0.28534253  0.51738877  0.44827995  1
  O  O46  1  0.21465747  0.51738877  0.94827995  1
  O  O47  1  0.78534253  0.48261123  0.05172005  1
  O  O48  1  0.16510241  0.87175404  0.77861402  1
  O  O49  1  0.83489759  0.12824596  0.22138598  1
  O  O50  1  0.66510241  0.12824596  0.72138598  1
  O  O51  1  0.33489759  0.87175404  0.27861402  1
  O  O52  1  0.91502147  0.75385128  0.00460904  1
  O  O53  1  0.08497853  0.24614872  0.99539096  1
  O  O54  1  0.41502147  0.24614872  0.49539096  1
  O  O55  1  0.58497853  0.75385128  0.50460904  1
  O  O56  1  0.21513851  0.97499078  0.53531547  1
  O  O57  1  0.78486149  0.02500922  0.46468453  1
  O  O58  1  0.71513851  0.02500922  0.96468453  1
  O  O59  1  0.28486149  0.97499078  0.03531547  1
  O  O60  1  0.57565075  0.70989456  0.91930535  1
  O  O61  1  0.42434925  0.29010544  0.08069465  1
  O  O62  1  0.07565075  0.29010544  0.58069465  1
  O  O63  1  0.92434925  0.70989456  0.41930535  1
  O  O64  1  0.67678201  0.91674244  0.78968819  1
  O  O65  1  0.32321799  0.08325756  0.21031181  1
  O  O66  1  0.17678201  0.08325756  0.71031181  1
  O  O67  1  0.82321799  0.91674244  0.28968819  1
  O  O68  1  0.21004469  0.93249171  0.94929045  1
  O  O69  1  0.78995531  0.06750829  0.05070955  1
  O  O70  1  0.71004469  0.06750829  0.55070955  1
  O  O71  1  0.28995531  0.93249171  0.44929045  1
  O  O72  1  0.71578113  0.43788108  0.96440586  1
  O  O73  1  0.28421887  0.56211892  0.03559414  1
  O  O74  1  0.21578113  0.56211892  0.53559414  1
  O  O75  1  0.78421887  0.43788108  0.46440586  1
  O  O76  1  0.54146620  0.83339428  0.67019066  1
  O  O77  1  0.45853380  0.16660572  0.32980934  1
  O  O78  1  0.04146620  0.16660572  0.82980934  1
  O  O79  1  0.95853380  0.83339428  0.17019066  1
  O  O80  1  0.79513231  0.50895773  0.63829910  1
  O  O81  1  0.20486769  0.49104227  0.36170090  1
  O  O82  1  0.29513231  0.49104227  0.86170090  1
  O  O83  1  0.70486769  0.50895773  0.13829910  1
  O  O84  1  0.28937183  0.87286859  0.86276903  1
  O  O85  1  0.71062817  0.12713141  0.13723097  1
  O  O86  1  0.78937183  0.12713141  0.63723097  1
  O  O87  1  0.21062817  0.87286859  0.36276903  1
  O  O88  1  0.92473806  0.79362101  0.58870693  1
  O  O89  1  0.07526194  0.20637899  0.41129307  1
  O  O90  1  0.42473806  0.20637899  0.91129307  1
  O  O91  1  0.57526194  0.79362101  0.08870693  1
  O  O92  1  0.65107797  0.37307818  0.79561823  1
  O  O93  1  0.34892203  0.62692182  0.20438177  1
  O  O94  1  0.15107797  0.62692182  0.70438177  1
  O  O95  1  0.84892203  0.37307818  0.29561823  1
  O  O96  1  0.91014699  0.66355190  0.82863758  1
  O  O97  1  0.08985301  0.33644810  0.17136242  1
  O  O98  1  0.41014699  0.33644810  0.67136242  1
  O  O99  1  0.58985301  0.66355190  0.32863758  1
  O  O100  1  0.64604738  0.59682710  0.72692863  1
  O  O101  1  0.35395262  0.40317290  0.27307137  1
  O  O102  1  0.14604738  0.40317290  0.77307137  1
  O  O103  1  0.85395262  0.59682710  0.22692863  1
  O  O104  1  0.80146042  0.96398181  0.88101325  1
  O  O105  1  0.19853958  0.03601819  0.11898675  1
  O  O106  1  0.30146042  0.03601819  0.61898675  1
  O  O107  1  0.69853958  0.96398181  0.38101325  1
