# generated using pymatgen
data_Hf9BW4
_symmetry_space_group_name_H-M   'P 1'
_cell_length_a   8.54572844
_cell_length_b   8.58545350
_cell_length_c   8.58545350
_cell_angle_alpha   120.00000141
_cell_angle_beta   90.00000000
_cell_angle_gamma   90.00000000
_symmetry_Int_Tables_number   1
_chemical_formula_structural   Hf9BW4
_chemical_formula_sum   'Hf18 B2 W8'
_cell_volume   545.51436910
_cell_formula_units_Z   2
loop_
 _symmetry_equiv_pos_site_id
 _symmetry_equiv_pos_as_xyz
  1  'x, y, z'
loop_
 _atom_site_type_symbol
 _atom_site_label
 _atom_site_symmetry_multiplicity
 _atom_site_fract_x
 _atom_site_fract_y
 _atom_site_fract_z
 _atom_site_occupancy
  Hf  Hf0  1  0.75000000  0.46115789  0.53884211  1
  Hf  Hf1  1  0.25000000  0.53884211  0.46115789  1
  Hf  Hf2  1  0.75000000  0.07768423  0.53884211  1
  Hf  Hf3  1  0.25000000  0.92231577  0.46115789  1
  Hf  Hf4  1  0.75000000  0.46115789  0.92231577  1
  Hf  Hf5  1  0.25000000  0.53884211  0.07768423  1
  Hf  Hf6  1  0.94458743  0.79700648  0.20299352  1
  Hf  Hf7  1  0.05541257  0.20299352  0.79700648  1
  Hf  Hf8  1  0.94458743  0.40598704  0.20299352  1
  Hf  Hf9  1  0.44458743  0.20299352  0.79700648  1
  Hf  Hf10  1  0.05541257  0.59401296  0.79700648  1
  Hf  Hf11  1  0.55541257  0.79700648  0.20299352  1
  Hf  Hf12  1  0.94458743  0.79700648  0.59401296  1
  Hf  Hf13  1  0.44458743  0.59401296  0.79700648  1
  Hf  Hf14  1  0.05541257  0.20299352  0.40598704  1
  Hf  Hf15  1  0.55541257  0.40598704  0.20299352  1
  Hf  Hf16  1  0.44458743  0.20299352  0.40598704  1
  Hf  Hf17  1  0.55541257  0.79700648  0.59401296  1
  B  B18  1  0.75000000  0.66666700  0.33333300  1
  B  B19  1  0.25000000  0.33333300  0.66666700  1
  W  W20  1  0.00000000  -0.00000000  -0.00000000  1
  W  W21  1  0.50000000  -0.00000000  -0.00000000  1
  W  W22  1  0.75000000  0.11145884  0.88854116  1
  W  W23  1  0.25000000  0.88854116  0.11145884  1
  W  W24  1  0.75000000  0.77708232  0.88854116  1
  W  W25  1  0.25000000  0.22291768  0.11145884  1
  W  W26  1  0.75000000  0.11145884  0.22291768  1
  W  W27  1  0.25000000  0.88854116  0.77708232  1
