# generated using pymatgen
data_Ho3Fe2Si3
_symmetry_space_group_name_H-M   'P 1'
_cell_length_a   4.06801179
_cell_length_b   5.62980336
_cell_length_c   13.56199255
_cell_angle_alpha   90.00000000
_cell_angle_beta   90.00000000
_cell_angle_gamma   111.17959585
_symmetry_Int_Tables_number   1
_chemical_formula_structural   Ho3Fe2Si3
_chemical_formula_sum   'Ho6 Fe4 Si6'
_cell_volume   289.61807257
_cell_formula_units_Z   2
loop_
 _symmetry_equiv_pos_site_id
 _symmetry_equiv_pos_as_xyz
  1  'x, y, z'
loop_
 _atom_site_type_symbol
 _atom_site_label
 _atom_site_symmetry_multiplicity
 _atom_site_fract_x
 _atom_site_fract_y
 _atom_site_fract_z
 _atom_site_occupancy
  Ho  Ho0  1  0.36170957  0.72341915  0.25000000  1
  Ho  Ho1  1  0.63829043  0.27658085  0.75000000  1
  Ho  Ho2  1  0.07850267  0.15700534  0.11292917  1
  Ho  Ho3  1  0.92149733  0.84299466  0.88707083  1
  Ho  Ho4  1  0.92149733  0.84299466  0.61292917  1
  Ho  Ho5  1  0.07850267  0.15700534  0.38707083  1
  Fe  Fe6  1  0.21484869  0.42969738  0.58027039  1
  Fe  Fe7  1  0.78515131  0.57030262  0.41972961  1
  Fe  Fe8  1  0.78515131  0.57030262  0.08027039  1
  Fe  Fe9  1  0.21484869  0.42969738  0.91972961  1
  Si  Si10  1  0.67275916  0.34551833  0.25000000  1
  Si  Si11  1  0.32724084  0.65448167  0.75000000  1
  Si  Si12  1  0.37600073  0.75200147  0.03882873  1
  Si  Si13  1  0.62399927  0.24799853  0.96117127  1
  Si  Si14  1  0.62399927  0.24799853  0.53882873  1
  Si  Si15  1  0.37600073  0.75200147  0.46117127  1
