# generated using pymatgen
data_Ba7BrClF12
_symmetry_space_group_name_H-M   'P 1'
_cell_length_a   4.24946111
_cell_length_b   10.80578853
_cell_length_c   10.80578853
_cell_angle_alpha   120.00000016
_cell_angle_beta   90.00000000
_cell_angle_gamma   90.00000000
_symmetry_Int_Tables_number   1
_chemical_formula_structural   Ba7BrClF12
_chemical_formula_sum   'Ba7 Br1 Cl1 F12'
_cell_volume   429.71193685
_cell_formula_units_Z   1
loop_
 _symmetry_equiv_pos_site_id
 _symmetry_equiv_pos_as_xyz
  1  'x, y, z'
loop_
 _atom_site_type_symbol
 _atom_site_label
 _atom_site_symmetry_multiplicity
 _atom_site_fract_x
 _atom_site_fract_y
 _atom_site_fract_z
 _atom_site_occupancy
  Ba  Ba0  1  0.50000000  0.71168204  0.10825678  1
  Ba  Ba1  1  0.50000000  0.39657474  0.28831796  1
  Ba  Ba2  1  0.50000000  0.89174322  0.60342526  1
  Ba  Ba3  1  -0.00000000  -0.00000000  -0.00000000  1
  Ba  Ba4  1  0.00000000  0.58985962  0.69711664  1
  Ba  Ba5  1  -0.00000000  0.10725702  0.41014038  1
  Ba  Ba6  1  0.00000000  0.30288336  0.89274298  1
  Br  Br7  1  -0.00000000  0.66666700  0.33333300  1
  Cl  Cl8  1  0.50000000  0.33333300  0.66666700  1
  F  F9  1  0.50000000  0.95118965  0.38797814  1
  F  F10  1  0.50000000  0.43678848  0.04881035  1
  F  F11  1  0.50000000  0.61202186  0.56321152  1
  F  F12  1  0.50000000  0.78185370  0.89917436  1
  F  F13  1  0.50000000  0.11732066  0.21814630  1
  F  F14  1  0.50000000  0.10082564  0.88267934  1
  F  F15  1  -0.00000000  0.56865243  0.93631974  1
  F  F16  1  -0.00000000  0.36766731  0.43134757  1
  F  F17  1  -0.00000000  0.06368026  0.63233269  1
  F  F18  1  -0.00000000  0.87839685  0.15289096  1
  F  F19  1  -0.00000000  0.27449411  0.12160315  1
  F  F20  1  -0.00000000  0.84710904  0.72550589  1
