# generated using pymatgen
data_Ba2DyV3O11
_symmetry_space_group_name_H-M   'P 1'
_cell_length_a   7.76986729
_cell_length_b   12.43377842
_cell_length_c   11.35715389
_cell_angle_alpha   103.15118039
_cell_angle_beta   90.00000000
_cell_angle_gamma   90.00000000
_symmetry_Int_Tables_number   1
_chemical_formula_structural   Ba2DyV3O11
_chemical_formula_sum   'Ba8 Dy4 V12 O44'
_cell_volume   1068.42493914
_cell_formula_units_Z   4
loop_
 _symmetry_equiv_pos_site_id
 _symmetry_equiv_pos_as_xyz
  1  'x, y, z'
loop_
 _atom_site_type_symbol
 _atom_site_label
 _atom_site_symmetry_multiplicity
 _atom_site_fract_x
 _atom_site_fract_y
 _atom_site_fract_z
 _atom_site_occupancy
  Ba  Ba0  1  0.27323552  0.76993370  0.94228727  1
  Ba  Ba1  1  0.72676448  0.23006630  0.05771273  1
  Ba  Ba2  1  0.77323552  0.23006630  0.55771273  1
  Ba  Ba3  1  0.22676448  0.76993370  0.44228727  1
  Ba  Ba4  1  0.74778313  0.55479210  0.88961726  1
  Ba  Ba5  1  0.25221687  0.44520790  0.11038274  1
  Ba  Ba6  1  0.24778313  0.44520790  0.61038274  1
  Ba  Ba7  1  0.75221687  0.55479210  0.38961726  1
  Dy  Dy8  1  0.49888455  0.99795127  0.71985425  1
  Dy  Dy9  1  0.50111545  0.00204873  0.28014575  1
  Dy  Dy10  1  0.99888455  0.00204873  0.78014575  1
  Dy  Dy11  1  0.00111545  0.99795127  0.21985425  1
  V  V12  1  0.75380735  0.90589376  0.97601276  1
  V  V13  1  0.24619265  0.09410624  0.02398724  1
  V  V14  1  0.25380735  0.09410624  0.52398724  1
  V  V15  1  0.74619265  0.90589376  0.47601276  1
  V  V16  1  0.51869684  0.68482496  0.67369802  1
  V  V17  1  0.48130316  0.31517504  0.32630198  1
  V  V18  1  0.01869684  0.31517504  0.82630198  1
  V  V19  1  0.98130316  0.68482496  0.17369802  1
  V  V20  1  0.98190671  0.68833000  0.67116365  1
  V  V21  1  0.01809329  0.31167000  0.32883635  1
  V  V22  1  0.48190671  0.31167000  0.82883635  1
  V  V23  1  0.51809329  0.68833000  0.17116365  1
  O  O24  1  0.44485145  0.81964491  0.71796186  1
  O  O25  1  0.55514855  0.18035509  0.28203814  1
  O  O26  1  0.94485145  0.18035509  0.78203814  1
  O  O27  1  0.05514855  0.81964491  0.21796186  1
  O  O28  1  0.55011991  0.17591558  0.80600503  1
  O  O29  1  0.44988009  0.82408442  0.19399497  1
  O  O30  1  0.05011991  0.82408442  0.69399497  1
  O  O31  1  0.94988009  0.17591558  0.30600503  1
  O  O32  1  0.75045643  0.66576994  0.66729300  1
  O  O33  1  0.24954357  0.33423006  0.33270700  1
  O  O34  1  0.25045643  0.33423006  0.83270700  1
  O  O35  1  0.74954357  0.66576994  0.16729300  1
  O  O36  1  0.94392382  0.37526448  0.96635694  1
  O  O37  1  0.05607618  0.62473552  0.03364306  1
  O  O38  1  0.44392382  0.62473552  0.53364306  1
  O  O39  1  0.55607618  0.37526448  0.46635694  1
  O  O40  1  0.94001598  0.39151987  0.73089636  1
  O  O41  1  0.05998402  0.60848013  0.26910364  1
  O  O42  1  0.44001598  0.60848013  0.76910364  1
  O  O43  1  0.55998402  0.39151987  0.23089636  1
  O  O44  1  0.78383990  0.98709929  0.62501188  1
  O  O45  1  0.21616010  0.01290071  0.37498812  1
  O  O46  1  0.28383990  0.01290071  0.87498812  1
  O  O47  1  0.71616010  0.98709929  0.12501188  1
  O  O48  1  0.97192991  0.88191938  0.97323360  1
  O  O49  1  0.02807009  0.11808062  0.02676640  1
  O  O50  1  0.47192991  0.11808062  0.52676640  1
  O  O51  1  0.52807009  0.88191938  0.47323360  1
  O  O52  1  0.63926452  0.78627022  0.94657549  1
  O  O53  1  0.36073548  0.21372978  0.05342451  1
  O  O54  1  0.13926452  0.21372978  0.55342451  1
  O  O55  1  0.86073548  0.78627022  0.44657549  1
  O  O56  1  0.72009638  0.98358597  0.86315625  1
  O  O57  1  0.27990362  0.01641403  0.13684375  1
  O  O58  1  0.22009638  0.01641403  0.63684375  1
  O  O59  1  0.77990362  0.98358597  0.36315625  1
  O  O60  1  0.55957631  0.37030667  0.71860507  1
  O  O61  1  0.44042369  0.62969333  0.28139493  1
  O  O62  1  0.05957631  0.62969333  0.78139493  1
  O  O63  1  0.94042369  0.37030667  0.21860507  1
  O  O64  1  0.56393532  0.38683546  0.96168131  1
  O  O65  1  0.43606468  0.61316454  0.03831869  1
  O  O66  1  0.06393532  0.61316454  0.53831869  1
  O  O67  1  0.93606468  0.38683546  0.46168131  1
