# generated using pymatgen
data_AlZn2Sb(HO)12
_symmetry_space_group_name_H-M   'P 1'
_cell_length_a   5.45499296
_cell_length_b   5.45499295
_cell_length_c   9.90130565
_cell_angle_alpha   90.00000000
_cell_angle_beta   90.00000000
_cell_angle_gamma   119.99999895
_symmetry_Int_Tables_number   1
_chemical_formula_structural   AlZn2Sb(HO)12
_chemical_formula_sum   'Al1 Zn2 Sb1 H12 O12'
_cell_volume   255.15935247
_cell_formula_units_Z   1
loop_
 _symmetry_equiv_pos_site_id
 _symmetry_equiv_pos_as_xyz
  1  'x, y, z'
loop_
 _atom_site_type_symbol
 _atom_site_label
 _atom_site_symmetry_multiplicity
 _atom_site_fract_x
 _atom_site_fract_y
 _atom_site_fract_z
 _atom_site_occupancy
  Al  Al0  1  0.00000000  -0.00000000  -0.00000000  1
  Zn  Zn1  1  0.66666700  0.33333300  0.99395489  1
  Zn  Zn2  1  0.33333300  0.66666700  0.00604511  1
  Sb  Sb3  1  0.00000000  -0.00000000  0.50000000  1
  H  H4  1  0.54116479  0.87109511  0.61137501  1
  H  H5  1  0.45883521  0.12890489  0.38862499  1
  H  H6  1  0.32993032  0.45883521  0.61137501  1
  H  H7  1  0.67006968  0.54116479  0.38862499  1
  H  H8  1  0.12890489  0.67006968  0.61137501  1
  H  H9  1  0.87109511  0.32993032  0.38862499  1
  H  H10  1  0.69160087  0.71468337  0.80030320  1
  H  H11  1  0.30839913  0.28531663  0.19969680  1
  H  H12  1  0.02308250  0.30839913  0.80030320  1
  H  H13  1  0.97691750  0.69160087  0.19969680  1
  H  H14  1  0.28531663  0.97691750  0.80030320  1
  H  H15  1  0.71468337  0.02308250  0.19969680  1
  O  O16  1  0.69535223  0.69757767  0.89905995  1
  O  O17  1  0.30464777  0.30242233  0.10094005  1
  O  O18  1  0.00222545  0.30464777  0.89905995  1
  O  O19  1  0.99777455  0.69535223  0.10094005  1
  O  O20  1  0.30242233  0.99777455  0.89905995  1
  O  O21  1  0.69757767  0.00222545  0.10094005  1
  O  O22  1  0.65989082  0.78072323  0.61890337  1
  O  O23  1  0.34010918  0.21927677  0.38109663  1
  O  O24  1  0.12083242  0.34010918  0.61890337  1
  O  O25  1  0.87916758  0.65989082  0.38109663  1
  O  O26  1  0.21927677  0.87916758  0.61890337  1
  O  O27  1  0.78072323  0.12083242  0.38109663  1
