# generated using pymatgen
data_Ba2HoV3O11
_symmetry_space_group_name_H-M   'P 1'
_cell_length_a   7.76557471
_cell_length_b   12.44911957
_cell_length_c   11.34945530
_cell_angle_alpha   103.24224754
_cell_angle_beta   90.00000000
_cell_angle_gamma   90.00000000
_symmetry_Int_Tables_number   1
_chemical_formula_structural   Ba2HoV3O11
_chemical_formula_sum   'Ba8 Ho4 V12 O44'
_cell_volume   1068.02933079
_cell_formula_units_Z   4
loop_
 _symmetry_equiv_pos_site_id
 _symmetry_equiv_pos_as_xyz
  1  'x, y, z'
loop_
 _atom_site_type_symbol
 _atom_site_label
 _atom_site_symmetry_multiplicity
 _atom_site_fract_x
 _atom_site_fract_y
 _atom_site_fract_z
 _atom_site_occupancy
  Ba  Ba0  1  0.27469907  0.77198505  0.94286894  1
  Ba  Ba1  1  0.72530093  0.22801495  0.05713106  1
  Ba  Ba2  1  0.77469907  0.22801495  0.55713106  1
  Ba  Ba3  1  0.22530093  0.77198505  0.44286894  1
  Ba  Ba4  1  0.74764189  0.55446866  0.88945122  1
  Ba  Ba5  1  0.25235811  0.44553134  0.11054878  1
  Ba  Ba6  1  0.24764189  0.44553134  0.61054878  1
  Ba  Ba7  1  0.75235811  0.55446866  0.38945122  1
  Ho  Ho8  1  0.49983622  0.99761468  0.71940888  1
  Ho  Ho9  1  0.50016378  0.00238532  0.28059112  1
  Ho  Ho10  1  0.99983622  0.00238532  0.78059112  1
  Ho  Ho11  1  0.00016378  0.99761468  0.21940888  1
  V  V12  1  0.75547257  0.90731804  0.97672425  1
  V  V13  1  0.24452743  0.09268196  0.02327575  1
  V  V14  1  0.25547257  0.09268196  0.52327575  1
  V  V15  1  0.74452743  0.90731804  0.47672425  1
  V  V16  1  0.51899660  0.68551500  0.67344872  1
  V  V17  1  0.48100340  0.31448500  0.32655128  1
  V  V18  1  0.01899660  0.31448500  0.82655128  1
  V  V19  1  0.98100340  0.68551500  0.17344872  1
  V  V20  1  0.98151600  0.68925115  0.67203874  1
  V  V21  1  0.01848400  0.31074885  0.32796126  1
  V  V22  1  0.48151600  0.31074885  0.82796126  1
  V  V23  1  0.51848400  0.68925115  0.17203874  1
  O  O24  1  0.44602197  0.82085625  0.71729528  1
  O  O25  1  0.55397803  0.17914375  0.28270472  1
  O  O26  1  0.94602197  0.17914375  0.78270472  1
  O  O27  1  0.05397803  0.82085625  0.21729528  1
  O  O28  1  0.54922837  0.17451784  0.80444192  1
  O  O29  1  0.45077163  0.82548216  0.19555808  1
  O  O30  1  0.04922837  0.82548216  0.69555808  1
  O  O31  1  0.95077163  0.17451784  0.30444192  1
  O  O32  1  0.75046974  0.66559909  0.66725243  1
  O  O33  1  0.24953026  0.33440091  0.33274757  1
  O  O34  1  0.25046974  0.33440091  0.83274757  1
  O  O35  1  0.74953026  0.66559909  0.16725243  1
  O  O36  1  0.94438139  0.37467000  0.96660264  1
  O  O37  1  0.05561861  0.62533000  0.03339736  1
  O  O38  1  0.44438139  0.62533000  0.53339736  1
  O  O39  1  0.55561861  0.37467000  0.46660264  1
  O  O40  1  0.93964094  0.39002273  0.73064099  1
  O  O41  1  0.06035906  0.60997727  0.26935901  1
  O  O42  1  0.43964094  0.60997727  0.76935901  1
  O  O43  1  0.56035906  0.39002273  0.23064099  1
  O  O44  1  0.78369192  0.98753537  0.62632602  1
  O  O45  1  0.21630808  0.01246463  0.37367398  1
  O  O46  1  0.28369192  0.01246463  0.87367398  1
  O  O47  1  0.71630808  0.98753537  0.12632602  1
  O  O48  1  0.97381052  0.88407536  0.97470400  1
  O  O49  1  0.02618948  0.11592464  0.02529600  1
  O  O50  1  0.47381052  0.11592464  0.52529600  1
  O  O51  1  0.52618948  0.88407536  0.47470400  1
  O  O52  1  0.64232030  0.78704032  0.94656822  1
  O  O53  1  0.35767970  0.21295968  0.05343178  1
  O  O54  1  0.14232030  0.21295968  0.55343178  1
  O  O55  1  0.85767970  0.78704032  0.44656822  1
  O  O56  1  0.72034402  0.98384355  0.86311103  1
  O  O57  1  0.27965598  0.01615645  0.13688897  1
  O  O58  1  0.22034402  0.01615645  0.63688897  1
  O  O59  1  0.77965598  0.98384355  0.36311103  1
  O  O60  1  0.55880724  0.36949573  0.71793969  1
  O  O61  1  0.44119276  0.63050427  0.28206031  1
  O  O62  1  0.05880724  0.63050427  0.78206031  1
  O  O63  1  0.94119276  0.36949573  0.21793969  1
  O  O64  1  0.56369519  0.38547691  0.96113283  1
  O  O65  1  0.43630481  0.61452309  0.03886717  1
  O  O66  1  0.06369519  0.61452309  0.53886717  1
  O  O67  1  0.93630481  0.38547691  0.46113283  1
