# generated using pymatgen
data_Ca2CrFeO5
_symmetry_space_group_name_H-M   'P 1'
_cell_length_a   5.49698896
_cell_length_b   5.68900060
_cell_length_c   14.68715585
_cell_angle_alpha   90.00000000
_cell_angle_beta   90.00000000
_cell_angle_gamma   90.00000000
_symmetry_Int_Tables_number   1
_chemical_formula_structural   Ca2CrFeO5
_chemical_formula_sum   'Ca8 Cr4 Fe4 O20'
_cell_volume   459.30222327
_cell_formula_units_Z   4
loop_
 _symmetry_equiv_pos_site_id
 _symmetry_equiv_pos_as_xyz
  1  'x, y, z'
loop_
 _atom_site_type_symbol
 _atom_site_label
 _atom_site_symmetry_multiplicity
 _atom_site_fract_x
 _atom_site_fract_y
 _atom_site_fract_z
 _atom_site_occupancy
  Ca  Ca0  1  0.97826588  0.47499224  0.89329037  1
  Ca  Ca1  1  0.02173412  0.52500776  0.10670963  1
  Ca  Ca2  1  0.52173412  0.97499224  0.10670963  1
  Ca  Ca3  1  0.02173412  0.52500776  0.39329037  1
  Ca  Ca4  1  0.47826588  0.02500776  0.89329037  1
  Ca  Ca5  1  0.97826588  0.47499224  0.60670963  1
  Ca  Ca6  1  0.47826588  0.02500776  0.60670963  1
  Ca  Ca7  1  0.52173412  0.97499224  0.39329037  1
  Cr  Cr8  1  0.00000000  -0.00000000  -0.00000000  1
  Cr  Cr9  1  0.50000000  0.50000000  -0.00000000  1
  Cr  Cr10  1  0.00000000  -0.00000000  0.50000000  1
  Cr  Cr11  1  0.50000000  0.50000000  0.50000000  1
  Fe  Fe12  1  0.94578318  0.93093876  0.75000000  1
  Fe  Fe13  1  0.05421682  0.06906124  0.25000000  1
  Fe  Fe14  1  0.55421682  0.43093876  0.25000000  1
  Fe  Fe15  1  0.44578318  0.56906124  0.75000000  1
  O  O16  1  0.97214028  0.92473421  0.36046512  1
  O  O17  1  0.02785972  0.07526579  0.63953488  1
  O  O18  1  0.52785972  0.42473421  0.63953488  1
  O  O19  1  0.02785972  0.07526579  0.86046512  1
  O  O20  1  0.47214028  0.57526579  0.36046512  1
  O  O21  1  0.97214028  0.92473421  0.13953488  1
  O  O22  1  0.47214028  0.57526579  0.13953488  1
  O  O23  1  0.52785972  0.42473421  0.86046512  1
  O  O24  1  0.73482250  0.76504013  0.98101837  1
  O  O25  1  0.26517750  0.23495987  0.01898163  1
  O  O26  1  0.76517750  0.26504013  0.01898163  1
  O  O27  1  0.26517750  0.23495987  0.48101837  1
  O  O28  1  0.23482250  0.73495987  0.98101837  1
  O  O29  1  0.73482250  0.76504013  0.51898163  1
  O  O30  1  0.23482250  0.73495987  0.51898163  1
  O  O31  1  0.76517750  0.26504013  0.48101837  1
  O  O32  1  0.59216537  0.88013686  0.75000000  1
  O  O33  1  0.40783463  0.11986314  0.25000000  1
  O  O34  1  0.90783463  0.38013686  0.25000000  1
  O  O35  1  0.09216537  0.61986314  0.75000000  1
