# generated using pymatgen
data_Ba4Ga3Ge20
_symmetry_space_group_name_H-M   'P 1'
_cell_length_a   11.04858372
_cell_length_b   11.04858372
_cell_length_c   11.04858372
_cell_angle_alpha   90.00000000
_cell_angle_beta   90.00000000
_cell_angle_gamma   90.00000000
_symmetry_Int_Tables_number   1
_chemical_formula_structural   Ba4Ga3Ge20
_chemical_formula_sum   'Ba8 Ga6 Ge40'
_cell_volume   1348.71389750
_cell_formula_units_Z   2
loop_
 _symmetry_equiv_pos_site_id
 _symmetry_equiv_pos_as_xyz
  1  'x, y, z'
loop_
 _atom_site_type_symbol
 _atom_site_label
 _atom_site_symmetry_multiplicity
 _atom_site_fract_x
 _atom_site_fract_y
 _atom_site_fract_z
 _atom_site_occupancy
  Ba  Ba0  1  0.25000000  -0.00000000  0.50000000  1
  Ba  Ba1  1  0.75000000  -0.00000000  0.50000000  1
  Ba  Ba2  1  0.50000000  0.25000000  0.00000000  1
  Ba  Ba3  1  0.50000000  0.75000000  0.00000000  1
  Ba  Ba4  1  -0.00000000  0.50000000  0.25000000  1
  Ba  Ba5  1  -0.00000000  0.50000000  0.75000000  1
  Ba  Ba6  1  0.00000000  -0.00000000  0.00000000  1
  Ba  Ba7  1  0.50000000  0.50000000  0.50000000  1
  Ga  Ga8  1  0.25000000  0.50000000  0.00000000  1
  Ga  Ga9  1  0.75000000  0.50000000  0.00000000  1
  Ga  Ga10  1  -0.00000000  0.25000000  0.50000000  1
  Ga  Ga11  1  -0.00000000  0.75000000  0.50000000  1
  Ga  Ga12  1  0.50000000  -0.00000000  0.25000000  1
  Ga  Ga13  1  0.50000000  -0.00000000  0.75000000  1
  Ge  Ge14  1  0.00000000  0.11861497  0.30861844  1
  Ge  Ge15  1  -0.00000000  0.88138503  0.69138156  1
  Ge  Ge16  1  0.00000000  0.88138503  0.30861844  1
  Ge  Ge17  1  0.00000000  0.11861497  0.69138156  1
  Ge  Ge18  1  0.30861844  -0.00000000  0.11861497  1
  Ge  Ge19  1  0.61861497  0.50000000  0.19138156  1
  Ge  Ge20  1  0.69138156  -0.00000000  0.88138503  1
  Ge  Ge21  1  0.38138503  0.50000000  0.80861844  1
  Ge  Ge22  1  0.30861844  -0.00000000  0.88138503  1
  Ge  Ge23  1  0.38138503  0.50000000  0.19138156  1
  Ge  Ge24  1  0.69138156  -0.00000000  0.11861497  1
  Ge  Ge25  1  0.61861497  0.50000000  0.80861844  1
  Ge  Ge26  1  0.11861497  0.30861844  0.00000000  1
  Ge  Ge27  1  0.50000000  0.80861844  0.38138503  1
  Ge  Ge28  1  0.88138503  0.69138156  0.00000000  1
  Ge  Ge29  1  0.50000000  0.19138156  0.61861497  1
  Ge  Ge30  1  0.11861497  0.69138156  0.00000000  1
  Ge  Ge31  1  0.50000000  0.19138156  0.38138503  1
  Ge  Ge32  1  0.88138503  0.30861844  0.00000000  1
  Ge  Ge33  1  0.50000000  0.80861844  0.61861497  1
  Ge  Ge34  1  0.19138156  0.61861497  0.50000000  1
  Ge  Ge35  1  0.80861844  0.38138503  0.50000000  1
  Ge  Ge36  1  0.19138156  0.38138503  0.50000000  1
  Ge  Ge37  1  0.80861844  0.61861497  0.50000000  1
  Ge  Ge38  1  0.18456116  0.18456116  0.18456116  1
  Ge  Ge39  1  0.81543884  0.81543884  0.81543884  1
  Ge  Ge40  1  0.81543884  0.81543884  0.18456116  1
  Ge  Ge41  1  0.81543884  0.18456116  0.81543884  1
  Ge  Ge42  1  0.68456116  0.68456116  0.31543884  1
  Ge  Ge43  1  0.18456116  0.18456116  0.81543884  1
  Ge  Ge44  1  0.18456116  0.81543884  0.18456116  1
  Ge  Ge45  1  0.31543884  0.31543884  0.68456116  1
  Ge  Ge46  1  0.18456116  0.81543884  0.81543884  1
  Ge  Ge47  1  0.31543884  0.31543884  0.31543884  1
  Ge  Ge48  1  0.81543884  0.18456116  0.18456116  1
  Ge  Ge49  1  0.68456116  0.68456116  0.68456116  1
  Ge  Ge50  1  0.68456116  0.31543884  0.68456116  1
  Ge  Ge51  1  0.31543884  0.68456116  0.31543884  1
  Ge  Ge52  1  0.31543884  0.68456116  0.68456116  1
  Ge  Ge53  1  0.68456116  0.31543884  0.31543884  1
