# generated using pymatgen
data_CaAlFe3O7
_symmetry_space_group_name_H-M   'P 1'
_cell_length_a   10.52416931
_cell_length_b   10.71186523
_cell_length_c   11.97805353
_cell_angle_alpha   94.08842253
_cell_angle_beta   111.22119334
_cell_angle_gamma   110.36765411
_symmetry_Int_Tables_number   1
_chemical_formula_structural   CaAlFe3O7
_chemical_formula_sum   'Ca8 Al8 Fe24 O56'
_cell_volume   1149.60192550
_cell_formula_units_Z   8
loop_
 _symmetry_equiv_pos_site_id
 _symmetry_equiv_pos_as_xyz
  1  'x, y, z'
loop_
 _atom_site_type_symbol
 _atom_site_label
 _atom_site_symmetry_multiplicity
 _atom_site_fract_x
 _atom_site_fract_y
 _atom_site_fract_z
 _atom_site_occupancy
  Ca  Ca0  1  0.04549780  0.40049968  0.08457569  1
  Ca  Ca1  1  0.95450220  0.59950032  0.91542431  1
  Ca  Ca2  1  0.59409462  0.15345562  0.16970081  1
  Ca  Ca3  1  0.40590538  0.84654438  0.83029919  1
  Ca  Ca4  1  0.02754615  0.88735654  0.07923843  1
  Ca  Ca5  1  0.97245385  0.11264346  0.92076157  1
  Ca  Ca6  1  0.57891639  0.68138667  0.16713965  1
  Ca  Ca7  1  0.42108361  0.31861333  0.83286035  1
  Al  Al8  1  0.25216374  0.02469730  0.92408204  1
  Al  Al9  1  0.74783626  0.97530270  0.07591796  1
  Al  Al10  1  0.32973346  0.80875668  0.07340173  1
  Al  Al11  1  0.67026654  0.19124332  0.92659827  1
  Al  Al12  1  0.74120755  0.48048994  0.08201802  1
  Al  Al13  1  0.25879245  0.51951006  0.91798198  1
  Al  Al14  1  0.33987303  0.31678187  0.08641376  1
  Al  Al15  1  0.66012697  0.68321813  0.91358624  1
  Fe  Fe16  1  0.67340071  0.46202564  0.34614943  1
  Fe  Fe17  1  0.32659929  0.53797436  0.65385057  1
  Fe  Fe18  1  0.12319142  0.67923489  0.22757475  1
  Fe  Fe19  1  0.87680858  0.32076511  0.77242525  1
  Fe  Fe20  1  0.87305104  0.02089285  0.36509195  1
  Fe  Fe21  1  0.12694896  0.97910715  0.63490805  1
  Fe  Fe22  1  0.50850579  0.08948655  0.63667647  1
  Fe  Fe23  1  0.49149421  0.91051345  0.36332353  1
  Fe  Fe24  1  0.99719450  0.40692934  0.36962900  1
  Fe  Fe25  1  0.00280550  0.59307066  0.63037100  1
  Fe  Fe26  1  0.06956982  0.28740238  0.64481602  1
  Fe  Fe27  1  0.93043018  0.71259762  0.35518398  1
  Fe  Fe28  1  0.42370476  0.21420947  0.35291522  1
  Fe  Fe29  1  0.57629524  0.78579053  0.64708478  1
  Fe  Fe30  1  0.10449250  0.18657294  0.22799352  1
  Fe  Fe31  1  0.89550750  0.81342706  0.77200648  1
  Fe  Fe32  1  0.25703174  0.25569272  0.51308803  1
  Fe  Fe33  1  0.74296826  0.74430728  0.48691197  1
  Fe  Fe34  1  0.81307980  0.03139960  0.62843224  1
  Fe  Fe35  1  0.18692020  0.96860040  0.37156776  1
  Fe  Fe36  1  0.74322780  0.24925208  0.48706272  1
  Fe  Fe37  1  0.25677220  0.75074792  0.51293728  1
  Fe  Fe38  1  0.37303017  0.52874897  0.37043346  1
  Fe  Fe39  1  0.62696983  0.47125103  0.62956654  1
  O  O40  1  0.37525553  0.47603577  0.04495799  1
  O  O41  1  0.62474447  0.52396423  0.95504201  1
  O  O42  1  0.17048707  0.26336549  0.10328504  1
  O  O43  1  0.82951293  0.73663451  0.89671496  1
  O  O44  1  0.23975921  0.56763885  0.24506964  1
  O  O45  1  0.76024079  0.43236115  0.75493036  1
  O  O46  1  0.18798718  0.17381729  0.63807796  1
  O  O47  1  0.81201282  0.82618271  0.36192204  1
  O  O48  1  0.30807363  0.33099751  0.37404215  1
  O  O49  1  0.69192637  0.66900249  0.62595785  1
  O  O50  1  0.79264223  0.34143638  0.35821030  1
  O  O51  1  0.20735777  0.65856362  0.64178970  1
  O  O52  1  0.62068974  0.36690684  0.48103889  1
  O  O53  1  0.37931026  0.63309316  0.51896111  1
  O  O54  1  0.69896472  0.15660854  0.62446439  1
  O  O55  1  0.30103528  0.84339146  0.37553561  1
  O  O56  1  0.13970971  0.37663622  0.51828163  1
  O  O57  1  0.86029029  0.62336378  0.48171837  1
  O  O58  1  0.74391807  0.03119292  0.21747328  1
  O  O59  1  0.25608193  0.96880708  0.78252672  1
  O  O60  1  0.31686688  0.20339168  0.95961257  1
  O  O61  1  0.68313312  0.79660832  0.04038743  1
  O  O62  1  0.06525446  0.60617369  0.37374724  1
  O  O63  1  0.93474554  0.39382631  0.62625276  1
  O  O64  1  0.36956411  0.13191201  0.50029346  1
  O  O65  1  0.63043589  0.86808799  0.49970654  1
  O  O66  1  0.54987562  0.10420462  0.35944494  1
  O  O67  1  0.45012438  0.89579538  0.64055506  1
  O  O68  1  0.07198652  0.45717207  0.90170455  1
  O  O69  1  0.92801348  0.54282793  0.09829545  1
  O  O70  1  0.48210541  0.30925170  0.22526530  1
  O  O71  1  0.51789459  0.69074830  0.77473470  1
  O  O72  1  0.37051372  0.97022174  0.03601010  1
  O  O73  1  0.62948628  0.02977826  0.96398990  1
  O  O74  1  0.86838334  0.13210571  0.49967556  1
  O  O75  1  0.13161666  0.86789429  0.50032444  1
  O  O76  1  0.93210987  0.04521603  0.09024449  1
  O  O77  1  0.06789013  0.95478397  0.90975551  1
  O  O78  1  0.23010835  0.06773766  0.24637786  1
  O  O79  1  0.76989165  0.93226234  0.75362214  1
  O  O80  1  0.00099874  0.30583551  0.24172062  1
  O  O81  1  0.99900126  0.69416449  0.75827938  1
  O  O82  1  0.43467876  0.41248345  0.64118504  1
  O  O83  1  0.56532124  0.58751655  0.35881496  1
  O  O84  1  0.01707537  0.80518413  0.24904931  1
  O  O85  1  0.98292463  0.19481587  0.75095069  1
  O  O86  1  0.07473466  0.09503452  0.37503525  1
  O  O87  1  0.92526534  0.90496548  0.62496475  1
  O  O88  1  0.25799669  0.44505302  0.77568166  1
  O  O89  1  0.74200331  0.55494698  0.22431834  1
  O  O90  1  0.66171334  0.29896632  0.04185852  1
  O  O91  1  0.33828666  0.70103368  0.95814148  1
  O  O92  1  0.53036169  0.18044272  0.78326347  1
  O  O93  1  0.46963831  0.81955728  0.21673653  1
  O  O94  1  0.16009039  0.75260058  0.08970443  1
  O  O95  1  0.83990961  0.24739942  0.91029557  1
