# generated using pymatgen
data_Zn(GaS2)2
_symmetry_space_group_name_H-M   'P 1'
_cell_length_a   5.99270035
_cell_length_b   7.33133058
_cell_length_c   12.49505027
_cell_angle_alpha   90.00000000
_cell_angle_beta   90.00000000
_cell_angle_gamma   90.00000000
_symmetry_Int_Tables_number   1
_chemical_formula_structural   Zn(GaS2)2
_chemical_formula_sum   'Zn4 Ga8 S16'
_cell_volume   548.96337791
_cell_formula_units_Z   4
loop_
 _symmetry_equiv_pos_site_id
 _symmetry_equiv_pos_as_xyz
  1  'x, y, z'
loop_
 _atom_site_type_symbol
 _atom_site_label
 _atom_site_symmetry_multiplicity
 _atom_site_fract_x
 _atom_site_fract_y
 _atom_site_fract_z
 _atom_site_occupancy
  Zn  Zn0  1  0.49537841  0.75000000  0.23324320  1
  Zn  Zn1  1  0.00462159  0.75000000  0.73324320  1
  Zn  Zn2  1  0.50462159  0.25000000  0.76675680  1
  Zn  Zn3  1  0.99537841  0.25000000  0.26675680  1
  Ga  Ga4  1  0.91648828  0.75000000  0.41382613  1
  Ga  Ga5  1  0.58351172  0.75000000  0.91382613  1
  Ga  Ga6  1  0.08351172  0.25000000  0.58617387  1
  Ga  Ga7  1  0.41648828  0.25000000  0.08617387  1
  Ga  Ga8  1  0.50000000  -0.00000000  0.50000000  1
  Ga  Ga9  1  -0.00000000  0.50000000  0.00000000  1
  Ga  Ga10  1  0.50000000  0.50000000  0.50000000  1
  Ga  Ga11  1  0.00000000  -0.00000000  0.00000000  1
  S  S12  1  0.29366301  0.75000000  0.41002853  1
  S  S13  1  0.20633699  0.75000000  0.91002853  1
  S  S14  1  0.70633699  0.25000000  0.58997147  1
  S  S15  1  0.79366301  0.25000000  0.08997147  1
  S  S16  1  0.76171520  0.75000000  0.07776394  1
  S  S17  1  0.73828480  0.75000000  0.57776394  1
  S  S18  1  0.23828480  0.25000000  0.92223606  1
  S  S19  1  0.26171520  0.25000000  0.42223606  1
  S  S20  1  0.74083033  0.99567806  0.33794154  1
  S  S21  1  0.75916967  0.50432194  0.83794154  1
  S  S22  1  0.25916967  0.49567806  0.66205846  1
  S  S23  1  0.24083033  0.00432194  0.16205846  1
  S  S24  1  0.25916967  0.00432194  0.66205846  1
  S  S25  1  0.24083033  0.49567806  0.16205846  1
  S  S26  1  0.74083033  0.50432194  0.33794154  1
  S  S27  1  0.75916967  0.99567806  0.83794154  1
