# generated using pymatgen
data_ZrCrCo
_symmetry_space_group_name_H-M   'P 1'
_cell_length_a   4.87249747
_cell_length_b   4.99992796
_cell_length_c   8.31224893
_cell_angle_alpha   90.00000000
_cell_angle_beta   90.00000000
_cell_angle_gamma   120.84104452
_symmetry_Int_Tables_number   1
_chemical_formula_structural   ZrCrCo
_chemical_formula_sum   'Zr4 Cr4 Co4'
_cell_volume   173.86861161
_cell_formula_units_Z   4
loop_
 _symmetry_equiv_pos_site_id
 _symmetry_equiv_pos_as_xyz
  1  'x, y, z'
loop_
 _atom_site_type_symbol
 _atom_site_label
 _atom_site_symmetry_multiplicity
 _atom_site_fract_x
 _atom_site_fract_y
 _atom_site_fract_z
 _atom_site_occupancy
  Zr  Zr0  1  0.66032618  0.33012327  0.56642486  1
  Zr  Zr1  1  0.32848030  0.66435368  0.43935636  1
  Zr  Zr2  1  0.32848030  0.66435368  0.06064364  1
  Zr  Zr3  1  0.66032618  0.33012327  0.93357514  1
  Cr  Cr4  1  0.68207503  0.84099782  0.75000000  1
  Cr  Cr5  1  0.82779131  0.66184561  0.25000000  1
  Cr  Cr6  1  0.82780625  0.16595994  0.25000000  1
  Cr  Cr7  1  0.34033730  0.17017899  0.25000000  1
  Co  Co8  1  0.98805322  0.99397408  0.50661984  1
  Co  Co9  1  0.98805322  0.99397408  0.99338016  1
  Co  Co10  1  0.18415011  0.34544983  0.75000000  1
  Co  Co11  1  0.18412062  0.83866575  0.75000000  1
