# generated using pymatgen
data_CoCuH28(SO11)2
_symmetry_space_group_name_H-M   'P 1'
_cell_length_a   6.51069976
_cell_length_b   14.12972392
_cell_length_c   10.94427999
_cell_angle_alpha   105.04144345
_cell_angle_beta   90.00000000
_cell_angle_gamma   90.00000000
_symmetry_Int_Tables_number   1
_chemical_formula_structural   CoCuH28(SO11)2
_chemical_formula_sum   'Co2 Cu2 H56 S4 O44'
_cell_volume   972.31732381
_cell_formula_units_Z   2
loop_
 _symmetry_equiv_pos_site_id
 _symmetry_equiv_pos_as_xyz
  1  'x, y, z'
loop_
 _atom_site_type_symbol
 _atom_site_label
 _atom_site_symmetry_multiplicity
 _atom_site_fract_x
 _atom_site_fract_y
 _atom_site_fract_z
 _atom_site_occupancy
  Co  Co0  1  -0.00000000  0.50000000  0.00000000  1
  Co  Co1  1  0.50000000  0.50000000  0.50000000  1
  Cu  Cu2  1  -0.00000000  0.00000000  0.50000000  1
  Cu  Cu3  1  0.50000000  0.00000000  0.00000000  1
  H  H4  1  0.37392469  0.58819879  0.96858528  1
  H  H5  1  0.62607531  0.41180121  0.03141472  1
  H  H6  1  0.87392469  0.41180121  0.53141472  1
  H  H7  1  0.12607531  0.58819879  0.46858528  1
  H  H8  1  0.48667096  0.92087091  0.18727460  1
  H  H9  1  0.51332904  0.07912909  0.81272540  1
  H  H10  1  0.98667096  0.07912909  0.31272540  1
  H  H11  1  0.01332904  0.92087091  0.68727460  1
  H  H12  1  0.93565375  0.62439092  0.85619908  1
  H  H13  1  0.06434625  0.37560908  0.14380092  1
  H  H14  1  0.43565375  0.37560908  0.64380092  1
  H  H15  1  0.56434625  0.62439092  0.35619908  1
  H  H16  1  0.65395858  0.91424768  0.51192197  1
  H  H17  1  0.34604142  0.08575232  0.48807803  1
  H  H18  1  0.15395858  0.08575232  0.98807803  1
  H  H19  1  0.84604142  0.91424768  0.01192197  1
  H  H20  1  0.47711535  0.96478865  0.75293397  1
  H  H21  1  0.52288465  0.03521135  0.24706603  1
  H  H22  1  0.97711535  0.03521135  0.74706603  1
  H  H23  1  0.02288465  0.96478865  0.25293397  1
  H  H24  1  0.41556574  0.79232776  0.95742372  1
  H  H25  1  0.58443426  0.20767224  0.04257628  1
  H  H26  1  0.91556574  0.20767224  0.54257628  1
  H  H27  1  0.08443426  0.79232776  0.45742372  1
  H  H28  1  0.54667408  0.65343015  0.70018764  1
  H  H29  1  0.45332592  0.34656985  0.29981236  1
  H  H30  1  0.04667408  0.34656985  0.79981236  1
  H  H31  1  0.95332592  0.65343015  0.20018764  1
  H  H32  1  0.76326027  0.87488962  0.87110060  1
  H  H33  1  0.23673973  0.12511038  0.12889940  1
  H  H34  1  0.26326027  0.12511038  0.62889940  1
  H  H35  1  0.73673973  0.87488962  0.37110060  1
  H  H36  1  0.75424921  0.64612785  0.96201971  1
  H  H37  1  0.24575079  0.35387215  0.03798029  1
  H  H38  1  0.25424921  0.35387215  0.53798029  1
  H  H39  1  0.74575079  0.64612785  0.46201971  1
  H  H40  1  0.88129113  0.52010205  0.62048584  1
  H  H41  1  0.11870887  0.47989795  0.37951416  1
  H  H42  1  0.38129113  0.47989795  0.87951416  1
  H  H43  1  0.61870887  0.52010205  0.12048584  1
  H  H44  1  0.26372146  0.82991810  0.86530133  1
  H  H45  1  0.73627854  0.17008190  0.13469867  1
  H  H46  1  0.76372146  0.17008190  0.63469867  1
  H  H47  1  0.23627854  0.82991810  0.36530133  1
  H  H48  1  0.38681576  0.85120830  0.58281935  1
  H  H49  1  0.61318424  0.14879170  0.41718065  1
  H  H50  1  0.88681576  0.14879170  0.91718065  1
  H  H51  1  0.11318424  0.85120830  0.08281935  1
  H  H52  1  0.81339070  0.38290585  0.79916376  1
  H  H53  1  0.18660930  0.61709415  0.20083624  1
  H  H54  1  0.31339070  0.61709415  0.70083624  1
  H  H55  1  0.68660930  0.38290585  0.29916376  1
  H  H56  1  0.59132218  0.82091551  0.64666553  1
  H  H57  1  0.40867782  0.17908449  0.35333447  1
  H  H58  1  0.09132218  0.17908449  0.85333447  1
  H  H59  1  0.90867782  0.82091551  0.14666553  1
  S  S60  1  0.96496432  0.72652327  0.67393595  1
  S  S61  1  0.03503568  0.27347673  0.32606405  1
  S  S62  1  0.46496432  0.27347673  0.82606405  1
  S  S63  1  0.53503568  0.72652327  0.17393595  1
  O  O64  1  0.95723384  0.40486153  0.81737760  1
  O  O65  1  0.04276616  0.59513847  0.18262240  1
  O  O66  1  0.45723384  0.59513847  0.68262240  1
  O  O67  1  0.54276616  0.40486153  0.31737760  1
  O  O68  1  0.78989983  0.47021185  0.56890241  1
  O  O69  1  0.21010017  0.52978815  0.43109759  1
  O  O70  1  0.28989983  0.52978815  0.93109759  1
  O  O71  1  0.71010017  0.47021185  0.06890241  1
  O  O72  1  0.60314552  0.18828562  0.77719296  1
  O  O73  1  0.39685448  0.81171438  0.22280704  1
  O  O74  1  0.10314552  0.81171438  0.72280704  1
  O  O75  1  0.89685448  0.18828562  0.27719296  1
  O  O76  1  0.51920811  0.87528476  0.62253573  1
  O  O77  1  0.48079189  0.12471524  0.37746427  1
  O  O78  1  0.01920811  0.12471524  0.87746427  1
  O  O79  1  0.98079189  0.87528476  0.12253573  1
  O  O80  1  0.77088184  0.93398263  0.94220040  1
  O  O81  1  0.22911816  0.06601737  0.05779960  1
  O  O82  1  0.27088184  0.06601737  0.55779960  1
  O  O83  1  0.72911816  0.93398263  0.44220040  1
  O  O84  1  0.53703036  0.35995556  0.78301050  1
  O  O85  1  0.46296964  0.64004444  0.21698950  1
  O  O86  1  0.03703036  0.64004444  0.71698950  1
  O  O87  1  0.96296964  0.35995556  0.28301050  1
  O  O88  1  0.94679344  0.97962021  0.67095860  1
  O  O89  1  0.05320656  0.02037979  0.32904140  1
  O  O90  1  0.44679344  0.02037979  0.82904140  1
  O  O91  1  0.55320656  0.97962021  0.17095860  1
  O  O92  1  0.96766271  0.69933148  0.53182581  1
  O  O93  1  0.03233729  0.30066852  0.46817419  1
  O  O94  1  0.46766271  0.30066852  0.96817419  1
  O  O95  1  0.53233729  0.69933148  0.03182581  1
  O  O96  1  0.89087094  0.61556278  0.93912959  1
  O  O97  1  0.10912906  0.38443722  0.06087041  1
  O  O98  1  0.39087094  0.38443722  0.56087041  1
  O  O99  1  0.60912906  0.61556278  0.43912959  1
  O  O100  1  0.75067758  0.75212621  0.72138873  1
  O  O101  1  0.24932242  0.24787379  0.27861127  1
  O  O102  1  0.25067758  0.24787379  0.77861127  1
  O  O103  1  0.74932242  0.75212621  0.22138873  1
  O  O104  1  0.32977243  0.84777834  0.94913308  1
  O  O105  1  0.67022757  0.15222166  0.05086692  1
  O  O106  1  0.82977243  0.15222166  0.55086692  1
  O  O107  1  0.17022757  0.84777834  0.44913308  1
