# generated using pymatgen
data_ZnCu2Sn(SeS)2
_symmetry_space_group_name_H-M   'P 1'
_cell_length_a   5.59604180
_cell_length_b   5.59604180
_cell_length_c   6.88500528
_cell_angle_alpha   65.78681981
_cell_angle_beta   65.78681981
_cell_angle_gamma   89.47277831
_symmetry_Int_Tables_number   1
_chemical_formula_structural   ZnCu2Sn(SeS)2
_chemical_formula_sum   'Zn1 Cu2 Sn1 Se2 S2'
_cell_volume   176.03400033
_cell_formula_units_Z   1
loop_
 _symmetry_equiv_pos_site_id
 _symmetry_equiv_pos_as_xyz
  1  'x, y, z'
loop_
 _atom_site_type_symbol
 _atom_site_label
 _atom_site_symmetry_multiplicity
 _atom_site_fract_x
 _atom_site_fract_y
 _atom_site_fract_z
 _atom_site_occupancy
  Zn  Zn0  1  0.99093104  0.99093104  0.01813791  1
  Cu  Cu1  1  0.26066207  0.76066207  0.47867585  1
  Cu  Cu2  1  0.76066207  0.26066207  0.47867585  1
  Sn  Sn3  1  0.49440165  0.49440165  0.01119669  1
  Se  Se4  1  0.37218083  0.37218083  0.73428467  1
  Se  Se5  1  0.89353450  0.89353450  0.73428467  1
  S  S6  1  0.62063459  0.10699324  0.27237218  1
  S  S7  1  0.10699324  0.62063459  0.27237218  1
