# generated using pymatgen
data_Zr5Sc5Ga6
_symmetry_space_group_name_H-M   'P 1'
_cell_length_a   5.85941258
_cell_length_b   8.06381237
_cell_length_c   8.06381254
_cell_angle_alpha   60.30236728
_cell_angle_beta   90.00088013
_cell_angle_gamma   89.99911987
_symmetry_Int_Tables_number   1
_chemical_formula_structural   Zr5Sc5Ga6
_chemical_formula_sum   'Zr5 Sc5 Ga6'
_cell_volume   330.96398136
_cell_formula_units_Z   1
loop_
 _symmetry_equiv_pos_site_id
 _symmetry_equiv_pos_as_xyz
  1  'x, y, z'
loop_
 _atom_site_type_symbol
 _atom_site_label
 _atom_site_symmetry_multiplicity
 _atom_site_fract_x
 _atom_site_fract_y
 _atom_site_fract_z
 _atom_site_occupancy
  Zr  Zr0  1  0.75000582  0.76201413  0.00018067  1
  Zr  Zr1  1  0.75000582  0.99981933  0.23798587  1
  Zr  Zr2  1  0.24999528  0.76166252  0.23833748  1
  Zr  Zr3  1  0.24999597  0.23463678  0.00095397  1
  Zr  Zr4  1  0.24999597  0.99904603  0.76536322  1
  Sc  Sc5  1  0.50015663  0.33324165  0.33259473  1
  Sc  Sc6  1  0.50015663  0.66740527  0.66675835  1
  Sc  Sc7  1  0.99984164  0.66739903  0.66676211  1
  Sc  Sc8  1  0.99984164  0.33323789  0.33260097  1
  Sc  Sc9  1  0.75000671  0.23900909  0.76099091  1
  Ga  Ga10  1  0.74998763  0.60520749  0.39479251  1
  Ga  Ga11  1  0.75000687  0.39711084  0.00164486  1
  Ga  Ga12  1  0.75000687  0.99835514  0.60288916  1
  Ga  Ga13  1  0.24999497  0.39926100  0.60073900  1
  Ga  Ga14  1  0.25000079  0.60194741  0.99935363  1
  Ga  Ga15  1  0.25000079  0.00064637  0.39805259  1
