# generated using pymatgen
data_Zn2SiH2O5
_symmetry_space_group_name_H-M   'P 1'
_cell_length_a   5.16880345
_cell_length_b   7.38054958
_cell_length_c   7.38029620
_cell_angle_alpha   85.09639727
_cell_angle_beta   110.49507128
_cell_angle_gamma   69.49966714
_symmetry_Int_Tables_number   1
_chemical_formula_structural   Zn2SiH2O5
_chemical_formula_sum   'Zn4 Si2 H4 O10'
_cell_volume   239.97616890
_cell_formula_units_Z   2
loop_
 _symmetry_equiv_pos_site_id
 _symmetry_equiv_pos_as_xyz
  1  'x, y, z'
loop_
 _atom_site_type_symbol
 _atom_site_label
 _atom_site_symmetry_multiplicity
 _atom_site_fract_x
 _atom_site_fract_y
 _atom_site_fract_z
 _atom_site_occupancy
  Zn  Zn0  1  0.20140213  0.63392701  0.04147157  1
  Zn  Zn1  1  0.79427516  0.36583353  0.96033871  1
  Zn  Zn2  1  0.79385757  0.04147157  0.63392701  1
  Zn  Zn3  1  0.19976999  0.96033871  0.36583353  1
  Si  Si4  1  0.49154650  0.85368048  0.85368048  1
  Si  Si5  1  0.49156209  0.14621918  0.14621918  1
  H  H6  1  0.95081152  0.40932143  0.58687982  1
  H  H7  1  0.77325313  0.58687982  0.40932143  1
  H  H8  1  0.18878981  0.62587947  0.37365327  1
  H  H9  1  0.44101601  0.37365327  0.62587947  1
  O  O10  1  0.52171584  0.63559281  0.95390706  1
  O  O11  1  0.20355336  0.36447657  0.04516216  1
  O  O12  1  0.20340159  0.95390706  0.63559281  1
  O  O13  1  0.52286777  0.04516216  0.36447657  1
  O  O14  1  0.26584097  0.69830958  0.30256820  1
  O  O15  1  0.66158235  0.30256820  0.69830958  1
  O  O16  1  0.41052636  0.99992909  0.99992909  1
  O  O17  1  0.80528949  0.83270251  0.83270251  1
  O  O18  1  0.80509131  0.16632812  0.16632812  1
  O  O19  1  0.97714704  0.48131944  0.48131944  1
