# generated using pymatgen
data_ZnFeCu4(GeS4)2
_symmetry_space_group_name_H-M   'P 1'
_cell_length_a   6.51283915
_cell_length_b   6.51283915
_cell_length_c   7.54350736
_cell_angle_alpha   90.00000000
_cell_angle_beta   90.00000000
_cell_angle_gamma   70.74073942
_symmetry_Int_Tables_number   1
_chemical_formula_structural   ZnFeCu4(GeS4)2
_chemical_formula_sum   'Zn1 Fe1 Cu4 Ge2 S8'
_cell_volume   302.06642162
_cell_formula_units_Z   1
loop_
 _symmetry_equiv_pos_site_id
 _symmetry_equiv_pos_as_xyz
  1  'x, y, z'
loop_
 _atom_site_type_symbol
 _atom_site_label
 _atom_site_symmetry_multiplicity
 _atom_site_fract_x
 _atom_site_fract_y
 _atom_site_fract_z
 _atom_site_occupancy
  Zn  Zn0  1  0.50009308  0.50009308  0.50000000  1
  Fe  Fe1  1  0.00015667  0.00015667  0.00000000  1
  Cu  Cu2  1  0.49922819  0.00064169  0.75066429  1
  Cu  Cu3  1  0.00064169  0.49922819  0.24933571  1
  Cu  Cu4  1  0.00064169  0.49922819  0.75066429  1
  Cu  Cu5  1  0.49922819  0.00064169  0.24933571  1
  Ge  Ge6  1  0.00153901  0.00153901  0.50000000  1
  Ge  Ge7  1  0.49846441  0.49846441  0.00000000  1
  S  S8  1  0.12574242  0.12574242  0.24922838  1
  S  S9  1  0.62785729  0.62785729  0.75726125  1
  S  S10  1  0.12574242  0.12574242  0.75077162  1
  S  S11  1  0.62785729  0.62785729  0.24273875  1
  S  S12  1  0.12508386  0.62494337  0.00000000  1
  S  S13  1  0.62792019  0.11486023  0.50000000  1
  S  S14  1  0.62494337  0.12508386  -0.00000000  1
  S  S15  1  0.11486023  0.62792019  0.50000000  1
