# generated using pymatgen
data_Zr4Pd
_symmetry_space_group_name_H-M   'P 1'
_cell_length_a   3.29553946
_cell_length_b   3.29553946
_cell_length_c   10.15454769
_cell_angle_alpha   80.58038633
_cell_angle_beta   80.58038633
_cell_angle_gamma   89.50759501
_symmetry_Int_Tables_number   1
_chemical_formula_structural   Zr4Pd
_chemical_formula_sum   'Zr4 Pd1'
_cell_volume   107.31147547
_cell_formula_units_Z   1
loop_
 _symmetry_equiv_pos_site_id
 _symmetry_equiv_pos_as_xyz
  1  'x, y, z'
loop_
 _atom_site_type_symbol
 _atom_site_label
 _atom_site_symmetry_multiplicity
 _atom_site_fract_x
 _atom_site_fract_y
 _atom_site_fract_z
 _atom_site_occupancy
  Zr  Zr0  1  0.41220941  0.41220941  0.17558118  1
  Zr  Zr1  1  0.80479305  0.80479305  0.39041389  1
  Zr  Zr2  1  0.19520695  0.19520695  0.60958611  1
  Zr  Zr3  1  0.58779059  0.58779059  0.82441882  1
  Pd  Pd4  1  0.00000000  0.00000000  -0.00000000  1
