# generated using pymatgen
data_Ba2ErV3O11
_symmetry_space_group_name_H-M   'P 1'
_cell_length_a   7.75131886
_cell_length_b   12.47171979
_cell_length_c   11.30769836
_cell_angle_alpha   103.72197704
_cell_angle_beta   89.99833728
_cell_angle_gamma   90.00185056
_symmetry_Int_Tables_number   1
_chemical_formula_structural   Ba2ErV3O11
_chemical_formula_sum   'Ba8 Er4 V12 O44'
_cell_volume   1061.94074012
_cell_formula_units_Z   4
loop_
 _symmetry_equiv_pos_site_id
 _symmetry_equiv_pos_as_xyz
  1  'x, y, z'
loop_
 _atom_site_type_symbol
 _atom_site_label
 _atom_site_symmetry_multiplicity
 _atom_site_fract_x
 _atom_site_fract_y
 _atom_site_fract_z
 _atom_site_occupancy
  Ba  Ba0  1  0.27666501  0.77360570  0.94364451  1
  Ba  Ba1  1  0.72333499  0.22639430  0.05635549  1
  Ba  Ba2  1  0.77667368  0.22638756  0.55635633  1
  Ba  Ba3  1  0.22332632  0.77361244  0.44364367  1
  Ba  Ba4  1  0.74642018  0.55348065  0.88876959  1
  Ba  Ba5  1  0.25357982  0.44651935  0.11123041  1
  Ba  Ba6  1  0.24641498  0.44652665  0.61122118  1
  Ba  Ba7  1  0.75358502  0.55347335  0.38877882  1
  Er  Er8  1  0.50236715  0.99567362  0.71661147  1
  Er  Er9  1  0.49763285  0.00432638  0.28338853  1
  Er  Er10  1  0.00236812  0.00434821  0.78338235  1
  Er  Er11  1  0.99763188  0.99565179  0.21661765  1
  V  V12  1  0.75683745  0.90854211  0.97811758  1
  V  V13  1  0.24316255  0.09145789  0.02188242  1
  V  V14  1  0.25686635  0.09148486  0.52190354  1
  V  V15  1  0.74313365  0.90851514  0.47809646  1
  V  V16  1  0.51906056  0.68536786  0.67211548  1
  V  V17  1  0.48093944  0.31463214  0.32788452  1
  V  V18  1  0.01910052  0.31467790  0.82780235  1
  V  V19  1  0.98089948  0.68532210  0.17219765  1
  V  V20  1  0.98101847  0.68988678  0.67298064  1
  V  V21  1  0.01898153  0.31011322  0.32701936  1
  V  V22  1  0.48105566  0.31011974  0.82702264  1
  V  V23  1  0.51894434  0.68988026  0.17297736  1
  O  O24  1  0.44954043  0.82131632  0.71664163  1
  O  O25  1  0.55045957  0.17868368  0.28335837  1
  O  O26  1  0.94956814  0.17870950  0.78333768  1
  O  O27  1  0.05043186  0.82129050  0.21666232  1
  O  O28  1  0.54519516  0.17315386  0.80056799  1
  O  O29  1  0.45480484  0.82684614  0.19943201  1
  O  O30  1  0.04518162  0.82685350  0.69942443  1
  O  O31  1  0.95481838  0.17314650  0.30057557  1
  O  O32  1  0.75041726  0.66232894  0.66524426  1
  O  O33  1  0.24958274  0.33767106  0.33475574  1
  O  O34  1  0.25044344  0.33769352  0.83473042  1
  O  O35  1  0.74955656  0.66230648  0.16526958  1
  O  O36  1  0.94345289  0.37516581  0.96839951  1
  O  O37  1  0.05654711  0.62483419  0.03160049  1
  O  O38  1  0.44342750  0.62484425  0.53155431  1
  O  O39  1  0.55657250  0.37515575  0.46844569  1
  O  O40  1  0.93893950  0.38882294  0.73089127  1
  O  O41  1  0.06106050  0.61117706  0.26910873  1
  O  O42  1  0.43891557  0.61120606  0.76908179  1
  O  O43  1  0.56108443  0.38879394  0.23091821  1
  O  O44  1  0.78576053  0.98917675  0.62789118  1
  O  O45  1  0.21423947  0.01082325  0.37210882  1
  O  O46  1  0.28577486  0.01080892  0.87211257  1
  O  O47  1  0.71422514  0.98919108  0.12788743  1
  O  O48  1  0.97624492  0.88739571  0.98234341  1
  O  O49  1  0.02375508  0.11260429  0.01765659  1
  O  O50  1  0.47625936  0.11260575  0.51762176  1
  O  O51  1  0.52374064  0.88739425  0.48237824  1
  O  O52  1  0.64661091  0.78738293  0.94685598  1
  O  O53  1  0.35338909  0.21261707  0.05314402  1
  O  O54  1  0.14661294  0.21264444  0.55312511  1
  O  O55  1  0.85338706  0.78735556  0.44687489  1
  O  O56  1  0.72272643  0.98510335  0.86418071  1
  O  O57  1  0.27727357  0.01489665  0.13581929  1
  O  O58  1  0.22272207  0.01490959  0.63579067  1
  O  O59  1  0.77727793  0.98509041  0.36420933  1
  O  O60  1  0.55823524  0.36910715  0.71715672  1
  O  O61  1  0.44176476  0.63089285  0.28284328  1
  O  O62  1  0.05819153  0.63089612  0.78283797  1
  O  O63  1  0.94180847  0.36910388  0.21716203  1
  O  O64  1  0.56476813  0.38400446  0.96122607  1
  O  O65  1  0.43523187  0.61599554  0.03877393  1
  O  O66  1  0.06477743  0.61599390  0.53875876  1
  O  O67  1  0.93522257  0.38400610  0.46124124  1
