# generated using pymatgen
data_Zn3Cd3(BO3)4
_symmetry_space_group_name_H-M   'P 1'
_cell_length_a   6.49387827
_cell_length_b   6.49393690
_cell_length_c   6.49392914
_cell_angle_alpha   81.86479863
_cell_angle_beta   81.86403776
_cell_angle_gamma   81.86399649
_symmetry_Int_Tables_number   1
_chemical_formula_structural   Zn3Cd3(BO3)4
_chemical_formula_sum   'Zn3 Cd3 B4 O12'
_cell_volume   266.29946359
_cell_formula_units_Z   1
loop_
 _symmetry_equiv_pos_site_id
 _symmetry_equiv_pos_as_xyz
  1  'x, y, z'
loop_
 _atom_site_type_symbol
 _atom_site_label
 _atom_site_symmetry_multiplicity
 _atom_site_fract_x
 _atom_site_fract_y
 _atom_site_fract_z
 _atom_site_occupancy
  Zn  Zn0  1  0.51789412  0.83515131  0.21825020  1
  Zn  Zn1  1  0.83515569  0.21823967  0.51789600  1
  Zn  Zn2  1  0.21824513  0.51790395  0.83515369  1
  Cd  Cd3  1  0.01709968  0.71600020  0.34345748  1
  Cd  Cd4  1  0.71599413  0.34346193  0.01711401  1
  Cd  Cd5  1  0.34346154  0.01710197  0.71598601  1
  B  B6  1  0.89251411  0.89248564  0.89247863  1
  B  B7  1  0.40592494  0.40589804  0.40590564  1
  B  B8  1  0.63704631  0.63704646  0.63705410  1
  B  B9  1  0.15205423  0.15205911  0.15206454  1
  O  O10  1  0.80809159  0.79098356  0.08157110  1
  O  O11  1  0.79097053  0.08157109  0.80810113  1
  O  O12  1  0.08153754  0.80811892  0.79099713  1
  O  O13  1  0.34904705  0.58879456  0.27769823  1
  O  O14  1  0.58876775  0.27770814  0.34906581  1
  O  O15  1  0.27768524  0.34905405  0.58879641  1
  O  O16  1  0.82418613  0.51846298  0.57453574  1
  O  O17  1  0.51848133  0.57453683  0.82416613  1
  O  O18  1  0.57455302  0.82417116  0.51846974  1
  O  O19  1  0.33931188  0.05305182  0.06159405  1
  O  O20  1  0.05307064  0.06160380  0.33929151  1
  O  O21  1  0.06160742  0.33929482  0.05305271  1
