# generated using pymatgen
data_YbEu(FeO2)4
_symmetry_space_group_name_H-M   'P 1'
_cell_length_a   3.52450208
_cell_length_b   8.76603352
_cell_length_c   6.08159880
_cell_angle_alpha   76.69519266
_cell_angle_beta   89.99999393
_cell_angle_gamma   89.99999858
_symmetry_Int_Tables_number   1
_chemical_formula_structural   YbEu(FeO2)4
_chemical_formula_sum   'Yb1 Eu1 Fe4 O8'
_cell_volume   182.85326598
_cell_formula_units_Z   1
loop_
 _symmetry_equiv_pos_site_id
 _symmetry_equiv_pos_as_xyz
  1  'x, y, z'
loop_
 _atom_site_type_symbol
 _atom_site_label
 _atom_site_symmetry_multiplicity
 _atom_site_fract_x
 _atom_site_fract_y
 _atom_site_fract_z
 _atom_site_occupancy
  Yb  Yb0  1  0.50000000  0.00000000  0.50000000  1
  Eu  Eu1  1  0.00000000  0.00000000  -0.00000000  1
  Fe  Fe2  1  0.50000000  0.35689955  0.71310402  1
  Fe  Fe3  1  1.00000000  0.35397940  0.21674114  1
  Fe  Fe4  1  0.50000000  0.64310045  0.28689598  1
  Fe  Fe5  1  0.00000000  0.64602060  0.78325886  1
  O  O6  1  0.50000000  0.13891939  0.78121647  1
  O  O7  1  1.00000000  0.13741229  0.29406356  1
  O  O8  1  0.50000000  0.86108061  0.21878353  1
  O  O9  1  0.00000000  0.86258771  0.70593644  1
  O  O10  1  0.50000000  0.60626585  0.63261389  1
  O  O11  1  1.00000000  0.60804653  0.13052405  1
  O  O12  1  0.50000000  0.39373415  0.36738611  1
  O  O13  1  0.00000000  0.39195347  0.86947595  1
