# generated using pymatgen
data_Y3(Al7Cr2)4
_symmetry_space_group_name_H-M   'P 1'
_cell_length_a   5.13147296
_cell_length_b   6.89803496
_cell_length_c   19.21961527
_cell_angle_alpha   87.03231940
_cell_angle_beta   98.00108210
_cell_angle_gamma   111.83603994
_symmetry_Int_Tables_number   1
_chemical_formula_structural   Y3(Al7Cr2)4
_chemical_formula_sum   'Y3 Al28 Cr8'
_cell_volume   625.35937385
_cell_formula_units_Z   1
loop_
 _symmetry_equiv_pos_site_id
 _symmetry_equiv_pos_as_xyz
  1  'x, y, z'
loop_
 _atom_site_type_symbol
 _atom_site_label
 _atom_site_symmetry_multiplicity
 _atom_site_fract_x
 _atom_site_fract_y
 _atom_site_fract_z
 _atom_site_occupancy
  Y  Y0  1  0.33333300  0.00000000  0.66666700  1
  Y  Y1  1  0.00111567  -0.00000000  0.00039693  1
  Y  Y2  1  0.66555133  -0.00000000  0.33293607  1
  Al  Al3  1  0.12747194  0.34857559  0.88893071  1
  Al  Al4  1  0.79252301  0.36585876  0.22231452  1
  Al  Al5  1  0.46117160  0.34871028  0.55574035  1
  Al  Al6  1  0.20549440  0.65128972  0.77759365  1
  Al  Al7  1  0.87414399  0.63414124  0.11101848  1
  Al  Al8  1  0.53919506  0.65142441  0.44440229  1
  Al  Al9  1  0.55420468  0.34871028  0.77759365  1
  Al  Al10  1  0.24000276  0.36585876  0.11101848  1
  Al  Al11  1  0.88777065  0.34857559  0.44440229  1
  Al  Al12  1  0.77889635  0.65142441  0.88893071  1
  Al  Al13  1  0.42666424  0.63414124  0.22231452  1
  Al  Al14  1  0.11246132  0.65128972  0.55574035  1
  Al  Al15  1  0.76657268  0.77317158  0.73847092  1
  Al  Al16  1  0.41936522  0.77303515  0.06909255  1
  Al  Al17  1  0.10125887  0.77306479  0.40599709  1
  Al  Al18  1  0.56540713  0.22693521  0.92733691  1
  Al  Al19  1  0.24730178  0.22696485  0.26424045  1
  Al  Al20  1  0.90009432  0.22682842  0.59486208  1
  Al  Al21  1  0.33847192  0.77306479  0.92733691  1
  Al  Al22  1  0.02033693  0.77303515  0.26424045  1
  Al  Al23  1  0.67326590  0.77317158  0.59486208  1
  Al  Al24  1  0.99340110  0.22682842  0.73847092  1
  Al  Al25  1  0.64633007  0.22696485  0.06909255  1
  Al  Al26  1  0.32819408  0.22693521  0.40599709  1
  Al  Al27  1  0.33333300  0.00000000  0.16666700  1
  Al  Al28  1  0.00042631  -0.00000000  0.50049876  1
  Al  Al29  1  0.66624069  0.00000000  0.83283424  1
  Al  Al30  1  0.83333300  0.00000000  0.16666700  1
  Cr  Cr31  1  0.50023833  -0.00000000  0.49938281  1
  Cr  Cr32  1  0.16642867  0.00000000  0.83395019  1
  Cr  Cr33  1  0.99726889  0.49280272  0.99968231  1
  Cr  Cr34  1  0.66939811  0.50719728  0.33365069  1
  Cr  Cr35  1  0.33333300  0.50000000  0.66666700  1
  Cr  Cr36  1  0.50446617  0.50719728  0.99968231  1
  Cr  Cr37  1  0.16220083  0.49280272  0.33365069  1
  Cr  Cr38  1  0.83333300  0.50000000  0.66666700  1
