# generated using pymatgen
data_YEr3Fe34
_symmetry_space_group_name_H-M   'P 1'
_cell_length_a   8.24604891
_cell_length_b   8.46141855
_cell_length_c   8.46459533
_cell_angle_alpha   60.01241813
_cell_angle_beta   90.00000000
_cell_angle_gamma   90.00000000
_symmetry_Int_Tables_number   1
_chemical_formula_structural   YEr3Fe34
_chemical_formula_sum   'Y1 Er3 Fe34'
_cell_volume   511.54076400
_cell_formula_units_Z   1
loop_
 _symmetry_equiv_pos_site_id
 _symmetry_equiv_pos_as_xyz
  1  'x, y, z'
loop_
 _atom_site_type_symbol
 _atom_site_label
 _atom_site_symmetry_multiplicity
 _atom_site_fract_x
 _atom_site_fract_y
 _atom_site_fract_z
 _atom_site_occupancy
  Y  Y0  1  0.25000000  0.66666012  0.66667976  1
  Er  Er1  1  0.75000000  0.33301677  0.33396646  1
  Er  Er2  1  0.75000000  0.99997034  0.00005932  1
  Er  Er3  1  0.25000000  0.99998950  0.00002101  1
  Fe  Fe4  1  0.60686897  0.66670518  0.66658965  1
  Fe  Fe5  1  0.39381476  0.33333548  0.33332904  1
  Fe  Fe6  1  0.10618524  0.33333548  0.33332904  1
  Fe  Fe7  1  0.89313103  0.66670518  0.66658965  1
  Fe  Fe8  1  0.48543450  0.83450823  0.83432681  1
  Fe  Fe9  1  0.48565550  0.83443238  0.33113525  1
  Fe  Fe10  1  0.48543450  0.33116496  0.83432681  1
  Fe  Fe11  1  0.51504435  0.16587844  0.16597075  1
  Fe  Fe12  1  0.51484824  0.16600065  0.66799870  1
  Fe  Fe13  1  0.51504435  0.66815081  0.16597075  1
  Fe  Fe14  1  0.98495565  0.16587844  0.16597075  1
  Fe  Fe15  1  0.98515176  0.16600065  0.66799870  1
  Fe  Fe16  1  0.98495565  0.66815081  0.16597075  1
  Fe  Fe17  1  0.01456550  0.83450823  0.83432681  1
  Fe  Fe18  1  0.01434450  0.83443238  0.33113525  1
  Fe  Fe19  1  0.01456550  0.33116496  0.83432681  1
  Fe  Fe20  1  0.50042139  0.49975777  0.49963722  1
  Fe  Fe21  1  0.50043251  0.49968491  0.00063018  1
  Fe  Fe22  1  0.50042139  0.00060501  0.49963722  1
  Fe  Fe23  1  0.99957861  0.49975777  0.49963722  1
  Fe  Fe24  1  0.99956749  0.49968491  0.00063018  1
  Fe  Fe25  1  0.99957861  0.00060501  0.49963722  1
  Fe  Fe26  1  0.75000000  0.67080161  0.36662350  1
  Fe  Fe27  1  0.75000000  0.36660200  0.96268388  1
  Fe  Fe28  1  0.75000000  0.96274907  0.67065800  1
  Fe  Fe29  1  0.75000000  0.36659293  0.67065800  1
  Fe  Fe30  1  0.75000000  0.96257490  0.36662350  1
  Fe  Fe31  1  0.75000000  0.67071412  0.96268388  1
  Fe  Fe32  1  0.25000000  0.32891294  0.63226890  1
  Fe  Fe33  1  0.25000000  0.63233229  0.03889586  1
  Fe  Fe34  1  0.25000000  0.03841190  0.32895422  1
  Fe  Fe35  1  0.25000000  0.63263388  0.32895422  1
  Fe  Fe36  1  0.25000000  0.03881816  0.63226890  1
  Fe  Fe37  1  0.25000000  0.32877185  0.03889586  1
