# generated using pymatgen
data_Y4Zr3O12
_symmetry_space_group_name_H-M   'P 1'
_cell_length_a   6.44758119
_cell_length_b   6.45767019
_cell_length_c   6.44864038
_cell_angle_alpha   98.77107775
_cell_angle_beta   99.66005477
_cell_angle_gamma   99.29315780
_symmetry_Int_Tables_number   1
_chemical_formula_structural   Y4Zr3O12
_chemical_formula_sum   'Y4 Zr3 O12'
_cell_volume   256.72782062
_cell_formula_units_Z   1
loop_
 _symmetry_equiv_pos_site_id
 _symmetry_equiv_pos_as_xyz
  1  'x, y, z'
loop_
 _atom_site_type_symbol
 _atom_site_label
 _atom_site_symmetry_multiplicity
 _atom_site_fract_x
 _atom_site_fract_y
 _atom_site_fract_z
 _atom_site_occupancy
  Y  Y0  1  0.69663046  0.86059693  0.39035897  1
  Y  Y1  1  0.13926796  0.60659559  0.31103332  1
  Y  Y2  1  0.60687545  0.30727298  0.13860060  1
  Y  Y3  1  0.30603767  0.13748618  0.60986484  1
  Zr  Zr4  1  0.99603048  0.99966739  0.99714217  1
  Zr  Zr5  1  0.85832729  0.38952005  0.69110261  1
  Zr  Zr6  1  0.38517989  0.69583179  0.86160878  1
  O  O7  1  0.05423254  0.68094210  0.90659545  1
  O  O8  1  0.67861207  0.90721501  0.03729366  1
  O  O9  1  0.92574592  0.07573116  0.68473268  1
  O  O10  1  0.94304981  0.31413875  0.07020245  1
  O  O11  1  0.31742642  0.05996491  0.94498125  1
  O  O12  1  0.07312694  0.94367232  0.31176097  1
  O  O13  1  0.59259195  0.18226875  0.44053903  1
  O  O14  1  0.17713794  0.43730800  0.60714407  1
  O  O15  1  0.42498242  0.58599075  0.16344505  1
  O  O16  1  0.41993130  0.81235179  0.58166476  1
  O  O17  1  0.82156438  0.56300644  0.43509410  1
  O  O18  1  0.58324910  0.44043910  0.81683524  1
