# generated using pymatgen
data_Yb(CuSe)3
_symmetry_space_group_name_H-M   'P 1'
_cell_length_a   6.93359190
_cell_length_b   6.93958591
_cell_length_c   7.86731042
_cell_angle_alpha   63.82303756
_cell_angle_beta   89.98574273
_cell_angle_gamma   119.98433617
_symmetry_Int_Tables_number   1
_chemical_formula_structural   Yb(CuSe)3
_chemical_formula_sum   'Yb2 Cu6 Se6'
_cell_volume   282.14163708
_cell_formula_units_Z   2
loop_
 _symmetry_equiv_pos_site_id
 _symmetry_equiv_pos_as_xyz
  1  'x, y, z'
loop_
 _atom_site_type_symbol
 _atom_site_label
 _atom_site_symmetry_multiplicity
 _atom_site_fract_x
 _atom_site_fract_y
 _atom_site_fract_z
 _atom_site_occupancy
  Yb  Yb0  1  0.99987605  0.99948835  0.00068212  1
  Yb  Yb1  1  0.66679095  0.33384465  0.99931788  1
  Cu  Cu2  1  0.86826951  0.41956399  0.37245957  1
  Cu  Cu3  1  0.55141478  0.75985579  0.37192665  1
  Cu  Cu4  1  0.20830889  0.07698408  0.37201486  1
  Cu  Cu5  1  0.45835711  0.25634992  0.62798514  1
  Cu  Cu6  1  0.11525222  0.57347721  0.62807335  1
  Cu  Cu7  1  0.79839749  0.91376901  0.62754043  1
  Se  Se8  1  0.09133505  0.83806187  0.74376818  1
  Se  Se9  1  0.41815670  0.50962916  0.74346858  1
  Se  Se10  1  0.74634658  0.16440760  0.74377532  1
  Se  Se11  1  0.92031942  0.16892640  0.25622468  1
  Se  Se12  1  0.24851030  0.82370384  0.25653142  1
  Se  Se13  1  0.57533195  0.49527113  0.25623182  1
