# generated using pymatgen
data_Ti2FeB2Ru3Rh2
_symmetry_space_group_name_H-M   'P 1'
_cell_length_a   2.96544545
_cell_length_b   9.10841771
_cell_length_c   9.15723042
_cell_angle_alpha   90.17316900
_cell_angle_beta   90.00000000
_cell_angle_gamma   90.00000000
_symmetry_Int_Tables_number   1
_chemical_formula_structural   Ti2FeB2Ru3Rh2
_chemical_formula_sum   'Ti4 Fe2 B4 Ru6 Rh4'
_cell_volume   247.34038765
_cell_formula_units_Z   2
loop_
 _symmetry_equiv_pos_site_id
 _symmetry_equiv_pos_as_xyz
  1  'x, y, z'
loop_
 _atom_site_type_symbol
 _atom_site_label
 _atom_site_symmetry_multiplicity
 _atom_site_fract_x
 _atom_site_fract_y
 _atom_site_fract_z
 _atom_site_occupancy
  Ti  Ti0  1  0.00000000  0.17648169  0.68207758  1
  Ti  Ti1  1  -0.00000000  0.82351831  0.31792242  1
  Ti  Ti2  1  0.00000000  0.32176216  0.17388466  1
  Ti  Ti3  1  0.00000000  0.67823784  0.82611534  1
  Fe  Fe4  1  -0.00000000  0.50000000  0.50000000  1
  Fe  Fe5  1  -0.00000000  0.00000000  -0.00000000  1
  B  B6  1  -0.00000000  0.62580838  0.12651024  1
  B  B7  1  -0.00000000  0.37419162  0.87348976  1
  B  B8  1  -0.00000000  0.87587034  0.62709895  1
  B  B9  1  -0.00000000  0.12412966  0.37290105  1
  Ru  Ru10  1  0.50000000  0.78719586  0.07274809  1
  Ru  Ru11  1  0.50000000  0.21280414  0.92725191  1
  Ru  Ru12  1  0.50000000  0.57196268  0.28752626  1
  Ru  Ru13  1  0.50000000  0.42803732  0.71247374  1
  Ru  Ru14  1  0.50000000  0.07333259  0.21322523  1
  Ru  Ru15  1  0.50000000  0.92666741  0.78677477  1
  Rh  Rh16  1  0.50000000  0.00000000  0.50000000  1
  Rh  Rh17  1  0.50000000  0.50000000  -0.00000000  1
  Rh  Rh18  1  0.50000000  0.71518821  0.57252023  1
  Rh  Rh19  1  0.50000000  0.28481179  0.42747977  1
