# generated using pymatgen
data_Y4MgS7
_symmetry_space_group_name_H-M   'P 1'
_cell_length_a   3.81084100
_cell_length_b   6.59003614
_cell_length_c   11.49926956
_cell_angle_alpha   104.24421121
_cell_angle_beta   89.99999995
_cell_angle_gamma   73.19372449
_symmetry_Int_Tables_number   1
_chemical_formula_structural   Y4MgS7
_chemical_formula_sum   'Y4 Mg1 S7'
_cell_volume   267.16491281
_cell_formula_units_Z   1
loop_
 _symmetry_equiv_pos_site_id
 _symmetry_equiv_pos_as_xyz
  1  'x, y, z'
loop_
 _atom_site_type_symbol
 _atom_site_label
 _atom_site_symmetry_multiplicity
 _atom_site_fract_x
 _atom_site_fract_y
 _atom_site_fract_z
 _atom_site_occupancy
  Y  Y0  1  0.69243215  0.61513569  0.20433070  1
  Y  Y1  1  0.30674717  0.38650565  0.80168936  1
  Y  Y2  1  -0.00020651  0.00041302  0.00527216  1
  Y  Y3  1  0.11359741  0.77280518  0.56793796  1
  Mg  Mg4  1  0.88563918  0.22872164  0.42161017  1
  S  S5  1  0.74370215  0.51259569  0.64048284  1
  S  S6  1  0.26713581  0.46572838  0.35285741  1
  S  S7  1  0.33888008  0.32223983  0.05070342  1
  S  S8  1  0.65983893  0.68032214  0.94846362  1
  S  S9  1  0.03526427  0.92947146  0.22397305  1
  S  S10  1  0.96231922  0.07536155  0.78487354  1
  S  S11  1  0.49465012  0.01069975  0.49780577  1
