# generated using pymatgen
data_YErAl2O6
_symmetry_space_group_name_H-M   'P 1'
_cell_length_a   5.18643875
_cell_length_b   5.38244250
_cell_length_c   7.41010591
_cell_angle_alpha   90.00000000
_cell_angle_beta   90.00000000
_cell_angle_gamma   90.00000000
_symmetry_Int_Tables_number   1
_chemical_formula_structural   YErAl2O6
_chemical_formula_sum   'Y2 Er2 Al4 O12'
_cell_volume   206.85835544
_cell_formula_units_Z   2
loop_
 _symmetry_equiv_pos_site_id
 _symmetry_equiv_pos_as_xyz
  1  'x, y, z'
loop_
 _atom_site_type_symbol
 _atom_site_label
 _atom_site_symmetry_multiplicity
 _atom_site_fract_x
 _atom_site_fract_y
 _atom_site_fract_z
 _atom_site_occupancy
  Y  Y0  1  0.51326053  0.55722038  0.25000000  1
  Y  Y1  1  0.98673947  0.05722038  0.25000000  1
  Er  Er2  1  0.48717707  0.44007499  0.75000000  1
  Er  Er3  1  0.01282293  0.94007499  0.75000000  1
  Al  Al4  1  0.99963124  0.49979106  0.99855995  1
  Al  Al5  1  0.50036876  -0.00020894  0.50144005  1
  Al  Al6  1  0.99963124  0.49979106  0.50144005  1
  Al  Al7  1  0.50036876  -0.00020894  0.99855995  1
  O  O8  1  0.79805015  0.79753890  0.04357680  1
  O  O9  1  0.70194985  0.29753890  0.45642320  1
  O  O10  1  0.20204348  0.20217199  0.54801075  1
  O  O11  1  0.29795652  0.70217199  0.95198925  1
  O  O12  1  0.20204348  0.20217199  0.95198925  1
  O  O13  1  0.29795652  0.70217199  0.54801075  1
  O  O14  1  0.79805015  0.79753890  0.45642320  1
  O  O15  1  0.70194985  0.29753890  0.04357680  1
  O  O16  1  0.41540873  0.97745839  0.25000000  1
  O  O17  1  0.08459127  0.47745839  0.25000000  1
  O  O18  1  0.59018678  0.02624235  0.75000000  1
  O  O19  1  0.90981322  0.52624235  0.75000000  1
