# generated using pymatgen
data_Y6Ag(GeS7)2
_symmetry_space_group_name_H-M   'P 1'
_cell_length_a   5.80233986
_cell_length_b   9.86915873
_cell_length_c   9.89614687
_cell_angle_alpha   119.96022525
_cell_angle_beta   90.05387239
_cell_angle_gamma   90.00642064
_symmetry_Int_Tables_number   1
_chemical_formula_structural   Y6Ag(GeS7)2
_chemical_formula_sum   'Y6 Ag1 Ge2 S14'
_cell_volume   490.96857426
_cell_formula_units_Z   1
loop_
 _symmetry_equiv_pos_site_id
 _symmetry_equiv_pos_as_xyz
  1  'x, y, z'
loop_
 _atom_site_type_symbol
 _atom_site_label
 _atom_site_symmetry_multiplicity
 _atom_site_fract_x
 _atom_site_fract_y
 _atom_site_fract_z
 _atom_site_occupancy
  Y  Y0  1  0.25515313  0.77863066  0.64300841  1
  Y  Y1  1  0.25631164  0.35561256  0.13483321  1
  Y  Y2  1  0.25532794  0.86503712  0.22145757  1
  Y  Y3  1  0.75504200  0.22273523  0.35746323  1
  Y  Y4  1  0.75586647  0.64337109  0.86550734  1
  Y  Y5  1  0.75533579  0.13372950  0.77696324  1
  Ag  Ag6  1  0.53734451  0.00015192  0.00042158  1
  Ge  Ge7  1  0.17912665  0.33306627  0.66682387  1
  Ge  Ge8  1  0.67329103  0.66687837  0.33342908  1
  S  S9  1  0.55872980  0.33371478  0.66688973  1
  S  S10  1  0.05259531  0.66604765  0.33284796  1
  S  S11  1  0.79185148  0.83849242  0.73845413  1
  S  S12  1  0.78859464  0.25920360  0.09880869  1
  S  S13  1  0.79061239  0.90058863  0.16098258  1
  S  S14  1  0.29678204  0.15940405  0.26277752  1
  S  S15  1  0.29900665  0.73986850  0.89752832  1
  S  S16  1  0.29768389  0.10268702  0.84096495  1
  S  S17  1  0.51072697  0.90271804  0.47993831  1
  S  S18  1  0.51071896  0.51961014  0.42187767  1
  S  S19  1  0.51085108  0.57783434  0.09794288  1
  S  S20  1  0.01575584  0.09741565  0.51953122  1
  S  S21  1  0.01665988  0.48128958  0.57923588  1
  S  S22  1  0.01705191  0.42191288  0.90231264  1
