# generated using pymatgen
data_Yb2Al3Ga
_symmetry_space_group_name_H-M   'P 1'
_cell_length_a   5.58040874
_cell_length_b   5.58040874
_cell_length_c   5.63718181
_cell_angle_alpha   90.00000000
_cell_angle_beta   60.33259645
_cell_angle_gamma   120.00000000
_symmetry_Int_Tables_number   1
_chemical_formula_structural   Yb2Al3Ga
_chemical_formula_sum   'Yb2 Al3 Ga1'
_cell_volume   124.75103300
_cell_formula_units_Z   1
loop_
 _symmetry_equiv_pos_site_id
 _symmetry_equiv_pos_as_xyz
  1  'x, y, z'
loop_
 _atom_site_type_symbol
 _atom_site_label
 _atom_site_symmetry_multiplicity
 _atom_site_fract_x
 _atom_site_fract_y
 _atom_site_fract_z
 _atom_site_occupancy
  Yb  Yb0  1  0.49906164  0.74953082  0.75140754  1
  Yb  Yb1  1  0.00093836  0.00046918  0.99859246  1
  Al  Al2  1  0.25000000  0.37500000  0.37500000  1
  Al  Al3  1  0.25000000  0.87500000  0.37500000  1
  Al  Al4  1  0.75000000  0.37500000  0.37500000  1
  Ga  Ga5  1  0.75000000  0.37500000  0.87500000  1
