# generated using pymatgen
data_YLu(BRh)8
_symmetry_space_group_name_H-M   'P 1'
_cell_length_a   5.34182129
_cell_length_b   5.34182129
_cell_length_c   7.45221187
_cell_angle_alpha   90.00000000
_cell_angle_beta   90.00000000
_cell_angle_gamma   90.00000000
_symmetry_Int_Tables_number   1
_chemical_formula_structural   YLu(BRh)8
_chemical_formula_sum   'Y1 Lu1 B8 Rh8'
_cell_volume   212.64927330
_cell_formula_units_Z   1
loop_
 _symmetry_equiv_pos_site_id
 _symmetry_equiv_pos_as_xyz
  1  'x, y, z'
loop_
 _atom_site_type_symbol
 _atom_site_label
 _atom_site_symmetry_multiplicity
 _atom_site_fract_x
 _atom_site_fract_y
 _atom_site_fract_z
 _atom_site_occupancy
  Y  Y0  1  0.25000000  0.75000000  0.75000000  1
  Lu  Lu1  1  0.75000000  0.25000000  0.25000000  1
  B  B2  1  0.58062263  0.75000000  0.39995699  1
  B  B3  1  0.91937737  0.75000000  0.39995699  1
  B  B4  1  0.75000000  0.58110615  0.90074975  1
  B  B5  1  0.75000000  0.91889385  0.90074975  1
  B  B6  1  0.41889385  0.25000000  0.59925025  1
  B  B7  1  0.08110615  0.25000000  0.59925025  1
  B  B8  1  0.25000000  0.41937737  0.10004301  1
  B  B9  1  0.25000000  0.08062263  0.10004301  1
  Rh  Rh10  1  0.00088353  0.75000000  0.10660081  1
  Rh  Rh11  1  0.49911647  0.75000000  0.10660081  1
  Rh  Rh12  1  0.75000000  0.00213511  0.60352243  1
  Rh  Rh13  1  0.75000000  0.49786489  0.60352243  1
  Rh  Rh14  1  0.99786489  0.25000000  0.89647757  1
  Rh  Rh15  1  0.50213511  0.25000000  0.89647757  1
  Rh  Rh16  1  0.25000000  0.99911647  0.39339919  1
  Rh  Rh17  1  0.25000000  0.50088353  0.39339919  1
