# generated using pymatgen
data_V3As2O9
_symmetry_space_group_name_H-M   'P 1'
_cell_length_a   5.50411583
_cell_length_b   5.50411583
_cell_length_c   6.53782523
_cell_angle_alpha   77.73846536
_cell_angle_beta   77.73846536
_cell_angle_gamma   72.08143419
_symmetry_Int_Tables_number   1
_chemical_formula_structural   V3As2O9
_chemical_formula_sum   'V3 As2 O9'
_cell_volume   181.84183217
_cell_formula_units_Z   1
loop_
 _symmetry_equiv_pos_site_id
 _symmetry_equiv_pos_as_xyz
  1  'x, y, z'
loop_
 _atom_site_type_symbol
 _atom_site_label
 _atom_site_symmetry_multiplicity
 _atom_site_fract_x
 _atom_site_fract_y
 _atom_site_fract_z
 _atom_site_occupancy
  V  V0  1  0.42312427  0.42312427  0.30389248  1
  V  V1  1  0.59242277  0.59242277  0.71308543  1
  V  V2  1  0.02104485  0.02104485  0.47402239  1
  As  As3  1  0.81816604  0.81816604  0.18581251  1
  As  As4  1  0.18186007  0.18186007  0.81261299  1
  O  O5  1  0.20168729  0.20168729  0.29808285  1
  O  O6  1  0.78492762  0.78492762  0.69585857  1
  O  O7  1  0.63318726  0.63318726  0.37737102  1
  O  O8  1  0.36992950  0.36992950  0.63041930  1
  O  O9  1  0.50557918  0.50557918  0.98157900  1
  O  O10  1  0.11017868  0.72807604  0.31087088  1
  O  O11  1  0.72807604  0.11017868  0.31087088  1
  O  O12  1  0.88769308  0.27152333  0.68476085  1
  O  O13  1  0.27152333  0.88769308  0.68476085  1
