# generated using pymatgen
data_TlPdPb
_symmetry_space_group_name_H-M   'P 1'
_cell_length_a   5.63033623
_cell_length_b   5.87681425
_cell_length_c   5.87681425
_cell_angle_alpha   61.74379199
_cell_angle_beta   74.04879924
_cell_angle_gamma   105.95120076
_symmetry_Int_Tables_number   1
_chemical_formula_structural   TlPdPb
_chemical_formula_sum   'Tl2 Pd2 Pb2'
_cell_volume   144.64575687
_cell_formula_units_Z   2
loop_
 _symmetry_equiv_pos_site_id
 _symmetry_equiv_pos_as_xyz
  1  'x, y, z'
loop_
 _atom_site_type_symbol
 _atom_site_label
 _atom_site_symmetry_multiplicity
 _atom_site_fract_x
 _atom_site_fract_y
 _atom_site_fract_z
 _atom_site_occupancy
  Tl  Tl0  1  0.16669305  0.83334652  0.66665348  1
  Tl  Tl1  1  0.83330695  0.16665348  0.33334652  1
  Pd  Pd2  1  -0.00000000  0.25000000  0.75000000  1
  Pd  Pd3  1  0.00000000  0.75000000  0.25000000  1
  Pb  Pb4  1  0.50000000  0.33532931  0.83532931  1
  Pb  Pb5  1  0.50000000  0.66467069  0.16467069  1
