# generated using pymatgen
data_Y2Fe17C
_symmetry_space_group_name_H-M   'P 1'
_cell_length_a   8.25379953
_cell_length_b   8.59383484
_cell_length_c   8.56679647
_cell_angle_alpha   60.10427320
_cell_angle_beta   90.00000000
_cell_angle_gamma   90.00000000
_symmetry_Int_Tables_number   1
_chemical_formula_structural   Y2Fe17C
_chemical_formula_sum   'Y4 Fe34 C2'
_cell_volume   526.79951478
_cell_formula_units_Z   2
loop_
 _symmetry_equiv_pos_site_id
 _symmetry_equiv_pos_as_xyz
  1  'x, y, z'
loop_
 _atom_site_type_symbol
 _atom_site_label
 _atom_site_symmetry_multiplicity
 _atom_site_fract_x
 _atom_site_fract_y
 _atom_site_fract_z
 _atom_site_occupancy
  Y  Y0  1  0.75000000  0.66166293  0.66921503  1
  Y  Y1  1  0.25000000  0.33349812  0.33326060  1
  Y  Y2  1  0.75000000  0.00882594  0.99563871  1
  Y  Y3  1  0.25000000  0.99860221  0.00069628  1
  Fe  Fe4  1  0.75000000  0.62159001  0.32757500  1
  Fe  Fe5  1  0.75000000  0.32884023  0.04757291  1
  Fe  Fe6  1  0.75000000  0.05132087  0.62051705  1
  Fe  Fe7  1  0.75000000  0.32885504  0.62358745  1
  Fe  Fe8  1  0.75000000  0.05127039  0.32814226  1
  Fe  Fe9  1  0.75000000  0.62173414  0.05064745  1
  Fe  Fe10  1  0.25000000  0.37152619  0.67151333  1
  Fe  Fe11  1  0.25000000  0.67113688  0.95434595  1
  Fe  Fe12  1  0.25000000  0.95638349  0.37148436  1
  Fe  Fe13  1  0.25000000  0.67111200  0.37451802  1
  Fe  Fe14  1  0.25000000  0.95634483  0.67214875  1
  Fe  Fe15  1  0.25000000  0.37148109  0.95697967  1
  Fe  Fe16  1  0.51772734  0.83244236  0.83303694  1
  Fe  Fe17  1  0.51769862  0.83248239  0.33451240  1
  Fe  Fe18  1  0.51980612  0.33206759  0.83396165  1
  Fe  Fe19  1  0.47957638  0.16834643  0.16621718  1
  Fe  Fe20  1  0.47954347  0.16836596  0.66543240  1
  Fe  Fe21  1  0.47767807  0.66421702  0.16786341  1
  Fe  Fe22  1  0.02042362  0.16834643  0.16621718  1
  Fe  Fe23  1  0.02045653  0.16836596  0.66543240  1
  Fe  Fe24  1  0.02232193  0.66421702  0.16786341  1
  Fe  Fe25  1  0.98227266  0.83244236  0.83303694  1
  Fe  Fe26  1  0.98230138  0.83248239  0.33451240  1
  Fe  Fe27  1  0.98019388  0.33206759  0.83396165  1
  Fe  Fe28  1  0.10611908  0.66539256  0.66730206  1
  Fe  Fe29  1  0.89466099  0.33384725  0.33307277  1
  Fe  Fe30  1  0.60533901  0.33384725  0.33307277  1
  Fe  Fe31  1  0.39388092  0.66539256  0.66730206  1
  Fe  Fe32  1  0.49794017  0.49855081  0.49952021  1
  Fe  Fe33  1  0.49798498  0.49858392  0.00193769  1
  Fe  Fe34  1  0.49668770  0.00367874  0.49815507  1
  Fe  Fe35  1  0.00205983  0.49855081  0.49952021  1
  Fe  Fe36  1  0.00201502  0.49858392  0.00193769  1
  Fe  Fe37  1  0.00331230  0.00367874  0.49815507  1
  C  C38  1  0.75000000  0.83481017  0.83515630  1
  C  C39  1  0.75000000  0.83505540  0.32997733  1
