# generated using pymatgen
data_Y4US5O3
_symmetry_space_group_name_H-M   'P 1'
_cell_length_a   3.87076337
_cell_length_b   14.02180782
_cell_length_c   18.62557782
_cell_angle_alpha   90.00000000
_cell_angle_beta   90.00000000
_cell_angle_gamma   90.00000000
_symmetry_Int_Tables_number   1
_chemical_formula_structural   Y4US5O3
_chemical_formula_sum   'Y16 U4 S20 O12'
_cell_volume   1010.90510043
_cell_formula_units_Z   4
loop_
 _symmetry_equiv_pos_site_id
 _symmetry_equiv_pos_as_xyz
  1  'x, y, z'
loop_
 _atom_site_type_symbol
 _atom_site_label
 _atom_site_symmetry_multiplicity
 _atom_site_fract_x
 _atom_site_fract_y
 _atom_site_fract_z
 _atom_site_occupancy
  Y  Y0  1  0.75000000  0.11396481  0.33481549  1
  Y  Y1  1  0.75000000  0.61309195  0.16473211  1
  Y  Y2  1  0.25000000  0.88690805  0.66473211  1
  Y  Y3  1  0.25000000  0.38603519  0.83481549  1
  Y  Y4  1  0.75000000  0.11267457  0.95372828  1
  Y  Y5  1  0.75000000  0.61333935  0.54662752  1
  Y  Y6  1  0.25000000  0.88666065  0.04662752  1
  Y  Y7  1  0.25000000  0.38732543  0.45372828  1
  Y  Y8  1  0.75000000  0.35768328  0.65791853  1
  Y  Y9  1  0.75000000  0.85527145  0.84095125  1
  Y  Y10  1  0.25000000  0.64472855  0.34095125  1
  Y  Y11  1  0.25000000  0.14231672  0.15791853  1
  Y  Y12  1  0.75000000  0.84132075  0.27221241  1
  Y  Y13  1  0.25000000  0.65867925  0.77221241  1
  Y  Y14  1  0.75000000  0.10022226  0.56505638  1
  Y  Y15  1  0.25000000  0.39977774  0.06505638  1
  U  U16  1  0.75000000  0.34558877  0.22337772  1
  U  U17  1  0.25000000  0.15441123  0.72337772  1
  U  U18  1  0.75000000  0.59959560  0.93182838  1
  U  U19  1  0.25000000  0.90040440  0.43182838  1
  S  S20  1  0.75000000  0.22510018  0.83328596  1
  S  S21  1  0.75000000  0.72435112  0.66669101  1
  S  S22  1  0.25000000  0.77564888  0.16669101  1
  S  S23  1  0.25000000  0.27489982  0.33328596  1
  S  S24  1  0.75000000  0.01430276  0.08868445  1
  S  S25  1  0.75000000  0.51329801  0.41187070  1
  S  S26  1  0.25000000  0.98670199  0.91187070  1
  S  S27  1  0.25000000  0.48569724  0.58868445  1
  S  S28  1  0.75000000  0.28798171  0.51796366  1
  S  S29  1  0.75000000  0.78930900  0.98285436  1
  S  S30  1  0.25000000  0.71069100  0.48285436  1
  S  S31  1  0.25000000  0.21201829  0.01796366  1
  S  S32  1  0.75000000  0.40697736  0.94813392  1
  S  S33  1  0.75000000  0.90656682  0.54994613  1
  S  S34  1  0.25000000  0.59343318  0.04994613  1
  S  S35  1  0.25000000  0.09302264  0.44813392  1
  S  S36  1  0.75000000  0.49278748  0.76350893  1
  S  S37  1  0.75000000  0.99395390  0.73819163  1
  S  S38  1  0.25000000  0.50604610  0.23819163  1
  S  S39  1  0.25000000  0.00721252  0.26350893  1
  O  O40  1  0.75000000  0.18205351  0.21620074  1
  O  O41  1  0.75000000  0.67902099  0.28298883  1
  O  O42  1  0.25000000  0.82097901  0.78298883  1
  O  O43  1  0.25000000  0.31794649  0.71620074  1
  O  O44  1  0.75000000  0.19541404  0.66657377  1
  O  O45  1  0.75000000  0.69334927  0.83728169  1
  O  O46  1  0.25000000  0.80665073  0.33728169  1
  O  O47  1  0.25000000  0.30458596  0.16657377  1
  O  O48  1  0.75000000  0.42877911  0.12289484  1
  O  O49  1  0.75000000  0.93064098  0.38168129  1
  O  O50  1  0.25000000  0.56935902  0.88168129  1
  O  O51  1  0.25000000  0.07122089  0.62289484  1
