# generated using pymatgen
data_Y2Fe17C
_symmetry_space_group_name_H-M   'P 1'
_cell_length_a   6.45338688
_cell_length_b   6.45338688
_cell_length_c   6.43247967
_cell_angle_alpha   83.07215458
_cell_angle_beta   83.07215458
_cell_angle_gamma   83.46689859
_symmetry_Int_Tables_number   1
_chemical_formula_structural   Y2Fe17C
_chemical_formula_sum   'Y2 Fe17 C1'
_cell_volume   262.64911060
_cell_formula_units_Z   1
loop_
 _symmetry_equiv_pos_site_id
 _symmetry_equiv_pos_as_xyz
  1  'x, y, z'
loop_
 _atom_site_type_symbol
 _atom_site_label
 _atom_site_symmetry_multiplicity
 _atom_site_fract_x
 _atom_site_fract_y
 _atom_site_fract_z
 _atom_site_occupancy
  Y  Y0  1  0.66043194  0.66043194  0.64940103  1
  Y  Y1  1  0.33956806  0.33956806  0.35059897  1
  Fe  Fe2  1  0.34355314  0.34355314  0.84944301  1
  Fe  Fe3  1  0.34152019  0.85007391  0.34312069  1
  Fe  Fe4  1  0.85007391  0.34152019  0.34312069  1
  Fe  Fe5  1  0.65644686  0.65644686  0.15055699  1
  Fe  Fe6  1  0.65847981  0.14992609  0.65687931  1
  Fe  Fe7  1  0.14992609  0.65847981  0.65687931  1
  Fe  Fe8  1  0.90339161  0.90339161  0.90246492  1
  Fe  Fe9  1  0.09660839  0.09660839  0.09753508  1
  Fe  Fe10  1  0.00000000  0.00000000  0.50000000  1
  Fe  Fe11  1  0.00000000  0.50000000  0.00000000  1
  Fe  Fe12  1  0.50000000  0.00000000  0.00000000  1
  Fe  Fe13  1  0.28594193  0.71405807  0.00000000  1
  Fe  Fe14  1  0.70897328  0.00001288  0.29066404  1
  Fe  Fe15  1  -0.00001288  0.29102672  0.70933596  1
  Fe  Fe16  1  0.29102672  -0.00001288  0.70933596  1
  Fe  Fe17  1  0.00001288  0.70897328  0.29066404  1
  Fe  Fe18  1  0.71405807  0.28594193  0.00000000  1
  C  C19  1  0.50000000  0.50000000  0.00000000  1
