# generated using pymatgen
data_ThAl2Co3
_symmetry_space_group_name_H-M   'P 1'
_cell_length_a   4.12573241
_cell_length_b   4.96099931
_cell_length_c   4.96099951
_cell_angle_alpha   64.30972863
_cell_angle_beta   90.00000000
_cell_angle_gamma   90.00000000
_symmetry_Int_Tables_number   1
_chemical_formula_structural   ThAl2Co3
_chemical_formula_sum   'Th1 Al2 Co3'
_cell_volume   91.50331001
_cell_formula_units_Z   1
loop_
 _symmetry_equiv_pos_site_id
 _symmetry_equiv_pos_as_xyz
  1  'x, y, z'
loop_
 _atom_site_type_symbol
 _atom_site_label
 _atom_site_symmetry_multiplicity
 _atom_site_fract_x
 _atom_site_fract_y
 _atom_site_fract_z
 _atom_site_occupancy
  Th  Th0  1  0.00000000  0.99998001  0.00001999  1
  Al  Al1  1  0.50000000  0.49998684  0.00001915  1
  Al  Al2  1  0.50000000  0.99998085  0.50001316  1
  Co  Co3  1  0.00000000  0.33550491  0.33553973  1
  Co  Co4  1  -0.00000000  0.66446027  0.66449509  1
  Co  Co5  1  0.50000000  0.49998712  0.50001288  1
