# generated using pymatgen
data_V8Ga3(MoS6)4
_symmetry_space_group_name_H-M   'P 1'
_cell_length_a   6.86194737
_cell_length_b   9.75543256
_cell_length_c   12.01546113
_cell_angle_alpha   65.65526163
_cell_angle_beta   72.93232684
_cell_angle_gamma   89.01107369
_symmetry_Int_Tables_number   1
_chemical_formula_structural   V8Ga3(MoS6)4
_chemical_formula_sum   'V8 Ga3 Mo4 S24'
_cell_volume   695.55049245
_cell_formula_units_Z   1
loop_
 _symmetry_equiv_pos_site_id
 _symmetry_equiv_pos_as_xyz
  1  'x, y, z'
loop_
 _atom_site_type_symbol
 _atom_site_label
 _atom_site_symmetry_multiplicity
 _atom_site_fract_x
 _atom_site_fract_y
 _atom_site_fract_z
 _atom_site_occupancy
  V  V0  1  0.41232617  0.00606734  0.19215866  1
  V  V1  1  0.74583081  0.33914205  0.52500815  1
  V  V2  1  0.93066978  0.53621388  0.14000977  1
  V  V3  1  0.27054816  0.86495953  0.47404578  1
  V  V4  1  0.60379466  0.19794139  0.80817536  1
  V  V5  1  0.79104156  0.39537522  0.99885788  1
  V  V6  1  0.12799875  0.72309526  0.33362289  1
  V  V7  1  0.46252488  0.05757689  0.66633460  1
  Ga  Ga8  1  0.00448741  0.99900196  0.00012132  1
  Ga  Ga9  1  0.33805231  0.33199700  0.33274780  1
  Ga  Ga10  1  0.67197529  0.66464166  0.66531554  1
  Mo  Mo11  1  0.20696599  0.40002532  0.99762308  1
  Mo  Mo12  1  0.52969459  0.73532166  0.33346693  1
  Mo  Mo13  1  0.86327521  0.06889199  0.66617018  1
  Mo  Mo14  1  0.07066993  0.66866098  0.86387256  1
  S  S15  1  0.72790296  0.13628596  0.00039816  1
  S  S16  1  0.06078486  0.46908506  0.33326324  1
  S  S17  1  0.39608180  0.80314852  0.66568854  1
  S  S18  1  0.57834552  0.43849321  0.84779004  1
  S  S19  1  0.90865523  0.77288813  0.18257901  1
  S  S20  1  0.24189641  0.10551372  0.51543690  1
  S  S21  1  0.42625243  0.28695365  0.15102110  1
  S  S22  1  0.75738045  0.62058179  0.48391699  1
  S  S23  1  0.09171331  0.95598009  0.81741798  1
  S  S24  1  0.27511625  0.13618967  0.00014830  1
  S  S25  1  0.60678850  0.47014302  0.33363752  1
  S  S26  1  0.93997518  0.80397328  0.66540574  1
  S  S27  1  0.73466832  0.62619408  0.00438333  1
  S  S28  1  0.08442061  0.95790807  0.33297916  1
  S  S29  1  0.41858270  0.29158802  0.66641872  1
  S  S30  1  0.90863298  0.28626529  0.17309184  1
  S  S31  1  0.23389491  0.61657169  0.51113989  1
  S  S32  1  0.56708928  0.95014777  0.84401248  1
  S  S33  1  0.08257155  0.45207232  0.82505144  1
  S  S34  1  0.41118096  0.79484870  0.15604978  1
  S  S35  1  0.74526434  0.12768062  0.48859094  1
  S  S36  1  0.26071060  0.63152382  0.00456601  1
  S  S37  1  0.58975297  0.97188896  0.33321005  1
  S  S38  1  0.92248237  0.30516245  0.66627233  1
