# generated using pymatgen
data_Y(Fe5Mo)2
_symmetry_space_group_name_H-M   'P 1'
_cell_length_a   4.75172598
_cell_length_b   6.50489898
_cell_length_c   6.50489898
_cell_angle_alpha   97.09214379
_cell_angle_beta   111.42248624
_cell_angle_gamma   68.57751376
_symmetry_Int_Tables_number   1
_chemical_formula_structural   Y(Fe5Mo)2
_chemical_formula_sum   'Y1 Fe10 Mo2'
_cell_volume   174.22951037
_cell_formula_units_Z   1
loop_
 _symmetry_equiv_pos_site_id
 _symmetry_equiv_pos_as_xyz
  1  'x, y, z'
loop_
 _atom_site_type_symbol
 _atom_site_label
 _atom_site_symmetry_multiplicity
 _atom_site_fract_x
 _atom_site_fract_y
 _atom_site_fract_z
 _atom_site_occupancy
  Y  Y0  1  -0.00000000  0.00000000  0.00000000  1
  Fe  Fe1  1  0.50000000  0.00000000  0.50000000  1
  Fe  Fe2  1  -0.00000000  0.00000000  0.50000000  1
  Fe  Fe3  1  0.50000000  0.50000000  0.00000000  1
  Fe  Fe4  1  -0.00000000  0.50000000  0.00000000  1
  Fe  Fe5  1  0.71906188  0.78093812  0.21906188  1
  Fe  Fe6  1  0.28093812  0.21906188  0.78093812  1
  Fe  Fe7  1  0.50000000  0.77522604  0.77522604  1
  Fe  Fe8  1  0.50000000  0.22477396  0.22477396  1
  Fe  Fe9  1  0.64055145  0.35944855  0.64055145  1
  Fe  Fe10  1  0.35944855  0.64055145  0.35944855  1
  Mo  Mo11  1  -0.00000000  0.35807572  0.35807572  1
  Mo  Mo12  1  0.00000000  0.64192428  0.64192428  1
