# generated using pymatgen
data_VP3(Pb3O8)2
_symmetry_space_group_name_H-M   'P 1'
_cell_length_a   5.93910595
_cell_length_b   7.63599082
_cell_length_c   9.67107941
_cell_angle_alpha   101.09716944
_cell_angle_beta   90.34060705
_cell_angle_gamma   66.81834686
_symmetry_Int_Tables_number   1
_chemical_formula_structural   VP3(Pb3O8)2
_chemical_formula_sum   'V1 P3 Pb6 O16'
_cell_volume   394.45582610
_cell_formula_units_Z   1
loop_
 _symmetry_equiv_pos_site_id
 _symmetry_equiv_pos_as_xyz
  1  'x, y, z'
loop_
 _atom_site_type_symbol
 _atom_site_label
 _atom_site_symmetry_multiplicity
 _atom_site_fract_x
 _atom_site_fract_y
 _atom_site_fract_z
 _atom_site_occupancy
  V  V0  1  0.84924898  0.79471714  0.05308215  1
  P  P1  1  0.64943816  0.20009922  0.44420744  1
  P  P2  1  0.15081337  0.20026625  0.94492088  1
  P  P3  1  0.35191476  0.80049156  0.55556449  1
  Pb  Pb4  1  0.63841103  0.37191319  0.15525446  1
  Pb  Pb5  1  0.00912575  0.64100308  0.35289878  1
  Pb  Pb6  1  0.35591211  0.64134455  0.84265566  1
  Pb  Pb7  1  0.99662537  0.35724527  0.65256050  1
  Pb  Pb8  1  0.29274926  0.00208889  0.25371777  1
  Pb  Pb9  1  0.70126582  0.00142292  0.74686220  1
  O  O10  1  0.92961256  0.70866912  0.86962685  1
  O  O11  1  0.64197693  0.27764666  0.60821321  1
  O  O12  1  0.07892816  0.27937186  0.10767689  1
  O  O13  1  0.35812358  0.72240186  0.39314023  1
  O  O14  1  0.12232354  0.72911225  0.13904662  1
  O  O15  1  0.83360915  0.26170208  0.37027371  1
  O  O16  1  0.90484511  0.26226522  0.86801180  1
  O  O17  1  0.16808714  0.73840337  0.62944164  1
  O  O18  1  0.69842394  0.04383900  0.08428221  1
  O  O19  1  0.73803151  0.97554687  0.41642591  1
  O  O20  1  0.28724772  0.97484461  0.91814272  1
  O  O21  1  0.26346619  0.02468857  0.58295473  1
  O  O22  1  0.66034728  0.70249921  0.12235704  1
  O  O23  1  0.39169031  0.28910492  0.38802878  1
  O  O24  1  0.31906054  0.28706367  0.88705472  1
  O  O25  1  0.60872174  0.71224865  0.61359861  1
