# generated using pymatgen
data_Ti3Nb3Sn2
_symmetry_space_group_name_H-M   'P 1'
_cell_length_a   5.29573407
_cell_length_b   5.29573407
_cell_length_c   5.29573407
_cell_angle_alpha   90.07851075
_cell_angle_beta   89.92148925
_cell_angle_gamma   89.92148925
_symmetry_Int_Tables_number   1
_chemical_formula_structural   Ti3Nb3Sn2
_chemical_formula_sum   'Ti3 Nb3 Sn2'
_cell_volume   148.51738047
_cell_formula_units_Z   1
loop_
 _symmetry_equiv_pos_site_id
 _symmetry_equiv_pos_as_xyz
  1  'x, y, z'
loop_
 _atom_site_type_symbol
 _atom_site_label
 _atom_site_symmetry_multiplicity
 _atom_site_fract_x
 _atom_site_fract_y
 _atom_site_fract_z
 _atom_site_occupancy
  Ti  Ti0  1  0.49416354  0.25000000  0.99416354  1
  Ti  Ti1  1  0.75000000  0.99416354  0.50583646  1
  Ti  Ti2  1  0.00583646  0.50583646  0.25000000  1
  Nb  Nb3  1  0.49756513  0.75000000  0.99756513  1
  Nb  Nb4  1  0.25000000  0.99756513  0.50243487  1
  Nb  Nb5  1  0.00243487  0.50243487  0.75000000  1
  Sn  Sn6  1  0.50200137  0.49799863  0.49799863  1
  Sn  Sn7  1  0.99799863  0.00200137  0.00200137  1
