# generated using pymatgen
data_TlV(CrS2)4
_symmetry_space_group_name_H-M   'P 1'
_cell_length_a   3.47560238
_cell_length_b   8.62899183
_cell_length_c   9.14386352
_cell_angle_alpha   104.04715773
_cell_angle_beta   79.04423068
_cell_angle_gamma   90.00000000
_symmetry_Int_Tables_number   1
_chemical_formula_structural   TlV(CrS2)4
_chemical_formula_sum   'Tl1 V1 Cr4 S8'
_cell_volume   260.87732685
_cell_formula_units_Z   1
loop_
 _symmetry_equiv_pos_site_id
 _symmetry_equiv_pos_as_xyz
  1  'x, y, z'
loop_
 _atom_site_type_symbol
 _atom_site_label
 _atom_site_symmetry_multiplicity
 _atom_site_fract_x
 _atom_site_fract_y
 _atom_site_fract_z
 _atom_site_occupancy
  Tl  Tl0  1  0.99928846  0.00213358  0.00142309  1
  V  V1  1  0.15588782  0.52547380  0.68822435  1
  Cr  Cr2  1  0.79635370  0.83485550  0.40729260  1
  Cr  Cr3  1  0.20607976  0.16604603  0.58784048  1
  Cr  Cr4  1  0.84137121  0.47491042  0.31725758  1
  Cr  Cr5  1  0.50134491  0.49976801  0.99731018  1
  S  S6  1  0.58501388  0.67816206  0.82997223  1
  S  S7  1  0.41442069  0.33228140  0.17115862  1
  S  S8  1  0.26242009  0.65275073  0.47515982  1
  S  S9  1  0.73766748  0.34277464  0.52466503  1
  S  S10  1  0.92526354  0.65168704  0.14947291  1
  S  S11  1  0.07374523  0.33894738  0.85250953  1
  S  S12  1  0.67188781  0.01168571  0.65622438  1
  S  S13  1  0.32925541  0.98852371  0.34148919  1
