# generated using pymatgen
data_Ti8N5
_symmetry_space_group_name_H-M   'P 1'
_cell_length_a   4.20132935
_cell_length_b   4.20132935
_cell_length_c   8.60562903
_cell_angle_alpha   90.00000000
_cell_angle_beta   90.00000000
_cell_angle_gamma   90.00000000
_symmetry_Int_Tables_number   1
_chemical_formula_structural   Ti8N5
_chemical_formula_sum   'Ti8 N5'
_cell_volume   151.89940640
_cell_formula_units_Z   1
loop_
 _symmetry_equiv_pos_site_id
 _symmetry_equiv_pos_as_xyz
  1  'x, y, z'
loop_
 _atom_site_type_symbol
 _atom_site_label
 _atom_site_symmetry_multiplicity
 _atom_site_fract_x
 _atom_site_fract_y
 _atom_site_fract_z
 _atom_site_occupancy
  Ti  Ti0  1  0.50000000  0.00000000  0.99403184  1
  Ti  Ti1  1  -0.00000000  0.50000000  0.49095304  1
  Ti  Ti2  1  0.50000000  0.50000000  0.26657983  1
  Ti  Ti3  1  0.00000000  0.00000000  0.76450231  1
  Ti  Ti4  1  0.50000000  -0.00000000  0.50596816  1
  Ti  Ti5  1  -0.00000000  0.50000000  0.00904696  1
  Ti  Ti6  1  0.00000000  0.00000000  0.23342017  1
  Ti  Ti7  1  0.50000000  0.50000000  0.73549769  1
  N  N8  1  -0.00000000  0.50000000  0.25000000  1
  N  N9  1  0.50000000  0.00000000  0.75000000  1
  N  N10  1  -0.00000000  0.00000000  0.00005578  1
  N  N11  1  0.50000000  0.50000000  0.49994422  1
  N  N12  1  0.50000000  -0.00000000  0.25000000  1
