# generated using pymatgen
data_Ti3Cu2NiS8
_symmetry_space_group_name_H-M   'P 1'
_cell_length_a   6.99222259
_cell_length_b   7.10663013
_cell_length_c   6.99222259
_cell_angle_alpha   90.00000000
_cell_angle_beta   60.00000000
_cell_angle_gamma   119.46887283
_symmetry_Int_Tables_number   1
_chemical_formula_structural   Ti3Cu2NiS8
_chemical_formula_sum   'Ti3 Cu2 Ni1 S8'
_cell_volume   247.63923823
_cell_formula_units_Z   1
loop_
 _symmetry_equiv_pos_site_id
 _symmetry_equiv_pos_as_xyz
  1  'x, y, z'
loop_
 _atom_site_type_symbol
 _atom_site_label
 _atom_site_symmetry_multiplicity
 _atom_site_fract_x
 _atom_site_fract_y
 _atom_site_fract_z
 _atom_site_occupancy
  Ti  Ti0  1  0.50000000  0.50000000  0.50000000  1
  Ti  Ti1  1  0.00000000  0.50000000  -0.00000000  1
  Ti  Ti2  1  0.00000000  0.50000000  0.50000000  1
  Cu  Cu3  1  0.25147189  0.12720783  0.12426406  1
  Cu  Cu4  1  0.74852811  0.87279217  0.87573594  1
  Ni  Ni5  1  0.50000000  -0.00000000  0.50000000  1
  S  S6  1  0.00755275  0.26132912  0.74622363  1
  S  S7  1  0.01996493  0.74867469  0.74001754  1
  S  S8  1  0.48869223  0.74867469  0.27129024  1
  S  S9  1  0.48869223  0.74867469  0.74001754  1
  S  S10  1  0.99244725  0.73867088  0.25377637  1
  S  S11  1  0.98003507  0.25132531  0.25998246  1
  S  S12  1  0.51130777  0.25132531  0.72870976  1
  S  S13  1  0.51130777  0.25132531  0.25998246  1
