# generated using pymatgen
data_TlIn5Se8
_symmetry_space_group_name_H-M   'P 1'
_cell_length_a   4.06947990
_cell_length_b   9.91307327
_cell_length_c   10.37977250
_cell_angle_alpha   100.73529882
_cell_angle_beta   78.69514148
_cell_angle_gamma   90.00000000
_symmetry_Int_Tables_number   1
_chemical_formula_structural   TlIn5Se8
_chemical_formula_sum   'Tl1 In5 Se8'
_cell_volume   403.13054682
_cell_formula_units_Z   1
loop_
 _symmetry_equiv_pos_site_id
 _symmetry_equiv_pos_as_xyz
  1  'x, y, z'
loop_
 _atom_site_type_symbol
 _atom_site_label
 _atom_site_symmetry_multiplicity
 _atom_site_fract_x
 _atom_site_fract_y
 _atom_site_fract_z
 _atom_site_occupancy
  Tl  Tl0  1  0.50000000  0.50000000  -0.00000000  1
  In  In1  1  0.36318841  0.88718249  0.27362318  1
  In  In2  1  0.63681159  0.11281751  0.72637682  1
  In  In3  1  0.72156626  0.66086915  0.55686748  1
  In  In4  1  0.27843374  0.33913085  0.44313252  1
  In  In5  1  0.00000000  0.00000000  -0.00000000  1
  Se  Se6  1  0.24212867  0.84434335  0.51574266  1
  Se  Se7  1  0.75787133  0.15565665  0.48425734  1
  Se  Se8  1  0.93795815  0.76662225  0.12408369  1
  Se  Se9  1  0.06204185  0.23337775  0.87591631  1
  Se  Se10  1  0.16350166  0.53302085  0.67299668  1
  Se  Se11  1  0.83649834  0.46697915  0.32700332  1
  Se  Se12  1  0.58736249  0.88499243  0.82527502  1
  Se  Se13  1  0.41263751  0.11500757  0.17472498  1
