# generated using pymatgen
data_TiFeBiPbO6
_symmetry_space_group_name_H-M   'P 1'
_cell_length_a   5.41642143
_cell_length_b   5.44248326
_cell_length_c   6.05501362
_cell_angle_alpha   63.29354960
_cell_angle_beta   63.43149669
_cell_angle_gamma   90.00000000
_symmetry_Int_Tables_number   1
_chemical_formula_structural   TiFeBiPbO6
_chemical_formula_sum   'Ti1 Fe1 Bi1 Pb1 O6'
_cell_volume   138.02754643
_cell_formula_units_Z   1
loop_
 _symmetry_equiv_pos_site_id
 _symmetry_equiv_pos_as_xyz
  1  'x, y, z'
loop_
 _atom_site_type_symbol
 _atom_site_label
 _atom_site_symmetry_multiplicity
 _atom_site_fract_x
 _atom_site_fract_y
 _atom_site_fract_z
 _atom_site_occupancy
  Ti  Ti0  1  0.21932803  0.71932803  0.56134394  1
  Fe  Fe1  1  0.73334979  0.23334979  0.53330043  1
  Bi  Bi2  1  0.52602012  0.52602012  0.94795976  1
  Pb  Pb3  1  0.99139348  0.99139348  0.01721304  1
  O  O4  1  0.41990521  0.90997950  0.66903718  1
  O  O5  1  0.91105760  0.42098332  0.66903718  1
  O  O6  1  0.91105760  0.90997950  0.66903718  1
  O  O7  1  0.41990521  0.42098332  0.66903718  1
  O  O8  1  0.40699740  0.90699740  0.18600519  1
  O  O9  1  0.93058555  0.43058555  0.13882891  1
