# generated using pymatgen
data_V2Bi4O11
_symmetry_space_group_name_H-M   'P 1'
_cell_length_a   5.80347614
_cell_length_b   5.67028830
_cell_length_c   8.30367322
_cell_angle_alpha   88.75621262
_cell_angle_beta   68.27833995
_cell_angle_gamma   91.79778356
_symmetry_Int_Tables_number   1
_chemical_formula_structural   V2Bi4O11
_chemical_formula_sum   'V2 Bi4 O11'
_cell_volume   253.56092763
_cell_formula_units_Z   1
loop_
 _symmetry_equiv_pos_site_id
 _symmetry_equiv_pos_as_xyz
  1  'x, y, z'
loop_
 _atom_site_type_symbol
 _atom_site_label
 _atom_site_symmetry_multiplicity
 _atom_site_fract_x
 _atom_site_fract_y
 _atom_site_fract_z
 _atom_site_occupancy
  V  V0  1  0.49435887  0.47217101  0.99695203  1
  V  V1  1  0.07790529  0.03520141  0.97453717  1
  Bi  Bi2  1  0.73163991  0.98605281  0.63418083  1
  Bi  Bi3  1  0.39723126  0.02706931  0.33831236  1
  Bi  Bi4  1  0.14889508  0.51900961  0.65702730  1
  Bi  Bi5  1  0.83984379  0.53330489  0.31127739  1
  O  O6  1  0.04016220  0.75462457  0.47299143  1
  O  O7  1  0.56590479  0.23329655  0.49125339  1
  O  O8  1  0.54239506  0.74872036  0.48959306  1
  O  O9  1  0.05583051  0.24018255  0.48932132  1
  O  O10  1  0.27336191  0.66856064  0.02318669  1
  O  O11  1  0.36778507  0.17428378  0.98934382  1
  O  O12  1  0.85067371  0.90521971  0.16282736  1
  O  O13  1  0.94593382  0.29006810  0.95308338  1
  O  O14  1  0.72184342  0.55951635  0.79403381  1
  O  O15  1  0.53132108  0.46437438  0.19797235  1
  O  O16  1  0.12371422  0.90574397  0.77890631  1
