# generated using pymatgen
data_V5FePbO11
_symmetry_space_group_name_H-M   'P 1'
_cell_length_a   5.99933866
_cell_length_b   5.88742900
_cell_length_c   13.32493702
_cell_angle_alpha   90.00000000
_cell_angle_beta   90.00000000
_cell_angle_gamma   60.61516353
_symmetry_Int_Tables_number   1
_chemical_formula_structural   V5FePbO11
_chemical_formula_sum   'V10 Fe2 Pb2 O22'
_cell_volume   410.09428965
_cell_formula_units_Z   2
loop_
 _symmetry_equiv_pos_site_id
 _symmetry_equiv_pos_as_xyz
  1  'x, y, z'
loop_
 _atom_site_type_symbol
 _atom_site_label
 _atom_site_symmetry_multiplicity
 _atom_site_fract_x
 _atom_site_fract_y
 _atom_site_fract_z
 _atom_site_occupancy
  V  V0  1  -0.00270813  0.50135406  0.50139040  1
  V  V1  1  0.49720014  0.49033429  0.50099471  1
  V  V2  1  0.49720014  0.01246557  0.50099471  1
  V  V3  1  0.00270813  0.49864594  0.00139040  1
  V  V4  1  0.50279986  0.50966571  0.00099471  1
  V  V5  1  0.50279986  0.98753443  0.00099471  1
  V  V6  1  -0.00076672  0.00038336  0.14905392  1
  V  V7  1  0.00076672  -0.00038336  0.64905392  1
  V  V8  1  0.33691536  0.33154232  0.23975564  1
  V  V9  1  0.66308464  0.66845768  0.73975564  1
  Fe  Fe10  1  0.00980553  0.99509724  0.35795286  1
  Fe  Fe11  1  0.99019447  0.00490276  0.85795286  1
  Pb  Pb12  1  0.67594654  0.66202673  0.27746546  1
  Pb  Pb13  1  0.32405346  0.33797327  0.77746546  1
  O  O14  1  0.31869417  0.34065291  0.41308644  1
  O  O15  1  0.68130583  0.65934709  0.91308644  1
  O  O16  1  0.37577651  0.81211175  0.42327962  1
  O  O17  1  0.82121405  0.81828181  0.42081882  1
  O  O18  1  0.82121405  0.36050414  0.42081882  1
  O  O19  1  0.62422349  0.18788825  0.92327962  1
  O  O20  1  0.17878595  0.18171819  0.92081882  1
  O  O21  1  0.17878595  0.63949586  0.92081882  1
  O  O22  1  0.34086455  0.82956773  0.07789038  1
  O  O23  1  0.83457585  0.82215242  0.07381699  1
  O  O24  1  0.83457585  0.34327173  0.07381699  1
  O  O25  1  0.65913545  0.17043227  0.57789038  1
  O  O26  1  0.16542415  0.17784758  0.57381699  1
  O  O27  1  0.16542415  0.65672827  0.57381699  1
  O  O28  1  0.32726326  0.33636837  0.08640233  1
  O  O29  1  0.67273674  0.66363163  0.58640233  1
  O  O30  1  0.32594943  0.83702529  0.74510069  1
  O  O31  1  0.85329611  0.83754738  0.74608061  1
  O  O32  1  0.85329611  0.30915651  0.74608061  1
  O  O33  1  0.67405057  0.16297471  0.24510069  1
  O  O34  1  0.14670389  0.16245262  0.24608061  1
  O  O35  1  0.14670389  0.69084349  0.24608061  1
