# generated using pymatgen
data_V3NiH48(SO10)4
_symmetry_space_group_name_H-M   'P 1'
_cell_length_a   6.29401041
_cell_length_b   6.29401041
_cell_length_c   25.27748788
_cell_angle_alpha   80.94381498
_cell_angle_beta   80.94381498
_cell_angle_gamma   69.73347032
_symmetry_Int_Tables_number   1
_chemical_formula_structural   V3NiH48(SO10)4
_chemical_formula_sum   'V3 Ni1 H48 S4 O40'
_cell_volume   921.91634758
_cell_formula_units_Z   1
loop_
 _symmetry_equiv_pos_site_id
 _symmetry_equiv_pos_as_xyz
  1  'x, y, z'
loop_
 _atom_site_type_symbol
 _atom_site_label
 _atom_site_symmetry_multiplicity
 _atom_site_fract_x
 _atom_site_fract_y
 _atom_site_fract_z
 _atom_site_occupancy
  V  V0  1  0.95849706  0.04150294  0.75000000  1
  V  V1  1  0.00053217  0.00012121  0.49983054  1
  V  V2  1  0.99987879  0.99946783  0.00016946  1
  Ni  Ni3  1  0.03861968  0.96138032  0.25000000  1
  H  H4  1  0.96209178  0.35953951  0.42211342  1
  H  H5  1  0.64046049  0.03790822  0.07788658  1
  H  H6  1  0.03826477  0.64104995  0.57746828  1
  H  H7  1  0.35895005  0.96173523  0.92253172  1
  H  H8  1  0.76345416  0.92172309  0.34145320  1
  H  H9  1  0.07827691  0.23654584  0.15854680  1
  H  H10  1  0.24337827  0.08542450  0.65541628  1
  H  H11  1  0.91457550  0.75662173  0.84458372  1
  H  H12  1  0.28539251  0.58290509  0.20059099  1
  H  H13  1  0.41709491  0.71460749  0.29940901  1
  H  H14  1  0.71252321  0.42958677  0.80075912  1
  H  H15  1  0.57041323  0.28747679  0.69924088  1
  H  H16  1  0.66300154  0.94172886  0.44636734  1
  H  H17  1  0.05827114  0.33699846  0.05363266  1
  H  H18  1  0.33900739  0.05700133  0.55306947  1
  H  H19  1  0.94299867  0.66099261  0.94693053  1
  H  H20  1  0.28749917  0.69294404  0.43128232  1
  H  H21  1  0.30705596  0.71250083  0.06871768  1
  H  H22  1  0.71420392  0.30596390  0.56854129  1
  H  H23  1  0.69403610  0.28579608  0.93145871  1
  H  H24  1  0.67366063  0.77888973  0.50217338  1
  H  H25  1  0.22111027  0.32633937  0.99782662  1
  H  H26  1  0.32738050  0.22035351  0.49737056  1
  H  H27  1  0.77964649  0.67261950  0.00262944  1
  H  H28  1  0.32901808  0.92872777  0.40961732  1
  H  H29  1  0.07127223  0.67098192  0.09038268  1
  H  H30  1  0.67311210  0.06964280  0.58992903  1
  H  H31  1  0.93035720  0.32688790  0.91007097  1
  H  H32  1  0.07683641  0.52634261  0.23792627  1
  H  H33  1  0.47365739  0.92316359  0.26207373  1
  H  H34  1  0.92005289  0.48788852  0.76335210  1
  H  H35  1  0.51211148  0.07994711  0.73664790  1
  H  H36  1  0.70648956  0.36314604  0.44213091  1
  H  H37  1  0.63685396  0.29351044  0.05786909  1
  H  H38  1  0.29426793  0.63633334  0.55757244  1
  H  H39  1  0.36366666  0.70573207  0.94242756  1
  H  H40  1  0.66300131  0.20186072  0.20036484  1
  H  H41  1  0.79813928  0.33699869  0.29963516  1
  H  H42  1  0.34491862  0.79876788  0.80098610  1
  H  H43  1  0.20123212  0.65508138  0.69901390  1
  H  H44  1  0.98444130  0.69660274  0.34216268  1
  H  H45  1  0.30339726  0.01555870  0.15783732  1
  H  H46  1  0.02257828  0.31089528  0.65468726  1
  H  H47  1  0.68910472  0.97742172  0.84531274  1
  H  H48  1  0.73989217  0.94551041  0.18955091  1
  H  H49  1  0.05448959  0.26010783  0.31044909  1
  H  H50  1  0.27526705  0.05391087  0.81239093  1
  H  H51  1  0.94608913  0.72473295  0.68760907  1
  S  S52  1  0.41323458  0.32462612  0.37662633  1
  S  S53  1  0.67537388  0.58676542  0.12337367  1
  S  S54  1  0.58824983  0.67533546  0.62257058  1
  S  S55  1  0.32466454  0.41175017  0.87742942  1
  O  O56  1  0.53192821  0.43435524  0.33068643  1
  O  O57  1  0.56564476  0.46807179  0.16931357  1
  O  O58  1  0.46848693  0.56866511  0.66875341  1
  O  O59  1  0.43133489  0.53151307  0.83124659  1
  O  O60  1  0.17041471  0.38027972  0.36728127  1
  O  O61  1  0.61972028  0.82958529  0.13271873  1
  O  O62  1  0.83140021  0.61860733  0.63196760  1
  O  O63  1  0.38139267  0.16859979  0.86803240  1
  O  O64  1  0.88972543  0.82109612  0.31865175  1
  O  O65  1  0.17890388  0.11027457  0.18134825  1
  O  O66  1  0.11659061  0.18567984  0.67817798  1
  O  O67  1  0.81432016  0.88340939  0.82182202  1
  O  O68  1  0.85901336  0.32812602  0.45388630  1
  O  O69  1  0.67187398  0.14098664  0.04611370  1
  O  O70  1  0.14181354  0.67230043  0.54579164  1
  O  O71  1  0.32769957  0.85818646  0.95420836  1
  O  O72  1  0.42263420  0.40633537  0.42863798  1
  O  O73  1  0.59366463  0.57736580  0.07136202  1
  O  O74  1  0.57847960  0.59164977  0.57091012  1
  O  O75  1  0.40835023  0.42152040  0.92908988  1
  O  O76  1  0.12825499  0.65058415  0.21815346  1
  O  O77  1  0.34941585  0.87174501  0.28184654  1
  O  O78  1  0.86832494  0.36293458  0.78255834  1
  O  O79  1  0.63706542  0.13167506  0.71744166  1
  O  O80  1  0.72204394  0.04218821  0.21819909  1
  O  O81  1  0.95781179  0.27795606  0.28180091  1
  O  O82  1  0.28646206  0.95935026  0.78370655  1
  O  O83  1  0.04064974  0.71353794  0.71629345  1
  O  O84  1  0.21569600  0.86107061  0.42955057  1
  O  O85  1  0.13892939  0.78430400  0.07044943  1
  O  O86  1  0.78644465  0.13797457  0.57026697  1
  O  O87  1  0.86202543  0.21355535  0.92973303  1
  O  O88  1  0.74699775  0.87756492  0.47804228  1
  O  O89  1  0.12243508  0.25300225  0.02195772  1
  O  O90  1  0.25222548  0.12436477  0.52192190  1
  O  O91  1  0.87563523  0.74777452  0.97807810  1
  O  O92  1  0.53034403  0.07075057  0.38205796  1
  O  O93  1  0.92924943  0.46965597  0.11794204  1
  O  O94  1  0.47385944  0.92930734  0.61652019  1
  O  O95  1  0.07069266  0.52614056  0.88347981  1
