# generated using pymatgen
data_TePtSe
_symmetry_space_group_name_H-M   'P 1'
_cell_length_a   3.95964213
_cell_length_b   3.95964208
_cell_length_c   5.29542252
_cell_angle_alpha   89.97144385
_cell_angle_beta   89.97144387
_cell_angle_gamma   59.96191685
_symmetry_Int_Tables_number   1
_chemical_formula_structural   TePtSe
_chemical_formula_sum   'Te1 Pt1 Se1'
_cell_volume   71.87473500
_cell_formula_units_Z   1
loop_
 _symmetry_equiv_pos_site_id
 _symmetry_equiv_pos_as_xyz
  1  'x, y, z'
loop_
 _atom_site_type_symbol
 _atom_site_label
 _atom_site_symmetry_multiplicity
 _atom_site_fract_x
 _atom_site_fract_y
 _atom_site_fract_z
 _atom_site_occupancy
  Te  Te0  1  0.33328853  0.33328853  0.74556264  1
  Pt  Pt1  1  0.99999992  0.99999992  0.00766795  1
  Se  Se2  1  0.66671155  0.66671155  0.24676941  1
