# generated using pymatgen
data_U2Nb6O21
_symmetry_space_group_name_H-M   'P 1'
_cell_length_a   7.48829880
_cell_length_b   16.64977051
_cell_length_c   7.48829880
_cell_angle_alpha   103.28541624
_cell_angle_beta   91.46696857
_cell_angle_gamma   103.28541624
_symmetry_Int_Tables_number   1
_chemical_formula_structural   U2Nb6O21
_chemical_formula_sum   'U4 Nb12 O42'
_cell_volume   881.29029398
_cell_formula_units_Z   2
loop_
 _symmetry_equiv_pos_site_id
 _symmetry_equiv_pos_as_xyz
  1  'x, y, z'
loop_
 _atom_site_type_symbol
 _atom_site_label
 _atom_site_symmetry_multiplicity
 _atom_site_fract_x
 _atom_site_fract_y
 _atom_site_fract_z
 _atom_site_occupancy
  U  U0  1  0.37368323  0.24782639  0.12736157  1
  U  U1  1  0.04298377  0.58550661  0.78930543  1
  U  U2  1  0.87736157  0.74782639  0.62368323  1
  U  U3  1  0.53930543  0.08550661  0.29298377  1
  Nb  Nb4  1  0.85799895  0.24812032  0.62787081  1
  Nb  Nb5  1  0.55866805  0.58521268  0.28879619  1
  Nb  Nb6  1  0.20833300  0.91666700  0.95833300  1
  Nb  Nb7  1  0.03879619  0.08521268  0.80866805  1
  Nb  Nb8  1  0.70833300  0.41666700  0.45833300  1
  Nb  Nb9  1  0.37787081  0.74812032  0.10799895  1
  Nb  Nb10  1  0.04081401  0.08314321  0.30190356  1
  Nb  Nb11  1  0.70833300  0.41666700  0.95833300  1
  Nb  Nb12  1  0.37585299  0.75018979  0.61476344  1
  Nb  Nb13  1  0.36476344  0.25018979  0.62585299  1
  Nb  Nb14  1  0.05190356  0.58314321  0.29081401  1
  Nb  Nb15  1  0.70833300  0.91666700  0.95833300  1
  O  O16  1  0.13000757  0.26710172  0.59712237  1
  O  O17  1  0.82904444  0.64230570  0.34969754  1
  O  O18  1  0.48866391  0.96972143  0.01870115  1
  O  O19  1  0.83742271  0.14719643  0.36527003  1
  O  O20  1  0.58106157  0.50569411  0.07041890  1
  O  O21  1  0.21266002  0.82684793  0.72566410  1
  O  O22  1  0.90362993  0.16666700  0.76303607  1
  O  O23  1  0.57241877  0.50137783  0.43355195  1
  O  O24  1  0.23311505  0.83195517  0.09424823  1
  O  O25  1  0.06954463  0.06623128  0.53665943  1
  O  O26  1  0.64796485  0.36361257  0.17800209  1
  O  O27  1  0.31696946  0.69102730  0.83762256  1
  O  O28  1  0.30139597  0.18613757  0.82924329  1
  O  O29  1  0.94100290  0.50648507  0.45400698  1
  O  O30  1  0.59624810  0.82763889  0.08560543  1
  O  O31  1  0.30618663  0.16666700  0.36047937  1
  O  O32  1  0.94091181  0.49309834  0.07947749  1
  O  O33  1  0.58718951  0.84023466  0.72575519  1
  O  O34  1  0.58762256  0.19102730  0.56696946  1
  O  O35  1  0.28665943  0.56623128  0.31954463  1
  O  O36  1  0.92800209  0.86361257  0.89796485  1
  O  O37  1  0.20400698  0.00648507  0.19100290  1
  O  O38  1  0.83560543  0.32763889  0.84624810  1
  O  O39  1  0.57924329  0.68613757  0.55139597  1
  O  O40  1  0.18355195  0.00137783  0.82241877  1
  O  O41  1  0.84424823  0.33195517  0.48311505  1
  O  O42  1  0.51303607  0.66666700  0.15362993  1
  O  O43  1  0.34712237  0.76710172  0.38000757  1
  O  O44  1  0.09969754  0.14230570  0.07904444  1
  O  O45  1  0.76870115  0.46972143  0.73866391  1
  O  O46  1  0.82041890  0.00569411  0.83106157  1
  O  O47  1  0.47566410  0.32684793  0.46266002  1
  O  O48  1  0.11527003  0.64719643  0.08742271  1
  O  O49  1  0.82947749  0.99309834  0.19091181  1
  O  O50  1  0.47575519  0.34023466  0.83718951  1
  O  O51  1  0.11047937  0.66666700  0.55618663  1
  O  O52  1  0.89665620  0.82028030  0.47627231  1
  O  O53  1  0.54473109  0.16666700  0.12193491  1
  O  O54  1  0.19039469  0.51305270  0.77001080  1
  O  O55  1  0.52001080  0.01305270  0.44039469  1
  O  O56  1  0.22627231  0.32028030  0.14665620  1
  O  O57  1  0.87193491  0.66666700  0.79473109  1
