# generated using pymatgen
data_Tb3NdFe34
_symmetry_space_group_name_H-M   'P 1'
_cell_length_a   6.43478486
_cell_length_b   6.43478486
_cell_length_c   12.86466923
_cell_angle_alpha   82.96876899
_cell_angle_beta   82.96876899
_cell_angle_gamma   82.97887626
_symmetry_Int_Tables_number   1
_chemical_formula_structural   Tb3NdFe34
_chemical_formula_sum   'Tb3 Nd1 Fe34'
_cell_volume   521.57899517
_cell_formula_units_Z   1
loop_
 _symmetry_equiv_pos_site_id
 _symmetry_equiv_pos_as_xyz
  1  'x, y, z'
loop_
 _atom_site_type_symbol
 _atom_site_label
 _atom_site_symmetry_multiplicity
 _atom_site_fract_x
 _atom_site_fract_y
 _atom_site_fract_z
 _atom_site_occupancy
  Tb  Tb0  1  0.65837541  0.65837541  0.82909538  1
  Tb  Tb1  1  0.34101794  0.34101794  0.17058829  1
  Tb  Tb2  1  0.34168752  0.34168752  0.67073793  1
  Nd  Nd3  1  0.65776997  0.65776997  0.32895379  1
  Fe  Fe4  1  0.90374875  0.90374875  0.45204955  1
  Fe  Fe5  1  0.90322227  0.90322227  0.95149668  1
  Fe  Fe6  1  0.09698647  0.09698647  0.04822741  1
  Fe  Fe7  1  0.09687029  0.09687029  0.54862881  1
  Fe  Fe8  1  0.00062207  0.00062207  0.24978342  1
  Fe  Fe9  1  0.00007444  0.00007444  0.74998743  1
  Fe  Fe10  1  0.00061636  0.49956887  0.50049568  1
  Fe  Fe11  1  0.00003322  0.49998773  0.99985885  1
  Fe  Fe12  1  0.49998773  0.00003322  0.99985885  1
  Fe  Fe13  1  0.49956887  0.00061636  0.50049568  1
  Fe  Fe14  1  0.84558234  0.34234577  0.17107798  1
  Fe  Fe15  1  0.84499827  0.34328272  0.67178939  1
  Fe  Fe16  1  0.34225710  0.34225710  0.42281927  1
  Fe  Fe17  1  0.34340299  0.34340299  0.92244813  1
  Fe  Fe18  1  0.34234577  0.84558234  0.17107798  1
  Fe  Fe19  1  0.34328272  0.84499827  0.67178939  1
  Fe  Fe20  1  0.15513660  0.65678830  0.32843560  1
  Fe  Fe21  1  0.15504345  0.65672200  0.82823654  1
  Fe  Fe22  1  0.65660317  0.65660317  0.07677886  1
  Fe  Fe23  1  0.65684751  0.65684751  0.57838030  1
  Fe  Fe24  1  0.65678830  0.15513660  0.32843560  1
  Fe  Fe25  1  0.65672200  0.15504345  0.82823654  1
  Fe  Fe26  1  0.29214503  0.70707055  0.50065549  1
  Fe  Fe27  1  0.29367861  0.70636307  0.99984138  1
  Fe  Fe28  1  0.70703884  0.00104540  0.14600714  1
  Fe  Fe29  1  0.70643646  0.99992941  0.64694284  1
  Fe  Fe30  1  0.00086352  0.29216992  0.35354079  1
  Fe  Fe31  1  0.00005151  0.29361614  0.85313071  1
  Fe  Fe32  1  0.29216992  0.00086352  0.35354079  1
  Fe  Fe33  1  0.29361614  0.00005151  0.85313071  1
  Fe  Fe34  1  0.00104540  0.70703884  0.14600714  1
  Fe  Fe35  1  0.99992941  0.70643646  0.64694284  1
  Fe  Fe36  1  0.70707055  0.29214503  0.50065549  1
  Fe  Fe37  1  0.70636307  0.29367861  0.99984138  1
