# generated using pymatgen
data_TaTiSbO6
_symmetry_space_group_name_H-M   'P 1'
_cell_length_a   4.89873050
_cell_length_b   5.56349020
_cell_length_c   8.70115694
_cell_angle_alpha   91.51828375
_cell_angle_beta   73.58305905
_cell_angle_gamma   90.37935206
_symmetry_Int_Tables_number   1
_chemical_formula_structural   TaTiSbO6
_chemical_formula_sum   'Ta2 Ti2 Sb2 O12'
_cell_volume   227.39355850
_cell_formula_units_Z   2
loop_
 _symmetry_equiv_pos_site_id
 _symmetry_equiv_pos_as_xyz
  1  'x, y, z'
loop_
 _atom_site_type_symbol
 _atom_site_label
 _atom_site_symmetry_multiplicity
 _atom_site_fract_x
 _atom_site_fract_y
 _atom_site_fract_z
 _atom_site_occupancy
  Ta  Ta0  1  0.93435671  0.82194939  0.65100259  1
  Ta  Ta1  1  0.06564329  0.17805061  0.34899741  1
  Ti  Ti2  1  0.59127085  0.67517922  0.34668061  1
  Ti  Ti3  1  0.40872915  0.32482078  0.65331939  1
  Sb  Sb4  1  0.30078855  0.74258799  0.99986736  1
  Sb  Sb5  1  0.69921145  0.25741201  0.00013264  1
  O  O6  1  0.81471605  0.92953218  0.27745674  1
  O  O7  1  0.09547541  0.56350512  0.72546872  1
  O  O8  1  0.18528395  0.07046782  0.72254326  1
  O  O9  1  0.90452459  0.43649488  0.27453128  1
  O  O10  1  0.21881468  0.84698838  0.43682316  1
  O  O11  1  0.65882562  0.65525354  0.56086804  1
  O  O12  1  0.78118532  0.15301162  0.56317684  1
  O  O13  1  0.34117438  0.34474646  0.43913196  1
  O  O14  1  0.51760686  0.58395106  0.13699715  1
  O  O15  1  0.65442284  0.91348246  0.86386653  1
  O  O16  1  0.48239314  0.41604894  0.86300285  1
  O  O17  1  0.34557716  0.08651754  0.13613347  1
