# generated using pymatgen
data_TaNb2FeSe10
_symmetry_space_group_name_H-M   'P 1'
_cell_length_a   3.54135627
_cell_length_b   9.69201762
_cell_length_c   10.17358518
_cell_angle_alpha   112.32619547
_cell_angle_beta   90.00000000
_cell_angle_gamma   90.00000000
_symmetry_Int_Tables_number   1
_chemical_formula_structural   TaNb2FeSe10
_chemical_formula_sum   'Ta1 Nb2 Fe1 Se10'
_cell_volume   323.01042474
_cell_formula_units_Z   1
loop_
 _symmetry_equiv_pos_site_id
 _symmetry_equiv_pos_as_xyz
  1  'x, y, z'
loop_
 _atom_site_type_symbol
 _atom_site_label
 _atom_site_symmetry_multiplicity
 _atom_site_fract_x
 _atom_site_fract_y
 _atom_site_fract_z
 _atom_site_occupancy
  Ta  Ta0  1  0.25000000  0.54109957  0.91806005  1
  Nb  Nb1  1  0.75000000  0.71552473  0.62732800  1
  Nb  Nb2  1  0.25000000  0.28573022  0.36194289  1
  Fe  Fe3  1  0.75000000  0.45718878  0.10336707  1
  Se  Se4  1  0.25000000  0.93676471  0.75072109  1
  Se  Se5  1  0.75000000  0.06296844  0.23998442  1
  Se  Se6  1  0.25000000  0.51156783  0.63144916  1
  Se  Se7  1  0.75000000  0.48624708  0.35484010  1
  Se  Se8  1  0.25000000  0.83352548  0.49941536  1
  Se  Se9  1  0.75000000  0.17131992  0.49077948  1
  Se  Se10  1  0.75000000  0.74204936  0.90814477  1
  Se  Se11  1  0.25000000  0.27617102  0.09139359  1
  Se  Se12  1  0.75000000  0.33569402  0.84603874  1
  Se  Se13  1  0.25000000  0.64414886  0.17653529  1
