# generated using pymatgen
data_Ti5Bi4(PbO9)2
_symmetry_space_group_name_H-M   'P 1'
_cell_length_a   5.52540380
_cell_length_b   5.56080362
_cell_length_c   25.05427528
_cell_angle_alpha   83.62846951
_cell_angle_beta   89.88220069
_cell_angle_gamma   88.93844712
_symmetry_Int_Tables_number   1
_chemical_formula_structural   Ti5Bi4(PbO9)2
_chemical_formula_sum   'Ti10 Bi8 Pb4 O36'
_cell_volume   764.92350195
_cell_formula_units_Z   2
loop_
 _symmetry_equiv_pos_site_id
 _symmetry_equiv_pos_as_xyz
  1  'x, y, z'
loop_
 _atom_site_type_symbol
 _atom_site_label
 _atom_site_symmetry_multiplicity
 _atom_site_fract_x
 _atom_site_fract_y
 _atom_site_fract_z
 _atom_site_occupancy
  Ti  Ti0  1  0.51082184  0.05378552  0.83493451  1
  Ti  Ti1  1  0.51001367  0.90213051  0.16689788  1
  Ti  Ti2  1  0.01001367  0.56902838  0.83310212  1
  Ti  Ti3  1  0.01082184  0.38872002  0.16506549  1
  Ti  Ti4  1  0.50016557  0.16125374  0.66004465  1
  Ti  Ti5  1  0.51148773  0.80619072  0.33952617  1
  Ti  Ti6  1  0.01148773  0.64571689  0.66047383  1
  Ti  Ti7  1  0.00016557  0.32129839  0.33995535  1
  Ti  Ti8  1  0.50235423  0.98217951  0.99917776  1
  Ti  Ti9  1  0.00235423  0.48135727  0.00082224  1
  Bi  Bi10  1  0.52394062  0.65419625  0.73646407  1
  Bi  Bi11  1  0.02394062  0.89066032  0.26353593  1
  Bi  Bi12  1  0.51937003  0.48444080  0.08699722  1
  Bi  Bi13  1  0.01937003  0.07143802  0.91300278  1
  Bi  Bi14  1  0.53033670  0.28968463  0.44936700  1
  Bi  Bi15  1  0.47481334  0.73713699  0.55045686  1
  Bi  Bi16  1  0.97481334  0.78759385  0.44954314  1
  Bi  Bi17  1  0.03033670  0.23905163  0.55063300  1
  Pb  Pb18  1  0.50562371  0.36950936  0.25413863  1
  Pb  Pb19  1  0.00562371  0.12364798  0.74586137  1
  Pb  Pb20  1  0.51032337  0.53744954  0.91722345  1
  Pb  Pb21  1  0.01032337  0.95467300  0.08277655  1
  O  O22  1  0.25019190  0.38188503  0.68163951  1
  O  O23  1  0.74847335  0.05597573  0.32045267  1
  O  O24  1  0.24847335  0.87642840  0.67954733  1
  O  O25  1  0.75019190  0.56352455  0.31836049  1
  O  O26  1  0.23787897  0.19375124  0.00684022  1
  O  O27  1  0.74495353  0.20009802  0.99147449  1
  O  O28  1  0.24495353  0.69157251  0.00852551  1
  O  O29  1  0.73787897  0.70059146  0.99315978  1
  O  O30  1  0.24478511  0.99885007  0.49792052  1
  O  O31  1  0.75519712  0.49810351  0.50153662  1
  O  O32  1  0.25519712  0.49964013  0.49846338  1
  O  O33  1  0.74478511  0.99677060  0.50207948  1
  O  O34  1  0.20386251  0.24112238  0.83554681  1
  O  O35  1  0.78792390  0.07313548  0.16896113  1
  O  O36  1  0.28792390  0.74209661  0.83103887  1
  O  O37  1  0.70386251  0.57666918  0.16445319  1
  O  O38  1  0.28308054  0.16157279  0.14851326  1
  O  O39  1  0.72087315  0.29717046  0.84581442  1
  O  O40  1  0.22087315  0.64298489  0.15418558  1
  O  O41  1  0.78308054  0.81008605  0.85148674  1
  O  O42  1  0.43079892  0.98645108  0.91974610  1
  O  O43  1  0.53640054  0.88973719  0.07992974  1
  O  O44  1  0.03640054  0.46966693  0.92007026  1
  O  O45  1  0.93079892  0.40619717  0.08025390  1
  O  O46  1  0.45097247  0.18069026  0.58980107  1
  O  O47  1  0.55007519  0.76073917  0.40997773  1
  O  O48  1  0.05007519  0.67071690  0.59002227  1
  O  O49  1  0.95097247  0.27049133  0.41019893  1
  O  O50  1  0.23335464  0.04155173  0.32921183  1
  O  O51  1  0.74851832  0.38364454  0.67045246  1
  O  O52  1  0.24851832  0.55409700  0.32954754  1
  O  O53  1  0.73335464  0.87076356  0.67078817  1
  O  O54  1  0.53325777  0.04728665  0.75994281  1
  O  O55  1  0.44015127  0.84873354  0.24009754  1
  O  O56  1  0.94015127  0.58883108  0.75990246  1
  O  O57  1  0.03325777  0.30722945  0.24005719  1
