# generated using pymatgen
data_Tb6Ge3Se14
_symmetry_space_group_name_H-M   'P 1'
_cell_length_a   6.03488142
_cell_length_b   10.45297738
_cell_length_c   10.45285346
_cell_angle_alpha   60.00007813
_cell_angle_beta   90.00006494
_cell_angle_gamma   89.99951252
_symmetry_Int_Tables_number   1
_chemical_formula_structural   Tb6Ge3Se14
_chemical_formula_sum   'Tb6 Ge3 Se14'
_cell_volume   571.05059376
_cell_formula_units_Z   1
loop_
 _symmetry_equiv_pos_site_id
 _symmetry_equiv_pos_as_xyz
  1  'x, y, z'
loop_
 _atom_site_type_symbol
 _atom_site_label
 _atom_site_symmetry_multiplicity
 _atom_site_fract_x
 _atom_site_fract_y
 _atom_site_fract_z
 _atom_site_occupancy
  Tb  Tb0  1  0.24816331  0.22657890  0.13067376  1
  Tb  Tb1  1  0.24815883  0.64276037  0.22657123  1
  Tb  Tb2  1  0.24816139  0.13067751  0.64274684  1
  Tb  Tb3  1  0.74910720  0.77283903  0.86917482  1
  Tb  Tb4  1  0.74910255  0.35797472  0.77284439  1
  Tb  Tb5  1  0.74910668  0.86917200  0.35799076  1
  Ge  Ge6  1  0.82864587  0.33334371  0.33332902  1
  Ge  Ge7  1  0.33025802  0.66665544  0.66667051  1
  Ge  Ge8  1  0.48092367  0.00000059  0.00000046  1
  Se  Se9  1  0.43949713  0.33334726  0.33332587  1
  Se  Se10  1  0.94092488  0.66664134  0.66667831  1
  Se  Se11  1  0.99546277  0.09515368  0.41965606  1
  Se  Se12  1  0.99547292  0.48519624  0.09514608  1
  Se  Se13  1  0.99547272  0.41966140  0.48519174  1
  Se  Se14  1  0.49731081  0.90432696  0.58091370  1
  Se  Se15  1  0.49733537  0.51475225  0.90433641  1
  Se  Se16  1  0.49733597  0.58091192  0.51475260  1
  Se  Se17  1  0.72271585  0.16113084  0.09722114  1
  Se  Se18  1  0.72271741  0.74165367  0.16113310  1
  Se  Se19  1  0.72271696  0.09721457  0.74164760  1
  Se  Se20  1  0.22647126  0.83631565  0.90500069  1
  Se  Se21  1  0.22646911  0.25868450  0.83631054  1
  Se  Se22  1  0.22646932  0.90500746  0.25868435  1
