# generated using pymatgen
data_Tb9Ga5S21
_symmetry_space_group_name_H-M   'P 1'
_cell_length_a   11.48725160
_cell_length_b   11.48719056
_cell_length_c   11.48722613
_cell_angle_alpha   94.79268046
_cell_angle_beta   85.20697366
_cell_angle_gamma   85.20683573
_symmetry_Int_Tables_number   1
_chemical_formula_structural   Tb9Ga5S21
_chemical_formula_sum   'Tb18 Ga10 S42'
_cell_volume   1498.95940464
_cell_formula_units_Z   2
loop_
 _symmetry_equiv_pos_site_id
 _symmetry_equiv_pos_as_xyz
  1  'x, y, z'
loop_
 _atom_site_type_symbol
 _atom_site_label
 _atom_site_symmetry_multiplicity
 _atom_site_fract_x
 _atom_site_fract_y
 _atom_site_fract_z
 _atom_site_occupancy
  Tb  Tb0  1  0.25802419  0.11541608  0.88020849  1
  Tb  Tb1  1  0.91911362  0.45739735  0.22452990  1
  Tb  Tb2  1  0.59837917  0.77696214  0.54903157  1
  Tb  Tb3  1  0.45096954  0.40161883  0.77696139  1
  Tb  Tb4  1  0.11979213  0.74197417  0.11541497  1
  Tb  Tb5  1  0.77547350  0.08088374  0.45739741  1
  Tb  Tb6  1  0.54259987  0.22452847  0.08088608  1
  Tb  Tb7  1  0.22304156  0.54903117  0.40161610  1
  Tb  Tb8  1  0.88458295  0.88020899  0.74197612  1
  Tb  Tb9  1  0.41645434  0.21034476  0.44117826  1
  Tb  Tb10  1  0.07149950  0.55109516  0.78377225  1
  Tb  Tb11  1  0.75095200  0.87415092  0.10661333  1
  Tb  Tb12  1  0.21622701  0.92849955  0.55109174  1
  Tb  Tb13  1  0.89338630  0.24904997  0.87414921  1
  Tb  Tb14  1  0.55882366  0.58354408  0.21034215  1
  Tb  Tb15  1  0.12585057  0.10661601  0.24905043  1
  Tb  Tb16  1  0.78965531  0.44117706  0.58354560  1
  Tb  Tb17  1  0.44890666  0.78377227  0.92850114  1
  Ga  Ga18  1  0.94635461  0.72286450  0.39057506  1
  Ga  Ga19  1  0.60942508  0.05364851  0.72286540  1
  Ga  Ga20  1  0.27713420  0.39057674  0.05364494  1
  Ga  Ga21  1  0.44578619  0.88823748  0.22473048  1
  Ga  Ga22  1  0.11176019  0.22473105  0.55421662  1
  Ga  Ga23  1  0.77526700  0.55421323  0.88823823  1
  Ga  Ga24  1  0.14296262  0.85703811  0.85703686  1
  Ga  Ga25  1  0.84184328  0.15815273  0.15815121  1
  Ga  Ga26  1  0.34244585  0.65755900  0.65755971  1
  Ga  Ga27  1  0.64277090  0.35722860  0.35723141  1
  S  S28  1  0.98446193  0.53863695  0.44800761  1
  S  S29  1  0.64267346  0.87015894  0.78126879  1
  S  S30  1  0.30572588  0.20284769  0.10715120  1
  S  S31  1  0.89285045  0.69427153  0.20284732  1
  S  S32  1  0.55199378  0.01554163  0.53863748  1
  S  S33  1  0.21873157  0.35732605  0.87015829  1
  S  S34  1  0.12984052  0.78127046  0.35732392  1
  S  S35  1  0.79715425  0.10715152  0.69426892  1
  S  S36  1  0.46136089  0.44800837  0.01553988  1
  S  S37  1  0.52447380  0.96745127  0.06362920  1
  S  S38  1  0.18766033  0.29938882  0.38904231  1
  S  S39  1  0.84500773  0.63209578  0.72140333  1
  S  S40  1  0.61095926  0.81233778  0.29938590  1
  S  S41  1  0.27859195  0.15498914  0.63209233  1
  S  S42  1  0.93636680  0.47552979  0.96745206  1
  S  S43  1  0.36790537  0.72140745  0.15499451  1
  S  S44  1  0.03254819  0.06363121  0.47553113  1
  S  S45  1  0.70061569  0.38904132  0.81234357  1
  S  S46  1  0.82157796  0.84685523  0.51328679  1
  S  S47  1  0.48671343  0.17842228  0.84685440  1
  S  S48  1  0.15314162  0.51328442  0.17842258  1
  S  S49  1  0.65334787  0.67893052  0.01303492  1
  S  S50  1  0.32107146  0.01303553  0.34665221  1
  S  S51  1  0.98696451  0.34665465  0.67893196  1
  S  S52  1  0.69119969  0.55991625  0.40609019  1
  S  S53  1  0.33707235  0.89634068  0.75742195  1
  S  S54  1  0.00813039  0.23855409  0.09355603  1
  S  S55  1  0.90644534  0.99186837  0.23855344  1
  S  S56  1  0.59390766  0.30880109  0.55991832  1
  S  S57  1  0.24257778  0.66292150  0.89634359  1
  S  S58  1  0.10365269  0.75742502  0.66292621  1
  S  S59  1  0.76144688  0.09355367  0.99186433  1
  S  S60  1  0.44008143  0.40609111  0.30880163  1
  S  S61  1  0.61921739  0.14803793  0.28744829  1
  S  S62  1  0.27556626  0.47738588  0.62152038  1
  S  S63  1  0.95900211  0.78993209  0.94453475  1
  S  S64  1  0.37847647  0.72443463  0.47738317  1
  S  S65  1  0.05546614  0.04099728  0.78993301  1
  S  S66  1  0.71255154  0.38078409  0.14804315  1
  S  S67  1  0.21007103  0.94453150  0.04099688  1
  S  S68  1  0.85196043  0.28744687  0.38078738  1
  S  S69  1  0.52261993  0.62152293  0.72443467  1
