# generated using pymatgen
data_SrGdCoO4
_symmetry_space_group_name_H-M   'P 1'
_cell_length_a   5.34684779
_cell_length_b   5.37525613
_cell_length_c   6.62114874
_cell_angle_alpha   90.00000000
_cell_angle_beta   66.18590276
_cell_angle_gamma   90.00000000
_symmetry_Int_Tables_number   1
_chemical_formula_structural   SrGdCoO4
_chemical_formula_sum   'Sr2 Gd2 Co2 O8'
_cell_volume   174.09453344
_cell_formula_units_Z   2
loop_
 _symmetry_equiv_pos_site_id
 _symmetry_equiv_pos_as_xyz
  1  'x, y, z'
loop_
 _atom_site_type_symbol
 _atom_site_label
 _atom_site_symmetry_multiplicity
 _atom_site_fract_x
 _atom_site_fract_y
 _atom_site_fract_z
 _atom_site_occupancy
  Sr  Sr0  1  0.85439591  0.50000000  0.29120819  1
  Sr  Sr1  1  0.64560409  0.00000000  0.70879181  1
  Gd  Gd2  1  0.36566496  -0.00000000  0.26867007  1
  Gd  Gd3  1  0.13433504  0.50000000  0.73132993  1
  Co  Co4  1  0.49916792  0.50000000  0.00166417  1
  Co  Co5  1  0.00083208  -0.00000000  0.99833583  1
  O  O6  1  0.17651104  -0.00000000  0.64697792  1
  O  O7  1  0.65718177  0.50000000  0.68563647  1
  O  O8  1  0.32348896  0.50000000  0.35302208  1
  O  O9  1  0.84281823  0.00000000  0.31436353  1
  O  O10  1  0.25000000  0.25000000  -0.00000000  1
  O  O11  1  0.75000000  0.75000000  -0.00000000  1
  O  O12  1  0.75000000  0.25000000  -0.00000000  1
  O  O13  1  0.25000000  0.75000000  -0.00000000  1
