# generated using pymatgen
data_Sr4CaYGa2(Cu2O7)2
_symmetry_space_group_name_H-M   'P 1'
_cell_length_a   5.39541065
_cell_length_b   5.50183162
_cell_length_c   12.24392944
_cell_angle_alpha   76.95834232
_cell_angle_beta   77.27158453
_cell_angle_gamma   90.00000000
_symmetry_Int_Tables_number   1
_chemical_formula_structural   Sr4CaYGa2(Cu2O7)2
_chemical_formula_sum   'Sr4 Ca1 Y1 Ga2 Cu4 O14'
_cell_volume   344.90724604
_cell_formula_units_Z   1
loop_
 _symmetry_equiv_pos_site_id
 _symmetry_equiv_pos_as_xyz
  1  'x, y, z'
loop_
 _atom_site_type_symbol
 _atom_site_label
 _atom_site_symmetry_multiplicity
 _atom_site_fract_x
 _atom_site_fract_y
 _atom_site_fract_z
 _atom_site_occupancy
  Sr  Sr0  1  0.85174385  0.83528208  0.30064233  1
  Sr  Sr1  1  0.15238619  0.16471792  0.69935767  1
  Sr  Sr2  1  0.65367787  0.63698207  0.69733603  1
  Sr  Sr3  1  0.35101389  0.36301793  0.30266397  1
  Ca  Ca4  1  0.99997885  0.00000000  -0.00000000  1
  Y  Y5  1  0.50003567  0.50000000  -0.00000000  1
  Ga  Ga6  1  0.29564169  0.81844658  0.49995233  1
  Ga  Ga7  1  0.79559402  0.18155342  0.50004767  1
  Cu  Cu8  1  0.42661169  0.92709031  0.14652337  1
  Cu  Cu9  1  0.57313506  0.07290969  0.85347663  1
  Cu  Cu10  1  0.07326360  0.57405987  0.85329901  1
  Cu  Cu11  1  0.92656260  0.42594013  0.14670099  1
  O  O12  1  0.14783566  0.13403150  0.50091150  1
  O  O13  1  0.64874716  0.86596850  0.49908850  1
  O  O14  1  0.68339037  0.68297497  0.12571718  1
  O  O15  1  0.80910756  0.31702503  0.87428282  1
  O  O16  1  0.31785052  0.31854242  0.87418524  1
  O  O17  1  0.19203576  0.68145758  0.12581476  1
  O  O18  1  0.80783806  0.36788989  0.35244272  1
  O  O19  1  0.16028078  0.63211011  0.64755728  1
  O  O20  1  0.65964848  0.21914735  0.64752749  1
  O  O21  1  0.30717597  0.78085265  0.35247251  1
  O  O22  1  0.18831703  0.18880708  0.13382470  1
  O  O23  1  0.32214173  0.81119292  0.86617530  1
  O  O24  1  0.81189498  0.81153573  0.86619600  1
  O  O25  1  0.67809098  0.18846427  0.13380400  1
