# generated using pymatgen
data_Sr4HfTi3O12
_symmetry_space_group_name_H-M   'P 1'
_cell_length_a   4.00848075
_cell_length_b   8.92408964
_cell_length_c   7.98824692
_cell_angle_alpha   63.41234078
_cell_angle_beta   90.00000000
_cell_angle_gamma   90.00000000
_symmetry_Int_Tables_number   1
_chemical_formula_structural   Sr4HfTi3O12
_chemical_formula_sum   'Sr4 Hf1 Ti3 O12'
_cell_volume   255.53740205
_cell_formula_units_Z   1
loop_
 _symmetry_equiv_pos_site_id
 _symmetry_equiv_pos_as_xyz
  1  'x, y, z'
loop_
 _atom_site_type_symbol
 _atom_site_label
 _atom_site_symmetry_multiplicity
 _atom_site_fract_x
 _atom_site_fract_y
 _atom_site_fract_z
 _atom_site_occupancy
  Sr  Sr0  1  0.50000000  0.74344394  0.38573753  1
  Sr  Sr1  1  0.50000000  0.25655606  0.12918147  1
  Sr  Sr2  1  0.50000000  0.74344394  0.87081853  1
  Sr  Sr3  1  0.50000000  0.25655606  0.61426247  1
  Hf  Hf4  1  -0.00000000  0.00000000  0.00000000  1
  Ti  Ti5  1  0.00000000  0.50119596  0.74940202  1
  Ti  Ti6  1  0.00000000  0.00000000  0.50000000  1
  Ti  Ti7  1  0.00000000  0.49880404  0.25059798  1
  O  O8  1  0.00000000  0.74990643  0.62504678  1
  O  O9  1  0.00000000  0.25009357  0.37495322  1
  O  O10  1  0.00000000  0.74001617  0.12999192  1
  O  O11  1  0.00000000  0.25998383  0.87000808  1
  O  O12  1  0.00000000  0.50000000  0.50000000  1
  O  O13  1  0.00000000  0.00000000  0.25808493  1
  O  O14  1  0.00000000  0.50000000  0.00000000  1
  O  O15  1  0.00000000  0.00000000  0.74191507  1
  O  O16  1  0.50000000  0.50549625  0.74725188  1
  O  O17  1  0.50000000  0.00000000  0.50000000  1
  O  O18  1  0.50000000  0.49450375  0.25274812  1
  O  O19  1  0.50000000  0.00000000  0.00000000  1
