# generated using pymatgen
data_SrLa3Mn2Cr2O12
_symmetry_space_group_name_H-M   'P 1'
_cell_length_a   5.54681259
_cell_length_b   5.54681259
_cell_length_c   9.62525882
_cell_angle_alpha   74.55600816
_cell_angle_beta   91.37207142
_cell_angle_gamma   60.24111850
_symmetry_Int_Tables_number   1
_chemical_formula_structural   SrLa3Mn2Cr2O12
_chemical_formula_sum   'Sr1 La3 Mn2 Cr2 O12'
_cell_volume   243.45263902
_cell_formula_units_Z   1
loop_
 _symmetry_equiv_pos_site_id
 _symmetry_equiv_pos_as_xyz
  1  'x, y, z'
loop_
 _atom_site_type_symbol
 _atom_site_label
 _atom_site_symmetry_multiplicity
 _atom_site_fract_x
 _atom_site_fract_y
 _atom_site_fract_z
 _atom_site_occupancy
  Sr  Sr0  1  0.86988976  0.25511024  0.62500000  1
  La  La1  1  0.38078968  0.24421032  0.12500000  1
  La  La2  1  0.12705640  0.74745219  0.37836497  1
  La  La3  1  0.62418284  0.75130857  0.87163503  1
  Mn  Mn4  1  0.25027891  0.50001879  0.74990849  1
  Mn  Mn5  1  0.50007272  0.99962958  0.50009151  1
  Cr  Cr6  1  0.74774853  0.50258937  0.24955533  1
  Cr  Cr7  1  0.99785529  0.00180680  0.00044467  1
  O  O8  1  0.81003338  0.81496662  0.12500000  1
  O  O9  1  0.32811180  0.79688820  0.62500000  1
  O  O10  1  0.16239376  0.25239367  0.34399361  1
  O  O11  1  0.64202522  0.25761368  0.84745052  1
  O  O12  1  0.64493580  0.70542530  0.40254948  1
  O  O13  1  0.15361272  0.68159984  0.90600639  1
  O  O14  1  0.33778638  0.75104384  0.16028278  1
  O  O15  1  0.85047554  0.74730122  0.65570903  1
  O  O16  1  0.83867338  0.32249640  0.08971722  1
  O  O17  1  0.34698975  0.30523349  0.59429097  1
  O  O18  1  0.69067655  0.18547276  0.36811566  1
  O  O19  1  0.19641159  0.17743911  0.88188434  1
