# generated using pymatgen
data_Sr3(Cd2Ga)2
_symmetry_space_group_name_H-M   'P 1'
_cell_length_a   4.96632376
_cell_length_b   6.32835401
_cell_length_c   17.80579782
_cell_angle_alpha   83.97099771
_cell_angle_beta   98.01648587
_cell_angle_gamma   113.10308368
_symmetry_Int_Tables_number   1
_chemical_formula_structural   Sr3(Cd2Ga)2
_chemical_formula_sum   'Sr6 Cd8 Ga4'
_cell_volume   508.92344486
_cell_formula_units_Z   2
loop_
 _symmetry_equiv_pos_site_id
 _symmetry_equiv_pos_as_xyz
  1  'x, y, z'
loop_
 _atom_site_type_symbol
 _atom_site_label
 _atom_site_symmetry_multiplicity
 _atom_site_fract_x
 _atom_site_fract_y
 _atom_site_fract_z
 _atom_site_occupancy
  Sr  Sr0  1  0.55613121  0.70740830  0.90485312  1
  Sr  Sr1  1  0.21890753  0.70437710  0.23343896  1
  Sr  Sr2  1  0.88737977  0.70615767  0.56860188  1
  Sr  Sr3  1  0.77953726  0.29387653  0.76519698  1
  Sr  Sr4  1  0.44477120  0.29263905  0.09690436  1
  Sr  Sr5  1  0.11297446  0.29530001  0.43064891  1
  Cd  Cd6  1  0.79906360  0.72544318  0.37268303  1
  Cd  Cd7  1  0.46640156  0.72550796  0.70729617  1
  Cd  Cd8  1  0.92125332  0.10844877  0.23405788  1
  Cd  Cd9  1  0.58820028  0.10868623  0.56771334  1
  Cd  Cd10  1  0.25427886  0.10385136  0.90470737  1
  Cd  Cd11  1  0.53601417  0.27365719  0.29837016  1
  Cd  Cd12  1  0.20245965  0.27283345  0.63208684  1
  Cd  Cd13  1  0.87562663  0.28528891  0.96596434  1
  Ga  Ga14  1  0.73706217  0.88281106  0.09131229  1
  Ga  Ga15  1  0.40928157  0.89210728  0.42645685  1
  Ga  Ga16  1  0.07570489  0.89090968  0.76050010  1
  Ga  Ga17  1  0.13495184  0.73069627  0.03920742  1
