# generated using pymatgen
data_Sr3LaC2N4F5
_symmetry_space_group_name_H-M   'P 1'
_cell_length_a   6.62764058
_cell_length_b   6.65614226
_cell_length_c   6.69280341
_cell_angle_alpha   104.34641415
_cell_angle_beta   119.84788207
_cell_angle_gamma   60.14154705
_symmetry_Int_Tables_number   1
_chemical_formula_structural   Sr3LaC2N4F5
_chemical_formula_sum   'Sr3 La1 C2 N4 F5'
_cell_volume   222.09164429
_cell_formula_units_Z   1
loop_
 _symmetry_equiv_pos_site_id
 _symmetry_equiv_pos_as_xyz
  1  'x, y, z'
loop_
 _atom_site_type_symbol
 _atom_site_label
 _atom_site_symmetry_multiplicity
 _atom_site_fract_x
 _atom_site_fract_y
 _atom_site_fract_z
 _atom_site_occupancy
  Sr  Sr0  1  0.90896043  -0.00000000  0.32641558  1
  Sr  Sr1  1  0.41676146  0.67445786  0.99986033  1
  Sr  Sr2  1  0.09121932  0.32554214  0.99986033  1
  La  La3  1  0.59121459  -0.00000000  0.67878754  1
  C  C4  1  0.49984026  0.49762850  0.50082287  1
  C  C5  1  0.99746876  0.50237150  0.50082287  1
  N  N6  1  0.35554550  0.65322574  0.35524968  1
  N  N7  1  0.64567402  0.34201834  0.64838065  1
  N  N8  1  0.00877125  0.34677426  0.35524968  1
  N  N9  1  0.98769236  0.65798166  0.64838065  1
  F  F10  1  0.98944289  -0.00000000  0.99167305  1
  F  F11  1  0.50329232  -0.00000000  0.27857978  1
  F  F12  1  0.24086042  0.00000000  0.72962563  1
  F  F13  1  0.49974968  0.26375704  0.99314569  1
  F  F14  1  0.76350673  0.73624296  0.99314569  1
