# generated using pymatgen
data_SrLa2Al2O7
_symmetry_space_group_name_H-M   'P 1'
_cell_length_a   3.78348441
_cell_length_b   3.78348441
_cell_length_c   10.67459368
_cell_angle_alpha   79.79217627
_cell_angle_beta   79.79217627
_cell_angle_gamma   90.00000000
_symmetry_Int_Tables_number   1
_chemical_formula_structural   SrLa2Al2O7
_chemical_formula_sum   'Sr1 La2 Al2 O7'
_cell_volume   147.92729738
_cell_formula_units_Z   1
loop_
 _symmetry_equiv_pos_site_id
 _symmetry_equiv_pos_as_xyz
  1  'x, y, z'
loop_
 _atom_site_type_symbol
 _atom_site_label
 _atom_site_symmetry_multiplicity
 _atom_site_fract_x
 _atom_site_fract_y
 _atom_site_fract_z
 _atom_site_occupancy
  Sr  Sr0  1  0.50000000  0.50000000  -0.00000000  1
  La  La1  1  0.31953611  0.31953611  0.36092779  1
  La  La2  1  0.68046389  0.68046389  0.63907221  1
  Al  Al3  1  0.08988843  0.08988843  0.82022314  1
  Al  Al4  1  0.91011157  0.91011157  0.17977686  1
  O  O5  1  0.59966316  0.09966316  0.80067368  1
  O  O6  1  0.09966316  0.59966316  0.80067368  1
  O  O7  1  0.40033684  0.90033684  0.19932632  1
  O  O8  1  0.90033684  0.40033684  0.19932632  1
  O  O9  1  0.20150447  0.20150447  0.59699107  1
  O  O10  1  0.79849553  0.79849553  0.40300893  1
  O  O11  1  -0.00000000  0.00000000  -0.00000000  1
