# generated using pymatgen
data_Ta4InBi3O16
_symmetry_space_group_name_H-M   'P 1'
_cell_length_a   5.51665774
_cell_length_b   7.81554532
_cell_length_c   7.74474520
_cell_angle_alpha   101.61817680
_cell_angle_beta   89.32393288
_cell_angle_gamma   87.41045691
_symmetry_Int_Tables_number   1
_chemical_formula_structural   Ta4InBi3O16
_chemical_formula_sum   'Ta4 In1 Bi3 O16'
_cell_volume   326.66994295
_cell_formula_units_Z   1
loop_
 _symmetry_equiv_pos_site_id
 _symmetry_equiv_pos_as_xyz
  1  'x, y, z'
loop_
 _atom_site_type_symbol
 _atom_site_label
 _atom_site_symmetry_multiplicity
 _atom_site_fract_x
 _atom_site_fract_y
 _atom_site_fract_z
 _atom_site_occupancy
  Ta  Ta0  1  0.75279252  0.33088384  0.19082025  1
  Ta  Ta1  1  0.24313715  0.67301761  0.81490623  1
  Ta  Ta2  1  0.22676212  0.65916665  0.31007623  1
  Ta  Ta3  1  0.77654996  0.34424854  0.69030519  1
  In  In4  1  0.70908621  0.84583451  0.12324806  1
  Bi  Bi5  1  0.28897216  0.17173777  0.88842125  1
  Bi  Bi6  1  0.23634117  0.11821836  0.37536422  1
  Bi  Bi7  1  0.75492495  0.88236963  0.61811923  1
  O  O8  1  0.08667303  0.44462436  0.77967543  1
  O  O9  1  0.92973560  0.55177273  0.20881347  1
  O  O10  1  0.54183245  0.15443964  0.63202012  1
  O  O11  1  0.47635926  0.84439816  0.36146494  1
  O  O12  1  0.68762393  0.33625331  0.94796070  1
  O  O13  1  0.35629895  0.67721855  0.05371373  1
  O  O14  1  0.55384182  0.54025452  0.70519412  1
  O  O15  1  0.43596532  0.45327713  0.29478690  1
  O  O16  1  0.55119149  0.10946057  0.16591304  1
  O  O17  1  0.42273885  0.89250954  0.81905480  1
  O  O18  1  0.00099235  0.10741942  0.68548105  1
  O  O19  1  0.99593788  0.88694090  0.31640125  1
  O  O20  1  0.03309453  0.16763093  0.12802780  1
  O  O21  1  0.92975252  0.79877022  0.88997394  1
  O  O22  1  0.86143096  0.32268814  0.44248549  1
  O  O23  1  0.14796481  0.68686498  0.55777258  1
