# generated using pymatgen
data_SrMn2Si2(H2O5)2
_symmetry_space_group_name_H-M   'P 1'
_cell_length_a   5.64223333
_cell_length_b   5.53920435
_cell_length_c   13.57160744
_cell_angle_alpha   90.00000000
_cell_angle_beta   90.00000000
_cell_angle_gamma   111.44316124
_symmetry_Int_Tables_number   1
_chemical_formula_structural   SrMn2Si2(H2O5)2
_chemical_formula_sum   'Sr2 Mn4 Si4 H8 O20'
_cell_volume   394.79994399
_cell_formula_units_Z   2
loop_
 _symmetry_equiv_pos_site_id
 _symmetry_equiv_pos_as_xyz
  1  'x, y, z'
loop_
 _atom_site_type_symbol
 _atom_site_label
 _atom_site_symmetry_multiplicity
 _atom_site_fract_x
 _atom_site_fract_y
 _atom_site_fract_z
 _atom_site_occupancy
  Sr  Sr0  1  0.68332019  0.30386011  0.75000000  1
  Sr  Sr1  1  0.31667981  0.69613989  0.25000000  1
  Mn  Mn2  1  0.00000000  0.50000000  0.50000000  1
  Mn  Mn3  1  0.50000000  0.00000000  0.50000000  1
  Mn  Mn4  1  0.00000000  0.50000000  0.00000000  1
  Mn  Mn5  1  0.50000000  0.00000000  0.00000000  1
  Si  Si6  1  0.02983820  0.97601313  0.63186171  1
  Si  Si7  1  0.97016180  0.02398687  0.36813829  1
  Si  Si8  1  0.02983820  0.97601313  0.86813829  1
  Si  Si9  1  0.97016180  0.02398687  0.13186171  1
  H  H10  1  0.35416501  0.64584126  0.68936299  1
  H  H11  1  0.64583499  0.35415874  0.31063701  1
  H  H12  1  0.35416501  0.64584126  0.81063701  1
  H  H13  1  0.64583499  0.35415874  0.18936299  1
  H  H14  1  0.46144792  0.53098926  0.55828943  1
  H  H15  1  0.53855208  0.46901074  0.44171057  1
  H  H16  1  0.46144792  0.53098926  0.94171057  1
  H  H17  1  0.53855208  0.46901074  0.05828943  1
  O  O18  1  0.99251659  0.02983620  0.75000000  1
  O  O19  1  0.00748341  0.97016380  0.25000000  1
  O  O20  1  0.35835131  0.63995732  0.55451201  1
  O  O21  1  0.64164869  0.36004268  0.44548799  1
  O  O22  1  0.35835131  0.63995732  0.94548799  1
  O  O23  1  0.64164869  0.36004268  0.05451201  1
  O  O24  1  0.90792569  0.65906120  0.61429521  1
  O  O25  1  0.65962467  0.89847031  0.38820305  1
  O  O26  1  0.90792569  0.65906120  0.88570479  1
  O  O27  1  0.65962467  0.89847031  0.11179695  1
  O  O28  1  0.09207431  0.34093880  0.38570479  1
  O  O29  1  0.34037533  0.10152969  0.61179695  1
  O  O30  1  0.09207431  0.34093880  0.11429521  1
  O  O31  1  0.34037533  0.10152969  0.88820305  1
  O  O32  1  0.86913385  0.13098371  0.57749011  1
  O  O33  1  0.13086615  0.86901629  0.42250989  1
  O  O34  1  0.86913385  0.13098371  0.92250989  1
  O  O35  1  0.13086615  0.86901629  0.07749011  1
  O  O36  1  0.43976043  0.62105501  0.75000000  1
  O  O37  1  0.56023957  0.37894499  0.25000000  1
