# generated using pymatgen
data_SrAl2O4
_symmetry_space_group_name_H-M   'P 1'
_cell_length_a   5.21061638
_cell_length_b   5.19329031
_cell_length_c   8.67047397
_cell_angle_alpha   90.00037395
_cell_angle_beta   86.64011920
_cell_angle_gamma   60.10827166
_symmetry_Int_Tables_number   1
_chemical_formula_structural   SrAl2O4
_chemical_formula_sum   'Sr2 Al4 O8'
_cell_volume   202.94728944
_cell_formula_units_Z   2
loop_
 _symmetry_equiv_pos_site_id
 _symmetry_equiv_pos_as_xyz
  1  'x, y, z'
loop_
 _atom_site_type_symbol
 _atom_site_label
 _atom_site_symmetry_multiplicity
 _atom_site_fract_x
 _atom_site_fract_y
 _atom_site_fract_z
 _atom_site_occupancy
  Sr  Sr0  1  0.00320136  0.98816920  0.75135443  1
  Sr  Sr1  1  0.99679880  0.99135755  0.24864586  1
  Al  Al2  1  0.33442994  0.34122561  0.44536112  1
  Al  Al3  1  0.66559706  0.67565806  0.55464972  1
  Al  Al4  1  0.66193630  0.68634032  0.94552867  1
  Al  Al5  1  0.33800858  0.34831986  0.05446612  1
  O  O6  1  0.65111721  0.78156387  0.74973409  1
  O  O7  1  0.34890243  0.43266367  0.25025645  1
  O  O8  1  0.64521244  0.97856498  0.45400239  1
  O  O9  1  0.00000951  0.33882039  0.50000024  1
  O  O10  1  0.35479343  0.62376635  0.54599850  1
  O  O11  1  0.35491460  0.99941291  0.04182571  1
  O  O12  1  0.00002453  0.64818584  0.00001734  1
  O  O13  1  0.64505380  0.35435139  0.95815936  1
