# generated using pymatgen
data_Sr6CaY2Ga3(Cu2O7)3
_symmetry_space_group_name_H-M   'P 1'
_cell_length_a   5.51526216
_cell_length_b   16.17504433
_cell_length_c   12.20110108
_cell_angle_alpha   102.78944198
_cell_angle_beta   76.93743278
_cell_angle_gamma   90.00000000
_symmetry_Int_Tables_number   1
_chemical_formula_structural   Sr6CaY2Ga3(Cu2O7)3
_chemical_formula_sum   'Sr12 Ca2 Y4 Ga6 Cu12 O42'
_cell_volume   1032.54967195
_cell_formula_units_Z   2
loop_
 _symmetry_equiv_pos_site_id
 _symmetry_equiv_pos_as_xyz
  1  'x, y, z'
loop_
 _atom_site_type_symbol
 _atom_site_label
 _atom_site_symmetry_multiplicity
 _atom_site_fract_x
 _atom_site_fract_y
 _atom_site_fract_z
 _atom_site_occupancy
  Sr  Sr0  1  0.83365875  0.71613548  0.30269221  1
  Sr  Sr1  1  0.83353935  0.38323573  0.30287614  1
  Sr  Sr2  1  0.83506558  0.04942981  0.30036260  1
  Sr  Sr3  1  0.16646129  0.61521095  0.69713030  1
  Sr  Sr4  1  0.16635260  0.28225888  0.69732342  1
  Sr  Sr5  1  0.16495946  0.94929018  0.69957309  1
  Sr  Sr6  1  0.63632398  0.78225888  0.69732342  1
  Sr  Sr7  1  0.63546745  0.44929018  0.69957309  1
  Sr  Sr8  1  0.63640840  0.11521095  0.69713030  1
  Sr  Sr9  1  0.36457181  0.54942981  0.30036260  1
  Sr  Sr10  1  0.36364904  0.21613548  0.30269221  1
  Sr  Sr11  1  0.36358451  0.88323573  0.30287614  1
  Ca  Ca12  1  0.00002864  0.00006742  0.00006927  1
  Ca  Ca13  1  0.49990209  0.50006742  0.00006927  1
  Y  Y14  1  0.00010121  0.33424613  -0.00003856  1
  Y  Y15  1  0.00013395  0.66571885  -0.00008695  1
  Y  Y16  1  0.49993735  0.83424613  -0.00003856  1
  Y  Y17  1  0.49995300  0.16571885  -0.00008695  1
  Ga  Ga18  1  0.81933517  0.90250311  0.49999178  1
  Ga  Ga19  1  0.81909944  0.23560522  0.49982338  1
  Ga  Ga20  1  0.81920685  0.56900121  0.49998144  1
  Ga  Ga21  1  0.18081171  0.06900121  0.49998144  1
  Ga  Ga22  1  0.18067305  0.40250311  0.49999178  1
  Ga  Ga23  1  0.18107718  0.73560522  0.49982338  1
  Cu  Cu24  1  0.92784360  0.52437450  0.14570132  1
  Cu  Cu25  1  0.92751619  0.19052833  0.14587670  1
  Cu  Cu26  1  0.92752631  0.85827598  0.14592094  1
  Cu  Cu27  1  0.07239480  0.80962356  0.85432180  1
  Cu  Cu28  1  0.07243799  0.47576557  0.85394107  1
  Cu  Cu29  1  0.07241821  0.14196950  0.85421210  1
  Cu  Cu30  1  0.57336969  0.64196950  0.85421210  1
  Cu  Cu31  1  0.57328340  0.30962356  0.85432180  1
  Cu  Cu32  1  0.57362094  0.97576557  0.85394107  1
  Cu  Cu33  1  0.42660711  0.69052833  0.14587670  1
  Cu  Cu34  1  0.42655275  0.35827598  0.14592094  1
  Cu  Cu35  1  0.42645508  0.02437450  0.14570132  1
  O  O36  1  0.69182038  0.43591981  0.12674027  1
  O  O37  1  0.68358838  0.10598712  0.12656702  1
  O  O38  1  0.68965930  0.77013880  0.12209752  1
  O  O39  1  0.30973298  0.72960872  0.87824998  1
  O  O40  1  0.30797151  0.39366509  0.87331164  1
  O  O41  1  0.31693031  0.06370116  0.87351457  1
  O  O42  1  0.31871685  0.89366509  0.87331164  1
  O  O43  1  0.30955512  0.56370116  0.87351457  1
  O  O44  1  0.31201704  0.22960872  0.87824998  1
  O  O45  1  0.68984461  0.60598712  0.12656702  1
  O  O46  1  0.68824318  0.27013880  0.12209752  1
  O  O47  1  0.68143935  0.93591981  0.12674027  1
  O  O48  1  0.36851781  0.73237737  0.35221781  1
  O  O49  1  0.36809088  0.39881086  0.35226493  1
  O  O50  1  0.36947745  0.06561541  0.35297383  1
  O  O51  1  0.63191986  0.61497254  0.64769695  1
  O  O52  1  0.63178748  0.28128348  0.64750271  1
  O  O53  1  0.63065975  0.94801224  0.64708389  1
  O  O54  1  0.22070980  0.78128348  0.64750271  1
  O  O55  1  0.22225636  0.44801224  0.64708389  1
  O  O56  1  0.22038319  0.11497254  0.64769695  1
  O  O57  1  0.77754871  0.56561541  0.35297383  1
  O  O58  1  0.77926438  0.23237737  0.35221781  1
  O  O59  1  0.77964418  0.89881086  0.35226493  1
  O  O60  1  0.17777076  0.60803890  0.13425532  1
  O  O61  1  0.18551873  0.27140188  0.12867260  1
  O  O62  1  0.18869081  0.93691071  0.13435045  1
  O  O63  1  0.81107916  0.89207581  0.86576968  1
  O  O64  1  0.82299639  0.56315777  0.86578511  1
  O  O65  1  0.81378444  0.22873581  0.87155554  1
  O  O66  1  0.81466002  0.72873581  0.87155554  1
  O  O67  1  0.82315116  0.39207581  0.86576968  1
  O  O68  1  0.81121851  0.06315777  0.86578511  1
  O  O69  1  0.17695874  0.43691071  0.13435045  1
  O  O70  1  0.18797393  0.10803890  0.13425532  1
  O  O71  1  0.18580867  0.77140188  0.12867260  1
  O  O72  1  0.13429593  0.61820528  0.49884777  1
  O  O73  1  0.13295350  0.28523305  0.49995046  1
  O  O74  1  0.13334718  0.95190776  0.50091987  1
  O  O75  1  0.86709604  0.78523305  0.49995046  1
  O  O76  1  0.86573295  0.45190776  0.50091987  1
  O  O77  1  0.86685630  0.11820528  0.49884777  1
