# generated using pymatgen
data_Sn2SeS2
_symmetry_space_group_name_H-M   'P 1'
_cell_length_a   3.89236975
_cell_length_b   9.17792940
_cell_length_c   14.52096744
_cell_angle_alpha   90.00000000
_cell_angle_beta   90.00000000
_cell_angle_gamma   90.00000000
_symmetry_Int_Tables_number   1
_chemical_formula_structural   Sn2SeS2
_chemical_formula_sum   'Sn8 Se4 S8'
_cell_volume   518.74551270
_cell_formula_units_Z   4
loop_
 _symmetry_equiv_pos_site_id
 _symmetry_equiv_pos_as_xyz
  1  'x, y, z'
loop_
 _atom_site_type_symbol
 _atom_site_label
 _atom_site_symmetry_multiplicity
 _atom_site_fract_x
 _atom_site_fract_y
 _atom_site_fract_z
 _atom_site_occupancy
  Sn  Sn0  1  0.75000000  0.34030092  0.55395628  1
  Sn  Sn1  1  0.75000000  0.84030092  0.94604372  1
  Sn  Sn2  1  0.25000000  0.65969908  0.44604372  1
  Sn  Sn3  1  0.25000000  0.15969908  0.05395628  1
  Sn  Sn4  1  0.25000000  0.02187052  0.67125381  1
  Sn  Sn5  1  0.25000000  0.52187052  0.82874619  1
  Sn  Sn6  1  0.75000000  0.97812948  0.32874619  1
  Sn  Sn7  1  0.75000000  0.47812948  0.17125381  1
  Se  Se8  1  0.25000000  0.15784805  0.49270553  1
  Se  Se9  1  0.25000000  0.65784805  0.00729447  1
  Se  Se10  1  0.75000000  0.84215195  0.50729447  1
  Se  Se11  1  0.75000000  0.34215195  0.99270553  1
  S  S12  1  0.75000000  0.21244973  0.70991657  1
  S  S13  1  0.75000000  0.71244973  0.79008343  1
  S  S14  1  0.25000000  0.78755027  0.29008343  1
  S  S15  1  0.25000000  0.28755027  0.20991657  1
  S  S16  1  0.25000000  0.51831420  0.60402022  1
  S  S17  1  0.25000000  0.01831420  0.89597978  1
  S  S18  1  0.75000000  0.48168580  0.39597978  1
  S  S19  1  0.75000000  0.98168580  0.10402022  1
