# generated using pymatgen
data_Sr3Ti(GaO2)10
_symmetry_space_group_name_H-M   'P 1'
_cell_length_a   5.15408798
_cell_length_b   9.83339285
_cell_length_c   9.83339285
_cell_angle_alpha   73.92289496
_cell_angle_beta   75.16419992
_cell_angle_gamma   75.16419992
_symmetry_Int_Tables_number   1
_chemical_formula_structural   Sr3Ti(GaO2)10
_chemical_formula_sum   'Sr3 Ti1 Ga10 O20'
_cell_volume   453.63278412
_cell_formula_units_Z   1
loop_
 _symmetry_equiv_pos_site_id
 _symmetry_equiv_pos_as_xyz
  1  'x, y, z'
loop_
 _atom_site_type_symbol
 _atom_site_label
 _atom_site_symmetry_multiplicity
 _atom_site_fract_x
 _atom_site_fract_y
 _atom_site_fract_z
 _atom_site_occupancy
  Sr  Sr0  1  0.71329406  0.27758040  0.27758040  1
  Sr  Sr1  1  0.28670594  0.72241960  0.72241960  1
  Sr  Sr2  1  -0.00000000  -0.00000000  0.00000000  1
  Ti  Ti3  1  -0.00000000  0.50000000  0.50000000  1
  Ga  Ga4  1  0.34579262  0.27810808  0.00729943  1
  Ga  Ga5  1  0.34579262  0.00729943  0.27810808  1
  Ga  Ga6  1  0.65420738  0.72189192  0.99270057  1
  Ga  Ga7  1  0.65420738  0.99270057  0.72189192  1
  Ga  Ga8  1  0.50000000  0.36496520  0.63503480  1
  Ga  Ga9  1  0.50000000  0.63503480  0.36496520  1
  Ga  Ga10  1  0.83412962  0.42302918  0.85662775  1
  Ga  Ga11  1  0.83412962  0.85662775  0.42302918  1
  Ga  Ga12  1  0.16587038  0.57697082  0.14337225  1
  Ga  Ga13  1  0.16587038  0.14337225  0.57697082  1
  O  O14  1  0.49619558  0.90653782  0.90653782  1
  O  O15  1  0.50380442  0.09346218  0.09346218  1
  O  O16  1  0.89294259  0.54290036  0.30752984  1
  O  O17  1  0.89294259  0.30752984  0.54290036  1
  O  O18  1  0.10705741  0.45709964  0.69247016  1
  O  O19  1  0.10705741  0.69247016  0.45709964  1
  O  O20  1  0.57496101  0.33358653  0.82816010  1
  O  O21  1  0.57496101  0.82816010  0.33358653  1
  O  O22  1  0.42503899  0.66641347  0.17183990  1
  O  O23  1  0.42503899  0.17183990  0.66641347  1
  O  O24  1  0.65102385  0.87538204  0.60537809  1
  O  O25  1  0.65102385  0.60537809  0.87538204  1
  O  O26  1  0.34897615  0.12461796  0.39462191  1
  O  O27  1  0.34897615  0.39462191  0.12461796  1
  O  O28  1  0.61110244  0.56663888  0.56663888  1
  O  O29  1  0.38889756  0.43336112  0.43336112  1
  O  O30  1  0.98541681  0.28067399  0.00201353  1
  O  O31  1  0.98541681  0.00201353  0.28067399  1
  O  O32  1  0.01458319  0.71932601  0.99798647  1
  O  O33  1  0.01458319  0.99798647  0.71932601  1
