# generated using pymatgen
data_SrFe3Bi2O9
_symmetry_space_group_name_H-M   'P 1'
_cell_length_a   5.58695906
_cell_length_b   5.58695906
_cell_length_c   6.86745551
_cell_angle_alpha   90.00000000
_cell_angle_beta   90.00000000
_cell_angle_gamma   120.00000000
_symmetry_Int_Tables_number   1
_chemical_formula_structural   SrFe3Bi2O9
_chemical_formula_sum   'Sr1 Fe3 Bi2 O9'
_cell_volume   185.64252424
_cell_formula_units_Z   1
loop_
 _symmetry_equiv_pos_site_id
 _symmetry_equiv_pos_as_xyz
  1  'x, y, z'
loop_
 _atom_site_type_symbol
 _atom_site_label
 _atom_site_symmetry_multiplicity
 _atom_site_fract_x
 _atom_site_fract_y
 _atom_site_fract_z
 _atom_site_occupancy
  Sr  Sr0  1  0.66666700  0.33333300  0.83333300  1
  Fe  Fe1  1  0.33333300  0.66666700  0.68574820  1
  Fe  Fe2  1  -0.00000000  -0.00000000  0.98091880  1
  Fe  Fe3  1  0.66666700  0.33333300  0.33333300  1
  Bi  Bi4  1  0.33333300  0.66666700  0.22240154  1
  Bi  Bi5  1  0.00000000  -0.00000000  0.44426546  1
  O  O6  1  0.49281070  0.50718930  0.48777079  1
  O  O7  1  0.16666700  0.83333300  0.83333300  1
  O  O8  1  0.84052230  0.15947770  0.17889621  1
  O  O9  1  0.66666700  0.83333300  0.83333300  1
  O  O10  1  0.31895440  0.15947770  0.17889621  1
  O  O11  1  0.01437860  0.50718930  0.48777079  1
  O  O12  1  0.49281070  0.98562140  0.48777079  1
  O  O13  1  0.16666700  0.33333300  0.83333300  1
  O  O14  1  0.84052230  0.68104560  0.17889621  1
