# generated using pymatgen
data_Sr2NdCu3(PbO4)2
_symmetry_space_group_name_H-M   'P 1'
_cell_length_a   3.87296043
_cell_length_b   3.89429427
_cell_length_c   16.04894255
_cell_angle_alpha   90.74000643
_cell_angle_beta   89.72046988
_cell_angle_gamma   90.38487537
_symmetry_Int_Tables_number   1
_chemical_formula_structural   Sr2NdCu3(PbO4)2
_chemical_formula_sum   'Sr2 Nd1 Cu3 Pb2 O8'
_cell_volume   242.02890644
_cell_formula_units_Z   1
loop_
 _symmetry_equiv_pos_site_id
 _symmetry_equiv_pos_as_xyz
  1  'x, y, z'
loop_
 _atom_site_type_symbol
 _atom_site_label
 _atom_site_symmetry_multiplicity
 _atom_site_fract_x
 _atom_site_fract_y
 _atom_site_fract_z
 _atom_site_occupancy
  Sr  Sr0  1  0.99920224  0.00519095  0.22321137  1
  Sr  Sr1  1  0.00079776  0.99480905  0.77678863  1
  Nd  Nd2  1  0.00000000  -0.00000000  -0.00000000  1
  Cu  Cu3  1  0.49968769  0.50079721  0.10969165  1
  Cu  Cu4  1  0.50031231  0.49920279  0.89030835  1
  Cu  Cu5  1  0.00000000  -0.00000000  0.50000000  1
  Pb  Pb6  1  0.49796410  0.49380355  0.38914459  1
  Pb  Pb7  1  0.50203590  0.50619645  0.61085541  1
  O  O8  1  0.49594773  0.50244095  0.25293099  1
  O  O9  1  0.50405227  0.49755905  0.74706901  1
  O  O10  1  0.99993345  0.50099494  0.09715746  1
  O  O11  1  0.49951951  0.99975771  0.09742891  1
  O  O12  1  0.00006655  0.49900506  0.90284254  1
  O  O13  1  0.50048049  0.00024229  0.90257109  1
  O  O14  1  0.96862404  0.09133083  0.38630625  1
  O  O15  1  0.03137596  0.90866917  0.61369375  1
