# generated using pymatgen
data_Sm7Ti4(Se2O)6
_symmetry_space_group_name_H-M   'P 1'
_cell_length_a   3.81951869
_cell_length_b   11.19903094
_cell_length_c   14.25849198
_cell_angle_alpha   89.58191365
_cell_angle_beta   82.30276387
_cell_angle_gamma   90.00000000
_symmetry_Int_Tables_number   1
_chemical_formula_structural   Sm7Ti4(Se2O)6
_chemical_formula_sum   'Sm7 Ti4 Se12 O6'
_cell_volume   604.39384114
_cell_formula_units_Z   1
loop_
 _symmetry_equiv_pos_site_id
 _symmetry_equiv_pos_as_xyz
  1  'x, y, z'
loop_
 _atom_site_type_symbol
 _atom_site_label
 _atom_site_symmetry_multiplicity
 _atom_site_fract_x
 _atom_site_fract_y
 _atom_site_fract_z
 _atom_site_occupancy
  Sm  Sm0  1  0.05761317  0.26946150  0.88477367  1
  Sm  Sm1  1  0.94680772  0.73000946  0.10638456  1
  Sm  Sm2  1  0.56789147  0.77050789  0.86421707  1
  Sm  Sm3  1  0.43823482  0.23264748  0.12353036  1
  Sm  Sm4  1  0.19615489  0.42412954  0.60769022  1
  Sm  Sm5  1  0.79908719  0.57705213  0.40182562  1
  Sm  Sm6  1  0.32524914  0.95365409  0.34950173  1
  Ti  Ti7  1  0.20882340  0.73491443  0.58235320  1
  Ti  Ti8  1  0.78591189  0.26876170  0.42817623  1
  Ti  Ti9  1  0.50060781  0.50012058  0.99878438  1
  Ti  Ti10  1  0.00091269  0.00051401  0.99817463  1
  Se  Se11  1  0.43703024  0.95080733  0.12593951  1
  Se  Se12  1  0.56127334  0.04795931  0.87745333  1
  Se  Se13  1  0.33933681  0.37803616  0.32132638  1
  Se  Se14  1  0.66197404  0.61851224  0.67605192  1
  Se  Se15  1  0.06399083  0.54225390  0.87201834  1
  Se  Se16  1  0.93573378  0.45929847  0.12853244  1
  Se  Se17  1  0.75745165  0.84546026  0.48509669  1
  Se  Se18  1  0.24634039  0.15372637  0.50731922  1
  Se  Se19  1  0.13992669  0.86560333  0.72014661  1
  Se  Se20  1  0.85984691  0.12668759  0.28030618  1
  Se  Se21  1  0.36303997  0.71138399  0.27392007  1
  Se  Se22  1  0.63671443  0.29283900  0.72657113  1
  O  O23  1  0.48553934  0.66683909  0.02892132  1
  O  O24  1  0.51428304  0.33240210  0.97143391  1
  O  O25  1  0.02044689  0.83654254  0.95910621  1
  O  O26  1  0.97849893  0.16589801  0.04300213  1
  O  O27  1  0.25122198  0.59655756  0.49755604  1
  O  O28  1  0.74771655  0.40272996  0.50456691  1
