# generated using pymatgen
data_Sm2CrFe16
_symmetry_space_group_name_H-M   'P 1'
_cell_length_a   6.43933337
_cell_length_b   6.43933337
_cell_length_c   6.43933385
_cell_angle_alpha   82.60182169
_cell_angle_beta   82.60182169
_cell_angle_gamma   82.60182362
_symmetry_Int_Tables_number   1
_chemical_formula_structural   Sm2CrFe16
_chemical_formula_sum   'Sm2 Cr1 Fe16'
_cell_volume   260.86595062
_cell_formula_units_Z   1
loop_
 _symmetry_equiv_pos_site_id
 _symmetry_equiv_pos_as_xyz
  1  'x, y, z'
loop_
 _atom_site_type_symbol
 _atom_site_label
 _atom_site_symmetry_multiplicity
 _atom_site_fract_x
 _atom_site_fract_y
 _atom_site_fract_z
 _atom_site_occupancy
  Sm  Sm0  1  0.65831432  0.65831432  0.65831432  1
  Sm  Sm1  1  0.34587752  0.34587752  0.34587752  1
  Cr  Cr2  1  0.09160261  0.09160261  0.09160261  1
  Fe  Fe3  1  0.29444423  0.70411003  0.99964778  1
  Fe  Fe4  1  0.70411003  0.99964778  0.29444423  1
  Fe  Fe5  1  0.99964778  0.29444423  0.70411003  1
  Fe  Fe6  1  0.29444423  0.99964778  0.70411003  1
  Fe  Fe7  1  0.99964778  0.70411003  0.29444423  1
  Fe  Fe8  1  0.70411003  0.29444423  0.99964778  1
  Fe  Fe9  1  0.00112198  0.00112198  0.49840514  1
  Fe  Fe10  1  0.00112198  0.49840514  0.00112198  1
  Fe  Fe11  1  0.49840514  0.00112198  0.00112198  1
  Fe  Fe12  1  0.84445132  0.34074940  0.34074940  1
  Fe  Fe13  1  0.34074940  0.34074940  0.84445132  1
  Fe  Fe14  1  0.34074940  0.84445132  0.34074940  1
  Fe  Fe15  1  0.15597615  0.65897185  0.65897185  1
  Fe  Fe16  1  0.65897185  0.65897185  0.15597615  1
  Fe  Fe17  1  0.65897185  0.15597615  0.65897185  1
  Fe  Fe18  1  0.90728236  0.90728236  0.90728236  1
