# generated using pymatgen
data_Sr2YMn2O7
_symmetry_space_group_name_H-M   'P 1'
_cell_length_a   5.61452610
_cell_length_b   5.51943171
_cell_length_c   10.18183520
_cell_angle_alpha   90.00000000
_cell_angle_beta   74.52846834
_cell_angle_gamma   90.00000000
_symmetry_Int_Tables_number   1
_chemical_formula_structural   Sr2YMn2O7
_chemical_formula_sum   'Sr4 Y2 Mn4 O14'
_cell_volume   304.09118727
_cell_formula_units_Z   2
loop_
 _symmetry_equiv_pos_site_id
 _symmetry_equiv_pos_as_xyz
  1  'x, y, z'
loop_
 _atom_site_type_symbol
 _atom_site_label
 _atom_site_symmetry_multiplicity
 _atom_site_fract_x
 _atom_site_fract_y
 _atom_site_fract_z
 _atom_site_occupancy
  Sr  Sr0  1  0.25386200  0.25000000  0.99886618  1
  Sr  Sr1  1  0.74613800  0.75000000  0.00113382  1
  Sr  Sr2  1  0.07607009  0.25000000  0.36966198  1
  Sr  Sr3  1  0.92392991  0.75000000  0.63033802  1
  Y  Y4  1  0.54355202  0.75000000  0.35975112  1
  Y  Y5  1  0.45644798  0.25000000  0.64024888  1
  Mn  Mn6  1  0.85158982  0.25000000  0.80258275  1
  Mn  Mn7  1  0.34807641  0.75000000  0.80042196  1
  Mn  Mn8  1  0.14841018  0.75000000  0.19741725  1
  Mn  Mn9  1  0.65192359  0.25000000  0.19957804  1
  O  O10  1  0.88075862  0.25000000  0.60806444  1
  O  O11  1  0.48777652  0.75000000  0.58860193  1
  O  O12  1  0.11924138  0.75000000  0.39193556  1
  O  O13  1  0.51222348  0.25000000  0.41139807  1
  O  O14  1  0.87294184  0.98958093  0.22418191  1
  O  O15  1  0.87294184  0.51041907  0.22418191  1
  O  O16  1  0.12705816  0.01041907  0.77581809  1
  O  O17  1  0.12705816  0.48958093  0.77581809  1
  O  O18  1  0.41317326  0.50312984  0.18778803  1
  O  O19  1  0.41317326  0.99687016  0.18778803  1
  O  O20  1  0.58682674  0.49687016  0.81221197  1
  O  O21  1  0.58682674  0.00312984  0.81221197  1
  O  O22  1  0.20321884  0.75000000  0.99918687  1
  O  O23  1  0.79678116  0.25000000  0.00081313  1
