# generated using pymatgen
data_Sm2HfCo16
_symmetry_space_group_name_H-M   'P 1'
_cell_length_a   8.26544230
_cell_length_b   8.44172016
_cell_length_c   8.44172016
_cell_angle_alpha   120.01172644
_cell_angle_beta   90.00110175
_cell_angle_gamma   89.99889825
_symmetry_Int_Tables_number   1
_chemical_formula_structural   Sm2HfCo16
_chemical_formula_sum   'Sm4 Hf2 Co32'
_cell_volume   510.04360029
_cell_formula_units_Z   2
loop_
 _symmetry_equiv_pos_site_id
 _symmetry_equiv_pos_as_xyz
  1  'x, y, z'
loop_
 _atom_site_type_symbol
 _atom_site_label
 _atom_site_symmetry_multiplicity
 _atom_site_fract_x
 _atom_site_fract_y
 _atom_site_fract_z
 _atom_site_occupancy
  Sm  Sm0  1  0.26448069  0.66671596  0.33328404  1
  Sm  Sm1  1  0.73551931  0.33328404  0.66671596  1
  Sm  Sm2  1  0.74994023  0.00002227  -0.00002227  1
  Sm  Sm3  1  0.25005977  -0.00002227  0.00002227  1
  Hf  Hf4  1  0.11404055  0.33329588  0.66670412  1
  Hf  Hf5  1  0.88595945  0.66670412  0.33329588  1
  Co  Co6  1  0.74804371  0.67035008  0.03947776  1
  Co  Co7  1  0.74807453  0.36908650  0.32957592  1
  Co  Co8  1  0.74806069  0.96049174  0.63090261  1
  Co  Co9  1  0.74806069  0.36909739  0.03950826  1
  Co  Co10  1  0.74804371  0.96052224  0.32964992  1
  Co  Co11  1  0.74807453  0.67042408  0.63091350  1
  Co  Co12  1  0.25195629  0.32964992  0.96052224  1
  Co  Co13  1  0.25192547  0.63091350  0.67042408  1
  Co  Co14  1  0.25193931  0.03950826  0.36909739  1
  Co  Co15  1  0.25193931  0.63090261  0.96049174  1
  Co  Co16  1  0.25195629  0.03947776  0.67035008  1
  Co  Co17  1  0.25192547  0.32957592  0.36908650  1
  Co  Co18  1  0.50000000  0.50000000  -0.00000000  1
  Co  Co19  1  0.50000000  0.50000000  0.50000000  1
  Co  Co20  1  0.50000000  -0.00000000  0.50000000  1
  Co  Co21  1  0.00000000  0.50000000  -0.00000000  1
  Co  Co22  1  0.00000000  0.50000000  0.50000000  1
  Co  Co23  1  0.00000000  -0.00000000  0.50000000  1
  Co  Co24  1  0.48556303  0.83313186  0.66628664  1
  Co  Co25  1  0.48556480  0.83314707  0.16685293  1
  Co  Co26  1  0.48556303  0.33371336  0.16686814  1
  Co  Co27  1  0.51443697  0.16686814  0.33371336  1
  Co  Co28  1  0.51443520  0.16685293  0.83314707  1
  Co  Co29  1  0.51443697  0.66628664  0.83313186  1
  Co  Co30  1  0.97959278  0.16331767  0.32663660  1
  Co  Co31  1  0.97967125  0.16328259  0.83671741  1
  Co  Co32  1  0.97959278  0.67336340  0.83668233  1
  Co  Co33  1  0.02040722  0.83668233  0.67336340  1
  Co  Co34  1  0.02032875  0.83671741  0.16328259  1
  Co  Co35  1  0.02040722  0.32663660  0.16331767  1
  Co  Co36  1  0.59423118  0.66665597  0.33334403  1
  Co  Co37  1  0.40576882  0.33334403  0.66665597  1
