# generated using pymatgen
data_Nd4S4Cl2O
_symmetry_space_group_name_H-M   'P 1'
_cell_length_a   6.91407549
_cell_length_b   9.15342595
_cell_length_c   9.27095600
_cell_angle_alpha   60.41847707
_cell_angle_beta   90.00000000
_cell_angle_gamma   90.00000000
_symmetry_Int_Tables_number   1
_chemical_formula_structural   Nd4S4Cl2O
_chemical_formula_sum   'Nd8 S8 Cl4 O2'
_cell_volume   510.25691004
_cell_formula_units_Z   2
loop_
 _symmetry_equiv_pos_site_id
 _symmetry_equiv_pos_as_xyz
  1  'x, y, z'
loop_
 _atom_site_type_symbol
 _atom_site_label
 _atom_site_symmetry_multiplicity
 _atom_site_fract_x
 _atom_site_fract_y
 _atom_site_fract_z
 _atom_site_occupancy
  Nd  Nd0  1  0.23692803  0.19581757  0.60836486  1
  Nd  Nd1  1  0.25898260  0.60651278  0.20139096  1
  Nd  Nd2  1  0.25898260  0.19209626  0.20139096  1
  Nd  Nd3  1  0.73692803  0.80418243  0.39163514  1
  Nd  Nd4  1  0.75898260  0.39348722  0.79860904  1
  Nd  Nd5  1  0.75898260  0.80790374  0.79860904  1
  Nd  Nd6  1  0.78612474  0.31956062  0.36087876  1
  Nd  Nd7  1  0.28612474  0.68043938  0.63912124  1
  S  S8  1  0.53485769  0.46112831  0.07774338  1
  S  S9  1  0.52175377  0.05594740  0.47606391  1
  S  S10  1  0.52175377  0.46798869  0.47606391  1
  S  S11  1  0.03485769  0.53887169  0.92225662  1
  S  S12  1  0.02175377  0.94405260  0.52393609  1
  S  S13  1  0.02175377  0.53201131  0.52393609  1
  S  S14  1  0.85914668  0.13454836  0.73090328  1
  S  S15  1  0.35914668  0.86545164  0.26909672  1
  Cl  Cl16  1  0.86258858  0.73527752  0.13119291  1
  Cl  Cl17  1  0.86258858  0.13352957  0.13119291  1
  Cl  Cl18  1  0.36258858  0.26472248  0.86880709  1
  Cl  Cl19  1  0.36258858  0.86647043  0.86880709  1
  O  O20  1  0.13094296  0.33267755  0.33464491  1
  O  O21  1  0.63094296  0.66732245  0.66535509  1
