# generated using pymatgen
data_Nd3Ga5SiO14
_symmetry_space_group_name_H-M   'P 1'
_cell_length_a   5.12443540
_cell_length_b   8.17667598
_cell_length_c   8.17658240
_cell_angle_alpha   60.00013519
_cell_angle_beta   89.99969808
_cell_angle_gamma   90.00018216
_symmetry_Int_Tables_number   1
_chemical_formula_structural   Nd3Ga5SiO14
_chemical_formula_sum   'Nd3 Ga5 Si1 O14'
_cell_volume   296.70567417
_cell_formula_units_Z   1
loop_
 _symmetry_equiv_pos_site_id
 _symmetry_equiv_pos_as_xyz
  1  'x, y, z'
loop_
 _atom_site_type_symbol
 _atom_site_label
 _atom_site_symmetry_multiplicity
 _atom_site_fract_x
 _atom_site_fract_y
 _atom_site_fract_z
 _atom_site_occupancy
  Nd  Nd0  1  0.00306101  0.57807800  0.00932863  1
  Nd  Nd1  1  0.00306453  0.41260085  0.57808988  1
  Nd  Nd2  1  0.00306115  0.00933151  0.41259320  1
  Ga  Ga3  1  0.49316092  0.23780000  0.99793395  1
  Ga  Ga4  1  0.49316425  0.76427131  0.23780491  1
  Ga  Ga5  1  0.49316148  0.99793138  0.76426154  1
  Ga  Ga6  1  0.99677553  0.99999868  0.99999797  1
  Ga  Ga7  1  0.47183944  0.33334381  0.33332971  1
  Si  Si8  1  0.54682274  0.66665496  0.66667262  1
  O  O9  1  0.82658407  0.33334480  0.33332845  1
  O  O10  1  0.22899671  0.66664493  0.66667668  1
  O  O11  1  0.23670053  0.84926813  0.92802875  1
  O  O12  1  0.23669957  0.22269484  0.84926604  1
  O  O13  1  0.23669808  0.92803634  0.22270478  1
  O  O14  1  0.76109727  0.14198415  0.77389276  1
  O  O15  1  0.76108918  0.08411703  0.14198465  1
  O  O16  1  0.76109069  0.77390558  0.08411398  1
  O  O17  1  0.68401939  0.84437336  0.67946812  1
  O  O18  1  0.68403350  0.47614818  0.84437857  1
  O  O19  1  0.68402633  0.67946101  0.47615533  1
  O  O20  1  0.29829410  0.14108854  0.54024707  1
  O  O21  1  0.29828113  0.31866250  0.14108724  1
  O  O22  1  0.29827839  0.54026007  0.31865517  1
