# generated using pymatgen
data_Sr2PrF6
_symmetry_space_group_name_H-M   'P 1'
_cell_length_a   4.02603892
_cell_length_b   6.08985204
_cell_length_c   7.16963854
_cell_angle_alpha   64.86849598
_cell_angle_beta   73.69383354
_cell_angle_gamma   90.00000000
_symmetry_Int_Tables_number   1
_chemical_formula_structural   Sr2PrF6
_chemical_formula_sum   'Sr2 Pr1 F6'
_cell_volume   151.29778878
_cell_formula_units_Z   1
loop_
 _symmetry_equiv_pos_site_id
 _symmetry_equiv_pos_as_xyz
  1  'x, y, z'
loop_
 _atom_site_type_symbol
 _atom_site_label
 _atom_site_symmetry_multiplicity
 _atom_site_fract_x
 _atom_site_fract_y
 _atom_site_fract_z
 _atom_site_occupancy
  Sr  Sr0  1  0.32877908  0.32877908  0.34244084  1
  Sr  Sr1  1  0.67122092  0.67122092  0.65755916  1
  Pr  Pr2  1  -0.00000000  -0.00000000  0.00000000  1
  F  F3  1  0.50000000  0.26629440  0.00000000  1
  F  F4  1  0.83789908  0.58584695  0.32420084  1
  F  F5  1  0.16210092  0.91004879  0.67579916  1
  F  F6  1  0.50000000  0.73370560  0.00000000  1
  F  F7  1  0.83789908  0.08995121  0.32420084  1
  F  F8  1  0.16210092  0.41415305  0.67579916  1
