# generated using pymatgen
data_Re9Mo3Se16
_symmetry_space_group_name_H-M   'P 1'
_cell_length_a   6.73309799
_cell_length_b   6.73157095
_cell_length_c   13.45821319
_cell_angle_alpha   93.64129131
_cell_angle_beta   93.39932063
_cell_angle_gamma   93.53778079
_symmetry_Int_Tables_number   1
_chemical_formula_structural   Re9Mo3Se16
_chemical_formula_sum   'Re9 Mo3 Se16'
_cell_volume   606.36817854
_cell_formula_units_Z   1
loop_
 _symmetry_equiv_pos_site_id
 _symmetry_equiv_pos_as_xyz
  1  'x, y, z'
loop_
 _atom_site_type_symbol
 _atom_site_label
 _atom_site_symmetry_multiplicity
 _atom_site_fract_x
 _atom_site_fract_y
 _atom_site_fract_z
 _atom_site_occupancy
  Re  Re0  1  0.76441101  0.58606754  0.72631298  1
  Re  Re1  1  0.58563295  0.45544643  0.38212408  1
  Re  Re2  1  0.58458556  0.45382911  0.88212969  1
  Re  Re3  1  0.54578072  0.23587452  0.20709240  1
  Re  Re4  1  0.54494212  0.23621790  0.70792860  1
  Re  Re5  1  0.23499021  0.41603193  0.27311893  1
  Re  Re6  1  0.23388416  0.41512036  0.77359540  1
  Re  Re7  1  0.41428862  0.54667278  0.11726620  1
  Re  Re8  1  0.41489086  0.54697299  0.61738160  1
  Mo  Mo9  1  0.45505742  0.76685481  0.29324356  1
  Mo  Mo10  1  0.45412215  0.76622389  0.79293113  1
  Mo  Mo11  1  0.76574131  0.58674509  0.22625844  1
  Se  Se12  1  0.78912854  0.78598172  0.39567439  1
  Se  Se13  1  0.79054174  0.78369750  0.89372193  1
  Se  Se14  1  0.21307112  0.21316508  0.10690570  1
  Se  Se15  1  0.21350495  0.21365547  0.60697498  1
  Se  Se16  1  0.63040207  0.87523777  0.13114905  1
  Se  Se17  1  0.63256074  0.87350899  0.63151103  1
  Se  Se18  1  0.87209882  0.26261271  0.31632787  1
  Se  Se19  1  0.87330096  0.26537166  0.81536955  1
  Se  Se20  1  0.26555496  0.62866034  0.43790975  1
  Se  Se21  1  0.26639277  0.62961148  0.93770385  1
  Se  Se22  1  0.36956634  0.13065854  0.36629580  1
  Se  Se23  1  0.36822324  0.12936451  0.86684358  1
  Se  Se24  1  0.12789067  0.73031196  0.18476299  1
  Se  Se25  1  0.12363824  0.73006954  0.68446695  1
  Se  Se26  1  0.73142431  0.36749112  0.06171079  1
  Se  Se27  1  0.73437344  0.36854426  0.56328878  1
