# generated using pymatgen
data_RbBa2Ni2F9
_symmetry_space_group_name_H-M   'P 1'
_cell_length_a   5.87014707
_cell_length_b   5.87014707
_cell_length_c   7.86331842
_cell_angle_alpha   89.99999509
_cell_angle_beta   111.91689862
_cell_angle_gamma   60.00000601
_symmetry_Int_Tables_number   1
_chemical_formula_structural   RbBa2Ni2F9
_chemical_formula_sum   'Rb1 Ba2 Ni2 F9'
_cell_volume   211.74308799
_cell_formula_units_Z   1
loop_
 _symmetry_equiv_pos_site_id
 _symmetry_equiv_pos_as_xyz
  1  'x, y, z'
loop_
 _atom_site_type_symbol
 _atom_site_label
 _atom_site_symmetry_multiplicity
 _atom_site_fract_x
 _atom_site_fract_y
 _atom_site_fract_z
 _atom_site_occupancy
  Rb  Rb0  1  0.57397519  0.21301241  0.36096278  1
  Ba  Ba1  1  0.00239904  0.99880048  0.00359856  1
  Ba  Ba2  1  0.41261906  0.79369047  0.61892859  1
  Ni  Ni3  1  0.22070688  0.38964656  0.83106033  1
  Ni  Ni4  1  0.78657283  0.60671359  0.17985924  1
  F  F5  1  0.46371988  0.26814006  0.69127597  1
  F  F6  1  0.95941603  0.26814006  0.69127597  1
  F  F7  1  0.95941603  0.77244391  0.69127597  1
  F  F8  1  0.53609616  0.73195192  0.31532739  1
  F  F9  1  0.04727931  0.73195192  0.31532739  1
  F  F10  1  0.04727931  0.22076877  0.31532739  1
  F  F11  1  0.50131073  0.50605059  0.99526015  1
  F  F12  1  0.50131073  0.99263868  0.99526015  1
  F  F13  1  0.98789883  0.50605059  0.99526015  1
