# generated using pymatgen
data_MnZn4O5
_symmetry_space_group_name_H-M   'P 1'
_cell_length_a   3.31210268
_cell_length_b   3.31210268
_cell_length_c   26.93411782
_cell_angle_alpha   89.84830488
_cell_angle_beta   90.15169512
_cell_angle_gamma   119.79271065
_symmetry_Int_Tables_number   1
_chemical_formula_structural   MnZn4O5
_chemical_formula_sum   'Mn2 Zn8 O10'
_cell_volume   256.41433491
_cell_formula_units_Z   2
loop_
 _symmetry_equiv_pos_site_id
 _symmetry_equiv_pos_as_xyz
  1  'x, y, z'
loop_
 _atom_site_type_symbol
 _atom_site_label
 _atom_site_symmetry_multiplicity
 _atom_site_fract_x
 _atom_site_fract_y
 _atom_site_fract_z
 _atom_site_occupancy
  Mn  Mn0  1  0.33260593  0.66739407  0.09838681  1
  Mn  Mn1  1  0.33215484  0.66784516  0.30004443  1
  Zn  Zn2  1  0.33268593  0.66731407  0.49992762  1
  Zn  Zn3  1  0.33272511  0.66727489  0.69933696  1
  Zn  Zn4  1  0.33268178  0.66731822  0.89855850  1
  Zn  Zn5  1  0.66755784  0.33244216  0.19992867  1
  Zn  Zn6  1  0.66670758  0.33329242  0.40141431  1
  Zn  Zn7  1  0.66692343  0.33307657  0.59942303  1
  Zn  Zn8  1  0.66691546  0.33308454  0.79922129  1
  Zn  Zn9  1  0.66694148  0.33305852  0.99680882  1
  O  O10  1  0.33313000  0.66687000  0.02085560  1
  O  O11  1  0.33398673  0.66601327  0.22309940  1
  O  O12  1  0.33282204  0.66717796  0.42494783  1
  O  O13  1  0.33303455  0.66696545  0.62400565  1
  O  O14  1  0.33303357  0.66696643  0.82374884  1
  O  O15  1  0.66746618  0.33253382  0.12643046  1
  O  O16  1  0.66683697  0.33316303  0.32720923  1
  O  O17  1  0.66724741  0.33275259  0.52413709  1
  O  O18  1  0.66726310  0.33273690  0.72399607  1
  O  O19  1  0.66728007  0.33271993  0.92251940  1
