# generated using pymatgen
data_Na3MnCoNiO6
_symmetry_space_group_name_H-M   'P 1'
_cell_length_a   3.02928340
_cell_length_b   7.97762797
_cell_length_c   5.63711393
_cell_angle_alpha   107.51141954
_cell_angle_beta   90.00000331
_cell_angle_gamma   100.94468409
_symmetry_Int_Tables_number   1
_chemical_formula_structural   Na3MnCoNiO6
_chemical_formula_sum   'Na3 Mn1 Co1 Ni1 O6'
_cell_volume   127.31532067
_cell_formula_units_Z   1
loop_
 _symmetry_equiv_pos_site_id
 _symmetry_equiv_pos_as_xyz
  1  'x, y, z'
loop_
 _atom_site_type_symbol
 _atom_site_label
 _atom_site_symmetry_multiplicity
 _atom_site_fract_x
 _atom_site_fract_y
 _atom_site_fract_z
 _atom_site_occupancy
  Na  Na0  1  0.33348833  0.66697766  0.99821465  1
  Na  Na1  1  0.99987710  0.99975421  0.00027457  1
  Na  Na2  1  0.66797594  0.33595087  0.00433766  1
  Mn  Mn3  1  0.50017658  0.00035315  0.49926698  1
  Co  Co4  1  0.82626393  0.65252887  0.50650850  1
  Ni  Ni5  1  0.16703609  0.33407118  0.49419957  1
  O  O6  1  0.92768363  0.85536627  0.30991926  1
  O  O7  1  0.58132074  0.16264248  0.30171958  1
  O  O8  1  0.25880511  0.51761023  0.28918244  1
  O  O9  1  0.07075360  0.14150820  0.69453007  1
  O  O10  1  0.75122903  0.50245806  0.70857473  1
  O  O11  1  0.41538991  0.83077882  0.69327199  1
