# generated using pymatgen
data_Nb12I21Br
_symmetry_space_group_name_H-M   'P 1'
_cell_length_a   11.49099709
_cell_length_b   13.73590775
_cell_length_c   15.58822691
_cell_angle_alpha   89.90089484
_cell_angle_beta   90.00000000
_cell_angle_gamma   90.00000000
_symmetry_Int_Tables_number   1
_chemical_formula_structural   Nb12I21Br
_chemical_formula_sum   'Nb24 I42 Br2'
_cell_volume   2460.43076789
_cell_formula_units_Z   2
loop_
 _symmetry_equiv_pos_site_id
 _symmetry_equiv_pos_as_xyz
  1  'x, y, z'
loop_
 _atom_site_type_symbol
 _atom_site_label
 _atom_site_symmetry_multiplicity
 _atom_site_fract_x
 _atom_site_fract_y
 _atom_site_fract_z
 _atom_site_occupancy
  Nb  Nb0  1  0.11353298  0.22117252  0.40017915  1
  Nb  Nb1  1  0.61353298  0.77882748  0.59982085  1
  Nb  Nb2  1  0.61054849  0.27774944  0.90271990  1
  Nb  Nb3  1  0.11054849  0.72225056  0.09728010  1
  Nb  Nb4  1  0.07176840  0.12165642  0.54658231  1
  Nb  Nb5  1  0.57176840  0.87834358  0.45341769  1
  Nb  Nb6  1  0.57044543  0.37834290  0.04806248  1
  Nb  Nb7  1  0.07044543  0.62165710  0.95193752  1
  Nb  Nb8  1  0.13133441  0.33424126  0.55211526  1
  Nb  Nb9  1  0.63133441  0.66575874  0.44788474  1
  Nb  Nb10  1  0.62952989  0.16484580  0.05358305  1
  Nb  Nb11  1  0.12952989  0.83515420  0.94641695  1
  Nb  Nb12  1  0.91177967  0.27551358  0.60849641  1
  Nb  Nb13  1  0.41177967  0.72448642  0.39150359  1
  Nb  Nb14  1  0.41068261  0.22319449  0.11106912  1
  Nb  Nb15  1  0.91068261  0.77680551  0.88893088  1
  Nb  Nb16  1  0.92712608  0.36533426  0.44375799  1
  Nb  Nb17  1  0.42712608  0.63466574  0.55624201  1
  Nb  Nb18  1  0.42625410  0.13402976  0.94538231  1
  Nb  Nb19  1  0.92625410  0.86597024  0.05461769  1
  Nb  Nb20  1  0.86862783  0.17598705  0.44876332  1
  Nb  Nb21  1  0.36862783  0.82401295  0.55123668  1
  Nb  Nb22  1  0.36681057  0.32350543  0.94979583  1
  Nb  Nb23  1  0.86681057  0.67649457  0.05020417  1
  I  I24  1  0.81275320  0.53750492  0.36189369  1
  I  I25  1  0.31275320  0.46249508  0.63810631  1
  I  I26  1  0.31261640  0.96264373  0.86180468  1
  I  I27  1  0.81261640  0.03735627  0.13819532  1
  I  I28  1  0.15628786  0.42825045  0.38686475  1
  I  I29  1  0.65628786  0.57174955  0.61313525  1
  I  I30  1  0.65528844  0.07153065  0.88789686  1
  I  I31  1  0.15528844  0.92846935  0.11210314  1
  I  I32  1  0.96754766  0.48133718  0.59814582  1
  I  I33  1  0.46754766  0.51866282  0.40185418  1
  I  I34  1  0.46585565  0.01796681  0.09976558  1
  I  I35  1  0.96585565  0.98203319  0.90023442  1
  I  I36  1  0.84323390  0.07327689  0.61262352  1
  I  I37  1  0.34323390  0.92672311  0.38737648  1
  I  I38  1  0.34210916  0.42533992  0.11287300  1
  I  I39  1  0.84210916  0.57466008  0.88712700  1
  I  I40  1  0.10697683  0.21876433  0.71077740  1
  I  I41  1  0.60697683  0.78123567  0.28922260  1
  I  I42  1  0.60602263  0.28069310  0.21218950  1
  I  I43  1  0.10602263  0.71930690  0.78781050  1
  I  I44  1  0.70247024  0.31490002  0.51319469  1
  I  I45  1  0.20247024  0.68509998  0.48680531  1
  I  I46  1  0.20158232  0.18455949  0.01466032  1
  I  I47  1  0.70158232  0.81544051  0.98533968  1
  I  I48  1  0.02192214  0.02445247  0.38801404  1
  I  I49  1  0.52192214  0.97554753  0.61198596  1
  I  I50  1  0.52074756  0.47554143  0.88920455  1
  I  I51  1  0.02074756  0.52445857  0.11079545  1
  I  I52  1  0.30527324  0.19025339  0.51672151  1
  I  I53  1  0.80527324  0.80974661  0.48327849  1
  I  I54  1  0.80335273  0.30934887  0.01855232  1
  I  I55  1  0.30335273  0.69065113  0.98144768  1
  I  I56  1  0.92442202  0.26284966  0.28275996  1
  I  I57  1  0.42442202  0.73715034  0.71724004  1
  I  I58  1  0.42287602  0.23680588  0.78383643  1
  I  I59  1  0.92287602  0.76319412  0.21616357  1
  I  I60  1  0.15953204  0.93335100  0.61658866  1
  I  I61  1  0.65953204  0.06664900  0.38341134  1
  I  I62  1  0.65931570  0.56657051  0.11684253  1
  I  I63  1  0.15931570  0.43342949  0.88315747  1
  I  I64  1  0.78539266  0.32528074  0.76928354  1
  I  I65  1  0.28539266  0.67471926  0.23071646  1
  Br  Br66  1  0.28268115  0.17913530  0.26847669  1
  Br  Br67  1  0.78268115  0.82086470  0.73152331  1
