# generated using pymatgen
data_NaCa3AlFe3(SiO3)8
_symmetry_space_group_name_H-M   'P 1'
_cell_length_a   5.33891893
_cell_length_b   9.81501040
_cell_length_c   8.98264627
_cell_angle_alpha   90.00000000
_cell_angle_beta   90.00000000
_cell_angle_gamma   105.17036080
_symmetry_Int_Tables_number   1
_chemical_formula_structural   NaCa3AlFe3(SiO3)8
_chemical_formula_sum   'Na1 Ca3 Al1 Fe3 Si8 O24'
_cell_volume   454.30142811
_cell_formula_units_Z   1
loop_
 _symmetry_equiv_pos_site_id
 _symmetry_equiv_pos_as_xyz
  1  'x, y, z'
loop_
 _atom_site_type_symbol
 _atom_site_label
 _atom_site_symmetry_multiplicity
 _atom_site_fract_x
 _atom_site_fract_y
 _atom_site_fract_z
 _atom_site_occupancy
  Na  Na0  1  0.75000000  0.00000000  0.30145013  1
  Ca  Ca1  1  0.25000000  0.50000000  0.79660104  1
  Ca  Ca2  1  0.75000000  0.50000000  0.20168668  1
  Ca  Ca3  1  0.25000000  0.00000000  0.69938866  1
  Al  Al4  1  0.25000000  0.00000000  0.10187844  1
  Fe  Fe5  1  0.25000000  0.50000000  0.40430057  1
  Fe  Fe6  1  0.75000000  0.00000000  0.90980876  1
  Fe  Fe7  1  0.75000000  0.50000000  0.59186892  1
  Si  Si8  1  0.44161329  0.71776977  0.09404478  1
  Si  Si9  1  0.94351965  0.20899300  0.58788888  1
  Si  Si10  1  0.05838671  0.28223023  0.09404478  1
  Si  Si11  1  0.55648035  0.79100700  0.58788888  1
  Si  Si12  1  0.55001175  0.28390615  0.91245223  1
  Si  Si13  1  0.05675876  0.79463067  0.40159472  1
  Si  Si14  1  0.94998825  0.71609385  0.91245223  1
  Si  Si15  1  0.44324124  0.20536933  0.40159472  1
  O  O16  1  0.46636392  0.64360028  0.25009453  1
  O  O17  1  0.95582256  0.13536413  0.74717971  1
  O  O18  1  0.03363608  0.35639972  0.25009453  1
  O  O19  1  0.54417744  0.86463587  0.74717971  1
  O  O20  1  0.53683087  0.35477503  0.75245595  1
  O  O21  1  0.05898712  0.87131131  0.24243411  1
  O  O22  1  0.96316913  0.64522497  0.75245595  1
  O  O23  1  0.44101288  0.12868869  0.24243411  1
  O  O24  1  0.14671239  0.64499919  0.01907855  1
  O  O25  1  0.64765275  0.14717254  0.51369013  1
  O  O26  1  0.35328761  0.35500081  0.01907855  1
  O  O27  1  0.85234725  0.85282746  0.51369013  1
  O  O28  1  0.84910540  0.34127068  0.98394766  1
  O  O29  1  0.34670140  0.85313848  0.48376547  1
  O  O30  1  0.65089460  0.65872932  0.98394766  1
  O  O31  1  0.15329860  0.14686152  0.48376547  1
  O  O32  1  0.49992679  0.88916898  0.08692807  1
  O  O33  1  0.03220552  0.38048070  0.58840468  1
  O  O34  1  0.00007321  0.11083102  0.08692807  1
  O  O35  1  0.46779448  0.61951930  0.58840468  1
  O  O36  1  0.45131795  0.11254618  0.92908971  1
  O  O37  1  0.96656934  0.62310959  0.40345920  1
  O  O38  1  0.04868205  0.88745382  0.92908971  1
  O  O39  1  0.53343066  0.37689041  0.40345920  1
