# generated using pymatgen
data_Sn3BiTe4
_symmetry_space_group_name_H-M   'P 1'
_cell_length_a   4.66414011
_cell_length_b   4.66414011
_cell_length_c   14.32880141
_cell_angle_alpha   80.63321420
_cell_angle_beta   99.36678580
_cell_angle_gamma   120.00000000
_symmetry_Int_Tables_number   1
_chemical_formula_structural   Sn3BiTe4
_chemical_formula_sum   'Sn3 Bi1 Te4'
_cell_volume   265.14024138
_cell_formula_units_Z   1
loop_
 _symmetry_equiv_pos_site_id
 _symmetry_equiv_pos_as_xyz
  1  'x, y, z'
loop_
 _atom_site_type_symbol
 _atom_site_label
 _atom_site_symmetry_multiplicity
 _atom_site_fract_x
 _atom_site_fract_y
 _atom_site_fract_z
 _atom_site_occupancy
  Sn  Sn0  1  0.75100433  0.24899567  0.25301298  1
  Sn  Sn1  1  0.50000000  0.50000000  0.50000000  1
  Sn  Sn2  1  0.24899567  0.75100433  0.74698702  1
  Bi  Bi3  1  0.00000000  0.00000000  0.00000000  1
  Te  Te4  1  0.62531146  0.37468854  0.87593438  1
  Te  Te5  1  0.87542449  0.12457551  0.62627346  1
  Te  Te6  1  0.37468854  0.62531146  0.12406562  1
  Te  Te7  1  0.12457551  0.87542449  0.37372654  1
