# generated using pymatgen
data_Na3LaTi2Nb2O12
_symmetry_space_group_name_H-M   'P 1'
_cell_length_a   5.58113945
_cell_length_b   5.58113945
_cell_length_c   7.91144025
_cell_angle_alpha   90.08706106
_cell_angle_beta   90.08706106
_cell_angle_gamma   90.45688043
_symmetry_Int_Tables_number   1
_chemical_formula_structural   Na3LaTi2Nb2O12
_chemical_formula_sum   'Na3 La1 Ti2 Nb2 O12'
_cell_volume   246.42597405
_cell_formula_units_Z   1
loop_
 _symmetry_equiv_pos_site_id
 _symmetry_equiv_pos_as_xyz
  1  'x, y, z'
loop_
 _atom_site_type_symbol
 _atom_site_label
 _atom_site_symmetry_multiplicity
 _atom_site_fract_x
 _atom_site_fract_y
 _atom_site_fract_z
 _atom_site_occupancy
  Na  Na0  1  0.00239324  0.99760676  0.75000000  1
  Na  Na1  1  0.50265973  0.49734027  0.75000000  1
  Na  Na2  1  0.49627820  0.50372180  0.25000000  1
  La  La3  1  0.98738643  0.01261357  0.25000000  1
  Ti  Ti4  1  0.99636820  0.50371786  0.49521190  1
  Ti  Ti5  1  0.49628214  0.00363180  0.00478810  1
  Nb  Nb6  1  0.49682017  0.00221050  0.51161296  1
  Nb  Nb7  1  0.99778950  0.50317983  0.98838704  1
  O  O8  1  0.26210343  0.26255839  0.48959145  1
  O  O9  1  0.26631837  0.25915608  0.01044752  1
  O  O10  1  0.74084392  0.73368163  0.48955248  1
  O  O11  1  0.73744161  0.73789657  0.01040855  1
  O  O12  1  0.03397222  0.53194170  0.74660888  1
  O  O13  1  0.54197919  0.03021576  0.24726609  1
  O  O14  1  0.96978424  0.45802081  0.25273391  1
  O  O15  1  0.46805830  0.96602778  0.75339112  1
  O  O16  1  0.77602135  0.22806981  0.52436255  1
  O  O17  1  0.22560249  0.77003294  0.45798410  1
  O  O18  1  0.77193019  0.22397865  0.97563745  1
  O  O19  1  0.22996706  0.77439751  0.04201590  1
