# generated using pymatgen
data_Nd9Ni24Sn49
_symmetry_space_group_name_H-M   'P 1'
_cell_length_a   10.40052853
_cell_length_b   10.40052853
_cell_length_c   17.11282514
_cell_angle_alpha   90.11717303
_cell_angle_beta   89.88282697
_cell_angle_gamma   109.27592939
_symmetry_Int_Tables_number   1
_chemical_formula_structural   Nd9Ni24Sn49
_chemical_formula_sum   'Nd9 Ni24 Sn49'
_cell_volume   1747.33199163
_cell_formula_units_Z   1
loop_
 _symmetry_equiv_pos_site_id
 _symmetry_equiv_pos_as_xyz
  1  'x, y, z'
loop_
 _atom_site_type_symbol
 _atom_site_label
 _atom_site_symmetry_multiplicity
 _atom_site_fract_x
 _atom_site_fract_y
 _atom_site_fract_z
 _atom_site_occupancy
  Nd  Nd0  1  0.75024282  0.75045976  0.24959412  1
  Nd  Nd1  1  0.24975718  0.24954024  0.75040588  1
  Nd  Nd2  1  0.50000000  0.00000000  -0.00000000  1
  Nd  Nd3  1  -0.00000000  0.50000000  0.50000000  1
  Nd  Nd4  1  0.50000000  0.00000000  0.50000000  1
  Nd  Nd5  1  -0.00000000  0.50000000  -0.00000000  1
  Nd  Nd6  1  0.24954024  0.24975718  0.24959412  1
  Nd  Nd7  1  0.75045976  0.75024282  0.75040588  1
  Nd  Nd8  1  -0.00000000  0.00000000  -0.00000000  1
  Ni  Ni9  1  0.90283183  0.74263011  0.42026108  1
  Ni  Ni10  1  0.40168754  0.24272497  0.92081793  1
  Ni  Ni11  1  0.59831246  0.75727503  0.07918207  1
  Ni  Ni12  1  0.09716817  0.25736989  0.57973892  1
  Ni  Ni13  1  0.25736989  0.09716817  0.42026108  1
  Ni  Ni14  1  0.75727503  0.59831246  0.92081793  1
  Ni  Ni15  1  0.24272497  0.40168754  0.07918207  1
  Ni  Ni16  1  0.74263011  0.90283183  0.57973892  1
  Ni  Ni17  1  0.00174336  0.67996731  0.16083397  1
  Ni  Ni18  1  0.50054972  0.17917640  0.66130779  1
  Ni  Ni19  1  0.49945028  0.82082360  0.33869221  1
  Ni  Ni20  1  0.99825664  0.32003269  0.83916603  1
  Ni  Ni21  1  0.17917640  0.50054972  0.33869221  1
  Ni  Ni22  1  0.67996731  0.00174336  0.83916603  1
  Ni  Ni23  1  0.32003269  0.99825664  0.16083397  1
  Ni  Ni24  1  0.82082360  0.49945028  0.66130779  1
  Ni  Ni25  1  0.76010123  0.23989877  0.08077086  1
  Ni  Ni26  1  0.25923882  0.74076118  0.58070947  1
  Ni  Ni27  1  0.74076118  0.25923882  0.41929053  1
  Ni  Ni28  1  0.23989877  0.76010123  0.91922914  1
  Ni  Ni29  1  0.58147667  0.41852333  0.25913434  1
  Ni  Ni30  1  0.08181472  0.91818528  0.76025510  1
  Ni  Ni31  1  0.91818528  0.08181472  0.23974490  1
  Ni  Ni32  1  0.41852333  0.58147667  0.74086566  1
  Sn  Sn33  1  0.74843131  0.50417248  0.37730668  1
  Sn  Sn34  1  0.25988112  0.00284662  0.87119794  1
  Sn  Sn35  1  0.74011888  0.99715338  0.12880206  1
  Sn  Sn36  1  0.25156869  0.49582752  0.62269332  1
  Sn  Sn37  1  0.49582752  0.25156869  0.37730668  1
  Sn  Sn38  1  0.99715338  0.74011888  0.87119794  1
  Sn  Sn39  1  0.00284662  0.25988112  0.12880206  1
  Sn  Sn40  1  0.50417248  0.74843131  0.62269332  1
  Sn  Sn41  1  0.81097224  0.68063754  0.06467385  1
  Sn  Sn42  1  0.31725602  0.19120989  0.56331837  1
  Sn  Sn43  1  0.68274398  0.80879011  0.43668163  1
  Sn  Sn44  1  0.18902776  0.31936246  0.93532615  1
  Sn  Sn45  1  0.19120989  0.31725602  0.43668163  1
  Sn  Sn46  1  0.68063754  0.81097224  0.93532615  1
  Sn  Sn47  1  0.31936246  0.18902776  0.06467385  1
  Sn  Sn48  1  0.80879011  0.68274398  0.56331837  1
  Sn  Sn49  1  0.31575308  0.68424692  0.44123824  1
  Sn  Sn50  1  0.80651119  0.19348881  0.93749681  1
  Sn  Sn51  1  0.19348881  0.80651119  0.06250319  1
  Sn  Sn52  1  0.68424692  0.31575308  0.55876176  1
  Sn  Sn53  1  0.44051458  0.55948542  0.31376453  1
  Sn  Sn54  1  0.93759696  0.06240304  0.80716198  1
  Sn  Sn55  1  0.06240304  0.93759696  0.19283802  1
  Sn  Sn56  1  0.55948542  0.44051458  0.68623547  1
  Sn  Sn57  1  0.44426462  0.81227581  0.18501398  1
  Sn  Sn58  1  0.94312045  0.31327144  0.68403298  1
  Sn  Sn59  1  0.05687955  0.68672856  0.31596702  1
  Sn  Sn60  1  0.55573538  0.18772419  0.81498602  1
  Sn  Sn61  1  0.18772419  0.55573538  0.18501398  1
  Sn  Sn62  1  0.68672856  0.05687955  0.68403298  1
  Sn  Sn63  1  0.31327144  0.94312045  0.31596702  1
  Sn  Sn64  1  0.81227581  0.44426462  0.81498602  1
  Sn  Sn65  1  0.68328684  0.05520274  0.31482461  1
  Sn  Sn66  1  0.18244269  0.55475880  0.81304193  1
  Sn  Sn67  1  0.81755731  0.44524120  0.18695807  1
  Sn  Sn68  1  0.31671316  0.94479726  0.68517539  1
  Sn  Sn69  1  0.55475880  0.18244269  0.18695807  1
  Sn  Sn70  1  0.05520274  0.68328684  0.68517539  1
  Sn  Sn71  1  0.94479726  0.31671316  0.31482461  1
  Sn  Sn72  1  0.44524120  0.81755731  0.81304193  1
  Sn  Sn73  1  0.87032886  0.12967114  0.49823593  1
  Sn  Sn74  1  0.37163107  0.62836893  0.99771931  1
  Sn  Sn75  1  0.62836893  0.37163107  0.00228069  1
  Sn  Sn76  1  0.12967114  0.87032886  0.50176407  1
  Sn  Sn77  1  0.99844847  0.00155153  0.36963405  1
  Sn  Sn78  1  0.49923300  0.50076700  0.86928263  1
  Sn  Sn79  1  0.50076700  0.49923300  0.13071737  1
  Sn  Sn80  1  0.00155153  0.99844847  0.63036595  1
  Sn  Sn81  1  0.50000000  0.50000000  0.50000000  1
