# generated using pymatgen
data_Na5Ca7Zr2TiMnSi8(O8F)4
_symmetry_space_group_name_H-M   'P 1'
_cell_length_a   7.27491096
_cell_length_b   10.16318883
_cell_length_c   11.56149026
_cell_angle_alpha   111.91570209
_cell_angle_beta   90.08641777
_cell_angle_gamma   100.44994845
_symmetry_Int_Tables_number   1
_chemical_formula_structural   Na5Ca7Zr2TiMnSi8(O8F)4
_chemical_formula_sum   'Na5 Ca7 Zr2 Ti1 Mn1 Si8 O32 F4'
_cell_volume   777.63926296
_cell_formula_units_Z   1
loop_
 _symmetry_equiv_pos_site_id
 _symmetry_equiv_pos_as_xyz
  1  'x, y, z'
loop_
 _atom_site_type_symbol
 _atom_site_label
 _atom_site_symmetry_multiplicity
 _atom_site_fract_x
 _atom_site_fract_y
 _atom_site_fract_z
 _atom_site_occupancy
  Na  Na0  1  0.40883011  0.64271500  0.71022039  1
  Na  Na1  1  0.59116989  0.35728500  0.28977961  1
  Na  Na2  1  0.75427908  0.00374483  0.74609169  1
  Na  Na3  1  0.24572092  0.99625517  0.25390831  1
  Na  Na4  1  0.50000000  0.00000000  0.50000000  1
  Ca  Ca5  1  0.41231587  0.63353782  0.21031398  1
  Ca  Ca6  1  0.58768413  0.36646218  0.78968602  1
  Ca  Ca7  1  0.23021866  0.99368257  0.74194871  1
  Ca  Ca8  1  0.76978134  0.00631743  0.25805129  1
  Ca  Ca9  1  0.91098066  0.63943462  0.21620011  1
  Ca  Ca10  1  0.08901934  0.36056538  0.78379989  1
  Ca  Ca11  1  0.50000000  0.00000000  0.00000000  1
  Zr  Zr12  1  0.91409463  0.65176431  0.72409731  1
  Zr  Zr13  1  0.08590537  0.34823569  0.27590269  1
  Ti  Ti14  1  -0.00000000  0.00000000  0.50000000  1
  Mn  Mn15  1  -0.00000000  0.00000000  0.00000000  1
  Si  Si16  1  0.65325491  0.71762098  0.98653174  1
  Si  Si17  1  0.34674509  0.28237902  0.01346826  1
  Si  Si18  1  0.20483348  0.72195895  0.98941874  1
  Si  Si19  1  0.79516652  0.27804105  0.01058126  1
  Si  Si20  1  0.20688014  0.70762956  0.49075390  1
  Si  Si21  1  0.79311986  0.29237044  0.50924610  1
  Si  Si22  1  0.65402300  0.70751177  0.48763768  1
  Si  Si23  1  0.34597700  0.29248823  0.51236232  1
  O  O24  1  0.14173586  0.59126051  0.34764218  1
  O  O25  1  0.85826414  0.40873949  0.65235782  1
  O  O26  1  0.66113418  0.60792933  0.34221807  1
  O  O27  1  0.33886582  0.39207067  0.65778193  1
  O  O28  1  0.12303369  0.65987013  0.60330252  1
  O  O29  1  0.87696631  0.34012987  0.39669748  1
  O  O30  1  0.69579865  0.62086446  0.84463758  1
  O  O31  1  0.30420135  0.37913554  0.15536242  1
  O  O32  1  0.77701694  0.87309119  0.52319600  1
  O  O33  1  0.22298306  0.12690881  0.47680400  1
  O  O34  1  0.71029746  0.64965229  0.59510428  1
  O  O35  1  0.28970254  0.35034771  0.40489572  1
  O  O36  1  0.16973493  0.87046814  0.51863978  1
  O  O37  1  0.83026507  0.12953186  0.48136022  1
  O  O38  1  0.17173464  0.89078577  0.03567796  1
  O  O39  1  0.82826536  0.10921423  0.96432204  1
  O  O40  1  0.97418187  0.87120547  0.82464759  1
  O  O41  1  0.02581813  0.12879453  0.17535241  1
  O  O42  1  0.16311491  0.65684118  0.09616713  1
  O  O43  1  0.83688509  0.34315882  0.90383287  1
  O  O44  1  0.66461376  0.64545242  0.08842935  1
  O  O45  1  0.33538624  0.35454758  0.91157065  1
  O  O46  1  0.43792104  0.75062045  0.97520378  1
  O  O47  1  0.56207896  0.24937955  0.02479622  1
  O  O48  1  0.11003936  0.62101575  0.84856067  1
  O  O49  1  0.88996064  0.37898425  0.15143933  1
  O  O50  1  0.77644107  0.88589644  0.03741259  1
  O  O51  1  0.22355893  0.11410356  0.96258741  1
  O  O52  1  0.96303945  0.89154033  0.32364146  1
  O  O53  1  0.03696055  0.10845967  0.67635854  1
  O  O54  1  0.43672781  0.73485111  0.50891395  1
  O  O55  1  0.56327219  0.26514889  0.49108605  1
  F  F56  1  0.48865607  0.87942055  0.29154116  1
  F  F57  1  0.51134393  0.12057945  0.70845884  1
  F  F58  1  0.46068165  0.89456483  0.79330857  1
  F  F59  1  0.53931835  0.10543517  0.20669143  1
