# generated using pymatgen
data_NaCaScZn(SiO3)4
_symmetry_space_group_name_H-M   'P 1'
_cell_length_a   5.35251952
_cell_length_b   6.74783302
_cell_length_c   6.74783302
_cell_angle_alpha   84.86372288
_cell_angle_beta   77.95307470
_cell_angle_gamma   77.95307470
_symmetry_Int_Tables_number   1
_chemical_formula_structural   NaCaScZn(SiO3)4
_chemical_formula_sum   'Na1 Ca1 Sc1 Zn1 Si4 O12'
_cell_volume   232.83169849
_cell_formula_units_Z   1
loop_
 _symmetry_equiv_pos_site_id
 _symmetry_equiv_pos_as_xyz
  1  'x, y, z'
loop_
 _atom_site_type_symbol
 _atom_site_label
 _atom_site_symmetry_multiplicity
 _atom_site_fract_x
 _atom_site_fract_y
 _atom_site_fract_z
 _atom_site_occupancy
  Na  Na0  1  0.75000000  0.69792182  0.30207818  1
  Ca  Ca1  1  0.25000000  0.30008818  0.69991182  1
  Sc  Sc2  1  0.25000000  0.89772804  0.10227196  1
  Zn  Zn3  1  0.75000000  0.09946117  0.90053883  1
  Si  Si4  1  0.73548880  0.62224194  0.80169977  1
  Si  Si5  1  0.76451120  0.19830023  0.37775806  1
  Si  Si6  1  0.26267179  0.37857869  0.19798602  1
  Si  Si7  1  0.23732821  0.80201398  0.62142131  1
  O  O8  1  0.50289171  0.63414824  0.66555865  1
  O  O9  1  0.99710829  0.33444135  0.36585176  1
  O  O10  1  0.49025089  0.36073398  0.33814476  1
  O  O11  1  0.00974911  0.66185524  0.63926602  1
  O  O12  1  0.82203381  0.39154739  0.88394167  1
  O  O13  1  0.67796619  0.11605833  0.60845261  1
  O  O14  1  0.18928086  0.60860148  0.11088633  1
  O  O15  1  0.31071914  0.88911367  0.39139852  1
  O  O16  1  0.64226003  0.79902267  0.96485814  1
  O  O17  1  0.85773997  0.03514186  0.20097733  1
  O  O18  1  0.34928616  0.20396623  0.03096447  1
  O  O19  1  0.15071384  0.96903553  0.79603377  1
