# generated using pymatgen
data_SmTiFe11N
_symmetry_space_group_name_H-M   'P 1'
_cell_length_a   4.86834906
_cell_length_b   6.52541587
_cell_length_c   6.52541587
_cell_angle_alpha   97.60815723
_cell_angle_beta   111.90259424
_cell_angle_gamma   68.09740576
_symmetry_Int_Tables_number   1
_chemical_formula_structural   SmTiFe11N
_chemical_formula_sum   'Sm1 Ti1 Fe11 N1'
_cell_volume   178.44796457
_cell_formula_units_Z   1
loop_
 _symmetry_equiv_pos_site_id
 _symmetry_equiv_pos_as_xyz
  1  'x, y, z'
loop_
 _atom_site_type_symbol
 _atom_site_label
 _atom_site_symmetry_multiplicity
 _atom_site_fract_x
 _atom_site_fract_y
 _atom_site_fract_z
 _atom_site_occupancy
  Sm  Sm0  1  0.00687426  0.99312574  0.00687426  1
  Ti  Ti1  1  0.63401453  0.36598547  0.63401453  1
  Fe  Fe2  1  0.72635788  0.77364212  0.22635788  1
  Fe  Fe3  1  0.27665219  0.22334781  0.77665219  1
  Fe  Fe4  1  0.49710900  0.78005211  0.77427011  1
  Fe  Fe5  1  0.49710900  0.22572989  0.21994789  1
  Fe  Fe6  1  0.50001296  0.99719185  0.49835975  1
  Fe  Fe7  1  0.00115494  0.99719185  0.49835975  1
  Fe  Fe8  1  0.50001296  0.50164025  0.00280815  1
  Fe  Fe9  1  0.00115494  0.50164025  0.00280815  1
  Fe  Fe10  1  0.35847736  0.64152264  0.35847736  1
  Fe  Fe11  1  0.99991811  0.36020033  0.36003654  1
  Fe  Fe12  1  0.99991811  0.63996346  0.63979967  1
  N  N13  1  0.50123375  0.99876625  0.00123375  1
