# generated using pymatgen
data_Mn4Nb2O9
_symmetry_space_group_name_H-M   'P 1'
_cell_length_a   5.39970606
_cell_length_b   5.73055582
_cell_length_c   13.42083745
_cell_angle_alpha   87.59318850
_cell_angle_beta   90.00000000
_cell_angle_gamma   118.10785668
_symmetry_Int_Tables_number   1
_chemical_formula_structural   Mn4Nb2O9
_chemical_formula_sum   'Mn8 Nb4 O18'
_cell_volume   365.89204922
_cell_formula_units_Z   2
loop_
 _symmetry_equiv_pos_site_id
 _symmetry_equiv_pos_as_xyz
  1  'x, y, z'
loop_
 _atom_site_type_symbol
 _atom_site_label
 _atom_site_symmetry_multiplicity
 _atom_site_fract_x
 _atom_site_fract_y
 _atom_site_fract_z
 _atom_site_occupancy
  Mn  Mn0  1  0.00528402  0.00884577  0.50104920  1
  Mn  Mn1  1  0.00356176  0.00884577  0.00104920  1
  Mn  Mn2  1  0.04814845  0.08611832  0.26169847  1
  Mn  Mn3  1  0.37414236  0.76229910  0.59542013  1
  Mn  Mn4  1  0.70674190  0.41432011  0.92596432  1
  Mn  Mn5  1  0.03796987  0.08611832  0.76169847  1
  Mn  Mn6  1  0.38815573  0.76229910  0.09542013  1
  Mn  Mn7  1  0.70757921  0.41432011  0.42596432  1
  Nb  Nb8  1  0.32590758  0.66380229  0.83774444  1
  Nb  Nb9  1  0.67713552  0.33551822  0.15965677  1
  Nb  Nb10  1  0.33789371  0.66380229  0.33774444  1
  Nb  Nb11  1  0.65838370  0.33551822  0.65965677  1
  O  O12  1  0.27998570  0.30900221  0.39618129  1
  O  O13  1  0.59706096  0.94444282  0.74236658  1
  O  O14  1  0.94429540  0.62160402  0.07721012  1
  O  O15  1  0.25260755  0.07767293  0.63120538  1
  O  O16  1  0.55777455  0.73572134  0.95267787  1
  O  O17  1  0.89855713  0.41437170  0.28646539  1
  O  O18  1  0.74063334  0.16814845  0.54359341  1
  O  O19  1  0.10062457  0.82748223  0.86747770  1
  O  O20  1  0.42625502  0.48705049  0.20333892  1
  O  O21  1  0.72685765  0.82748223  0.36747770  1
  O  O22  1  0.06079447  0.48705049  0.70333892  1
  O  O23  1  0.42751611  0.16814845  0.04359341  1
  O  O24  1  0.17794579  0.73572134  0.45267787  1
  O  O25  1  0.51581558  0.41437170  0.78646539  1
  O  O26  1  0.82506539  0.07767293  0.13120538  1
  O  O27  1  0.67730861  0.62160402  0.57721012  1
  O  O28  1  0.02901551  0.30900221  0.89618129  1
  O  O29  1  0.34738286  0.94444282  0.24236658  1
