# generated using pymatgen
data_Mn3Cr3O8
_symmetry_space_group_name_H-M   'P 1'
_cell_length_a   6.08896589
_cell_length_b   6.08896589
_cell_length_c   6.10448684
_cell_angle_alpha   90.00000000
_cell_angle_beta   60.08407121
_cell_angle_gamma   120.00000000
_symmetry_Int_Tables_number   1
_chemical_formula_structural   Mn3Cr3O8
_chemical_formula_sum   'Mn3 Cr3 O8'
_cell_volume   160.24037482
_cell_formula_units_Z   1
loop_
 _symmetry_equiv_pos_site_id
 _symmetry_equiv_pos_as_xyz
  1  'x, y, z'
loop_
 _atom_site_type_symbol
 _atom_site_label
 _atom_site_symmetry_multiplicity
 _atom_site_fract_x
 _atom_site_fract_y
 _atom_site_fract_z
 _atom_site_occupancy
  Mn  Mn0  1  0.50057607  0.75028803  0.74913590  1
  Mn  Mn1  1  0.99942393  0.99971197  0.00086410  1
  Mn  Mn2  1  0.75000000  0.37500000  0.87500000  1
  Cr  Cr3  1  0.25000000  0.37500000  0.37500000  1
  Cr  Cr4  1  0.25000000  0.87500000  0.37500000  1
  Cr  Cr5  1  0.75000000  0.37500000  0.37500000  1
  O  O6  1  0.27738342  0.13869171  0.58392486  1
  O  O7  1  0.72139224  0.13490135  0.14370641  1
  O  O8  1  0.72139224  0.58649088  0.14370641  1
  O  O9  1  0.26980270  0.13490135  0.14370641  1
  O  O10  1  0.22261658  0.61130829  0.16607514  1
  O  O11  1  0.77860776  0.61509865  0.60629359  1
  O  O12  1  0.77860776  0.16350912  0.60629359  1
  O  O13  1  0.23019730  0.61509865  0.60629359  1
