# generated using pymatgen
data_Mn4AsP3
_symmetry_space_group_name_H-M   'P 1'
_cell_length_a   3.24531045
_cell_length_b   5.27233141
_cell_length_c   5.90977466
_cell_angle_alpha   89.99803698
_cell_angle_beta   90.00000000
_cell_angle_gamma   90.00000000
_symmetry_Int_Tables_number   1
_chemical_formula_structural   Mn4AsP3
_chemical_formula_sum   'Mn4 As1 P3'
_cell_volume   101.11832596
_cell_formula_units_Z   1
loop_
 _symmetry_equiv_pos_site_id
 _symmetry_equiv_pos_as_xyz
  1  'x, y, z'
loop_
 _atom_site_type_symbol
 _atom_site_label
 _atom_site_symmetry_multiplicity
 _atom_site_fract_x
 _atom_site_fract_y
 _atom_site_fract_z
 _atom_site_occupancy
  Mn  Mn0  1  0.75000000  0.49840133  0.69172755  1
  Mn  Mn1  1  0.75000000  0.99103787  0.79583198  1
  Mn  Mn2  1  0.25000000  0.51063717  0.31501314  1
  Mn  Mn3  1  0.25000000  0.99110826  0.19996107  1
  As  As4  1  0.75000000  0.31027614  0.07475465  1
  P  P5  1  0.75000000  0.81070037  0.42850952  1
  P  P6  1  0.25000000  0.69584356  0.92133411  1
  P  P7  1  0.25000000  0.19199530  0.57286799  1
