# generated using pymatgen
data_Na26Ge14Au41
_symmetry_space_group_name_H-M   'P 1'
_cell_length_a   12.85439817
_cell_length_b   12.85439817
_cell_length_c   12.85439817
_cell_angle_alpha   69.83672084
_cell_angle_beta   69.82861205
_cell_angle_gamma   108.08778951
_symmetry_Int_Tables_number   1
_chemical_formula_structural   Na26Ge14Au41
_chemical_formula_sum   'Na26 Ge14 Au41'
_cell_volume   1634.34588648
_cell_formula_units_Z   1
loop_
 _symmetry_equiv_pos_site_id
 _symmetry_equiv_pos_as_xyz
  1  'x, y, z'
loop_
 _atom_site_type_symbol
 _atom_site_label
 _atom_site_symmetry_multiplicity
 _atom_site_fract_x
 _atom_site_fract_y
 _atom_site_fract_z
 _atom_site_occupancy
  Na  Na0  1  0.00037541  0.62040286  -0.00005848  1
  Na  Na1  1  0.37965562  0.37959714  0.62002745  1
  Na  Na2  1  0.62034438  0.00031693  0.00005848  1
  Na  Na3  1  0.99962459  0.99968307  0.37997255  1
  Na  Na4  1  0.99962459  0.37959714  0.00005848  1
  Na  Na5  1  0.62034438  0.62040286  0.37997255  1
  Na  Na6  1  0.37965562  0.99968307  -0.00005848  1
  Na  Na7  1  0.00037541  0.00031693  0.62002745  1
  Na  Na8  1  0.50000000  0.19335199  0.30664801  1
  Na  Na9  1  0.50000000  0.80664801  0.69335199  1
  Na  Na10  1  0.68964087  0.50000000  0.81035913  1
  Na  Na11  1  0.31035913  0.50000000  0.18964087  1
  Na  Na12  1  0.80001375  0.30001375  0.50000000  1
  Na  Na13  1  0.19998625  0.69998625  0.50000000  1
  Na  Na14  1  0.88388965  0.57675108  0.30713857  1
  Na  Na15  1  0.11611035  0.42324892  0.69286143  1
  Na  Na16  1  0.88388965  0.19102822  0.69286143  1
  Na  Na17  1  0.11611035  0.80897178  0.30713857  1
  Na  Na18  1  0.68769783  0.11069862  0.20160355  1
  Na  Na19  1  0.31230217  0.88930138  0.79839645  1
  Na  Na20  1  0.31230217  0.11069862  0.57699921  1
  Na  Na21  1  0.68769783  0.88930138  0.42300079  1
  Na  Na22  1  0.42383415  0.31190399  0.88806984  1
  Na  Na23  1  0.57616585  0.68809601  0.11193016  1
  Na  Na24  1  0.80002617  0.68809601  0.88806984  1
  Na  Na25  1  0.19997383  0.31190399  0.11193016  1
  Ge  Ge26  1  0.69067833  0.49562214  0.19505619  1
  Ge  Ge27  1  0.30932167  0.50437786  0.80494381  1
  Ge  Ge28  1  0.69067833  0.88573452  0.80494381  1
  Ge  Ge29  1  0.30932167  0.11426548  0.19505619  1
  Ge  Ge30  1  0.79561298  0.30416124  0.90022579  1
  Ge  Ge31  1  0.20438702  0.69583876  0.09977421  1
  Ge  Ge32  1  0.20438702  0.30416124  0.49145174  1
  Ge  Ge33  1  0.79561298  0.69583876  0.50854826  1
  Ge  Ge34  1  0.51227223  0.20157694  0.68930471  1
  Ge  Ge35  1  0.48772777  0.79842306  0.31069529  1
  Ge  Ge36  1  0.10911835  0.79842306  0.68930471  1
  Ge  Ge37  1  0.89088165  0.20157694  0.31069529  1
  Ge  Ge38  1  0.09408309  0.50000000  0.40591691  1
  Ge  Ge39  1  0.90591691  0.50000000  0.59408309  1
  Au  Au40  1  0.74953565  0.41088564  0.04030183  1
  Au  Au41  1  0.54881253  0.58911436  0.66134999  1
  Au  Au42  1  0.45118747  0.78983748  0.95969817  1
  Au  Au43  1  0.25046435  0.21016252  0.33865001  1
  Au  Au44  1  0.67306619  0.26091753  0.78189118  1
  Au  Au45  1  0.04280871  0.45495737  0.21810882  1
  Au  Au46  1  0.32693381  0.54504263  0.41214866  1
  Au  Au47  1  0.95719129  0.73908247  0.58785134  1
  Au  Au48  1  0.59720799  0.34620062  0.44864704  1
  Au  Au49  1  0.40279201  0.95414497  0.25100737  1
  Au  Au50  1  0.20515234  0.65379938  0.74899263  1
  Au  Au51  1  0.79484766  0.04585503  0.55135296  1
  Au  Au52  1  0.25046435  0.58911436  0.95969817  1
  Au  Au53  1  0.45118747  0.41088564  0.33865001  1
  Au  Au54  1  0.54881253  0.21016252  0.04030183  1
  Au  Au55  1  0.74953565  0.78983748  0.66134999  1
  Au  Au56  1  0.32693381  0.73908247  0.21810882  1
  Au  Au57  1  0.95719129  0.54504263  0.78189118  1
  Au  Au58  1  0.67306619  0.45495737  0.58785134  1
  Au  Au59  1  0.04280871  0.26091753  0.41214866  1
  Au  Au60  1  0.40279201  0.65379938  0.55135296  1
  Au  Au61  1  0.59720799  0.04585503  0.74899263  1
  Au  Au62  1  0.79484766  0.34620062  0.25100737  1
  Au  Au63  1  0.20515234  0.95414497  0.44864704  1
  Au  Au64  1  0.83442740  0.73179210  0.10263530  1
  Au  Au65  1  0.16557260  0.26820790  0.89736470  1
  Au  Au66  1  0.83442740  0.93706270  0.89736470  1
  Au  Au67  1  0.16557260  0.06293730  0.10263530  1
  Au  Au68  1  0.89862295  0.16460254  0.93677450  1
  Au  Au69  1  0.10137705  0.83539746  0.06322550  1
  Au  Au70  1  0.10137705  0.16460254  0.73402041  1
  Au  Au71  1  0.89862295  0.83539746  0.26597959  1
  Au  Au72  1  0.27170876  0.10585296  0.83414420  1
  Au  Au73  1  0.72829124  0.89414704  0.16585580  1
  Au  Au74  1  0.06000284  0.89414704  0.83414420  1
  Au  Au75  1  0.93999716  0.10585296  0.16585580  1
  Au  Au76  1  -0.00000000  0.00000000  0.00000000  1
  Au  Au77  1  0.40961749  0.90961749  0.50000000  1
  Au  Au78  1  0.59038251  0.09038251  0.50000000  1
  Au  Au79  1  0.50000000  0.59511667  0.90488333  1
  Au  Au80  1  0.50000000  0.40488333  0.09511667  1
