# generated using pymatgen
data_Na13Mn5(SiO3)12
_symmetry_space_group_name_H-M   'P 1'
_cell_length_a   7.49424427
_cell_length_b   10.39847348
_cell_length_c   10.41981618
_cell_angle_alpha   90.00000000
_cell_angle_beta   90.67543524
_cell_angle_gamma   90.00000000
_symmetry_Int_Tables_number   1
_chemical_formula_structural   Na13Mn5(SiO3)12
_chemical_formula_sum   'Na13 Mn5 Si12 O36'
_cell_volume   811.94630985
_cell_formula_units_Z   1
loop_
 _symmetry_equiv_pos_site_id
 _symmetry_equiv_pos_as_xyz
  1  'x, y, z'
loop_
 _atom_site_type_symbol
 _atom_site_label
 _atom_site_symmetry_multiplicity
 _atom_site_fract_x
 _atom_site_fract_y
 _atom_site_fract_z
 _atom_site_occupancy
  Na  Na0  1  0.23317351  0.25669644  0.48935236  1
  Na  Na1  1  0.23317351  0.74330356  0.48935236  1
  Na  Na2  1  0.76939766  0.24409675  0.99030744  1
  Na  Na3  1  0.76939766  0.75590325  0.99030744  1
  Na  Na4  1  0.73259491  0.23195507  0.52216408  1
  Na  Na5  1  0.73259491  0.76804493  0.52216408  1
  Na  Na6  1  0.27756620  0.26670028  0.02116467  1
  Na  Na7  1  0.27756620  0.73329972  0.02116467  1
  Na  Na8  1  0.24247405  0.00000000  0.24978254  1
  Na  Na9  1  0.74348450  0.50000000  0.76203868  1
  Na  Na10  1  0.74515320  0.50000000  0.24576720  1
  Na  Na11  1  0.23817053  0.00000000  0.75117100  1
  Na  Na12  1  0.51035772  0.50000000  0.01412106  1
  Mn  Mn13  1  0.25126927  0.50000000  0.25881850  1
  Mn  Mn14  1  0.74805245  0.00000000  0.75760525  1
  Mn  Mn15  1  0.48748339  0.00000000  0.52119965  1
  Mn  Mn16  1  0.97443703  0.50000000  0.49443018  1
  Mn  Mn17  1  0.01354266  0.00000000  0.99125586  1
  Si  Si18  1  0.50470412  0.50000000  0.52784507  1
  Si  Si19  1  0.49593806  0.00000000  0.03699755  1
  Si  Si20  1  0.99875741  0.00000000  0.47237567  1
  Si  Si21  1  0.01157577  0.50000000  0.98143376  1
  Si  Si22  1  0.96501233  0.23001429  0.25794139  1
  Si  Si23  1  0.96501233  0.76998571  0.25794139  1
  Si  Si24  1  0.03682101  0.27394099  0.76164098  1
  Si  Si25  1  0.03682101  0.72605901  0.76164098  1
  Si  Si26  1  0.53029539  0.22628275  0.25354165  1
  Si  Si27  1  0.53029539  0.77371725  0.25354165  1
  Si  Si28  1  0.46597922  0.26723784  0.74042674  1
  Si  Si29  1  0.46597922  0.73276216  0.74042674  1
  O  O30  1  0.69363724  0.50000000  0.45559311  1
  O  O31  1  0.30636976  0.00000000  0.95971107  1
  O  O32  1  0.18756981  0.50000000  0.07614183  1
  O  O33  1  0.81489287  0.00000000  0.55053653  1
  O  O34  1  0.99977982  0.12870809  0.37789341  1
  O  O35  1  0.99977982  0.87129191  0.37789341  1
  O  O36  1  0.03158404  0.37341395  0.88619030  1
  O  O37  1  0.03158404  0.62658605  0.88619030  1
  O  O38  1  0.81601255  0.50000000  0.03962512  1
  O  O39  1  0.19354588  0.00000000  0.54020631  1
  O  O40  1  0.48181685  0.12650834  0.13447625  1
  O  O41  1  0.48181685  0.87349166  0.13447625  1
  O  O42  1  0.50486718  0.37400959  0.62339163  1
  O  O43  1  0.50486718  0.62599041  0.62339163  1
  O  O44  1  0.74783807  0.25437710  0.24448038  1
  O  O45  1  0.74783807  0.74562290  0.24448038  1
  O  O46  1  0.24788292  0.24331607  0.73296255  1
  O  O47  1  0.24788292  0.75668393  0.73296255  1
  O  O48  1  0.04799651  0.36534143  0.31319752  1
  O  O49  1  0.04799651  0.63465857  0.31319752  1
  O  O50  1  0.95188389  0.14109384  0.81651768  1
  O  O51  1  0.95188389  0.85890616  0.81651768  1
  O  O52  1  0.03755450  0.16521114  0.12714946  1
  O  O53  1  0.03755450  0.83478886  0.12714946  1
  O  O54  1  0.95395683  0.34291491  0.63376342  1
  O  O55  1  0.95395683  0.65708509  0.63376342  1
  O  O56  1  0.31450313  0.50000000  0.44515338  1
  O  O57  1  0.68866440  0.00000000  0.96759560  1
  O  O58  1  0.47773446  0.16108912  0.38855234  1
  O  O59  1  0.47773446  0.83891088  0.38855234  1
  O  O60  1  0.53089891  0.32338036  0.87620406  1
  O  O61  1  0.53089891  0.67661964  0.87620406  1
  O  O62  1  0.43600807  0.36051550  0.21382055  1
  O  O63  1  0.43600807  0.63948450  0.21382055  1
  O  O64  1  0.54905984  0.13448896  0.68615866  1
  O  O65  1  0.54905984  0.86551104  0.68615866  1
