# generated using pymatgen
data_Lu3ScV4O12
_symmetry_space_group_name_H-M   'P 1'
_cell_length_a   5.22872239
_cell_length_b   5.60819373
_cell_length_c   7.60590540
_cell_angle_alpha   90.00000000
_cell_angle_beta   90.00000000
_cell_angle_gamma   88.88888160
_symmetry_Int_Tables_number   1
_chemical_formula_structural   Lu3ScV4O12
_chemical_formula_sum   'Lu3 Sc1 V4 O12'
_cell_volume   222.99126010
_cell_formula_units_Z   1
loop_
 _symmetry_equiv_pos_site_id
 _symmetry_equiv_pos_as_xyz
  1  'x, y, z'
loop_
 _atom_site_type_symbol
 _atom_site_label
 _atom_site_symmetry_multiplicity
 _atom_site_fract_x
 _atom_site_fract_y
 _atom_site_fract_z
 _atom_site_occupancy
  Lu  Lu0  1  0.97446865  0.07620600  0.25000000  1
  Lu  Lu1  1  0.48075776  0.43191704  0.75000000  1
  Lu  Lu2  1  0.02724264  0.92350228  0.75000000  1
  Sc  Sc3  1  0.51690591  0.56374883  0.25000000  1
  V  V4  1  0.49958827  0.99832283  0.00195115  1
  V  V5  1  0.00085144  0.50165302  0.49817713  1
  V  V6  1  0.49958827  0.99832283  0.49804885  1
  V  V7  1  0.00085144  0.50165302  0.00182287  1
  O  O8  1  0.81270134  0.81164848  0.06602399  1
  O  O9  1  0.68517442  0.31783959  0.42884044  1
  O  O10  1  0.18635987  0.18839128  0.56333172  1
  O  O11  1  0.30866844  0.69003733  0.93273577  1
  O  O12  1  0.18635987  0.18839128  0.93666828  1
  O  O13  1  0.30866844  0.69003733  0.56726423  1
  O  O14  1  0.81270134  0.81164848  0.43397601  1
  O  O15  1  0.68517442  0.31783959  0.07115956  1
  O  O16  1  0.37070614  0.93526374  0.25000000  1
  O  O17  1  0.14540708  0.44698947  0.25000000  1
  O  O18  1  0.62933941  0.05405203  0.75000000  1
  O  O19  1  0.86848483  0.55253552  0.75000000  1
