# generated using pymatgen
data_Mn4Cr(Co2Sn)5
_symmetry_space_group_name_H-M   'P 1'
_cell_length_a   4.23469148
_cell_length_b   4.23469148
_cell_length_c   17.46910865
_cell_angle_alpha   96.96165966
_cell_angle_beta   83.03834034
_cell_angle_gamma   120.00000000
_symmetry_Int_Tables_number   1
_chemical_formula_structural   Mn4Cr(Co2Sn)5
_chemical_formula_sum   'Mn4 Cr1 Co10 Sn5'
_cell_volume   268.62679437
_cell_formula_units_Z   1
loop_
 _symmetry_equiv_pos_site_id
 _symmetry_equiv_pos_as_xyz
  1  'x, y, z'
loop_
 _atom_site_type_symbol
 _atom_site_label
 _atom_site_symmetry_multiplicity
 _atom_site_fract_x
 _atom_site_fract_y
 _atom_site_fract_z
 _atom_site_occupancy
  Mn  Mn0  1  0.59997371  0.40002629  0.20007887  1
  Mn  Mn1  1  0.19998745  0.80001255  0.40003766  1
  Mn  Mn2  1  0.80001255  0.19998745  0.59996234  1
  Mn  Mn3  1  0.40002629  0.59997371  0.79992113  1
  Cr  Cr4  1  -0.00000000  -0.00000000  0.00000000  1
  Co  Co5  1  0.05001286  0.94998714  0.84996141  1
  Co  Co6  1  0.85001158  0.14998842  0.44996526  1
  Co  Co7  1  0.44999658  0.55000342  0.65001025  1
  Co  Co8  1  0.65002445  0.34997555  0.04992664  1
  Co  Co9  1  0.25001097  0.74998903  0.24996710  1
  Co  Co10  1  0.34997555  0.65002445  0.95007336  1
  Co  Co11  1  0.14998842  0.85001158  0.55003474  1
  Co  Co12  1  0.74998903  0.25001097  0.75003290  1
  Co  Co13  1  0.94998714  0.05001286  0.15003859  1
  Co  Co14  1  0.55000342  0.44999658  0.34998975  1
  Sn  Sn15  1  0.69996596  0.30003404  0.90010211  1
  Sn  Sn16  1  0.50000000  0.50000000  0.50000000  1
  Sn  Sn17  1  0.10002246  0.89997754  0.69993262  1
  Sn  Sn18  1  0.30003404  0.69996596  0.09989789  1
  Sn  Sn19  1  0.89997754  0.10002246  0.30006738  1
