# generated using pymatgen
data_Li2VCrS4
_symmetry_space_group_name_H-M   'P 1'
_cell_length_a   3.46451029
_cell_length_b   6.91934059
_cell_length_c   6.14202723
_cell_angle_alpha   116.02509174
_cell_angle_beta   90.01181597
_cell_angle_gamma   104.48520612
_symmetry_Int_Tables_number   1
_chemical_formula_structural   Li2VCrS4
_chemical_formula_sum   'Li2 V1 Cr1 S4'
_cell_volume   127.07498177
_cell_formula_units_Z   1
loop_
 _symmetry_equiv_pos_site_id
 _symmetry_equiv_pos_as_xyz
  1  'x, y, z'
loop_
 _atom_site_type_symbol
 _atom_site_label
 _atom_site_symmetry_multiplicity
 _atom_site_fract_x
 _atom_site_fract_y
 _atom_site_fract_z
 _atom_site_occupancy
  Li  Li0  1  0.75011052  0.50023795  0.74949144  1
  Li  Li1  1  0.24988948  0.49976205  0.25050856  1
  V  V2  1  0.50000000  -0.00000000  0.50000000  1
  Cr  Cr3  1  -0.00000000  -0.00000000  -0.00000000  1
  S  S4  1  0.11260013  0.22537453  0.78284479  1
  S  S5  1  0.61193637  0.22399587  0.27662712  1
  S  S6  1  0.88739987  0.77462547  0.21715521  1
  S  S7  1  0.38806363  0.77600413  0.72337288  1
