# generated using pymatgen
data_La4YC10
_symmetry_space_group_name_H-M   'P 1'
_cell_length_a   4.28119301
_cell_length_b   4.28119301
_cell_length_c   13.94101460
_cell_angle_alpha   82.55646362
_cell_angle_beta   97.44353638
_cell_angle_gamma   81.00846131
_symmetry_Int_Tables_number   1
_chemical_formula_structural   La4YC10
_chemical_formula_sum   'La4 Y1 C10'
_cell_volume   247.30826010
_cell_formula_units_Z   1
loop_
 _symmetry_equiv_pos_site_id
 _symmetry_equiv_pos_as_xyz
  1  'x, y, z'
loop_
 _atom_site_type_symbol
 _atom_site_label
 _atom_site_symmetry_multiplicity
 _atom_site_fract_x
 _atom_site_fract_y
 _atom_site_fract_z
 _atom_site_occupancy
  La  La0  1  0.59923758  0.40076242  0.19847516  1
  La  La1  1  0.19969496  0.80030504  0.39938992  1
  La  La2  1  0.80030504  0.19969496  0.60061008  1
  La  La3  1  0.40076242  0.59923758  0.80152484  1
  Y  Y4  1  -0.00000000  -0.00000000  -0.00000000  1
  C  C5  1  0.80433512  0.99632227  0.80801285  1
  C  C6  1  0.20038264  0.60025751  0.60012513  1
  C  C7  1  0.60025751  0.20038264  0.39987487  1
  C  C8  1  0.39980252  0.39980252  0.00000000  1
  C  C9  1  0.99632227  0.80433512  0.19198715  1
  C  C10  1  0.39974249  0.79961736  0.60012513  1
  C  C11  1  0.79961736  0.39974249  0.39987487  1
  C  C12  1  0.19566488  0.00367773  0.19198715  1
  C  C13  1  0.00367773  0.19566488  0.80801285  1
  C  C14  1  0.60019748  0.60019748  -0.00000000  1
