# generated using pymatgen
data_Li7Ta24O64
_symmetry_space_group_name_H-M   'P 1'
_cell_length_a   7.77092418
_cell_length_b   8.99884051
_cell_length_c   16.98158412
_cell_angle_alpha   89.80447820
_cell_angle_beta   90.00000000
_cell_angle_gamma   90.00000000
_symmetry_Int_Tables_number   1
_chemical_formula_structural   Li7Ta24O64
_chemical_formula_sum   'Li7 Ta24 O64'
_cell_volume   1187.50350052
_cell_formula_units_Z   1
loop_
 _symmetry_equiv_pos_site_id
 _symmetry_equiv_pos_as_xyz
  1  'x, y, z'
loop_
 _atom_site_type_symbol
 _atom_site_label
 _atom_site_symmetry_multiplicity
 _atom_site_fract_x
 _atom_site_fract_y
 _atom_site_fract_z
 _atom_site_occupancy
  Li  Li0  1  0.75000000  0.08520111  0.40750560  1
  Li  Li1  1  0.75000000  0.08883683  0.09196449  1
  Li  Li2  1  0.25000000  0.91188664  0.59189441  1
  Li  Li3  1  0.25000000  0.91104122  0.90824401  1
  Li  Li4  1  0.75000000  0.67666160  0.74935185  1
  Li  Li5  1  0.25000000  0.32013195  0.24909178  1
  Li  Li6  1  0.75000000  0.47443981  0.50661388  1
  Ta  Ta7  1  0.49415593  0.60723677  0.62993440  1
  Ta  Ta8  1  0.49723141  0.60422126  0.87320141  1
  Ta  Ta9  1  0.00584407  0.60723677  0.62993440  1
  Ta  Ta10  1  0.00276859  0.60422126  0.87320141  1
  Ta  Ta11  1  0.50183234  0.39326179  0.36994410  1
  Ta  Ta12  1  0.50274045  0.39555925  0.12674212  1
  Ta  Ta13  1  0.99816766  0.39326179  0.36994410  1
  Ta  Ta14  1  0.99725955  0.39555925  0.12674212  1
  Ta  Ta15  1  0.49881524  0.94798705  0.75046423  1
  Ta  Ta16  1  0.00118476  0.94798705  0.75046423  1
  Ta  Ta17  1  0.50152000  0.05199020  0.24979490  1
  Ta  Ta18  1  0.99848000  0.05199020  0.24979490  1
  Ta  Ta19  1  0.50200550  0.31568407  0.74892799  1
  Ta  Ta20  1  0.99799450  0.31568407  0.74892799  1
  Ta  Ta21  1  0.49832988  0.68467593  0.25044476  1
  Ta  Ta22  1  0.00167012  0.68467593  0.25044476  1
  Ta  Ta23  1  0.49847642  0.18676640  0.56012649  1
  Ta  Ta24  1  0.49904428  0.18897159  0.93888851  1
  Ta  Ta25  1  0.00152358  0.18676640  0.56012649  1
  Ta  Ta26  1  0.00095572  0.18897159  0.93888851  1
  Ta  Ta27  1  0.50090973  0.80846755  0.44007373  1
  Ta  Ta28  1  0.50094873  0.81121208  0.06094171  1
  Ta  Ta29  1  0.99909027  0.80846755  0.44007373  1
  Ta  Ta30  1  0.99905127  0.81121208  0.06094171  1
  O  O31  1  0.25000000  0.30356044  0.74918836  1
  O  O32  1  0.75000000  0.69680307  0.25047160  1
  O  O33  1  0.52405033  0.12541790  0.67481491  1
  O  O34  1  0.52336047  0.12492213  0.82348156  1
  O  O35  1  0.97594967  0.12541790  0.67481491  1
  O  O36  1  0.97663953  0.12492213  0.82348156  1
  O  O37  1  0.47651064  0.87473696  0.32569789  1
  O  O38  1  0.47631420  0.87517130  0.17625855  1
  O  O39  1  0.02348936  0.87473696  0.32569789  1
  O  O40  1  0.02368580  0.87517130  0.17625855  1
  O  O41  1  0.54344962  0.65709778  0.51969745  1
  O  O42  1  0.53256647  0.66667090  0.97957656  1
  O  O43  1  0.95655038  0.65709778  0.51969745  1
  O  O44  1  0.96743353  0.66667090  0.97957656  1
  O  O45  1  0.47260524  0.33667295  0.47924515  1
  O  O46  1  0.46754114  0.33343732  0.02010400  1
  O  O47  1  0.02739476  0.33667295  0.47924515  1
  O  O48  1  0.03245886  0.33343732  0.02010400  1
  O  O49  1  0.75000000  0.60945789  0.64177084  1
  O  O50  1  0.75000000  0.61271894  0.85606029  1
  O  O51  1  0.25000000  0.38263571  0.35696156  1
  O  O52  1  0.25000000  0.38786512  0.14359277  1
  O  O53  1  0.25000000  0.97993700  0.74963270  1
  O  O54  1  0.75000000  0.01896623  0.24969603  1
  O  O55  1  0.75000000  0.32632643  0.74984192  1
  O  O56  1  0.25000000  0.67340346  0.25017669  1
  O  O57  1  0.50425504  0.38163849  0.63055691  1
  O  O58  1  0.50368163  0.37995837  0.86777373  1
  O  O59  1  0.99574496  0.38163849  0.63055691  1
  O  O60  1  0.99631837  0.37995837  0.86777373  1
  O  O61  1  0.49437105  0.61892726  0.36872939  1
  O  O62  1  0.49621762  0.62025968  0.13180474  1
  O  O63  1  0.00562895  0.61892726  0.36872939  1
  O  O64  1  0.00378238  0.62025968  0.13180474  1
  O  O65  1  0.48919609  0.54988073  0.74919770  1
  O  O66  1  0.01080391  0.54988073  0.74919770  1
  O  O67  1  0.51172731  0.45075085  0.25044825  1
  O  O68  1  0.98827269  0.45075085  0.25044825  1
  O  O69  1  0.75000000  0.19659764  0.54397714  1
  O  O70  1  0.75000000  0.18353554  0.95432156  1
  O  O71  1  0.25000000  0.81207194  0.45903754  1
  O  O72  1  0.25000000  0.81648182  0.04539507  1
  O  O73  1  0.46288815  0.81370043  0.66113637  1
  O  O74  1  0.46318701  0.81030452  0.83699126  1
  O  O75  1  0.03711185  0.81370043  0.66113637  1
  O  O76  1  0.03681299  0.81030452  0.83699126  1
  O  O77  1  0.54111451  0.18867261  0.33746550  1
  O  O78  1  0.53600355  0.18952810  0.16290964  1
  O  O79  1  0.95888549  0.18867261  0.33746550  1
  O  O80  1  0.96399645  0.18952810  0.16290964  1
  O  O81  1  0.75000000  0.90156284  0.74942430  1
  O  O82  1  0.25000000  0.09753825  0.25113775  1
  O  O83  1  0.25000000  0.59114554  0.61014608  1
  O  O84  1  0.25000000  0.58807135  0.88639840  1
  O  O85  1  0.75000000  0.41735072  0.39343070  1
  O  O86  1  0.75000000  0.41184722  0.11326779  1
  O  O87  1  0.25000000  0.14846768  0.57212915  1
  O  O88  1  0.25000000  0.14480454  0.92608742  1
  O  O89  1  0.75000000  0.85099622  0.42732112  1
  O  O90  1  0.75000000  0.85518042  0.07379336  1
  O  O91  1  0.50293671  0.99889716  0.50075443  1
  O  O92  1  0.50001176  0.00005802  0.99990857  1
  O  O93  1  0.99706329  0.99889716  0.50075443  1
  O  O94  1  0.99998824  0.00005802  0.99990857  1
