# generated using pymatgen
data_Li2Zr4As3(PO8)3
_symmetry_space_group_name_H-M   'P 1'
_cell_length_a   9.12587201
_cell_length_b   9.12587245
_cell_length_c   9.20353052
_cell_angle_alpha   60.27873510
_cell_angle_beta   119.72126742
_cell_angle_gamma   119.99999813
_symmetry_Int_Tables_number   1
_chemical_formula_structural   Li2Zr4As3(PO8)3
_chemical_formula_sum   'Li2 Zr4 As3 P3 O24'
_cell_volume   544.25841402
_cell_formula_units_Z   1
loop_
 _symmetry_equiv_pos_site_id
 _symmetry_equiv_pos_as_xyz
  1  'x, y, z'
loop_
 _atom_site_type_symbol
 _atom_site_label
 _atom_site_symmetry_multiplicity
 _atom_site_fract_x
 _atom_site_fract_y
 _atom_site_fract_z
 _atom_site_occupancy
  Li  Li0  1  0.51245733  0.48754267  0.53737200  1
  Li  Li1  1  0.98754267  0.01245733  0.96262800  1
  Zr  Zr2  1  0.36303017  0.63696983  0.08909052  1
  Zr  Zr3  1  0.85285644  0.14714356  0.55856931  1
  Zr  Zr4  1  0.64714356  0.35285644  0.94143069  1
  Zr  Zr5  1  0.13696983  0.86303017  0.41090948  1
  As  As6  1  0.25000000  0.04266982  0.75000000  1
  As  As7  1  0.54266982  0.75000000  0.75000000  1
  As  As8  1  0.95733018  0.45733018  0.75000000  1
  P  P9  1  0.45646680  0.25000000  0.25000000  1
  P  P10  1  0.04353320  0.54353320  0.25000000  1
  P  P11  1  0.75000000  0.95646680  0.25000000  1
  O  O12  1  0.59388665  0.77552160  0.26134815  1
  O  O13  1  0.44298310  0.40611335  0.26134815  1
  O  O14  1  0.22447840  0.55701690  0.26134815  1
  O  O15  1  0.74252302  0.92165649  0.75618817  1
  O  O16  1  0.93532163  0.25747698  0.75618817  1
  O  O17  1  0.07834351  0.06467837  0.75618817  1
  O  O18  1  0.42165649  0.24252302  0.74381183  1
  O  O19  1  0.56467837  0.57834351  0.74381183  1
  O  O20  1  0.75747698  0.43532163  0.74381183  1
  O  O21  1  0.27552160  0.09388665  0.23865185  1
  O  O22  1  0.05701690  0.72447840  0.23865185  1
  O  O23  1  0.90611335  0.94298310  0.23865185  1
  O  O24  1  0.30951373  0.87450937  0.93646747  1
  O  O25  1  0.50146311  0.69048627  0.93646747  1
  O  O26  1  0.12549063  0.49853689  0.93646747  1
  O  O27  1  0.60922567  0.18988663  0.41606454  1
  O  O28  1  0.99672549  0.39077433  0.41606454  1
  O  O29  1  0.81011337  0.00327451  0.41606454  1
  O  O30  1  0.68988663  0.10922567  0.08393546  1
  O  O31  1  0.50327451  0.31011337  0.08393546  1
  O  O32  1  0.89077433  0.49672549  0.08393546  1
  O  O33  1  0.37450937  0.80951373  0.56353253  1
  O  O34  1  0.99853689  0.62549063  0.56353253  1
  O  O35  1  0.19048627  0.00146311  0.56353253  1
