# generated using pymatgen
data_SiNiW
_symmetry_space_group_name_H-M   'P 1'
_cell_length_a   4.84025030
_cell_length_b   4.70364073
_cell_length_c   7.63336807
_cell_angle_alpha   90.00000000
_cell_angle_beta   90.00000000
_cell_angle_gamma   120.97029661
_symmetry_Int_Tables_number   1
_chemical_formula_structural   SiNiW
_chemical_formula_sum   'Si4 Ni4 W4'
_cell_volume   149.01121822
_cell_formula_units_Z   4
loop_
 _symmetry_equiv_pos_site_id
 _symmetry_equiv_pos_as_xyz
  1  'x, y, z'
loop_
 _atom_site_type_symbol
 _atom_site_label
 _atom_site_symmetry_multiplicity
 _atom_site_fract_x
 _atom_site_fract_y
 _atom_site_fract_z
 _atom_site_occupancy
  Si  Si0  1  0.15938720  0.80879009  0.25000000  1
  Si  Si1  1  0.64941717  0.80877177  0.25000000  1
  Si  Si2  1  0.00917502  0.01841801  0.51965595  1
  Si  Si3  1  0.00917502  0.01841801  0.98034405  1
  Ni  Ni4  1  0.83313075  0.66625404  0.75000000  1
  Ni  Ni5  1  0.83170221  0.17812830  0.75000000  1
  Ni  Ni6  1  0.34650976  0.17817991  0.75000000  1
  Ni  Ni7  1  0.15066188  0.30129292  0.25000000  1
  W  W8  1  0.66482187  0.32961156  0.06234013  1
  W  W9  1  0.34059863  0.68126192  0.94229346  1
  W  W10  1  0.34059863  0.68126192  0.55770654  1
  W  W11  1  0.66482187  0.32961156  0.43765987  1
