# generated using pymatgen
data_La4DyC10
_symmetry_space_group_name_H-M   'P 1'
_cell_length_a   4.27748378
_cell_length_b   4.27748378
_cell_length_c   13.95021938
_cell_angle_alpha   82.58704643
_cell_angle_beta   97.41295357
_cell_angle_gamma   80.88295612
_symmetry_Int_Tables_number   1
_chemical_formula_structural   La4DyC10
_chemical_formula_sum   'La4 Dy1 C10'
_cell_volume   246.98537064
_cell_formula_units_Z   1
loop_
 _symmetry_equiv_pos_site_id
 _symmetry_equiv_pos_as_xyz
  1  'x, y, z'
loop_
 _atom_site_type_symbol
 _atom_site_label
 _atom_site_symmetry_multiplicity
 _atom_site_fract_x
 _atom_site_fract_y
 _atom_site_fract_z
 _atom_site_occupancy
  La  La0  1  0.59942585  0.40057415  0.19885169  1
  La  La1  1  0.19975412  0.80024588  0.39950824  1
  La  La2  1  0.80024588  0.19975412  0.60049176  1
  La  La3  1  0.40057415  0.59942585  0.80114831  1
  Dy  Dy4  1  -0.00000000  0.00000000  -0.00000000  1
  C  C5  1  0.80331575  0.99754427  0.80577148  1
  C  C6  1  0.20041233  0.60033723  0.60007510  1
  C  C7  1  0.60033723  0.20041233  0.39992490  1
  C  C8  1  0.39992418  0.39992418  0.00000000  1
  C  C9  1  0.99754427  0.80331575  0.19422852  1
  C  C10  1  0.39966277  0.79958767  0.60007510  1
  C  C11  1  0.79958767  0.39966277  0.39992490  1
  C  C12  1  0.19668425  0.00245573  0.19422852  1
  C  C13  1  0.00245573  0.19668425  0.80577148  1
  C  C14  1  0.60007582  0.60007582  -0.00000000  1
