# generated using pymatgen
data_LaMn4(BiO4)3
_symmetry_space_group_name_H-M   'P 1'
_cell_length_a   5.50435594
_cell_length_b   5.94596275
_cell_length_c   7.72862777
_cell_angle_alpha   90.00000000
_cell_angle_beta   90.00000000
_cell_angle_gamma   89.71528734
_symmetry_Int_Tables_number   1
_chemical_formula_structural   LaMn4(BiO4)3
_chemical_formula_sum   'La1 Mn4 Bi3 O12'
_cell_volume   252.94478090
_cell_formula_units_Z   1
loop_
 _symmetry_equiv_pos_site_id
 _symmetry_equiv_pos_as_xyz
  1  'x, y, z'
loop_
 _atom_site_type_symbol
 _atom_site_label
 _atom_site_symmetry_multiplicity
 _atom_site_fract_x
 _atom_site_fract_y
 _atom_site_fract_z
 _atom_site_occupancy
  La  La0  1  0.51460831  0.43695518  0.25000000  1
  Mn  Mn1  1  0.00073325  0.50180989  0.99821113  1
  Mn  Mn2  1  0.50110409  0.99870882  0.50062377  1
  Mn  Mn3  1  0.00073325  0.50180989  0.50178887  1
  Mn  Mn4  1  0.50110409  0.99870882  -0.00062377  1
  Bi  Bi5  1  0.99177603  0.93194700  0.25000000  1
  Bi  Bi6  1  0.49040267  0.56848826  0.75000000  1
  Bi  Bi7  1  0.00970542  0.06875095  0.75000000  1
  O  O8  1  0.40162283  0.02558215  0.25000000  1
  O  O9  1  0.08508895  0.52834516  0.25000000  1
  O  O10  1  0.59859708  0.96946483  0.75000000  1
  O  O11  1  0.90098152  0.46646430  0.75000000  1
  O  O12  1  0.70944496  0.68201601  0.04087488  1
  O  O13  1  0.79035400  0.18078900  0.45347505  1
  O  O14  1  0.29264542  0.32019861  0.54559597  1
  O  O15  1  0.20932688  0.81847877  0.95537965  1
  O  O16  1  0.29264542  0.32019861  0.95440403  1
  O  O17  1  0.20932688  0.81847877  0.54462035  1
  O  O18  1  0.70944496  0.68201601  0.45912512  1
  O  O19  1  0.79035400  0.18078900  0.04652495  1
