# generated using pymatgen
data_K2Nd2Ti3O10
_symmetry_space_group_name_H-M   'P 1'
_cell_length_a   3.90434373
_cell_length_b   3.90434373
_cell_length_c   15.19820371
_cell_angle_alpha   82.57028461
_cell_angle_beta   82.57028461
_cell_angle_gamma   89.61533308
_symmetry_Int_Tables_number   1
_chemical_formula_structural   K2Nd2Ti3O10
_chemical_formula_sum   'K2 Nd2 Ti3 O10'
_cell_volume   227.79416729
_cell_formula_units_Z   1
loop_
 _symmetry_equiv_pos_site_id
 _symmetry_equiv_pos_as_xyz
  1  'x, y, z'
loop_
 _atom_site_type_symbol
 _atom_site_label
 _atom_site_symmetry_multiplicity
 _atom_site_fract_x
 _atom_site_fract_y
 _atom_site_fract_z
 _atom_site_occupancy
  K  K0  1  0.70678444  0.70678444  0.58433816  1
  K  K1  1  0.29112260  0.29112260  0.41566184  1
  Nd  Nd2  1  0.55231874  0.55231874  0.85627411  1
  Nd  Nd3  1  0.40859285  0.40859285  0.14372589  1
  Ti  Ti4  1  0.13665539  0.13665539  0.72148371  1
  Ti  Ti5  1  0.85813910  0.85813910  0.27851629  1
  Ti  Ti6  1  0.01072116  0.01072116  -0.00000000  1
  O  O7  1  0.09057837  0.09057837  0.87152221  1
  O  O8  1  0.96210058  0.96210058  0.12847779  1
  O  O9  1  0.19842507  0.19842507  0.60308265  1
  O  O10  1  0.80150772  0.80150772  0.39691735  1
  O  O11  1  0.62968138  0.12609327  0.74876958  1
  O  O12  1  0.12609327  0.62968138  0.74876958  1
  O  O13  1  0.37845096  0.87486285  0.25123042  1
  O  O14  1  0.87486285  0.37845096  0.25123042  1
  O  O15  1  0.05531742  0.52964810  -0.00000000  1
  O  O16  1  0.52964810  0.05531742  -0.00000000  1
