# generated using pymatgen
data_Ho2Mn3Sb3O14
_symmetry_space_group_name_H-M   'P 1'
_cell_length_a   7.31738122
_cell_length_b   7.23743037
_cell_length_c   7.33853183
_cell_angle_alpha   90.00000000
_cell_angle_beta   59.90433816
_cell_angle_gamma   120.14764080
_symmetry_Int_Tables_number   1
_chemical_formula_structural   Ho2Mn3Sb3O14
_chemical_formula_sum   'Ho2 Mn3 Sb3 O14'
_cell_volume   273.79731145
_cell_formula_units_Z   1
loop_
 _symmetry_equiv_pos_site_id
 _symmetry_equiv_pos_as_xyz
  1  'x, y, z'
loop_
 _atom_site_type_symbol
 _atom_site_label
 _atom_site_symmetry_multiplicity
 _atom_site_fract_x
 _atom_site_fract_y
 _atom_site_fract_z
 _atom_site_occupancy
  Ho  Ho0  1  0.50000000  0.50000000  -0.00000000  1
  Ho  Ho1  1  0.50000000  -0.00000000  -0.00000000  1
  Mn  Mn2  1  -0.00000000  -0.00000000  0.50000000  1
  Mn  Mn3  1  -0.00000000  -0.00000000  -0.00000000  1
  Mn  Mn4  1  0.50000000  -0.00000000  0.50000000  1
  Sb  Sb5  1  0.50000000  0.50000000  0.50000000  1
  Sb  Sb6  1  -0.00000000  0.50000000  -0.00000000  1
  Sb  Sb7  1  -0.00000000  0.50000000  0.50000000  1
  O  O8  1  0.24161841  0.12245156  0.12919079  1
  O  O9  1  0.75838159  0.87754844  0.87080921  1
  O  O10  1  0.65069355  0.82865775  0.42465323  1
  O  O11  1  0.83623996  0.42818504  0.83188002  1
  O  O12  1  0.24981027  0.82708389  0.84279158  1
  O  O13  1  0.25706490  0.42490720  0.41335623  1
  O  O14  1  0.25706490  0.42490720  0.82957887  1
  O  O15  1  0.24981027  0.82708389  0.40739814  1
  O  O16  1  0.34930645  0.17134225  0.57534677  1
  O  O17  1  0.16376004  0.57181496  0.16811998  1
  O  O18  1  0.75018973  0.17291611  0.15720842  1
  O  O19  1  0.74293510  0.57509280  0.58664377  1
  O  O20  1  0.74293510  0.57509280  0.17042113  1
  O  O21  1  0.75018973  0.17291611  0.59260186  1
