# generated using pymatgen
data_Ga2SeS
_symmetry_space_group_name_H-M   'P 1'
_cell_length_a   3.72723567
_cell_length_b   3.72723567
_cell_length_c   16.27349422
_cell_angle_alpha   89.99937656
_cell_angle_beta   90.00062344
_cell_angle_gamma   120.00143682
_symmetry_Int_Tables_number   1
_chemical_formula_structural   Ga2SeS
_chemical_formula_sum   'Ga4 Se2 S2'
_cell_volume   195.78475152
_cell_formula_units_Z   2
loop_
 _symmetry_equiv_pos_site_id
 _symmetry_equiv_pos_as_xyz
  1  'x, y, z'
loop_
 _atom_site_type_symbol
 _atom_site_label
 _atom_site_symmetry_multiplicity
 _atom_site_fract_x
 _atom_site_fract_y
 _atom_site_fract_z
 _atom_site_occupancy
  Ga  Ga0  1  0.66666243  0.33333757  0.67726317  1
  Ga  Ga1  1  0.33333757  0.66666243  0.32273683  1
  Ga  Ga2  1  0.33332910  0.66667090  0.17077429  1
  Ga  Ga3  1  0.66667090  0.33332910  0.82922571  1
  Se  Se4  1  0.33333510  0.66666490  0.60301999  1
  Se  Se5  1  0.66666490  0.33333510  0.39698001  1
  S  S6  1  0.66665725  0.33334275  0.10735845  1
  S  S7  1  0.33334275  0.66665725  0.89264155  1
