# generated using pymatgen
data_GeAsW
_symmetry_space_group_name_H-M   'P 1'
_cell_length_a   3.31894855
_cell_length_b   4.94386898
_cell_length_c   6.92871175
_cell_angle_alpha   88.48079015
_cell_angle_beta   76.14256090
_cell_angle_gamma   109.61286441
_symmetry_Int_Tables_number   1
_chemical_formula_structural   GeAsW
_chemical_formula_sum   'Ge2 As2 W2'
_cell_volume   103.26358915
_cell_formula_units_Z   2
loop_
 _symmetry_equiv_pos_site_id
 _symmetry_equiv_pos_as_xyz
  1  'x, y, z'
loop_
 _atom_site_type_symbol
 _atom_site_label
 _atom_site_symmetry_multiplicity
 _atom_site_fract_x
 _atom_site_fract_y
 _atom_site_fract_z
 _atom_site_occupancy
  Ge  Ge0  1  0.70811497  0.31183909  0.89560916  1
  Ge  Ge1  1  0.29188503  0.68816091  0.10439084  1
  As  As2  1  0.60988469  0.75413226  0.53436287  1
  As  As3  1  0.39011531  0.24586774  0.46563713  1
  W  W4  1  0.04557417  0.89126672  0.80011838  1
  W  W5  1  0.95442583  0.10873328  0.19988162  1
