# generated using pymatgen
data_Ho(Fe5Mo)2
_symmetry_space_group_name_H-M   'P 1'
_cell_length_a   4.72505928
_cell_length_b   6.49634614
_cell_length_c   6.49634614
_cell_angle_alpha   97.27488965
_cell_angle_beta   111.32578770
_cell_angle_gamma   68.67421230
_symmetry_Int_Tables_number   1
_chemical_formula_structural   Ho(Fe5Mo)2
_chemical_formula_sum   'Ho1 Fe10 Mo2'
_cell_volume   173.03260198
_cell_formula_units_Z   1
loop_
 _symmetry_equiv_pos_site_id
 _symmetry_equiv_pos_as_xyz
  1  'x, y, z'
loop_
 _atom_site_type_symbol
 _atom_site_label
 _atom_site_symmetry_multiplicity
 _atom_site_fract_x
 _atom_site_fract_y
 _atom_site_fract_z
 _atom_site_occupancy
  Ho  Ho0  1  0.00000000  -0.00000000  0.00000000  1
  Fe  Fe1  1  0.71690014  0.78309986  0.21690014  1
  Fe  Fe2  1  0.28309986  0.21690014  0.78309986  1
  Fe  Fe3  1  0.50000000  0.77512180  0.77512180  1
  Fe  Fe4  1  0.50000000  0.22487820  0.22487820  1
  Fe  Fe5  1  0.50000000  -0.00000000  0.50000000  1
  Fe  Fe6  1  0.00000000  -0.00000000  0.50000000  1
  Fe  Fe7  1  0.50000000  0.50000000  0.00000000  1
  Fe  Fe8  1  0.00000000  0.50000000  0.00000000  1
  Fe  Fe9  1  0.64261880  0.35738120  0.64261880  1
  Fe  Fe10  1  0.35738120  0.64261880  0.35738120  1
  Mo  Mo11  1  0.00000000  0.35752055  0.35752055  1
  Mo  Mo12  1  -0.00000000  0.64247945  0.64247945  1
