# generated using pymatgen
data_Hg2I3Br
_symmetry_space_group_name_H-M   'P 1'
_cell_length_a   4.56726652
_cell_length_b   4.56726652
_cell_length_c   14.07070765
_cell_angle_alpha   91.24222872
_cell_angle_beta   88.75777128
_cell_angle_gamma   110.58150436
_symmetry_Int_Tables_number   1
_chemical_formula_structural   Hg2I3Br
_chemical_formula_sum   'Hg2 I3 Br1'
_cell_volume   274.68422276
_cell_formula_units_Z   1
loop_
 _symmetry_equiv_pos_site_id
 _symmetry_equiv_pos_as_xyz
  1  'x, y, z'
loop_
 _atom_site_type_symbol
 _atom_site_label
 _atom_site_symmetry_multiplicity
 _atom_site_fract_x
 _atom_site_fract_y
 _atom_site_fract_z
 _atom_site_occupancy
  Hg  Hg0  1  0.34020802  0.65979198  0.33405829  1
  Hg  Hg1  1  0.66445328  0.33554672  0.83095916  1
  I  I2  1  0.59237413  0.40762587  0.46377930  1
  I  I3  1  0.40772635  0.59227365  0.96314041  1
  I  I4  1  0.08601003  0.91398997  0.20459528  1
  Br  Br5  1  0.90922820  0.09077180  0.70818757  1
