# generated using pymatgen
data_Ho4MgS7
_symmetry_space_group_name_H-M   'P 1'
_cell_length_a   3.79356232
_cell_length_b   6.56638914
_cell_length_c   11.45619959
_cell_angle_alpha   104.24251867
_cell_angle_beta   90.00000000
_cell_angle_gamma   73.21015426
_symmetry_Int_Tables_number   1
_chemical_formula_structural   Ho4MgS7
_chemical_formula_sum   'Ho4 Mg1 S7'
_cell_volume   264.03334636
_cell_formula_units_Z   1
loop_
 _symmetry_equiv_pos_site_id
 _symmetry_equiv_pos_as_xyz
  1  'x, y, z'
loop_
 _atom_site_type_symbol
 _atom_site_label
 _atom_site_symmetry_multiplicity
 _atom_site_fract_x
 _atom_site_fract_y
 _atom_site_fract_z
 _atom_site_occupancy
  Ho  Ho0  1  0.69290491  0.61419017  0.20363485  1
  Ho  Ho1  1  0.30659363  0.38681273  0.80205511  1
  Ho  Ho2  1  0.99970829  0.00058342  0.00523130  1
  Ho  Ho3  1  0.11371144  0.77257712  0.56811139  1
  Mg  Mg4  1  0.88559231  0.22881539  0.42158163  1
  S  S5  1  0.74320002  0.51359996  0.64112712  1
  S  S6  1  0.26653669  0.46692662  0.35255447  1
  S  S7  1  0.33897374  0.32205253  0.05052516  1
  S  S8  1  0.65963113  0.68073773  0.94860976  1
  S  S9  1  0.03606631  0.92786738  0.22339266  1
  S  S10  1  0.96198878  0.07602243  0.78493512  1
  S  S11  1  0.49509274  0.00981452  0.49824143  1
