# generated using pymatgen
data_In5Pt11
_symmetry_space_group_name_H-M   'P 1'
_cell_length_a   4.10597668
_cell_length_b   5.74224656
_cell_length_c   11.53819992
_cell_angle_alpha   92.46860224
_cell_angle_beta   90.00000000
_cell_angle_gamma   90.00000000
_symmetry_Int_Tables_number   1
_chemical_formula_structural   In5Pt11
_chemical_formula_sum   'In5 Pt11'
_cell_volume   271.78979808
_cell_formula_units_Z   1
loop_
 _symmetry_equiv_pos_site_id
 _symmetry_equiv_pos_as_xyz
  1  'x, y, z'
loop_
 _atom_site_type_symbol
 _atom_site_label
 _atom_site_symmetry_multiplicity
 _atom_site_fract_x
 _atom_site_fract_y
 _atom_site_fract_z
 _atom_site_occupancy
  In  In0  1  0.50000000  0.25362922  0.37448332  1
  In  In1  1  0.50000000  0.27504227  0.86077383  1
  In  In2  1  0.50000000  0.72495773  0.13922617  1
  In  In3  1  0.50000000  0.74637078  0.62551668  1
  In  In4  1  0.00000000  -0.00000000  0.00000000  1
  Pt  Pt5  1  -0.00000000  0.99913274  0.24789266  1
  Pt  Pt6  1  -0.00000000  0.00086726  0.75210734  1
  Pt  Pt7  1  -0.00000000  0.50000000  0.00000000  1
  Pt  Pt8  1  -0.00000000  0.50000000  0.50000000  1
  Pt  Pt9  1  -0.00000000  0.49369618  0.25256430  1
  Pt  Pt10  1  -0.00000000  0.50630382  0.74743570  1
  Pt  Pt11  1  0.50000000  0.75763146  0.37942568  1
  Pt  Pt12  1  0.50000000  0.76403215  0.88237353  1
  Pt  Pt13  1  0.50000000  0.23596785  0.11762647  1
  Pt  Pt14  1  0.50000000  0.24236854  0.62057432  1
  Pt  Pt15  1  0.00000000  -0.00000000  0.50000000  1
