# generated using pymatgen
data_K6Ba2CaU6O24
_symmetry_space_group_name_H-M   'P 1'
_cell_length_a   7.60002477
_cell_length_b   7.60002477
_cell_length_c   12.30367827
_cell_angle_alpha   90.00000000
_cell_angle_beta   90.00000000
_cell_angle_gamma   109.96278987
_symmetry_Int_Tables_number   1
_chemical_formula_structural   K6Ba2CaU6O24
_chemical_formula_sum   'K6 Ba2 Ca1 U6 O24'
_cell_volume   667.96445317
_cell_formula_units_Z   1
loop_
 _symmetry_equiv_pos_site_id
 _symmetry_equiv_pos_as_xyz
  1  'x, y, z'
loop_
 _atom_site_type_symbol
 _atom_site_label
 _atom_site_symmetry_multiplicity
 _atom_site_fract_x
 _atom_site_fract_y
 _atom_site_fract_z
 _atom_site_occupancy
  K  K0  1  0.50000000  -0.00000000  -0.00000000  1
  K  K1  1  0.00000000  0.50000000  -0.00000000  1
  K  K2  1  0.73483447  0.73483447  0.25791714  1
  K  K3  1  0.26516553  0.26516553  0.74208286  1
  K  K4  1  0.26516553  0.26516553  0.25791714  1
  K  K5  1  0.73483447  0.73483447  0.74208286  1
  Ba  Ba6  1  0.00000000  0.50000000  0.50000000  1
  Ba  Ba7  1  0.50000000  -0.00000000  0.50000000  1
  Ca  Ca8  1  0.00000000  -0.00000000  -0.00000000  1
  U  U9  1  0.24722386  0.75277614  0.24548365  1
  U  U10  1  0.75277614  0.24722386  0.75451635  1
  U  U11  1  0.00000000  -0.00000000  0.50000000  1
  U  U12  1  0.50000000  0.50000000  -0.00000000  1
  U  U13  1  0.75277614  0.24722386  0.24548365  1
  U  U14  1  0.24722386  0.75277614  0.75451635  1
  O  O15  1  0.37503741  0.62496259  0.12419368  1
  O  O16  1  0.87016837  0.12983163  0.62108127  1
  O  O17  1  0.62496259  0.37503741  0.12419368  1
  O  O18  1  0.12983163  0.87016837  0.62108127  1
  O  O19  1  0.00000000  0.50000000  0.25454671  1
  O  O20  1  0.50000000  -0.00000000  0.74545329  1
  O  O21  1  0.87016837  0.12983163  0.37891873  1
  O  O22  1  0.37503741  0.62496259  0.87580632  1
  O  O23  1  0.12983163  0.87016837  0.37891873  1
  O  O24  1  0.62496259  0.37503741  0.87580632  1
  O  O25  1  0.50000000  -0.00000000  0.25454671  1
  O  O26  1  -0.00000000  0.50000000  0.74545329  1
  O  O27  1  0.86420761  0.13579239  0.13365151  1
  O  O28  1  0.34995967  0.65004033  0.63841521  1
  O  O29  1  0.34995967  0.65004033  0.36158479  1
  O  O30  1  0.86420761  0.13579239  0.86634849  1
  O  O31  1  0.72504138  0.72504138  -0.00000000  1
  O  O32  1  0.21855833  0.21855833  0.50000000  1
  O  O33  1  0.65004033  0.34995967  0.36158479  1
  O  O34  1  0.13579239  0.86420761  0.86634849  1
  O  O35  1  0.13579239  0.86420761  0.13365151  1
  O  O36  1  0.65004033  0.34995967  0.63841521  1
  O  O37  1  0.78144167  0.78144167  0.50000000  1
  O  O38  1  0.27495862  0.27495862  -0.00000000  1
