# generated using pymatgen
data_Dy2Fe17C
_symmetry_space_group_name_H-M   'P 1'
_cell_length_a   6.43953740
_cell_length_b   6.43953740
_cell_length_c   6.41207167
_cell_angle_alpha   83.33978666
_cell_angle_beta   83.33978666
_cell_angle_gamma   83.62887034
_symmetry_Int_Tables_number   1
_chemical_formula_structural   Dy2Fe17C
_chemical_formula_sum   'Dy2 Fe17 C1'
_cell_volume   261.03215954
_cell_formula_units_Z   1
loop_
 _symmetry_equiv_pos_site_id
 _symmetry_equiv_pos_as_xyz
  1  'x, y, z'
loop_
 _atom_site_type_symbol
 _atom_site_label
 _atom_site_symmetry_multiplicity
 _atom_site_fract_x
 _atom_site_fract_y
 _atom_site_fract_z
 _atom_site_occupancy
  Dy  Dy0  1  0.65992684  0.65992684  0.65233087  1
  Dy  Dy1  1  0.34007316  0.34007316  0.34766913  1
  Fe  Fe2  1  0.90299024  0.90299024  0.90272321  1
  Fe  Fe3  1  0.09700976  0.09700976  0.09727679  1
  Fe  Fe4  1  0.34320738  0.34320738  0.84880894  1
  Fe  Fe5  1  0.34325316  0.84929157  0.34440152  1
  Fe  Fe6  1  0.84929157  0.34325316  0.34440152  1
  Fe  Fe7  1  0.65679262  0.65679262  0.15119106  1
  Fe  Fe8  1  0.65674684  0.15070843  0.65559848  1
  Fe  Fe9  1  0.15070843  0.65674684  0.65559848  1
  Fe  Fe10  1  0.28537892  0.71462108  -0.00000000  1
  Fe  Fe11  1  0.71030343  0.00027027  0.29045149  1
  Fe  Fe12  1  0.99972973  0.28969657  0.70954851  1
  Fe  Fe13  1  0.28969657  0.99972973  0.70954851  1
  Fe  Fe14  1  0.00027027  0.71030343  0.29045149  1
  Fe  Fe15  1  0.71462108  0.28537892  0.00000000  1
  Fe  Fe16  1  0.00000000  0.00000000  0.50000000  1
  Fe  Fe17  1  0.00000000  0.50000000  0.00000000  1
  Fe  Fe18  1  0.50000000  0.00000000  0.00000000  1
  C  C19  1  0.50000000  0.50000000  0.00000000  1
