# generated using pymatgen
data_FeH8S2NO10
_symmetry_space_group_name_H-M   'P 1'
_cell_length_a   4.58784381
_cell_length_b   5.79267542
_cell_length_c   8.70821167
_cell_angle_alpha   100.77347195
_cell_angle_beta   98.51338678
_cell_angle_gamma   97.38950932
_symmetry_Int_Tables_number   1
_chemical_formula_structural   FeH8S2NO10
_chemical_formula_sum   'Fe1 H8 S2 N1 O10'
_cell_volume   221.91598508
_cell_formula_units_Z   1
loop_
 _symmetry_equiv_pos_site_id
 _symmetry_equiv_pos_as_xyz
  1  'x, y, z'
loop_
 _atom_site_type_symbol
 _atom_site_label
 _atom_site_symmetry_multiplicity
 _atom_site_fract_x
 _atom_site_fract_y
 _atom_site_fract_z
 _atom_site_occupancy
  Fe  Fe0  1  0.99971298  0.99799935  0.00128657  1
  H  H1  1  0.95398723  0.34388952  0.83812486  1
  H  H2  1  0.04348866  0.65445219  0.16532297  1
  H  H3  1  0.62721415  0.27692022  0.88204404  1
  H  H4  1  0.37361775  0.72218363  0.12316212  1
  H  H5  1  0.15382723  0.89393893  0.50971106  1
  H  H6  1  0.08012514  0.16650890  0.57756504  1
  H  H7  1  0.92204498  0.02163197  0.39233252  1
  H  H8  1  0.81328054  0.92384058  0.55110267  1
  S  S9  1  0.60175350  0.29937053  0.22737145  1
  S  S10  1  0.39368085  0.70106282  0.76944380  1
  N  N11  1  0.99088491  0.00102369  0.50673533  1
  O  O12  1  0.81377546  0.21761897  0.86690509  1
  O  O13  1  0.18424784  0.77898736  0.13395251  1
  O  O14  1  0.78969109  0.10479501  0.18277723  1
  O  O15  1  0.20738231  0.88927627  0.82031594  1
  O  O16  1  0.77381238  0.53612137  0.23496274  1
  O  O17  1  0.22410326  0.46029421  0.75339256  1
  O  O18  1  0.50155170  0.27082080  0.37313630  1
  O  O19  1  0.48726234  0.74064471  0.62185856  1
  O  O20  1  0.34391087  0.26326918  0.08829728  1
  O  O21  1  0.65664485  0.72934979  0.90319937  1
