# generated using pymatgen
data_RbH4O3
_symmetry_space_group_name_H-M   'P 1'
_cell_length_a   7.49363671
_cell_length_b   7.49363671
_cell_length_c   8.83081294
_cell_angle_alpha   64.80638593
_cell_angle_beta   64.80638593
_cell_angle_gamma   89.81238698
_symmetry_Int_Tables_number   1
_chemical_formula_structural   RbH4O3
_chemical_formula_sum   'Rb4 H16 O12'
_cell_volume   396.33167607
_cell_formula_units_Z   4
loop_
 _symmetry_equiv_pos_site_id
 _symmetry_equiv_pos_as_xyz
  1  'x, y, z'
loop_
 _atom_site_type_symbol
 _atom_site_label
 _atom_site_symmetry_multiplicity
 _atom_site_fract_x
 _atom_site_fract_y
 _atom_site_fract_z
 _atom_site_occupancy
  Rb  Rb0  1  0.61620059  0.11810259  0.76719746  1
  Rb  Rb1  1  0.13339805  0.13530006  0.73280254  1
  Rb  Rb2  1  0.88189741  0.38379941  0.23280254  1
  Rb  Rb3  1  0.86469994  0.86660195  0.26719746  1
  H  H4  1  0.95953622  0.86809604  0.59598507  1
  H  H5  1  0.47813080  0.54587905  0.58423320  1
  H  H6  1  0.30552129  0.71408111  0.90401493  1
  H  H7  1  0.81236400  0.38011224  0.91576680  1
  H  H8  1  0.47923222  0.87294691  0.58795302  1
  H  H9  1  0.96355199  0.54363853  0.59113274  1
  H  H10  1  0.81718524  0.71089993  0.91204698  1
  H  H11  1  0.30468473  0.38477126  0.90886726  1
  H  H12  1  0.13190396  0.04046378  0.40401493  1
  H  H13  1  0.45412095  0.52186920  0.41576680  1
  H  H14  1  0.28591889  0.69447871  0.09598507  1
  H  H15  1  0.61988776  0.18763600  0.08423320  1
  H  H16  1  0.45636147  0.03644801  0.40886726  1
  H  H17  1  0.12705309  0.52076778  0.41204698  1
  H  H18  1  0.61522874  0.69531527  0.09113274  1
  H  H19  1  0.28910007  0.18281476  0.08795302  1
  O  O20  1  0.98646598  0.01353402  0.50000000  1
  O  O21  1  0.52065575  0.47934425  0.50000000  1
  O  O22  1  0.23646598  0.76353402  -0.00000000  1
  O  O23  1  0.77065575  0.22934425  -0.00000000  1
  O  O24  1  0.50910474  0.02228591  0.49944115  1
  O  O25  1  0.97771409  0.49089526  0.50055885  1
  O  O26  1  0.75854589  0.77172706  0.00055885  1
  O  O27  1  0.22827294  0.24145411  0.99944115  1
  O  O28  1  0.91584428  0.62377354  0.75801654  1
  O  O29  1  0.42386082  0.63179008  0.74198346  1
  O  O30  1  0.37622646  0.08415572  0.24198346  1
  O  O31  1  0.36820992  0.57613918  0.25801654  1
