# generated using pymatgen
data_La2(InCu3)3
_symmetry_space_group_name_H-M   'P 1'
_cell_length_a   5.22323675
_cell_length_b   10.87355499
_cell_length_c   17.24198302
_cell_angle_alpha   90.00000000
_cell_angle_beta   90.00000000
_cell_angle_gamma   90.00000000
_symmetry_Int_Tables_number   1
_chemical_formula_structural   La2(InCu3)3
_chemical_formula_sum   'La8 In12 Cu36'
_cell_volume   979.26104687
_cell_formula_units_Z   4
loop_
 _symmetry_equiv_pos_site_id
 _symmetry_equiv_pos_as_xyz
  1  'x, y, z'
loop_
 _atom_site_type_symbol
 _atom_site_label
 _atom_site_symmetry_multiplicity
 _atom_site_fract_x
 _atom_site_fract_y
 _atom_site_fract_z
 _atom_site_occupancy
  La  La0  1  0.50000000  0.88831013  0.74423868  1
  La  La1  1  0.50000000  0.11168987  0.25576132  1
  La  La2  1  0.00000000  0.61168987  0.24423868  1
  La  La3  1  0.00000000  0.38831013  0.75576132  1
  La  La4  1  0.50000000  0.50000000  0.50000000  1
  La  La5  1  0.00000000  -0.00000000  0.00000000  1
  La  La6  1  0.50000000  0.50000000  0.00000000  1
  La  La7  1  -0.00000000  -0.00000000  0.50000000  1
  In  In8  1  0.50000000  0.80693180  0.55377274  1
  In  In9  1  0.50000000  0.19306820  0.44622726  1
  In  In10  1  -0.00000000  0.69306820  0.05377274  1
  In  In11  1  -0.00000000  0.30693180  0.94622726  1
  In  In12  1  0.50000000  0.57481062  0.80704850  1
  In  In13  1  0.50000000  0.42518938  0.19295150  1
  In  In14  1  -0.00000000  0.92518938  0.30704850  1
  In  In15  1  0.00000000  0.07481062  0.69295150  1
  In  In16  1  0.50000000  0.79746990  0.28217468  1
  In  In17  1  0.50000000  0.20253010  0.71782532  1
  In  In18  1  -0.00000000  0.70253010  0.78217468  1
  In  In19  1  0.00000000  0.29746990  0.21782532  1
  Cu  Cu20  1  0.25564803  0.63189572  0.65333957  1
  Cu  Cu21  1  0.25564803  0.36810428  0.34666043  1
  Cu  Cu22  1  0.24435197  0.86810428  0.15333957  1
  Cu  Cu23  1  0.24435197  0.13189572  0.84666043  1
  Cu  Cu24  1  0.74435197  0.36810428  0.34666043  1
  Cu  Cu25  1  0.74435197  0.63189572  0.65333957  1
  Cu  Cu26  1  0.75564803  0.13189572  0.84666043  1
  Cu  Cu27  1  0.75564803  0.86810428  0.15333957  1
  Cu  Cu28  1  0.50000000  0.66148035  0.14819062  1
  Cu  Cu29  1  0.50000000  0.33851965  0.85180938  1
  Cu  Cu30  1  -0.00000000  0.83851965  0.64819062  1
  Cu  Cu31  1  -0.00000000  0.16148035  0.35180938  1
  Cu  Cu32  1  0.50000000  0.95177697  0.40874684  1
  Cu  Cu33  1  0.50000000  0.04822303  0.59125316  1
  Cu  Cu34  1  0.00000000  0.54822303  0.90874684  1
  Cu  Cu35  1  0.00000000  0.45177697  0.09125316  1
  Cu  Cu36  1  0.25594127  0.75745112  0.91211696  1
  Cu  Cu37  1  0.25594127  0.24254888  0.08788304  1
  Cu  Cu38  1  0.24405873  0.74254888  0.41211696  1
  Cu  Cu39  1  0.24405873  0.25745112  0.58788304  1
  Cu  Cu40  1  0.74405873  0.24254888  0.08788304  1
  Cu  Cu41  1  0.74405873  0.75745112  0.91211696  1
  Cu  Cu42  1  0.75594127  0.25745112  0.58788304  1
  Cu  Cu43  1  0.75594127  0.74254888  0.41211696  1
  Cu  Cu44  1  0.50000000  0.56600283  0.33391627  1
  Cu  Cu45  1  0.50000000  0.43399717  0.66608373  1
  Cu  Cu46  1  -0.00000000  0.93399717  0.83391627  1
  Cu  Cu47  1  -0.00000000  0.06600283  0.16608373  1
  Cu  Cu48  1  0.50000000  0.81030418  0.03430279  1
  Cu  Cu49  1  0.50000000  0.18969582  0.96569721  1
  Cu  Cu50  1  -0.00000000  0.68969582  0.53430279  1
  Cu  Cu51  1  0.00000000  0.31030418  0.46569721  1
  Cu  Cu52  1  0.50000000  0.95878680  0.91345483  1
  Cu  Cu53  1  0.50000000  0.04121320  0.08654517  1
  Cu  Cu54  1  -0.00000000  0.54121320  0.41345483  1
  Cu  Cu55  1  0.00000000  0.45878680  0.58654517  1
