# generated using pymatgen
data_Er4MgS7
_symmetry_space_group_name_H-M   'P 1'
_cell_length_a   3.77441933
_cell_length_b   6.55122385
_cell_length_c   11.43632255
_cell_angle_alpha   103.82287868
_cell_angle_beta   90.00000000
_cell_angle_gamma   73.25756776
_symmetry_Int_Tables_number   1
_chemical_formula_structural   Er4MgS7
_chemical_formula_sum   'Er4 Mg1 S7'
_cell_volume   262.23529875
_cell_formula_units_Z   1
loop_
 _symmetry_equiv_pos_site_id
 _symmetry_equiv_pos_as_xyz
  1  'x, y, z'
loop_
 _atom_site_type_symbol
 _atom_site_label
 _atom_site_symmetry_multiplicity
 _atom_site_fract_x
 _atom_site_fract_y
 _atom_site_fract_z
 _atom_site_occupancy
  Er  Er0  1  0.69456277  0.61087446  0.19992394  1
  Er  Er1  1  0.30486296  0.39027407  0.80441494  1
  Er  Er2  1  0.11382703  0.77234593  0.57022920  1
  Er  Er3  1  0.00007765  0.99984470  0.00331047  1
  Mg  Mg4  1  0.88667240  0.22665519  0.42137080  1
  S  S5  1  0.03784004  0.92431992  0.22014642  1
  S  S6  1  0.96019291  0.07961418  0.78488393  1
  S  S7  1  0.34037439  0.31925122  0.05013171  1
  S  S8  1  0.65948739  0.68102522  0.94864717  1
  S  S9  1  0.74191702  0.51616597  0.64424248  1
  S  S10  1  0.26404447  0.47191107  0.35404502  1
  S  S11  1  0.49614097  0.00771806  0.49865392  1
