# generated using pymatgen
data_CuAg10(PbO4)3
_symmetry_space_group_name_H-M   'P 1'
_cell_length_a   5.90450865
_cell_length_b   8.76067270
_cell_length_c   8.75138786
_cell_angle_alpha   85.01550785
_cell_angle_beta   70.38040936
_cell_angle_gamma   109.78923444
_symmetry_Int_Tables_number   1
_chemical_formula_structural   CuAg10(PbO4)3
_chemical_formula_sum   'Cu1 Ag10 Pb3 O12'
_cell_volume   390.81579166
_cell_formula_units_Z   1
loop_
 _symmetry_equiv_pos_site_id
 _symmetry_equiv_pos_as_xyz
  1  'x, y, z'
loop_
 _atom_site_type_symbol
 _atom_site_label
 _atom_site_symmetry_multiplicity
 _atom_site_fract_x
 _atom_site_fract_y
 _atom_site_fract_z
 _atom_site_occupancy
  Cu  Cu0  1  0.33150394  0.08150394  0.41849606  1
  Ag  Ag1  1  0.00314407  0.75424784  0.25284587  1
  Ag  Ag2  1  0.99910740  0.24632462  0.74693746  1
  Ag  Ag3  1  0.50027976  0.75306254  0.25367538  1
  Ag  Ag4  1  0.49825790  0.24715413  0.74575216  1
  Ag  Ag5  1  0.49725028  0.49674822  0.49798319  1
  Ag  Ag6  1  0.50151475  0.00201681  0.00325178  1
  Ag  Ag7  1  0.99018886  0.11055087  0.12212983  1
  Ag  Ag8  1  0.01059072  0.62117462  0.60969907  1
  Ag  Ag9  1  0.99823218  0.37787017  0.38944913  1
  Ag  Ag10  1  0.00088483  0.89030093  0.87882538  1
  Pb  Pb11  1  0.33490686  0.58490686  0.91509314  1
  Pb  Pb12  1  0.67835578  0.92835578  0.57164422  1
  Pb  Pb13  1  0.65518356  0.40518356  0.09481644  1
  O  O14  1  0.01894796  0.03694365  0.64413849  1
  O  O15  1  0.00160969  0.53541082  0.15888351  1
  O  O16  1  0.60456068  0.15822217  0.52430584  1
  O  O17  1  0.62445073  0.65461030  0.03715360  1
  O  O18  1  0.36562940  0.32892292  0.35461585  1
  O  O19  1  0.38221171  0.84879722  0.84321071  1
  O  O20  1  0.02935566  0.97569416  0.34177783  1
  O  O21  1  0.99300597  0.46284640  0.84538970  1
  O  O22  1  0.37385721  0.85586151  0.46305635  1
  O  O23  1  0.37491762  0.34111649  0.96458918  1
  O  O24  1  0.62337481  0.65678929  0.65120278  1
  O  O25  1  0.60867767  0.14538415  0.17107708  1
