# generated using pymatgen
data_FeCoB2
_symmetry_space_group_name_H-M   'P 1'
_cell_length_a   3.00972777
_cell_length_b   3.95937016
_cell_length_c   5.28006526
_cell_angle_alpha   90.00000000
_cell_angle_beta   90.00000000
_cell_angle_gamma   90.00000000
_symmetry_Int_Tables_number   1
_chemical_formula_structural   FeCoB2
_chemical_formula_sum   'Fe2 Co2 B4'
_cell_volume   62.92056466
_cell_formula_units_Z   2
loop_
 _symmetry_equiv_pos_site_id
 _symmetry_equiv_pos_as_xyz
  1  'x, y, z'
loop_
 _atom_site_type_symbol
 _atom_site_label
 _atom_site_symmetry_multiplicity
 _atom_site_fract_x
 _atom_site_fract_y
 _atom_site_fract_z
 _atom_site_occupancy
  Fe  Fe0  1  0.75000000  0.62764176  0.32234814  1
  Fe  Fe1  1  0.75000000  0.87235824  0.82234814  1
  Co  Co2  1  0.25000000  0.37834908  0.67801466  1
  Co  Co3  1  0.25000000  0.12165092  0.17801466  1
  B  B4  1  0.25000000  0.88462128  0.53450988  1
  B  B5  1  0.25000000  0.61537872  0.03450988  1
  B  B6  1  0.75000000  0.12638485  0.46512733  1
  B  B7  1  0.75000000  0.37361515  0.96512733  1
