# generated using pymatgen
data_Dy12Si5S28
_symmetry_space_group_name_H-M   'P 1'
_cell_length_a   9.86330826
_cell_length_b   11.35397827
_cell_length_c   11.35937504
_cell_angle_alpha   59.63950394
_cell_angle_beta   64.26428024
_cell_angle_gamma   64.24818154
_symmetry_Int_Tables_number   1
_chemical_formula_structural   Dy12Si5S28
_chemical_formula_sum   'Dy12 Si5 S28'
_cell_volume   950.19647764
_cell_formula_units_Z   1
loop_
 _symmetry_equiv_pos_site_id
 _symmetry_equiv_pos_as_xyz
  1  'x, y, z'
loop_
 _atom_site_type_symbol
 _atom_site_label
 _atom_site_symmetry_multiplicity
 _atom_site_fract_x
 _atom_site_fract_y
 _atom_site_fract_z
 _atom_site_occupancy
  Dy  Dy0  1  0.87383115  0.06487857  0.29934398  1
  Dy  Dy1  1  0.87927449  0.53760263  0.80897334  1
  Dy  Dy2  1  0.77309687  0.30424250  0.57514541  1
  Dy  Dy3  1  0.76360633  0.81896535  0.05493056  1
  Dy  Dy4  1  0.34656305  0.25198244  0.52333827  1
  Dy  Dy5  1  0.36301690  0.76281953  0.99712031  1
  Dy  Dy6  1  0.11698625  0.96321142  0.69266894  1
  Dy  Dy7  1  0.13104339  0.43402603  0.20032975  1
  Dy  Dy8  1  0.23673584  0.68146862  0.44686800  1
  Dy  Dy9  1  0.22543876  0.19387647  0.92429602  1
  Dy  Dy10  1  0.63619090  0.73488713  0.49966661  1
  Dy  Dy11  1  0.65491881  0.24771910  0.97896547  1
  Si  Si12  1  0.66972284  0.91591511  0.74970429  1
  Si  Si13  1  0.66329230  0.41732136  0.25119143  1
  Si  Si14  1  0.33353930  0.99882880  0.33464570  1
  Si  Si15  1  0.33310287  0.49773225  0.83540670  1
  Si  Si16  1  0.00034309  0.75955695  0.24076097  1
  S  S17  1  0.66685334  0.10213182  0.56452695  1
  S  S18  1  0.66599124  0.60217723  0.06470050  1
  S  S19  1  0.32767618  0.68896137  0.65499463  1
  S  S20  1  0.33850641  0.17905277  0.14416696  1
  S  S21  1  0.59947034  0.76228362  0.74850371  1
  S  S22  1  0.57671346  0.27002687  0.25639855  1
  S  S23  1  0.89845166  0.79575387  0.78271831  1
  S  S24  1  0.88853195  0.30619527  0.29220050  1
  S  S25  1  0.51670335  0.95386654  0.93889109  1
  S  S26  1  0.52023584  0.45408094  0.44140030  1
  S  S27  1  0.41623495  0.99516068  0.48227909  1
  S  S28  1  0.41149105  0.49641254  0.98621872  1
  S  S29  1  0.10665932  0.96111333  0.44906251  1
  S  S30  1  0.10536555  0.46379695  0.95310213  1
  S  S31  1  0.48176819  0.80817592  0.29703995  1
  S  S32  1  0.47882041  0.30915222  0.79790783  1
  S  S33  1  0.91772138  0.76419500  0.46513640  1
  S  S34  1  0.90980317  0.25924376  0.00065246  1
  S  S35  1  0.83039502  0.08533235  0.82570865  1
  S  S36  1  0.85404475  0.60741077  0.30919374  1
  S  S37  1  0.25696828  0.04546720  0.78456581  1
  S  S38  1  0.23098298  0.57488788  0.27763820  1
  S  S39  1  0.09025120  0.25440153  0.48841571  1
  S  S40  1  0.07857599  0.75424909  0.01323700  1
  S  S41  1  0.15440523  0.90982530  0.16828305  1
  S  S42  1  0.16627077  0.42833981  0.66200117  1
  S  S43  1  0.76703365  0.94839744  0.20629061  1
  S  S44  1  0.74337121  0.46587368  0.70040975  1
