# generated using pymatgen
data_CaMn2Cu3(RuO6)2
_symmetry_space_group_name_H-M   'P 1'
_cell_length_a   6.49977890
_cell_length_b   6.47314703
_cell_length_c   6.49977890
_cell_angle_alpha   71.02858411
_cell_angle_beta   69.51110737
_cell_angle_gamma   109.12025478
_symmetry_Int_Tables_number   1
_chemical_formula_structural   CaMn2Cu3(RuO6)2
_chemical_formula_sum   'Ca1 Mn2 Cu3 Ru2 O12'
_cell_volume   210.05030319
_cell_formula_units_Z   1
loop_
 _symmetry_equiv_pos_site_id
 _symmetry_equiv_pos_as_xyz
  1  'x, y, z'
loop_
 _atom_site_type_symbol
 _atom_site_label
 _atom_site_symmetry_multiplicity
 _atom_site_fract_x
 _atom_site_fract_y
 _atom_site_fract_z
 _atom_site_occupancy
  Ca  Ca0  1  -0.00000000  -0.00000000  -0.00000000  1
  Mn  Mn1  1  0.50000000  -0.00000000  -0.00000000  1
  Mn  Mn2  1  -0.00000000  -0.00000000  0.50000000  1
  Cu  Cu3  1  0.50000000  -0.00000000  0.50000000  1
  Cu  Cu4  1  0.50000000  0.50000000  -0.00000000  1
  Cu  Cu5  1  -0.00000000  0.50000000  0.50000000  1
  Ru  Ru6  1  -0.00000000  0.50000000  -0.00000000  1
  Ru  Ru7  1  0.50000000  0.50000000  0.50000000  1
  O  O8  1  0.13877142  0.82472857  0.69778853  1
  O  O9  1  0.47748290  0.17527143  0.68595715  1
  O  O10  1  0.52251710  0.82472857  0.31404285  1
  O  O11  1  0.86122858  0.17527143  0.30221147  1
  O  O12  1  0.69170820  0.86310691  0.82860129  1
  O  O13  1  0.69125321  0.52028905  0.17096416  1
  O  O14  1  0.30874679  0.47971095  0.82903584  1
  O  O15  1  0.30829180  0.13689309  0.17139871  1
  O  O16  1  0.17768605  0.31620150  0.52100942  1
  O  O17  1  0.83721091  0.31620150  0.86148455  1
  O  O18  1  0.16278909  0.68379850  0.13851545  1
  O  O19  1  0.82231395  0.68379850  0.47899058  1
