# generated using pymatgen
data_Cr(FeAs3)2
_symmetry_space_group_name_H-M   'P 1'
_cell_length_a   2.89998626
_cell_length_b   5.39379635
_cell_length_c   18.30942774
_cell_angle_alpha   89.95305644
_cell_angle_beta   90.00000000
_cell_angle_gamma   90.00000000
_symmetry_Int_Tables_number   1
_chemical_formula_structural   Cr(FeAs3)2
_chemical_formula_sum   'Cr2 Fe4 As12'
_cell_volume   286.39478828
_cell_formula_units_Z   2
loop_
 _symmetry_equiv_pos_site_id
 _symmetry_equiv_pos_as_xyz
  1  'x, y, z'
loop_
 _atom_site_type_symbol
 _atom_site_label
 _atom_site_symmetry_multiplicity
 _atom_site_fract_x
 _atom_site_fract_y
 _atom_site_fract_z
 _atom_site_occupancy
  Cr  Cr0  1  0.50000000  0.50008259  0.16637869  1
  Cr  Cr1  1  0.50000000  0.49991741  0.50028831  1
  Fe  Fe2  1  0.50000000  0.50000000  0.83333300  1
  Fe  Fe3  1  0.00000000  0.99837956  0.99728037  1
  Fe  Fe4  1  -0.00000000  -0.00000000  0.33333300  1
  Fe  Fe5  1  -0.00000000  0.00162044  0.66938663  1
  As  As6  1  0.50000000  0.68388401  0.04179815  1
  As  As7  1  0.50000000  0.68346158  0.37637511  1
  As  As8  1  0.50000000  0.67936147  0.71403787  1
  As  As9  1  0.50000000  0.31653842  0.29029189  1
  As  As10  1  0.50000000  0.31611599  0.62486785  1
  As  As11  1  0.50000000  0.32063853  0.95262913  1
  As  As12  1  -0.00000000  0.16789814  0.11751777  1
  As  As13  1  -0.00000000  0.16748244  0.45199734  1
  As  As14  1  -0.00000000  0.18021433  0.78784942  1
  As  As15  1  -0.00000000  0.83251756  0.21466966  1
  As  As16  1  -0.00000000  0.83210186  0.54914823  1
  As  As17  1  -0.00000000  0.81978567  0.87881758  1
