# generated using pymatgen
data_Cu6SnWS8
_symmetry_space_group_name_H-M   'P 1'
_cell_length_a   9.24634708
_cell_length_b   9.24933549
_cell_length_c   9.24635249
_cell_angle_alpha   71.01431666
_cell_angle_beta   69.56610144
_cell_angle_gamma   108.98565941
_symmetry_Int_Tables_number   1
_chemical_formula_structural   Cu6SnWS8
_chemical_formula_sum   'Cu12 Sn2 W2 S16'
_cell_volume   608.70203277
_cell_formula_units_Z   2
loop_
 _symmetry_equiv_pos_site_id
 _symmetry_equiv_pos_as_xyz
  1  'x, y, z'
loop_
 _atom_site_type_symbol
 _atom_site_label
 _atom_site_symmetry_multiplicity
 _atom_site_fract_x
 _atom_site_fract_y
 _atom_site_fract_z
 _atom_site_occupancy
  Cu  Cu0  1  0.49995294  0.24993496  0.75003206  1
  Cu  Cu1  1  0.25001798  0.75006504  0.99996702  1
  Cu  Cu2  1  0.25094013  0.00000000  0.24906004  1
  Cu  Cu3  1  0.99995340  0.24993440  0.25003063  1
  Cu  Cu4  1  0.74996939  0.24993413  0.00004617  1
  Cu  Cu5  1  0.24903527  0.49999968  0.75096447  1
  Cu  Cu6  1  0.50003526  0.75006587  0.24998029  1
  Cu  Cu7  1  0.75001901  0.75006560  0.49996502  1
  Cu  Cu8  1  0.74903559  0.50000032  0.25096415  1
  Cu  Cu9  1  0.00003389  0.75006562  0.74998318  1
  Cu  Cu10  1  0.24996827  0.24993438  0.50004880  1
  Cu  Cu11  1  0.75094182  0.00000000  0.74905980  1
  Sn  Sn12  1  0.00004460  0.50000016  0.49995538  1
  Sn  Sn13  1  0.50004444  0.49999984  -0.00004446  1
  W  W14  1  -0.00001238  0.00000000  0.00001154  1
  W  W15  1  0.49998733  0.00000000  0.50001229  1
  S  S16  1  0.73521788  0.23479901  0.76478198  1
  S  S17  1  0.50041887  0.76520099  0.99958099  1
  S  S18  1  0.50060401  0.00000000  0.25581847  1
  S  S19  1  0.99961737  0.49999942  0.23527771  1
  S  S20  1  0.76472323  0.50000016  0.00038127  1
  S  S21  1  0.25588571  0.75651740  0.74411469  1
  S  S22  1  0.26472307  0.49999984  0.50038144  1
  S  S23  1  0.49961795  0.50000058  0.73527713  1
  S  S24  1  0.49936831  0.24348260  0.50063209  1
  S  S25  1  0.00041865  0.76520090  0.49958095  1
  S  S26  1  0.23521776  0.23479910  0.26478185  1
  S  S27  1  0.74418073  -0.00000000  0.49939547  1
  S  S28  1  0.24418104  -0.00000000  0.99939551  1
  S  S29  1  0.99936808  0.24348224  0.00063191  1
  S  S30  1  0.75588584  0.75651776  0.24411416  1
  S  S31  1  0.00060459  0.00000000  0.75581799  1
