# generated using pymatgen
data_PrMn5Co7
_symmetry_space_group_name_H-M   'P 1'
_cell_length_a   4.58888530
_cell_length_b   6.38569026
_cell_length_c   6.38569026
_cell_angle_alpha   97.17573116
_cell_angle_beta   111.05782954
_cell_angle_gamma   68.94217046
_symmetry_Int_Tables_number   1
_chemical_formula_structural   PrMn5Co7
_chemical_formula_sum   'Pr1 Mn5 Co7'
_cell_volume   162.96123754
_cell_formula_units_Z   1
loop_
 _symmetry_equiv_pos_site_id
 _symmetry_equiv_pos_as_xyz
  1  'x, y, z'
loop_
 _atom_site_type_symbol
 _atom_site_label
 _atom_site_symmetry_multiplicity
 _atom_site_fract_x
 _atom_site_fract_y
 _atom_site_fract_z
 _atom_site_occupancy
  Pr  Pr0  1  0.99728264  0.00271736  0.99728264  1
  Mn  Mn1  1  0.49666263  0.00180144  0.50095785  1
  Mn  Mn2  1  0.00249378  0.00180144  0.50095785  1
  Mn  Mn3  1  0.49666263  0.49904215  0.99819856  1
  Mn  Mn4  1  0.00249378  0.49904215  0.99819856  1
  Mn  Mn5  1  0.73141395  0.76858605  0.23141395  1
  Co  Co6  1  0.64162380  0.35837620  0.64162380  1
  Co  Co7  1  0.36119325  0.63880675  0.36119325  1
  Co  Co8  1  0.99781372  0.36181139  0.35743884  1
  Co  Co9  1  0.99781372  0.64256116  0.63818861  1
  Co  Co10  1  0.27073974  0.22926026  0.77073974  1
  Co  Co11  1  0.50190318  0.76389852  0.76770488  1
  Co  Co12  1  0.50190318  0.23229512  0.23610148  1
