# generated using pymatgen
data_Cd3(InSe3)2
_symmetry_space_group_name_H-M   'P 1'
_cell_length_a   7.48505841
_cell_length_b   8.18971851
_cell_length_c   7.48520342
_cell_angle_alpha   62.77975167
_cell_angle_beta   59.99046509
_cell_angle_gamma   89.99690765
_symmetry_Int_Tables_number   1
_chemical_formula_structural   Cd3(InSe3)2
_chemical_formula_sum   'Cd3 In2 Se6'
_cell_volume   337.38652647
_cell_formula_units_Z   1
loop_
 _symmetry_equiv_pos_site_id
 _symmetry_equiv_pos_as_xyz
  1  'x, y, z'
loop_
 _atom_site_type_symbol
 _atom_site_label
 _atom_site_symmetry_multiplicity
 _atom_site_fract_x
 _atom_site_fract_y
 _atom_site_fract_z
 _atom_site_occupancy
  Cd  Cd0  1  0.85699807  0.49883777  0.99575174  1
  Cd  Cd1  1  0.16137968  0.49889487  0.31501152  1
  Cd  Cd2  1  0.48069009  0.49881897  0.69133420  1
  In  In3  1  0.66642409  0.99973345  0.00031233  1
  In  In4  1  0.00275855  0.00855034  0.32792396  1
  Se  Se5  1  0.69237081  0.11191671  0.26924218  1
  Se  Se6  1  0.04781726  0.11188952  0.59301045  1
  Se  Se7  1  0.37151394  0.11187115  0.91396841  1
  Se  Se8  1  0.87561449  0.62664533  0.58223530  1
  Se  Se9  1  0.22173240  0.66490256  0.88993556  1
  Se  Se10  1  0.53936762  0.61793932  0.25464136  1
