# generated using pymatgen
data_Ba4Ta2TiZnO12
_symmetry_space_group_name_H-M   'P 1'
_cell_length_a   5.81220060
_cell_length_b   8.22903179
_cell_length_c   5.81220060
_cell_angle_alpha   90.00000000
_cell_angle_beta   90.00000000
_cell_angle_gamma   90.00000000
_symmetry_Int_Tables_number   1
_chemical_formula_structural   Ba4Ta2TiZnO12
_chemical_formula_sum   'Ba4 Ta2 Ti1 Zn1 O12'
_cell_volume   277.99048449
_cell_formula_units_Z   1
loop_
 _symmetry_equiv_pos_site_id
 _symmetry_equiv_pos_as_xyz
  1  'x, y, z'
loop_
 _atom_site_type_symbol
 _atom_site_label
 _atom_site_symmetry_multiplicity
 _atom_site_fract_x
 _atom_site_fract_y
 _atom_site_fract_z
 _atom_site_occupancy
  Ba  Ba0  1  0.00000000  0.00696028  -0.00000000  1
  Ba  Ba1  1  0.50000000  0.00696028  0.50000000  1
  Ba  Ba2  1  0.00000000  0.49303972  -0.00000000  1
  Ba  Ba3  1  0.50000000  0.49303972  0.50000000  1
  Ta  Ta4  1  0.00000000  0.25000000  0.50000000  1
  Ta  Ta5  1  0.50000000  0.75000000  -0.00000000  1
  Ti  Ti6  1  0.00000000  0.75000000  0.50000000  1
  Zn  Zn7  1  0.50000000  0.25000000  -0.00000000  1
  O  O8  1  0.24039000  0.25000000  0.74039000  1
  O  O9  1  0.75961000  0.25000000  0.25961000  1
  O  O10  1  0.24803824  0.75000000  0.74803824  1
  O  O11  1  0.75196176  0.75000000  0.25196176  1
  O  O12  1  0.50000000  0.98719995  -0.00000000  1
  O  O13  1  0.00000000  0.99374580  0.50000000  1
  O  O14  1  0.50000000  0.51280005  -0.00000000  1
  O  O15  1  0.00000000  0.50625420  0.50000000  1
  O  O16  1  0.24039000  0.25000000  0.25961000  1
  O  O17  1  0.75961000  0.25000000  0.74039000  1
  O  O18  1  0.24803824  0.75000000  0.25196176  1
  O  O19  1  0.75196176  0.75000000  0.74803824  1
