# generated using pymatgen
data_BiPbO2F
_symmetry_space_group_name_H-M   'P 1'
_cell_length_a   4.00855198
_cell_length_b   4.00137036
_cell_length_c   6.51162173
_cell_angle_alpha   89.26177459
_cell_angle_beta   89.78460492
_cell_angle_gamma   120.08620124
_symmetry_Int_Tables_number   1
_chemical_formula_structural   BiPbO2F
_chemical_formula_sum   'Bi1 Pb1 O2 F1'
_cell_volume   90.35908691
_cell_formula_units_Z   1
loop_
 _symmetry_equiv_pos_site_id
 _symmetry_equiv_pos_as_xyz
  1  'x, y, z'
loop_
 _atom_site_type_symbol
 _atom_site_label
 _atom_site_symmetry_multiplicity
 _atom_site_fract_x
 _atom_site_fract_y
 _atom_site_fract_z
 _atom_site_occupancy
  Bi  Bi0  1  0.66525917  0.36704758  0.70804289  1
  Pb  Pb1  1  0.34328725  0.71958810  0.25500870  1
  O  O2  1  0.33200748  0.70465641  0.61852945  1
  O  O3  1  0.67144263  0.37934896  0.36763970  1
  F  F4  1  0.98800347  0.03015894  0.90147925  1
