# generated using pymatgen
data_Ca2CuAg
_symmetry_space_group_name_H-M   'P 1'
_cell_length_a   4.10239535
_cell_length_b   4.53527780
_cell_length_c   5.95423774
_cell_angle_alpha   90.00000000
_cell_angle_beta   69.84910462
_cell_angle_gamma   90.00000000
_symmetry_Int_Tables_number   1
_chemical_formula_structural   Ca2CuAg
_chemical_formula_sum   'Ca2 Cu1 Ag1'
_cell_volume   104.00049082
_cell_formula_units_Z   1
loop_
 _symmetry_equiv_pos_site_id
 _symmetry_equiv_pos_as_xyz
  1  'x, y, z'
loop_
 _atom_site_type_symbol
 _atom_site_label
 _atom_site_symmetry_multiplicity
 _atom_site_fract_x
 _atom_site_fract_y
 _atom_site_fract_z
 _atom_site_occupancy
  Ca  Ca0  1  0.14132403  0.75000000  0.71735193  1
  Ca  Ca1  1  0.85818946  0.25000000  0.28362108  1
  Cu  Cu2  1  0.56876676  0.25000000  0.86246649  1
  Ag  Ag3  1  0.43171975  0.75000000  0.13656050  1
