# generated using pymatgen
data_Ca2Ga2GeO7
_symmetry_space_group_name_H-M   'P 1'
_cell_length_a   5.25789669
_cell_length_b   7.99530209
_cell_length_c   7.97994251
_cell_angle_alpha   90.00000000
_cell_angle_beta   90.00000000
_cell_angle_gamma   89.98483394
_symmetry_Int_Tables_number   1
_chemical_formula_structural   Ca2Ga2GeO7
_chemical_formula_sum   'Ca4 Ga4 Ge2 O14'
_cell_volume   335.46458091
_cell_formula_units_Z   2
loop_
 _symmetry_equiv_pos_site_id
 _symmetry_equiv_pos_as_xyz
  1  'x, y, z'
loop_
 _atom_site_type_symbol
 _atom_site_label
 _atom_site_symmetry_multiplicity
 _atom_site_fract_x
 _atom_site_fract_y
 _atom_site_fract_z
 _atom_site_occupancy
  Ca  Ca0  1  0.48431539  0.82547206  0.34182483  1
  Ca  Ca1  1  0.51568461  0.67452794  0.84182483  1
  Ca  Ca2  1  0.48617567  0.14628895  0.66429609  1
  Ca  Ca3  1  0.51382433  0.35371105  0.16429609  1
  Ga  Ga4  1  0.99993293  0.50280277  0.49947337  1
  Ga  Ga5  1  0.00006707  0.99719723  0.99947337  1
  Ga  Ga6  1  0.03290035  0.64535954  0.14485268  1
  Ga  Ga7  1  0.96709965  0.85464046  0.64485268  1
  Ge  Ge8  1  0.04234167  0.35633525  0.85628191  1
  Ge  Ge9  1  0.95765833  0.14366475  0.35628191  1
  O  O10  1  0.80130227  0.00187324  0.49433278  1
  O  O11  1  0.19869773  0.49812676  0.99433278  1
  O  O12  1  0.69088553  0.63635015  0.13975305  1
  O  O13  1  0.30911447  0.86364985  0.63975305  1
  O  O14  1  0.71248552  0.35510111  0.85873043  1
  O  O15  1  0.28751448  0.14489889  0.35873043  1
  O  O16  1  0.79572049  0.33402425  0.40798653  1
  O  O17  1  0.20427951  0.16597575  0.90798653  1
  O  O18  1  0.78769068  0.66029107  0.59115063  1
  O  O19  1  0.21230932  0.83970893  0.09115063  1
  O  O20  1  0.21471127  0.58425492  0.33738126  1
  O  O21  1  0.78528873  0.91574508  0.83738126  1
  O  O22  1  0.20163990  0.40208117  0.66393644  1
  O  O23  1  0.79836010  0.09791883  0.16393644  1
