# generated using pymatgen
data_Be12Al8Si24O73
_symmetry_space_group_name_H-M   'P 1'
_cell_length_a   9.30431575
_cell_length_b   13.14515706
_cell_length_c   13.14515645
_cell_angle_alpha   89.88345978
_cell_angle_beta   110.72601909
_cell_angle_gamma   110.72602076
_symmetry_Int_Tables_number   1
_chemical_formula_structural   Be12Al8Si24O73
_chemical_formula_sum   'Be12 Al8 Si24 O73'
_cell_volume   1392.35856572
_cell_formula_units_Z   1
loop_
 _symmetry_equiv_pos_site_id
 _symmetry_equiv_pos_as_xyz
  1  'x, y, z'
loop_
 _atom_site_type_symbol
 _atom_site_label
 _atom_site_symmetry_multiplicity
 _atom_site_fract_x
 _atom_site_fract_y
 _atom_site_fract_z
 _atom_site_occupancy
  Be  Be0  1  0.49999628  0.87500201  0.12499804  1
  Be  Be1  1  0.49999606  0.37499999  0.62499987  1
  Be  Be2  1  0.50002096  0.12497315  0.37498486  1
  Be  Be3  1  0.49998797  0.62500710  0.87501799  1
  Be  Be4  1  0.99996898  0.12500204  0.37499170  1
  Be  Be5  1  0.00005719  0.62501751  0.87500673  1
  Be  Be6  1  0.49999578  0.62502383  0.37497597  1
  Be  Be7  1  0.49999599  0.12497583  0.87502439  1
  Be  Be8  1  0.49999435  0.87499632  0.62498738  1
  Be  Be9  1  0.50001395  0.37500456  0.12499566  1
  Be  Be10  1  0.00000868  0.87500229  0.62501306  1
  Be  Be11  1  0.00001535  0.37499498  0.12500565  1
  Al  Al12  1  0.66660921  0.04160723  0.29161361  1
  Al  Al13  1  0.66665699  0.54164753  0.79164878  1
  Al  Al14  1  0.66665717  0.79165653  0.54161707  1
  Al  Al15  1  0.66663539  0.29162021  0.04165321  1
  Al  Al16  1  0.33339767  0.95834632  0.70837974  1
  Al  Al17  1  0.33337618  0.45838319  0.20834369  1
  Al  Al18  1  0.33337582  0.20835120  0.45835149  1
  Al  Al19  1  0.33342353  0.70838633  0.95839292  1
  Si  Si20  1  0.88427561  0.05619964  0.55618516  1
  Si  Si21  1  0.88428116  0.55615684  0.05618126  1
  Si  Si22  1  0.72805185  0.80787247  0.30774274  1
  Si  Si23  1  0.72811792  0.30785512  0.80785894  1
  Si  Si24  1  0.38763171  0.88594428  0.38585343  1
  Si  Si25  1  0.38761143  0.38595126  0.88594558  1
  Si  Si26  1  0.27198883  0.19382339  0.19381481  1
  Si  Si27  1  0.27190244  0.69380414  0.69381901  1
  Si  Si28  1  0.61240419  0.44214137  0.44213754  1
  Si  Si29  1  0.61244413  0.94208614  0.94223710  1
  Si  Si30  1  0.11584361  0.86406761  0.86412072  1
  Si  Si31  1  0.11571356  0.36405382  0.36405870  1
  Si  Si32  1  0.11572246  0.94381967  0.44384413  1
  Si  Si33  1  0.11572818  0.44381560  0.94380112  1
  Si  Si34  1  0.27188609  0.19214110  0.69214476  1
  Si  Si35  1  0.27195206  0.69225717  0.19212744  1
  Si  Si36  1  0.61239458  0.11405525  0.61404970  1
  Si  Si37  1  0.61237452  0.61414775  0.11405663  1
  Si  Si38  1  0.72801299  0.80618440  0.80617564  1
  Si  Si39  1  0.72809962  0.30618011  0.30619517  1
  Si  Si40  1  0.38759992  0.55786246  0.55785857  1
  Si  Si41  1  0.38756028  0.05776312  0.05791401  1
  Si  Si42  1  0.88429055  0.63594047  0.63594519  1
  Si  Si43  1  0.88416052  0.13587828  0.13593145  1
  O  O44  1  0.76375715  0.09513142  0.59513479  1
  O  O45  1  0.76383791  0.59516963  0.09513804  1
  O  O46  1  0.92657377  0.86811463  0.36816849  1
  O  O47  1  0.92649858  0.36812041  0.86812162  1
  O  O48  1  0.30983180  0.78665811  0.28687187  1
  O  O49  1  0.30973458  0.28674727  0.78674562  1
  O  O50  1  0.07349906  0.15481160  0.15485907  1
  O  O51  1  0.07349006  0.65486789  0.65486449  1
  O  O52  1  0.69026267  0.38188125  0.38187986  1
  O  O53  1  0.69027548  0.88189286  0.88180914  1
  O  O54  1  0.23627369  0.96331990  0.96312020  1
  O  O55  1  0.23624198  0.46325080  0.46325262  1
  O  O56  1  0.23616293  0.90486167  0.40483007  1
  O  O57  1  0.23624297  0.40486525  0.90486830  1
  O  O58  1  0.07350081  0.13187846  0.63187946  1
  O  O59  1  0.07342548  0.63183142  0.13188520  1
  O  O60  1  0.69026496  0.21325382  0.71325189  1
  O  O61  1  0.69016752  0.71312756  0.21334106  1
  O  O62  1  0.92650273  0.84514106  0.84518882  1
  O  O63  1  0.92651051  0.34513548  0.34513246  1
  O  O64  1  0.30973683  0.61812027  0.61811877  1
  O  O65  1  0.30972438  0.11819081  0.11810701  1
  O  O66  1  0.76375913  0.53674824  0.53675002  1
  O  O67  1  0.76372676  0.03688050  0.03668065  1
  O  O68  1  0.50143805  0.35471104  0.50032381  1
  O  O69  1  0.50131748  0.85470088  0.00027811  1
  O  O70  1  0.35359239  0.17648878  0.32209904  1
  O  O71  1  0.35359460  0.67647658  0.82208126  1
  O  O72  1  0.14498318  0.25039457  0.39601195  1
  O  O73  1  0.14495336  0.75036849  0.89597492  1
  O  O74  1  0.50145727  0.00030597  0.85471710  1
  O  O75  1  0.50142904  0.50031833  0.35470767  1
  O  O76  1  0.35359982  0.82209187  0.67647685  1
  O  O77  1  0.35359808  0.32211834  0.17647995  1
  O  O78  1  0.14493730  0.89599984  0.75038556  1
  O  O79  1  0.14497444  0.39600391  0.25039133  1
  O  O80  1  0.64644884  0.74970040  0.39528869  1
  O  O81  1  0.64640976  0.24968388  0.89529613  1
  O  O82  1  0.85503609  0.92790891  0.57352047  1
  O  O83  1  0.85501141  0.42788451  0.07351975  1
  O  O84  1  0.49855851  0.85400174  0.49961787  1
  O  O85  1  0.49858231  0.35399763  0.99960915  1
  O  O86  1  0.64635956  0.89530538  0.24972553  1
  O  O87  1  0.64641058  0.39529295  0.74967885  1
  O  O88  1  0.85504316  0.07352151  0.42791701  1
  O  O89  1  0.85502159  0.57351660  0.92790719  1
  O  O90  1  0.49863223  0.99963582  0.35403531  1
  O  O91  1  0.49857858  0.49960386  0.85398904  1
  O  O92  1  0.49857769  0.64529297  0.49968230  1
  O  O93  1  0.49854942  0.14528368  0.99969457  1
  O  O94  1  0.64640778  0.82351997  0.67788057  1
  O  O95  1  0.64640596  0.32352335  0.17790685  1
  O  O96  1  0.85503409  0.74960837  0.60399712  1
  O  O97  1  0.85507126  0.24961424  0.10400118  1
  O  O98  1  0.49868919  0.99972239  0.14529980  1
  O  O99  1  0.49856915  0.49967702  0.64528990  1
  O  O100  1  0.64641183  0.17791796  0.32352357  1
  O  O101  1  0.64641295  0.67789947  0.82351106  1
  O  O102  1  0.85505509  0.10402622  0.24963128  1
  O  O103  1  0.85502543  0.60398904  0.74960536  1
  O  O104  1  0.35359510  0.25032055  0.60470616  1
  O  O105  1  0.35364564  0.75027392  0.10469401  1
  O  O106  1  0.14498557  0.07209401  0.42648356  1
  O  O107  1  0.14496418  0.57208410  0.92647846  1
  O  O108  1  0.50142922  0.14601006  0.50039633  1
  O  O109  1  0.50137545  0.64596370  0.00036441  1
  O  O110  1  0.35359535  0.10470304  0.75031549  1
  O  O111  1  0.35355646  0.60471059  0.25029895  1
  O  O112  1  0.14499579  0.92648017  0.57211651  1
  O  O113  1  0.14497129  0.42647947  0.07209184  1
  O  O114  1  0.50142550  0.00039122  0.64600136  1
  O  O115  1  0.50144931  0.50038242  0.14599710  1
  O  O116  1  0.00000023  0.87500038  0.12499960  1
