# generated using pymatgen
data_Ca2LaRuO6
_symmetry_space_group_name_H-M   'P 1'
_cell_length_a   5.65373439
_cell_length_b   5.90370433
_cell_length_c   8.16792895
_cell_angle_alpha   90.54956471
_cell_angle_beta   89.67398699
_cell_angle_gamma   90.08512239
_symmetry_Int_Tables_number   1
_chemical_formula_structural   Ca2LaRuO6
_chemical_formula_sum   'Ca4 La2 Ru2 O12'
_cell_volume   272.61170474
_cell_formula_units_Z   2
loop_
 _symmetry_equiv_pos_site_id
 _symmetry_equiv_pos_as_xyz
  1  'x, y, z'
loop_
 _atom_site_type_symbol
 _atom_site_label
 _atom_site_symmetry_multiplicity
 _atom_site_fract_x
 _atom_site_fract_y
 _atom_site_fract_z
 _atom_site_occupancy
  Ca  Ca0  1  0.50000000  -0.00000000  0.50000000  1
  Ca  Ca1  1  0.00000000  0.50000000  0.00000000  1
  Ca  Ca2  1  0.98676277  0.05273075  0.75348670  1
  Ca  Ca3  1  0.01323723  0.94726925  0.24651330  1
  La  La4  1  0.51409825  0.55932486  0.74791610  1
  La  La5  1  0.48590175  0.44067514  0.25208390  1
  Ru  Ru6  1  0.00000000  0.50000000  0.50000000  1
  Ru  Ru7  1  0.50000000  -0.00000000  0.00000000  1
  O  O8  1  0.70632055  0.32505336  0.54311965  1
  O  O9  1  0.29367945  0.67494664  0.45688035  1
  O  O10  1  0.82554268  0.77823560  0.56994293  1
  O  O11  1  0.17445732  0.22176440  0.43005707  1
  O  O12  1  0.38515194  0.95737886  0.77098396  1
  O  O13  1  0.61484806  0.04262114  0.22901604  1
  O  O14  1  0.10464652  0.44572981  0.72924380  1
  O  O15  1  0.89535348  0.55427019  0.27075620  1
  O  O16  1  0.78105584  0.81819597  0.93993418  1
  O  O17  1  0.21894416  0.18180403  0.06006582  1
  O  O18  1  0.66928073  0.28637766  0.94188984  1
  O  O19  1  0.33071927  0.71362234  0.05811016  1
