# generated using pymatgen
data_Pr2CoSi3
_symmetry_space_group_name_H-M   'P 1'
_cell_length_a   4.04253882
_cell_length_b   4.04118520
_cell_length_c   8.65522836
_cell_angle_alpha   90.00000000
_cell_angle_beta   90.00000000
_cell_angle_gamma   59.95260953
_symmetry_Int_Tables_number   1
_chemical_formula_structural   Pr2CoSi3
_chemical_formula_sum   'Pr2 Co1 Si3'
_cell_volume   122.39523914
_cell_formula_units_Z   1
loop_
 _symmetry_equiv_pos_site_id
 _symmetry_equiv_pos_as_xyz
  1  'x, y, z'
loop_
 _atom_site_type_symbol
 _atom_site_label
 _atom_site_symmetry_multiplicity
 _atom_site_fract_x
 _atom_site_fract_y
 _atom_site_fract_z
 _atom_site_occupancy
  Pr  Pr0  1  0.99998517  0.00002366  0.00511322  1
  Pr  Pr1  1  0.99998517  0.00002366  0.49488678  1
  Co  Co2  1  0.66657770  0.66658875  0.25000000  1
  Si  Si3  1  0.66662344  0.66662381  0.75000000  1
  Si  Si4  1  0.33331634  0.33335719  0.25000000  1
  Si  Si5  1  0.33331218  0.33338295  0.75000000  1
