# generated using pymatgen
data_BaAl2(SiO4)2
_symmetry_space_group_name_H-M   'P 1'
_cell_length_a   5.41872143
_cell_length_b   5.41872889
_cell_length_c   7.91866038
_cell_angle_alpha   89.99999999
_cell_angle_beta   89.99991608
_cell_angle_gamma   59.99994953
_symmetry_Int_Tables_number   1
_chemical_formula_structural   BaAl2(SiO4)2
_chemical_formula_sum   'Ba1 Al2 Si2 O8'
_cell_volume   201.36147139
_cell_formula_units_Z   1
loop_
 _symmetry_equiv_pos_site_id
 _symmetry_equiv_pos_as_xyz
  1  'x, y, z'
loop_
 _atom_site_type_symbol
 _atom_site_label
 _atom_site_symmetry_multiplicity
 _atom_site_fract_x
 _atom_site_fract_y
 _atom_site_fract_z
 _atom_site_occupancy
  Ba  Ba0  1  0.00000000  0.00000000  0.00000000  1
  Al  Al1  1  0.33332878  0.33333561  0.70298915  1
  Al  Al2  1  0.66667122  0.66666439  0.29701085  1
  Si  Si3  1  0.66667118  0.66666441  0.71660899  1
  Si  Si4  1  0.33332882  0.33333559  0.28339101  1
  O  O5  1  0.99068546  0.50465727  0.79515077  1
  O  O6  1  0.50465808  0.99068485  0.79514145  1
  O  O7  1  0.50465808  0.50465707  0.79514145  1
  O  O8  1  0.00931454  0.49534273  0.20484923  1
  O  O9  1  0.49534192  0.00931515  0.20485855  1
  O  O10  1  0.49534192  0.49534293  0.20485855  1
  O  O11  1  0.33331477  0.33334261  0.48607502  1
  O  O12  1  0.66668523  0.66665739  0.51392498  1
