# generated using pymatgen
data_Ca3BiAu14
_symmetry_space_group_name_H-M   'P 1'
_cell_length_a   5.55224327
_cell_length_b   5.55224327
_cell_length_c   14.13212697
_cell_angle_alpha   90.00000000
_cell_angle_beta   90.00000000
_cell_angle_gamma   120.00000000
_symmetry_Int_Tables_number   1
_chemical_formula_structural   Ca3BiAu14
_chemical_formula_sum   'Ca3 Bi1 Au14'
_cell_volume   377.28986212
_cell_formula_units_Z   1
loop_
 _symmetry_equiv_pos_site_id
 _symmetry_equiv_pos_as_xyz
  1  'x, y, z'
loop_
 _atom_site_type_symbol
 _atom_site_label
 _atom_site_symmetry_multiplicity
 _atom_site_fract_x
 _atom_site_fract_y
 _atom_site_fract_z
 _atom_site_occupancy
  Ca  Ca0  1  0.33333300  0.66666700  0.66692050  1
  Ca  Ca1  1  -0.00000000  0.00000000  0.99444851  1
  Ca  Ca2  1  0.66666700  0.33333300  0.34016570  1
  Bi  Bi3  1  -0.00000000  0.00000000  0.25017513  1
  Au  Au4  1  0.66666700  0.33333300  0.58385653  1
  Au  Au5  1  0.33333300  0.66666700  0.91339260  1
  Au  Au6  1  0.49922598  0.50077402  0.11945759  1
  Au  Au7  1  0.16735780  0.83264220  0.46415775  1
  Au  Au8  1  0.83321079  0.16678921  0.79167286  1
  Au  Au9  1  0.49922598  0.99845196  0.11945759  1
  Au  Au10  1  0.16735780  0.33471460  0.46415775  1
  Au  Au11  1  0.83321079  0.66642259  0.79167286  1
  Au  Au12  1  0.33333300  0.66666700  0.29298067  1
  Au  Au13  1  -0.00000000  -0.00000000  0.62693455  1
  Au  Au14  1  0.66666700  0.33333300  0.95526119  1
  Au  Au15  1  0.00154804  0.50077402  0.11945759  1
  Au  Au16  1  0.66528540  0.83264220  0.46415775  1
  Au  Au17  1  0.33357741  0.16678921  0.79167286  1
