# generated using pymatgen
data_Ba4LaPr(Cu3O7)2
_symmetry_space_group_name_H-M   'P 1'
_cell_length_a   3.90543216
_cell_length_b   3.97798126
_cell_length_c   23.85401911
_cell_angle_alpha   90.00000000
_cell_angle_beta   90.00000000
_cell_angle_gamma   90.00000000
_symmetry_Int_Tables_number   1
_chemical_formula_structural   Ba4LaPr(Cu3O7)2
_chemical_formula_sum   'Ba4 La1 Pr1 Cu6 O14'
_cell_volume   370.58974211
_cell_formula_units_Z   1
loop_
 _symmetry_equiv_pos_site_id
 _symmetry_equiv_pos_as_xyz
  1  'x, y, z'
loop_
 _atom_site_type_symbol
 _atom_site_label
 _atom_site_symmetry_multiplicity
 _atom_site_fract_x
 _atom_site_fract_y
 _atom_site_fract_z
 _atom_site_occupancy
  Ba  Ba0  1  0.50000000  0.50000000  0.08950336  1
  Ba  Ba1  1  0.50000000  0.50000000  0.58931171  1
  Ba  Ba2  1  0.50000000  0.50000000  0.41049664  1
  Ba  Ba3  1  0.50000000  0.50000000  0.91068829  1
  La  La4  1  0.50000000  0.50000000  0.75000000  1
  Pr  Pr5  1  0.50000000  0.50000000  0.25000000  1
  Cu  Cu6  1  0.00000000  -0.00000000  0.17258344  1
  Cu  Cu7  1  -0.00000000  0.00000000  0.67189697  1
  Cu  Cu8  1  -0.00000000  -0.00000000  0.32741656  1
  Cu  Cu9  1  0.00000000  0.00000000  0.82810303  1
  Cu  Cu10  1  -0.00000000  0.00000000  0.00003491  1
  Cu  Cu11  1  0.00000000  -0.00000000  0.49996509  1
  O  O12  1  -0.00000000  0.00000000  0.07890864  1
  O  O13  1  -0.00000000  0.00000000  0.57877761  1
  O  O14  1  0.00000000  0.00000000  0.42109136  1
  O  O15  1  0.00000000  0.00000000  0.92122239  1
  O  O16  1  0.00000000  0.50000000  0.00010698  1
  O  O17  1  0.00000000  0.50000000  0.49989302  1
  O  O18  1  0.50000000  0.00000000  0.18548785  1
  O  O19  1  0.50000000  0.00000000  0.68458800  1
  O  O20  1  0.50000000  -0.00000000  0.31451215  1
  O  O21  1  0.50000000  0.00000000  0.81541200  1
  O  O22  1  0.00000000  0.50000000  0.18450449  1
  O  O23  1  0.00000000  0.50000000  0.68353961  1
  O  O24  1  0.00000000  0.50000000  0.31549551  1
  O  O25  1  0.00000000  0.50000000  0.81646039  1
