# generated using pymatgen
data_Ba16Ca2HC12N25O4
_symmetry_space_group_name_H-M   'P 1'
_cell_length_a   10.11047992
_cell_length_b   13.72129069
_cell_length_c   10.11047903
_cell_angle_alpha   68.38160323
_cell_angle_beta   59.99999953
_cell_angle_gamma   68.38160200
_symmetry_Int_Tables_number   1
_chemical_formula_structural   Ba16Ca2HC12N25O4
_chemical_formula_sum   'Ba16 Ca2 H1 C12 N25 O4'
_cell_volume   1099.29980749
_cell_formula_units_Z   1
loop_
 _symmetry_equiv_pos_site_id
 _symmetry_equiv_pos_as_xyz
  1  'x, y, z'
loop_
 _atom_site_type_symbol
 _atom_site_label
 _atom_site_symmetry_multiplicity
 _atom_site_fract_x
 _atom_site_fract_y
 _atom_site_fract_z
 _atom_site_occupancy
  Ba  Ba0  1  0.15048980  0.54853060  0.15048980  1
  Ba  Ba1  1  0.64872999  0.05381003  0.64872999  1
  Ba  Ba2  1  0.35127001  0.94618997  0.35127001  1
  Ba  Ba3  1  0.84951020  0.45146940  0.84951020  1
  Ba  Ba4  1  0.86053436  0.86534973  0.27394752  1
  Ba  Ba5  1  0.35075624  0.35284289  0.79384484  1
  Ba  Ba6  1  0.00016839  0.86534973  0.86053436  1
  Ba  Ba7  1  0.50255603  0.35284289  0.35075624  1
  Ba  Ba8  1  0.27394752  0.86534973  0.00016839  1
  Ba  Ba9  1  0.79384484  0.35284289  0.50255603  1
  Ba  Ba10  1  0.64924376  0.64715711  0.20615516  1
  Ba  Ba11  1  0.13946564  0.13465027  0.72605248  1
  Ba  Ba12  1  0.49744397  0.64715711  0.64924376  1
  Ba  Ba13  1  0.99983161  0.13465027  0.13946564  1
  Ba  Ba14  1  0.20615516  0.64715711  0.49744397  1
  Ba  Ba15  1  0.72605248  0.13465027  0.99983161  1
  Ca  Ca16  1  0.25046557  0.24860328  0.25046557  1
  Ca  Ca17  1  0.74953443  0.75139672  0.74953443  1
  H  H18  1  0.50000000  0.50000000  0.50000000  1
  C  C19  1  0.52968130  0.38992220  0.93307183  1
  C  C20  1  0.03130922  0.88765531  0.43862743  1
  C  C21  1  0.14732468  0.38992220  0.52968130  1
  C  C22  1  0.64240804  0.88765531  0.03130922  1
  C  C23  1  0.93307183  0.38992220  0.14732468  1
  C  C24  1  0.43862743  0.88765531  0.64240804  1
  C  C25  1  0.96869078  0.11234469  0.56137257  1
  C  C26  1  0.47031870  0.61007780  0.06692817  1
  C  C27  1  0.35759196  0.11234469  0.96869078  1
  C  C28  1  0.85267532  0.61007780  0.47031870  1
  C  C29  1  0.56137257  0.11234469  0.35759196  1
  C  C30  1  0.06692817  0.61007780  0.85267532  1
  N  N31  1  0.07496096  0.36372630  0.11561343  1
  N  N32  1  0.57843565  0.86149099  0.61815771  1
  N  N33  1  0.44569931  0.36372630  0.07496096  1
  N  N34  1  0.94191565  0.86149099  0.57843565  1
  N  N35  1  0.11561343  0.36372630  0.44569931  1
  N  N36  1  0.61815771  0.86149099  0.94191565  1
  N  N37  1  0.42156435  0.13850901  0.38184229  1
  N  N38  1  0.92503904  0.63627370  0.88438657  1
  N  N39  1  0.05808435  0.13850901  0.42156435  1
  N  N40  1  0.55430069  0.63627370  0.92503904  1
  N  N41  1  0.38184229  0.13850901  0.05808435  1
  N  N42  1  0.88438657  0.63627370  0.55430069  1
  N  N43  1  0.67085770  0.90923497  0.12234139  1
  N  N44  1  0.18487714  0.41435930  0.61143159  1
  N  N45  1  0.29756594  0.90923497  0.67085770  1
  N  N46  1  0.78933196  0.41435930  0.18487714  1
  N  N47  1  0.12234139  0.90923497  0.29756594  1
  N  N48  1  0.61143159  0.41435930  0.78933196  1
  N  N49  1  0.81512286  0.58564070  0.38856841  1
  N  N50  1  0.32914230  0.09076503  0.87765861  1
  N  N51  1  0.21066804  0.58564070  0.81512286  1
  N  N52  1  0.70243406  0.09076503  0.32914230  1
  N  N53  1  0.38856841  0.58564070  0.21066804  1
  N  N54  1  0.87765861  0.09076503  0.70243406  1
  N  N55  1  -0.00000000  -0.00000000  -0.00000000  1
  O  O56  1  0.08493476  0.74519572  0.08493476  1
  O  O57  1  0.58068283  0.25795152  0.58068283  1
  O  O58  1  0.41931717  0.74204848  0.41931717  1
  O  O59  1  0.91506524  0.25480428  0.91506524  1
