# generated using pymatgen
data_Ba4PrEu(Cu3O7)2
_symmetry_space_group_name_H-M   'P 1'
_cell_length_a   3.87917805
_cell_length_b   12.58992044
_cell_length_c   7.88532807
_cell_angle_alpha   71.75020782
_cell_angle_beta   90.00000000
_cell_angle_gamma   90.00000000
_symmetry_Int_Tables_number   1
_chemical_formula_structural   Ba4PrEu(Cu3O7)2
_chemical_formula_sum   'Ba4 Pr1 Eu1 Cu6 O14'
_cell_volume   365.73710599
_cell_formula_units_Z   1
loop_
 _symmetry_equiv_pos_site_id
 _symmetry_equiv_pos_as_xyz
  1  'x, y, z'
loop_
 _atom_site_type_symbol
 _atom_site_label
 _atom_site_symmetry_multiplicity
 _atom_site_fract_x
 _atom_site_fract_y
 _atom_site_fract_z
 _atom_site_occupancy
  Ba  Ba0  1  0.50000000  0.17969441  0.16015279  1
  Ba  Ba1  1  0.50000000  0.18084089  0.65957955  1
  Ba  Ba2  1  0.50000000  0.82030559  0.83984721  1
  Ba  Ba3  1  0.50000000  0.81915911  0.34042045  1
  Pr  Pr4  1  0.50000000  0.50000000  0.00000000  1
  Eu  Eu5  1  0.50000000  0.50000000  0.50000000  1
  Cu  Cu6  1  0.00000000  0.34703388  0.32846237  1
  Cu  Cu7  1  -0.00000000  0.34703388  0.82450376  1
  Cu  Cu8  1  -0.00000000  0.65296612  0.17549624  1
  Cu  Cu9  1  0.00000000  0.65296612  0.67153763  1
  Cu  Cu10  1  0.00000000  -0.00000000  0.50000000  1
  Cu  Cu11  1  -0.00000000  -0.00000000  0.00000000  1
  O  O12  1  -0.00000000  0.15623707  0.42199801  1
  O  O13  1  -0.00000000  0.15623707  0.92176491  1
  O  O14  1  -0.00000000  0.84376293  0.07823509  1
  O  O15  1  -0.00000000  0.84376293  0.57800199  1
  O  O16  1  0.00000000  0.37025913  0.06487044  1
  O  O17  1  -0.00000000  0.37279730  0.56360135  1
  O  O18  1  -0.00000000  0.62974087  0.93512956  1
  O  O19  1  0.00000000  0.62720270  0.43639865  1
  O  O20  1  0.50000000  0.37197400  0.31596788  1
  O  O21  1  0.50000000  0.37197400  0.81205813  1
  O  O22  1  0.50000000  0.62802600  0.18794187  1
  O  O23  1  0.50000000  0.62802600  0.68403212  1
  O  O24  1  -0.00000000  0.00013428  0.74993286  1
  O  O25  1  0.00000000  0.99986572  0.25006714  1
