# generated using pymatgen
data_Ba5Ca2Ta3O15
_symmetry_space_group_name_H-M   'P 1'
_cell_length_a   8.48738921
_cell_length_b   10.46306584
_cell_length_c   10.46306584
_cell_angle_alpha   80.53171288
_cell_angle_beta   66.07201653
_cell_angle_gamma   66.07201653
_symmetry_Int_Tables_number   1
_chemical_formula_structural   Ba5Ca2Ta3O15
_chemical_formula_sum   'Ba10 Ca4 Ta6 O30'
_cell_volume   776.31435462
_cell_formula_units_Z   2
loop_
 _symmetry_equiv_pos_site_id
 _symmetry_equiv_pos_as_xyz
  1  'x, y, z'
loop_
 _atom_site_type_symbol
 _atom_site_label
 _atom_site_symmetry_multiplicity
 _atom_site_fract_x
 _atom_site_fract_y
 _atom_site_fract_z
 _atom_site_occupancy
  Ba  Ba0  1  0.74576811  0.50101090  0.50051644  1
  Ba  Ba1  1  0.95371545  0.70051644  0.89898910  1
  Ba  Ba2  1  0.15322099  0.89948356  0.30101090  1
  Ba  Ba3  1  0.34729545  0.09898910  0.69948356  1
  Ba  Ba4  1  0.55000000  0.30000000  0.10000000  1
  Ba  Ba5  1  0.05000000  0.30000000  0.10000000  1
  Ba  Ba6  1  0.25270455  0.50101090  0.50051644  1
  Ba  Ba7  1  0.44677901  0.70051644  0.89898910  1
  Ba  Ba8  1  0.64628455  0.89948356  0.30101090  1
  Ba  Ba9  1  0.85423189  0.09898910  0.69948356  1
  Ca  Ca10  1  0.50152106  0.99749836  0.99945952  1
  Ca  Ca11  1  0.69901942  0.19945952  0.40250164  1
  Ca  Ca12  1  0.90098058  0.40054048  0.79749836  1
  Ca  Ca13  1  0.09847894  0.60250164  0.20054048  1
  Ta  Ta14  1  0.60348025  0.59711332  0.19592618  1
  Ta  Ta15  1  0.80000000  0.80000000  0.60000000  1
  Ta  Ta16  1  0.99651975  0.00288668  0.00407382  1
  Ta  Ta17  1  0.19940643  0.20407382  0.39711332  1
  Ta  Ta18  1  0.40059357  0.39592618  0.80288668  1
  Ta  Ta19  1  0.30000000  0.80000000  0.60000000  1
  O  O20  1  0.95946918  0.18199833  0.89906331  1
  O  O21  1  0.15549323  0.38321090  0.30580263  1
  O  O22  1  0.34682628  0.61203181  0.69431563  1
  O  O23  1  0.54691660  0.78909925  0.11706754  1
  O  O24  1  0.75362439  0.98425441  0.50849681  1
  O  O25  1  0.62974998  0.41026741  0.79478325  1
  O  O26  1  0.82453323  0.60521675  0.21026741  1
  O  O27  1  0.05358131  0.80000000  0.60000000  1
  O  O28  1  0.24001739  0.99478325  0.98973259  1
  O  O29  1  0.43480064  0.18973259  0.40521675  1
  O  O30  1  0.73870414  0.50580263  0.01678910  1
  O  O31  1  0.93787880  0.70849681  0.41574559  1
  O  O32  1  0.15885809  0.89431563  0.78796819  1
  O  O33  1  0.34146751  0.09906331  0.21800167  1
  O  O34  1  0.53601585  0.31706754  0.61090075  1
  O  O35  1  0.16519936  0.41026741  0.79478325  1
  O  O36  1  0.35998261  0.60521675  0.21026741  1
  O  O37  1  0.54641869  0.80000000  0.60000000  1
  O  O38  1  0.77546677  0.99478325  0.98973259  1
  O  O39  1  0.97025002  0.18973259  0.40521675  1
  O  O40  1  0.06398415  0.28293246  0.58909925  1
  O  O41  1  0.25853249  0.50093669  0.98199833  1
  O  O42  1  0.44114191  0.70568437  0.41203181  1
  O  O43  1  0.66212120  0.89150319  0.78425441  1
  O  O44  1  0.86129586  0.09419737  0.18321090  1
  O  O45  1  0.84637561  0.61574559  0.69150319  1
  O  O46  1  0.05308340  0.81090075  0.08293246  1
  O  O47  1  0.25317372  0.98796819  0.50568437  1
  O  O48  1  0.44450677  0.21678910  0.89419737  1
  O  O49  1  0.64053082  0.41800167  0.30093669  1
