# generated using pymatgen
data_Ba12Br3Cl2F19
_symmetry_space_group_name_H-M   'P 1'
_cell_length_a   4.39809087
_cell_length_b   14.36119432
_cell_length_c   14.36431279
_cell_angle_alpha   119.99282315
_cell_angle_beta   90.00000000
_cell_angle_gamma   90.00000000
_symmetry_Int_Tables_number   1
_chemical_formula_structural   Ba12Br3Cl2F19
_chemical_formula_sum   'Ba12 Br3 Cl2 F19'
_cell_volume   785.78121999
_cell_formula_units_Z   1
loop_
 _symmetry_equiv_pos_site_id
 _symmetry_equiv_pos_as_xyz
  1  'x, y, z'
loop_
 _atom_site_type_symbol
 _atom_site_label
 _atom_site_symmetry_multiplicity
 _atom_site_fract_x
 _atom_site_fract_y
 _atom_site_fract_z
 _atom_site_occupancy
  Ba  Ba0  1  0.00000000  0.37867340  0.37860317  1
  Ba  Ba1  1  0.00000000  0.00007023  0.62139683  1
  Ba  Ba2  1  0.00000000  0.61952710  0.00000000  1
  Ba  Ba3  1  0.00000000  0.17758217  -0.00000000  1
  Ba  Ba4  1  0.00000000  0.82276569  0.82048442  1
  Ba  Ba5  1  0.00000000  0.00228127  0.17951558  1
  Ba  Ba6  1  0.50000000  0.16693249  0.47150854  1
  Ba  Ba7  1  0.50000000  0.30433756  0.83299712  1
  Ba  Ba8  1  0.50000000  0.52875711  0.69567789  1
  Ba  Ba9  1  0.50000000  0.69542395  0.52849146  1
  Ba  Ba10  1  0.50000000  0.47134044  0.16700288  1
  Ba  Ba11  1  0.50000000  0.83307922  0.30432211  1
  Br  Br12  1  0.50000000  0.80913211  0.00000000  1
  Br  Br13  1  0.00000000  0.33326697  0.66666192  1
  Br  Br14  1  -0.00000000  0.66660505  0.33333808  1
  Cl  Cl15  1  0.50000000  0.19073324  0.19066310  1
  Cl  Cl16  1  0.50000000  0.00007014  0.80933690  1
  F  F17  1  0.00000000  0.18463532  0.37576655  1
  F  F18  1  0.00000000  0.19114350  0.81566564  1
  F  F19  1  0.00000000  0.62407262  0.80836070  1
  F  F20  1  0.00000000  0.80886877  0.62423345  1
  F  F21  1  0.00000000  0.37547786  0.18433436  1
  F  F22  1  0.00000000  0.81571191  0.19163930  1
  F  F23  1  0.00000000  0.00006846  0.43443047  1
  F  F24  1  0.00000000  0.43400439  1.00000000  1
  F  F25  1  0.00000000  0.56563798  0.56556953  1
  F  F26  1  0.00000000  0.00028398  1.00000000  1
  F  F27  1  0.50000000  0.00029058  0.27756875  1
  F  F28  1  0.50000000  0.27702479  -0.00000000  1
  F  F29  1  0.50000000  0.72272183  0.72243125  1
  F  F30  1  0.50000000  0.36640219  0.49078162  1
  F  F31  1  0.50000000  0.12438717  0.63353174  1
  F  F32  1  0.50000000  0.50877656  0.87543860  1
  F  F33  1  0.50000000  0.87562057  0.50921838  1
  F  F34  1  0.50000000  0.49085544  0.36646826  1
  F  F35  1  0.50000000  0.63333795  0.12456140  1
