# generated using pymatgen
data_BaLa8Co(Si3O13)2
_symmetry_space_group_name_H-M   'P 1'
_cell_length_a   7.23802336
_cell_length_b   9.81490784
_cell_length_c   9.81567124
_cell_angle_alpha   120.03406538
_cell_angle_beta   89.96543247
_cell_angle_gamma   90.01852677
_symmetry_Int_Tables_number   1
_chemical_formula_structural   BaLa8Co(Si3O13)2
_chemical_formula_sum   'Ba1 La8 Co1 Si6 O26'
_cell_volume   603.68110445
_cell_formula_units_Z   1
loop_
 _symmetry_equiv_pos_site_id
 _symmetry_equiv_pos_as_xyz
  1  'x, y, z'
loop_
 _atom_site_type_symbol
 _atom_site_label
 _atom_site_symmetry_multiplicity
 _atom_site_fract_x
 _atom_site_fract_y
 _atom_site_fract_z
 _atom_site_occupancy
  Ba  Ba0  1  0.43225948  0.66662157  0.33326432  1
  La  La1  1  0.18117484  0.75854517  0.99038814  1
  La  La2  1  0.18114496  0.00982485  0.76818619  1
  La  La3  1  0.18111829  0.23188945  0.24133939  1
  La  La4  1  0.68532896  0.24179377  0.00869260  1
  La  La5  1  0.68543750  0.99147252  0.23319639  1
  La  La6  1  0.68528705  0.76709140  0.75825629  1
  La  La7  1  0.44293812  0.33343222  0.66693137  1
  La  La8  1  0.93344121  0.66653153  0.33327632  1
  Co  Co9  1  0.96150221  0.33341153  0.66675043  1
  Si  Si10  1  0.17271203  0.98080803  0.37800011  1
  Si  Si11  1  0.17288828  0.62233643  0.60301104  1
  Si  Si12  1  0.17268055  0.39697749  0.01892250  1
  Si  Si13  1  0.69464088  0.03581356  0.63301388  1
  Si  Si14  1  0.69426648  0.36711893  0.40283730  1
  Si  Si15  1  0.69475495  0.59700809  0.96406833  1
  O  O16  1  0.50064082  0.09318175  0.73895537  1
  O  O17  1  0.50047435  0.26086445  0.35396915  1
  O  O18  1  0.50057597  0.64546200  0.90692562  1
  O  O19  1  0.99745561  0.91124932  0.25362510  1
  O  O20  1  0.99737561  0.74648766  0.65779797  1
  O  O21  1  0.99737592  0.34233477  0.08871648  1
  O  O22  1  0.16719258  0.88697033  0.47797802  1
  O  O23  1  0.16742595  0.52197125  0.40917512  1
  O  O24  1  0.16715610  0.59091718  0.11282024  1
  O  O25  1  0.70490321  0.13390586  0.53742510  1
  O  O26  1  0.70290830  0.46315740  0.59655276  1
  O  O27  1  0.70504137  0.40324493  0.86560236  1
  O  O28  1  0.16652758  0.17380028  0.49461904  1
  O  O29  1  0.16682140  0.50610678  0.67985821  1
  O  O30  1  0.16686360  0.31954938  0.82581027  1
  O  O31  1  0.70103480  0.84399219  0.51807861  1
  O  O32  1  0.70107007  0.48151284  0.32554339  1
  O  O33  1  0.70125956  0.67390072  0.15575847  1
  O  O34  1  0.35682638  0.92796882  0.26134215  1
  O  O35  1  0.35688908  0.73902142  0.66665634  1
  O  O36  1  0.35675145  0.33334373  0.07181663  1
  O  O37  1  0.86213959  0.08419410  0.76316466  1
  O  O38  1  0.86249453  0.23728656  0.32198205  1
  O  O39  1  0.86233998  0.67875249  0.91547409  1
  O  O40  1  0.17780434  0.99992198  0.00000141  1
  O  O41  1  0.67427604  0.00022527  0.00021678  1
