# generated using pymatgen
data_Ba4PrSm(Cu3O7)2
_symmetry_space_group_name_H-M   'P 1'
_cell_length_a   3.88834449
_cell_length_b   3.95962404
_cell_length_c   23.86918505
_cell_angle_alpha   90.00000000
_cell_angle_beta   90.00000000
_cell_angle_gamma   90.00000000
_symmetry_Int_Tables_number   1
_chemical_formula_structural   Ba4PrSm(Cu3O7)2
_chemical_formula_sum   'Ba4 Pr1 Sm1 Cu6 O14'
_cell_volume   367.49909866
_cell_formula_units_Z   1
loop_
 _symmetry_equiv_pos_site_id
 _symmetry_equiv_pos_as_xyz
  1  'x, y, z'
loop_
 _atom_site_type_symbol
 _atom_site_label
 _atom_site_symmetry_multiplicity
 _atom_site_fract_x
 _atom_site_fract_y
 _atom_site_fract_z
 _atom_site_occupancy
  Ba  Ba0  1  0.50000000  0.50000000  0.08998971  1
  Ba  Ba1  1  0.50000000  0.50000000  0.58969356  1
  Ba  Ba2  1  0.50000000  0.50000000  0.41001029  1
  Ba  Ba3  1  0.50000000  0.50000000  0.91030644  1
  Pr  Pr4  1  0.50000000  0.50000000  0.75000000  1
  Sm  Sm5  1  0.50000000  0.50000000  0.25000000  1
  Cu  Cu6  1  -0.00000000  -0.00000000  0.00011125  1
  Cu  Cu7  1  0.00000000  -0.00000000  0.49988875  1
  Cu  Cu8  1  0.00000000  0.00000000  0.17406684  1
  Cu  Cu9  1  0.00000000  0.00000000  0.67292517  1
  Cu  Cu10  1  -0.00000000  0.00000000  0.32593316  1
  Cu  Cu11  1  -0.00000000  -0.00000000  0.82707483  1
  O  O12  1  0.00000000  0.50000000  0.00020406  1
  O  O13  1  -0.00000000  0.50000000  0.49979594  1
  O  O14  1  -0.00000000  0.50000000  0.18716769  1
  O  O15  1  -0.00000000  0.50000000  0.68484581  1
  O  O16  1  0.00000000  0.50000000  0.31283231  1
  O  O17  1  -0.00000000  0.50000000  0.81515419  1
  O  O18  1  -0.00000000  -0.00000000  0.07913584  1
  O  O19  1  -0.00000000  0.00000000  0.57875234  1
  O  O20  1  0.00000000  -0.00000000  0.42086416  1
  O  O21  1  0.00000000  0.00000000  0.92124766  1
  O  O22  1  0.50000000  -0.00000000  0.18766901  1
  O  O23  1  0.50000000  -0.00000000  0.68538456  1
  O  O24  1  0.50000000  0.00000000  0.31233099  1
  O  O25  1  0.50000000  -0.00000000  0.81461544  1
