# generated using pymatgen
data_SrCu(Si2O5)2
_symmetry_space_group_name_H-M   'P 1'
_cell_length_a   7.44542941
_cell_length_b   7.44542941
_cell_length_c   15.92885171
_cell_angle_alpha   90.00000000
_cell_angle_beta   90.00000000
_cell_angle_gamma   90.00000000
_symmetry_Int_Tables_number   1
_chemical_formula_structural   SrCu(Si2O5)2
_chemical_formula_sum   'Sr4 Si16 Cu4 O40'
_cell_volume   883.00664146
_cell_formula_units_Z   4
loop_
 _symmetry_equiv_pos_site_id
 _symmetry_equiv_pos_as_xyz
  1  'x, y, z'
loop_
 _atom_site_type_symbol
 _atom_site_label
 _atom_site_symmetry_multiplicity
 _atom_site_fract_x
 _atom_site_fract_y
 _atom_site_fract_z
 _atom_site_occupancy
  O  O0  1  0.01399635  0.36380964  0.58715258  1
  O  O1  1  0.48600365  0.13619036  0.58715258  1
  O  O2  1  0.86380964  0.51399635  0.91284742  1
  O  O3  1  0.36380964  0.48600365  0.58715258  1
  O  O4  1  0.13619036  0.01399635  0.58715258  1
  O  O5  1  0.98600365  0.86380964  0.91284742  1
  O  O6  1  0.51399635  0.63619036  0.91284742  1
  O  O7  1  0.63619036  0.98600365  0.91284742  1
  O  O8  1  0.98600365  0.63619036  0.41284742  1
  O  O9  1  0.51399635  0.86380964  0.41284742  1
  O  O10  1  0.13619036  0.48600365  0.08715258  1
  O  O11  1  0.63619036  0.51399635  0.41284742  1
  O  O12  1  0.86380964  0.98600365  0.41284742  1
  O  O13  1  0.01399635  0.13619036  0.08715258  1
  O  O14  1  0.48600365  0.36380964  0.08715258  1
  O  O15  1  0.99868574  0.28748269  0.36859298  1
  O  O16  1  0.36380964  0.01399635  0.08715258  1
  O  O17  1  0.49868574  0.78748269  0.63140702  1
  O  O18  1  0.21251731  0.50131426  0.86859298  1
  O  O19  1  0.71251731  0.49868574  0.63140702  1
  O  O20  1  0.78748269  0.00131426  0.63140702  1
  O  O21  1  0.99868574  0.21251731  0.86859298  1
  O  O22  1  0.50131426  0.28748269  0.86859298  1
  O  O23  1  0.28748269  0.99868574  0.86859298  1
  O  O24  1  0.46530234  0.96530234  0.25000000  1
  O  O25  1  0.53469766  0.46530234  0.25000000  1
  O  O26  1  0.96530234  0.03469766  0.25000000  1
  O  O27  1  0.03469766  0.53469766  0.25000000  1
  O  O28  1  0.53469766  0.03469766  0.75000000  1
  O  O29  1  0.46530234  0.53469766  0.75000000  1
  O  O30  1  0.03469766  0.96530234  0.75000000  1
  O  O31  1  0.96530234  0.46530234  0.75000000  1
  O  O32  1  0.71251731  0.00131426  0.13140702  1
  O  O33  1  0.49868574  0.71251731  0.13140702  1
  O  O34  1  0.00131426  0.78748269  0.13140702  1
  O  O35  1  0.21251731  0.99868574  0.36859298  1
  O  O36  1  0.28748269  0.50131426  0.36859298  1
  O  O37  1  0.78748269  0.49868574  0.13140702  1
  O  O38  1  0.50131426  0.21251731  0.36859298  1
  O  O39  1  0.00131426  0.71251731  0.63140702  1
  Si  Si40  1  0.93022312  0.50763590  0.65137364  1
  Si  Si41  1  0.56977688  0.99236410  0.65137364  1
  Si  Si42  1  0.00763590  0.43022312  0.84862636  1
  Si  Si43  1  0.50763590  0.56977688  0.65137364  1
  Si  Si44  1  0.99236410  0.93022312  0.65137364  1
  Si  Si45  1  0.06977688  0.00763590  0.84862636  1
  Si  Si46  1  0.43022312  0.49236410  0.84862636  1
  Si  Si47  1  0.49236410  0.06977688  0.84862636  1
  Si  Si48  1  0.06977688  0.49236410  0.34862636  1
  Si  Si49  1  0.43022312  0.00763590  0.34862636  1
  Si  Si50  1  0.99236410  0.56977688  0.15137364  1
  Si  Si51  1  0.49236410  0.43022312  0.34862636  1
  Si  Si52  1  0.00763590  0.06977688  0.34862636  1
  Si  Si53  1  0.93022312  0.99236410  0.15137364  1
  Si  Si54  1  0.56977688  0.50763590  0.15137364  1
  Si  Si55  1  0.50763590  0.93022312  0.15137364  1
  Cu  Cu56  1  0.25000000  0.25000000  0.59034518  1
  Cu  Cu57  1  0.75000000  0.75000000  0.90965482  1
  Cu  Cu58  1  0.75000000  0.75000000  0.40965482  1
  Cu  Cu59  1  0.25000000  0.25000000  0.09034518  1
  Sr  Sr60  1  0.25000000  0.75000000  0.50000000  1
  Sr  Sr61  1  0.75000000  0.25000000  0.50000000  1
  Sr  Sr62  1  0.75000000  0.25000000  0.00000000  1
  Sr  Sr63  1  0.25000000  0.75000000  0.00000000  1
