# generated using pymatgen
data_Y3Fe29
_symmetry_space_group_name_H-M   'P 1'
_cell_length_a   6.41619741
_cell_length_b   6.41619741
_cell_length_c   10.47133245
_cell_angle_alpha   85.13818194
_cell_angle_beta   85.13818191
_cell_angle_gamma   82.67279062
_symmetry_Int_Tables_number   1
_chemical_formula_structural   Y3Fe29
_chemical_formula_sum   'Y3 Fe29'
_cell_volume   424.82677814
_cell_formula_units_Z   1
loop_
 _symmetry_equiv_pos_site_id
 _symmetry_equiv_pos_as_xyz
  1  'x, y, z'
loop_
 _atom_site_type_symbol
 _atom_site_label
 _atom_site_symmetry_multiplicity
 _atom_site_fract_x
 _atom_site_fract_y
 _atom_site_fract_z
 _atom_site_occupancy
  Fe  Fe0  1  0.50000000  0.50000000  0.50000000  1
  Fe  Fe1  1  0.70952809  0.70952809  0.14059131  1
  Fe  Fe2  1  0.29047191  0.29047191  0.85940869  1
  Fe  Fe3  1  0.47970611  0.47970611  0.25417217  1
  Fe  Fe4  1  0.52029389  0.52029389  0.74582783  1
  Fe  Fe5  1  0.87312706  0.31098487  0.19757008  1
  Fe  Fe6  1  0.68901513  0.12687294  0.80242992  1
  Fe  Fe7  1  0.12687294  0.68901513  0.80242992  1
  Fe  Fe8  1  0.31098487  0.87312706  0.19757008  1
  Fe  Fe9  1  0.83531853  0.53933656  0.37814085  1
  Fe  Fe10  1  0.46066344  0.16468147  0.62185915  1
  Fe  Fe11  1  0.16468147  0.46066344  0.62185915  1
  Fe  Fe12  1  0.53933656  0.83531853  0.37814085  1
  Fe  Fe13  1  0.35838533  0.64161467  0.00000000  1
  Fe  Fe14  1  0.64161467  0.35838533  0.00000000  1
  Fe  Fe15  1  0.72203600  0.72203600  0.89198352  1
  Fe  Fe16  1  0.27796400  0.27796400  0.10801648  1
  Fe  Fe17  1  0.59270801  0.09778083  0.19813253  1
  Fe  Fe18  1  0.90221917  0.40729199  0.80186747  1
  Fe  Fe19  1  0.40729199  0.90221917  0.80186747  1
  Fe  Fe20  1  0.09778083  0.59270801  0.19813253  1
  Fe  Fe21  1  0.09218101  0.09218101  0.70834228  1
  Fe  Fe22  1  0.90781899  0.90781899  0.29165772  1
  Fe  Fe23  1  0.68601355  0.18746625  0.40485842  1
  Fe  Fe24  1  0.81253375  0.31398645  0.59514158  1
  Fe  Fe25  1  0.31398645  0.81253375  0.59514158  1
  Fe  Fe26  1  0.18746625  0.68601355  0.40485842  1
  Fe  Fe27  1  0.50000000  0.00000000  0.00000000  1
  Fe  Fe28  1  0.00000000  0.50000000  0.00000000  1
  Y  Y29  1  0.00000000  0.00000000  0.00000000  1
  Y  Y30  1  0.81205891  0.81205891  0.59817705  1
  Y  Y31  1  0.18794109  0.18794109  0.40182295  1
