# generated using pymatgen
data_Rb2Te
_symmetry_space_group_name_H-M   'P 1'
_cell_length_a   5.62322190
_cell_length_b   9.22748662
_cell_length_c   11.09754036
_cell_angle_alpha   90.00000000
_cell_angle_beta   90.00000000
_cell_angle_gamma   90.00000000
_symmetry_Int_Tables_number   1
_chemical_formula_structural   Rb2Te
_chemical_formula_sum   'Rb8 Te4'
_cell_volume   575.83144746
_cell_formula_units_Z   4
loop_
 _symmetry_equiv_pos_site_id
 _symmetry_equiv_pos_as_xyz
  1  'x, y, z'
loop_
 _atom_site_type_symbol
 _atom_site_label
 _atom_site_symmetry_multiplicity
 _atom_site_fract_x
 _atom_site_fract_y
 _atom_site_fract_z
 _atom_site_occupancy
  Rb  Rb0  1  0.75000000  0.97431842  0.82914612  1
  Rb  Rb1  1  0.25000000  0.02568158  0.17085388  1
  Rb  Rb2  1  0.75000000  0.47431842  0.67085388  1
  Rb  Rb3  1  0.25000000  0.52568158  0.32914612  1
  Rb  Rb4  1  0.75000000  0.85369096  0.42797534  1
  Rb  Rb5  1  0.25000000  0.14630904  0.57202466  1
  Rb  Rb6  1  0.75000000  0.35369096  0.07202466  1
  Rb  Rb7  1  0.25000000  0.64630904  0.92797534  1
  Te  Te8  1  0.75000000  0.75061700  0.11472491  1
  Te  Te9  1  0.25000000  0.24938300  0.88527509  1
  Te  Te10  1  0.75000000  0.25061700  0.38527509  1
  Te  Te11  1  0.25000000  0.74938300  0.61472491  1
