# generated using pymatgen
data_NdTiFe11N
_symmetry_space_group_name_H-M   'P 1'
_cell_length_a   4.90370263
_cell_length_b   6.53621924
_cell_length_c   6.53621924
_cell_angle_alpha   97.73236894
_cell_angle_beta   112.03158562
_cell_angle_gamma   67.96841438
_symmetry_Int_Tables_number   1
_chemical_formula_structural   NdTiFe11N
_chemical_formula_sum   'Nd1 Ti1 Fe11 N1'
_cell_volume   180.01316599
_cell_formula_units_Z   1
loop_
 _symmetry_equiv_pos_site_id
 _symmetry_equiv_pos_as_xyz
  1  'x, y, z'
loop_
 _atom_site_type_symbol
 _atom_site_label
 _atom_site_symmetry_multiplicity
 _atom_site_fract_x
 _atom_site_fract_y
 _atom_site_fract_z
 _atom_site_occupancy
  Nd  Nd0  1  0.00629316  0.99370684  0.00629316  1
  Ti  Ti1  1  0.63384530  0.36615470  0.63384530  1
  Fe  Fe2  1  0.72632629  0.77367371  0.22632629  1
  Fe  Fe3  1  0.27633412  0.22366588  0.77633412  1
  Fe  Fe4  1  0.49723386  0.77967582  0.77414355  1
  Fe  Fe5  1  0.49723386  0.22585645  0.22032418  1
  Fe  Fe6  1  0.49999412  0.99726785  0.49859187  1
  Fe  Fe7  1  0.00132991  0.99726785  0.49859187  1
  Fe  Fe8  1  0.49999412  0.50140813  0.00273215  1
  Fe  Fe9  1  0.00132991  0.50140813  0.00273215  1
  Fe  Fe10  1  0.35932270  0.64067730  0.35932270  1
  Fe  Fe11  1  0.99988127  0.36090997  0.36067252  1
  Fe  Fe12  1  0.99988127  0.63932748  0.63909003  1
  N  N13  1  0.50100011  0.99899989  0.00100011  1
