# generated using pymatgen
data_Ag4Sn2(HgSe3)3
_symmetry_space_group_name_H-M   'P 1'
_cell_length_a   7.60801558
_cell_length_b   10.69821637
_cell_length_c   7.57629740
_cell_angle_alpha   90.58399179
_cell_angle_beta   59.96470190
_cell_angle_gamma   90.68217802
_symmetry_Int_Tables_number   1
_chemical_formula_structural   Ag4Sn2(HgSe3)3
_chemical_formula_sum   'Ag4 Sn2 Hg3 Se9'
_cell_volume   533.80158305
_cell_formula_units_Z   1
loop_
 _symmetry_equiv_pos_site_id
 _symmetry_equiv_pos_as_xyz
  1  'x, y, z'
loop_
 _atom_site_type_symbol
 _atom_site_label
 _atom_site_symmetry_multiplicity
 _atom_site_fract_x
 _atom_site_fract_y
 _atom_site_fract_z
 _atom_site_occupancy
  Ag  Ag0  1  0.67570355  0.90199764  0.00627561  1
  Ag  Ag1  1  0.34419909  0.23859735  0.34380318  1
  Ag  Ag2  1  0.67878844  0.57949551  0.33241256  1
  Ag  Ag3  1  0.01059600  0.57929954  0.66800210  1
  Sn  Sn4  1  0.00635773  0.24189600  0.00172065  1
  Sn  Sn5  1  0.34668459  0.58776372  0.00004629  1
  Hg  Hg6  1  0.02052614  0.91374315  0.34539876  1
  Hg  Hg7  1  0.35702828  0.91420856  0.64883951  1
  Hg  Hg8  1  0.70108825  0.23001368  0.64467108  1
  Se  Se9  1  0.67316126  0.65340601  0.00047493  1
  Se  Se10  1  0.33812803  0.33203188  0.00585236  1
  Se  Se11  1  0.00922679  0.99870908  0.00124010  1
  Se  Se12  1  0.67842112  0.98523685  0.67851354  1
  Se  Se13  1  0.01801471  0.32844098  0.67602404  1
  Se  Se14  1  0.34561523  0.65527761  0.67190796  1
  Se  Se15  1  0.01742245  0.65484859  0.32833122  1
  Se  Se16  1  0.35666254  0.99493415  0.32327518  1
  Se  Se17  1  0.68637579  0.32809970  0.32321092  1
