# generated using pymatgen
data_Ba12Sm4Al3(CoO6)5
_symmetry_space_group_name_H-M   'P 1'
_cell_length_a   7.11338095
_cell_length_b   11.81383907
_cell_length_c   11.85413802
_cell_angle_alpha   120.38698101
_cell_angle_beta   91.29697301
_cell_angle_gamma   89.32255763
_symmetry_Int_Tables_number   1
_chemical_formula_structural   Ba12Sm4Al3(CoO6)5
_chemical_formula_sum   'Ba12 Sm4 Al3 Co5 O30'
_cell_volume   859.11172654
_cell_formula_units_Z   1
loop_
 _symmetry_equiv_pos_site_id
 _symmetry_equiv_pos_as_xyz
  1  'x, y, z'
loop_
 _atom_site_type_symbol
 _atom_site_label
 _atom_site_symmetry_multiplicity
 _atom_site_fract_x
 _atom_site_fract_y
 _atom_site_fract_z
 _atom_site_occupancy
  Ba  Ba0  1  0.99883703  0.32410776  0.66415547  1
  Ba  Ba1  1  0.51589424  0.67113285  0.33660851  1
  Ba  Ba2  1  0.49994019  0.99937337  0.99653609  1
  Ba  Ba3  1  0.01163548  0.99845503  0.99697736  1
  Ba  Ba4  1  0.32080584  0.16797947  0.34231456  1
  Ba  Ba5  1  0.33115076  0.17462048  0.82408110  1
  Ba  Ba6  1  0.32500180  0.64664139  0.83013561  1
  Ba  Ba7  1  0.82729195  0.82701156  0.65059112  1
  Ba  Ba8  1  0.82375491  0.83092720  0.17547390  1
  Ba  Ba9  1  0.82628266  0.35406412  0.18175631  1
  Ba  Ba10  1  0.65976058  0.47618309  0.95550158  1
  Ba  Ba11  1  0.15723483  0.52448147  0.47751374  1
  Sm  Sm12  1  0.65543540  0.48221935  0.52416664  1
  Sm  Sm13  1  0.64915015  0.04227999  0.52106799  1
  Sm  Sm14  1  0.16372762  0.52509912  0.04792166  1
  Sm  Sm15  1  0.14453290  0.95774499  0.47852981  1
  Al  Al16  1  0.33486174  0.82185080  0.63576915  1
  Al  Al17  1  0.32218904  0.82560505  0.18660826  1
  Al  Al18  1  0.33067381  0.36080674  0.18296268  1
  Co  Co19  1  0.45949093  0.32652048  0.66221827  1
  Co  Co20  1  0.97538401  0.67353556  0.33969448  1
  Co  Co21  1  0.81479753  0.17428141  0.35415195  1
  Co  Co22  1  0.83945357  0.17982435  0.82531850  1
  Co  Co23  1  0.82965505  0.64330203  0.82523984  1
  O  O24  1  0.42933221  0.67486476  0.07486872  1
  O  O25  1  0.47687826  0.39325308  0.32154923  1
  O  O26  1  0.46095418  0.92990608  0.60044337  1
  O  O27  1  0.44560552  0.38945145  0.06937868  1
  O  O28  1  0.45762032  0.93030419  0.33002916  1
  O  O29  1  0.47468363  0.68159944  0.60245194  1
  O  O30  1  0.98495646  0.32394993  0.92779493  1
  O  O31  1  0.92691835  0.61018439  0.66817954  1
  O  O32  1  0.94895827  0.06382513  0.40252256  1
  O  O33  1  0.98158924  0.60750904  0.93605984  1
  O  O34  1  0.96108095  0.06709049  0.66256680  1
  O  O35  1  0.92061401  0.33330906  0.40485963  1
  O  O36  1  0.31257929  0.41255552  0.82974249  1
  O  O37  1  0.33731797  0.41031852  0.58643494  1
  O  O38  1  0.31914619  0.15803859  0.57963971  1
  O  O39  1  0.84346626  0.59464451  0.18230416  1
  O  O40  1  0.81324381  0.58572807  0.41294403  1
  O  O41  1  0.82301476  0.83783370  0.41769048  1
  O  O42  1  0.63715582  0.23352616  0.49140752  1
  O  O43  1  0.65046690  0.23318414  0.73568874  1
  O  O44  1  0.65622821  0.49920018  0.73959076  1
  O  O45  1  0.15313427  0.76698853  0.50537400  1
  O  O46  1  0.14816051  0.76570585  0.25198105  1
  O  O47  1  0.15851485  0.49294945  0.23607870  1
  O  O48  1  0.23978057  0.89798422  0.79364935  1
  O  O49  1  0.24319663  0.91236259  0.10990931  1
  O  O50  1  0.23261351  0.20243269  0.11474326  1
  O  O51  1  0.74621670  0.07936647  0.18458022  1
  O  O52  1  0.73638844  0.09385230  0.89737272  1
  O  O53  1  0.73904189  0.81003377  0.91486958  1
