# generated using pymatgen
data_BaYb2NiO5
_symmetry_space_group_name_H-M   'P 1'
_cell_length_a   3.79854379
_cell_length_b   5.71701213
_cell_length_c   6.41727098
_cell_angle_alpha   116.45138409
_cell_angle_beta   107.21466607
_cell_angle_gamma   90.00031312
_symmetry_Int_Tables_number   1
_chemical_formula_structural   BaYb2NiO5
_chemical_formula_sum   'Ba1 Yb2 Ni1 O5'
_cell_volume   117.75634709
_cell_formula_units_Z   1
loop_
 _symmetry_equiv_pos_site_id
 _symmetry_equiv_pos_as_xyz
  1  'x, y, z'
loop_
 _atom_site_type_symbol
 _atom_site_label
 _atom_site_symmetry_multiplicity
 _atom_site_fract_x
 _atom_site_fract_y
 _atom_site_fract_z
 _atom_site_occupancy
  O  O0  1  0.50000014  0.00000000  0.00000060  1
  O  O1  1  0.13447402  0.90637509  0.26904609  1
  O  O2  1  0.86552813  0.09362686  0.73095963  1
  O  O3  1  0.86553671  0.63734298  0.73097240  1
  O  O4  1  0.13446525  0.36266040  0.26903228  1
  Ni  Ni5  1  -0.00001209  -0.00001177  -0.00002391  1
  Ba  Ba6  1  0.50000638  0.50000607  0.00001184  1
  Yb  Yb7  1  0.29242539  0.79242221  0.58484507  1
  Yb  Yb8  1  0.70757469  0.20757868  0.41515716  1
