# generated using pymatgen
data_TbCu(BO2)5
_symmetry_space_group_name_H-M   'P 1'
_cell_length_a   6.39515729
_cell_length_b   8.32588360
_cell_length_c   8.32588360
_cell_angle_alpha   61.74944414
_cell_angle_beta   67.41505247
_cell_angle_gamma   67.41505243
_symmetry_Int_Tables_number   1
_chemical_formula_structural   TbCu(BO2)5
_chemical_formula_sum   'Tb2 Cu2 B10 O20'
_cell_volume   349.23386057
_cell_formula_units_Z   2
loop_
 _symmetry_equiv_pos_site_id
 _symmetry_equiv_pos_as_xyz
  1  'x, y, z'
loop_
 _atom_site_type_symbol
 _atom_site_label
 _atom_site_symmetry_multiplicity
 _atom_site_fract_x
 _atom_site_fract_y
 _atom_site_fract_z
 _atom_site_occupancy
  B  B0  1  0.30303286  0.69696714  0.69696714  1
  B  B1  1  0.80303286  0.19696714  0.19696714  1
  B  B2  1  0.34048547  0.73451558  0.35571968  1
  B  B3  1  0.56927926  0.35571968  0.73451558  1
  B  B4  1  0.03678128  0.65948850  0.03810342  1
  B  B5  1  0.26562680  0.03810342  0.65948850  1
  B  B6  1  0.76562680  0.15948850  0.53810342  1
  B  B7  1  0.53678128  0.53810342  0.15948850  1
  B  B8  1  0.06927926  0.23451558  0.85571968  1
  B  B9  1  0.84048547  0.85571968  0.23451558  1
  O  O10  1  0.88558544  0.16776729  0.35505990  1
  O  O11  1  0.09158737  0.66776729  0.85505990  1
  O  O12  1  0.90448383  0.82429442  0.06965634  1
  O  O13  1  0.20156541  0.06965634  0.82429442  1
  O  O14  1  0.38558544  0.85505990  0.66776729  1
  O  O15  1  0.40448383  0.56965634  0.32429442  1
  O  O16  1  0.72060813  0.03873139  0.22636266  1
  O  O17  1  0.01429782  0.22636266  0.03873139  1
  O  O18  1  0.51429782  0.53873139  0.72636266  1
  O  O19  1  0.22060813  0.72636266  0.53873139  1
  O  O20  1  0.88421367  0.71626985  0.39846412  1
  O  O21  1  0.00105235  0.39846412  0.71626985  1
  O  O22  1  0.50105235  0.21626985  0.89846412  1
  O  O23  1  0.38421367  0.89846412  0.21626985  1
  O  O24  1  0.10526959  0.49551383  0.17743700  1
  O  O25  1  0.22177959  0.17743700  0.49551383  1
  O  O26  1  0.72177959  0.99551383  0.67743700  1
  O  O27  1  0.60526959  0.67743700  0.99551383  1
  O  O28  1  0.70156541  0.32429442  0.56965634  1
  O  O29  1  0.59158737  0.35505990  0.16776729  1
  Cu  Cu30  1  0.05310229  0.44689771  0.44689771  1
  Cu  Cu31  1  0.55310229  0.94689771  0.94689771  1
  Tb  Tb32  1  0.80304883  0.69695117  0.69695117  1
  Tb  Tb33  1  0.30304883  0.19695117  0.19695117  1
