# generated using pymatgen
data_Gd2SiTeO4
_symmetry_space_group_name_H-M   'P 1'
_cell_length_a   6.23913265
_cell_length_b   7.11513007
_cell_length_c   11.20458827
_cell_angle_alpha   90.00000000
_cell_angle_beta   90.00000000
_cell_angle_gamma   90.00000000
_symmetry_Int_Tables_number   1
_chemical_formula_structural   Gd2SiTeO4
_chemical_formula_sum   'Gd8 Si4 Te4 O16'
_cell_volume   497.39677527
_cell_formula_units_Z   4
loop_
 _symmetry_equiv_pos_site_id
 _symmetry_equiv_pos_as_xyz
  1  'x, y, z'
loop_
 _atom_site_type_symbol
 _atom_site_label
 _atom_site_symmetry_multiplicity
 _atom_site_fract_x
 _atom_site_fract_y
 _atom_site_fract_z
 _atom_site_occupancy
  O  O0  1  0.27311868  0.07276583  0.46650282  1
  O  O1  1  0.27311868  0.42723417  0.53349718  1
  O  O2  1  0.72688132  0.57276583  0.03349718  1
  O  O3  1  0.72688132  0.92723417  0.96650282  1
  O  O4  1  0.72688132  0.92723417  0.53349718  1
  O  O5  1  0.72688132  0.57276583  0.46650282  1
  O  O6  1  0.27311868  0.42723417  0.96650282  1
  O  O7  1  0.27311868  0.07276583  0.03349718  1
  O  O8  1  0.04997610  0.76495391  0.38328556  1
  O  O9  1  0.04997610  0.76495391  0.11671444  1
  O  O10  1  0.95002390  0.26495391  0.11671444  1
  O  O11  1  0.95002390  0.23504609  0.88328556  1
  O  O12  1  0.95002390  0.23504609  0.61671444  1
  O  O13  1  0.95002390  0.26495391  0.38328556  1
  O  O14  1  0.04997610  0.73504609  0.88328556  1
  O  O15  1  0.04997610  0.73504609  0.61671444  1
  Si  Si16  1  0.11484320  0.25000000  0.00000000  1
  Si  Si17  1  0.88515680  0.75000000  0.00000000  1
  Si  Si18  1  0.88515680  0.75000000  0.50000000  1
  Si  Si19  1  0.11484320  0.25000000  0.50000000  1
  Te  Te20  1  0.59134632  0.59230310  0.75000000  1
  Te  Te21  1  0.59134632  0.90769690  0.25000000  1
  Te  Te22  1  0.40865368  0.09230310  0.75000000  1
  Te  Te23  1  0.40865368  0.40769690  0.25000000  1
  Gd  Gd24  1  0.38789378  0.75000000  0.50000000  1
  Gd  Gd25  1  0.38789378  0.75000000  0.00000000  1
  Gd  Gd26  1  0.61210622  0.25000000  0.50000000  1
  Gd  Gd27  1  0.61210622  0.25000000  0.00000000  1
  Gd  Gd28  1  0.88879723  0.96669783  0.75000000  1
  Gd  Gd29  1  0.88879723  0.53330217  0.25000000  1
  Gd  Gd30  1  0.11120277  0.46669783  0.75000000  1
  Gd  Gd31  1  0.11120277  0.03330217  0.25000000  1
