# generated using pymatgen
data_SrSiO3
_symmetry_space_group_name_H-M   'P 1'
_cell_length_a   7.04130972
_cell_length_b   7.03028700
_cell_length_c   9.84897130
_cell_angle_alpha   86.10503410
_cell_angle_beta   69.02064633
_cell_angle_gamma   75.34288484
_symmetry_Int_Tables_number   1
_chemical_formula_structural   SrSiO3
_chemical_formula_sum   'Sr6 Si6 O18'
_cell_volume   440.27522422
_cell_formula_units_Z   6
loop_
 _symmetry_equiv_pos_site_id
 _symmetry_equiv_pos_as_xyz
  1  'x, y, z'
loop_
 _atom_site_type_symbol
 _atom_site_label
 _atom_site_symmetry_multiplicity
 _atom_site_fract_x
 _atom_site_fract_y
 _atom_site_fract_z
 _atom_site_occupancy
  O  O0  1  0.87072321  0.96312487  0.39263813  1
  O  O1  1  0.12927679  0.03687513  0.60736187  1
  O  O2  1  0.64225995  0.85942209  0.26010419  1
  O  O3  1  0.35774005  0.14057791  0.73989581  1
  O  O4  1  0.85734172  0.13452920  0.13717721  1
  O  O5  1  0.14265828  0.86547080  0.86282279  1
  O  O6  1  0.65826339  0.13510679  0.94345608  1
  O  O7  1  0.34173661  0.86489321  0.05654392  1
  O  O8  1  0.91601065  0.38448455  0.91995481  1
  O  O9  1  0.08398935  0.61551545  0.08004519  1
  O  O10  1  0.54802443  0.43710574  0.13990177  1
  O  O11  1  0.45197557  0.56289426  0.86009823  1
  O  O12  1  0.78334791  0.73116499  0.73687735  1
  O  O13  1  0.21665209  0.26883501  0.26312265  1
  O  O14  1  0.47809324  0.77269006  0.62218414  1
  O  O15  1  0.52190676  0.22730994  0.37781586  1
  O  O16  1  0.76669049  0.43176267  0.59902085  1
  O  O17  1  0.23330951  0.56823733  0.40097915  1
  Si  Si18  1  0.72680266  0.03984516  0.29413729  1
  Si  Si19  1  0.27319734  0.96015484  0.70586271  1
  Si  Si20  1  0.74708631  0.26904718  0.02184994  1
  Si  Si21  1  0.25291369  0.73095282  0.97815006  1
  Si  Si22  1  0.37473209  0.37917652  0.29392328  1
  Si  Si23  1  0.62526791  0.62082348  0.70607672  1
  Sr  Sr24  1  0.89026472  0.58518214  0.34548408  1
  Sr  Sr25  1  0.10973528  0.41481786  0.65451592  1
  Sr  Sr26  1  0.74542947  0.08313965  0.66014247  1
  Sr  Sr27  1  0.25457053  0.91686035  0.33985753  1
  Sr  Sr28  1  0.24900878  0.23829683  0.00339211  1
  Sr  Sr29  1  0.75099122  0.76170317  0.99660789  1
