# generated using pymatgen
data_Ba2CdTe3
_symmetry_space_group_name_H-M   'P 1'
_cell_length_a   4.81932540
_cell_length_b   10.01114377
_cell_length_c   19.38172765
_cell_angle_alpha   90.00000000
_cell_angle_beta   90.00000000
_cell_angle_gamma   90.00000000
_symmetry_Int_Tables_number   1
_chemical_formula_structural   Ba2CdTe3
_chemical_formula_sum   'Ba8 Cd4 Te12'
_cell_volume   935.10942807
_cell_formula_units_Z   4
loop_
 _symmetry_equiv_pos_site_id
 _symmetry_equiv_pos_as_xyz
  1  'x, y, z'
loop_
 _atom_site_type_symbol
 _atom_site_label
 _atom_site_symmetry_multiplicity
 _atom_site_fract_x
 _atom_site_fract_y
 _atom_site_fract_z
 _atom_site_occupancy
  Cd  Cd0  1  0.75000000  0.63047672  0.86408205  1
  Cd  Cd1  1  0.25000000  0.86952328  0.36408205  1
  Cd  Cd2  1  0.75000000  0.13047672  0.63591795  1
  Cd  Cd3  1  0.25000000  0.36952328  0.13591795  1
  Te  Te4  1  0.25000000  0.61320830  0.42826671  1
  Te  Te5  1  0.75000000  0.38679170  0.57173329  1
  Te  Te6  1  0.25000000  0.11320830  0.07173329  1
  Te  Te7  1  0.75000000  0.88679170  0.92826671  1
  Te  Te8  1  0.25000000  0.48826124  0.90320022  1
  Te  Te9  1  0.75000000  0.01173876  0.40320022  1
  Te  Te10  1  0.25000000  0.98826124  0.59679978  1
  Te  Te11  1  0.75000000  0.51173876  0.09679978  1
  Te  Te12  1  0.75000000  0.69217331  0.72027652  1
  Te  Te13  1  0.25000000  0.30782669  0.27972348  1
  Te  Te14  1  0.75000000  0.19217331  0.77972348  1
  Te  Te15  1  0.25000000  0.80782669  0.22027652  1
  Ba  Ba16  1  0.25000000  0.75344960  0.03704870  1
  Ba  Ba17  1  0.75000000  0.24655040  0.96295130  1
  Ba  Ba18  1  0.25000000  0.25344960  0.46295130  1
  Ba  Ba19  1  0.75000000  0.74655040  0.53704870  1
  Ba  Ba20  1  0.25000000  0.92636328  0.78543884  1
  Ba  Ba21  1  0.75000000  0.07363672  0.21456116  1
  Ba  Ba22  1  0.25000000  0.42636328  0.71456116  1
  Ba  Ba23  1  0.75000000  0.57363672  0.28543884  1
