# generated using pymatgen
data_Ba3Cr2O8
_symmetry_space_group_name_H-M   'P 1'
_cell_length_a   7.96345241
_cell_length_b   7.96345241
_cell_length_c   7.96345241
_cell_angle_alpha   43.09013596
_cell_angle_beta   43.09013595
_cell_angle_gamma   43.09013596
_symmetry_Int_Tables_number   1
_chemical_formula_structural   Ba3Cr2O8
_chemical_formula_sum   'Ba3 Cr2 O8'
_cell_volume   213.66551992
_cell_formula_units_Z   1
loop_
 _symmetry_equiv_pos_site_id
 _symmetry_equiv_pos_as_xyz
  1  'x, y, z'
loop_
 _atom_site_type_symbol
 _atom_site_label
 _atom_site_symmetry_multiplicity
 _atom_site_fract_x
 _atom_site_fract_y
 _atom_site_fract_z
 _atom_site_occupancy
  O  O0  1  0.67192908  0.67192908  0.67192908  1
  O  O1  1  0.32807092  0.32807092  0.32807092  1
  O  O2  1  0.27351337  0.27351337  0.75699452  1
  O  O3  1  0.27351337  0.75699452  0.27351337  1
  O  O4  1  0.75699452  0.27351337  0.27351337  1
  O  O5  1  0.72648663  0.24300548  0.72648663  1
  O  O6  1  0.72648663  0.72648663  0.24300548  1
  O  O7  1  0.24300548  0.72648663  0.72648663  1
  Cr  Cr8  1  0.59269792  0.59269792  0.59269792  1
  Cr  Cr9  1  0.40730208  0.40730208  0.40730208  1
  Ba  Ba10  1  0.79374309  0.79374309  0.79374309  1
  Ba  Ba11  1  0.20625691  0.20625691  0.20625691  1
  Ba  Ba12  1  0.00000000  0.00000000  0.00000000  1
