# generated using pymatgen
data_SrV6O15
_symmetry_space_group_name_H-M   'P 1'
_cell_length_a   7.38121179
_cell_length_b   10.44807340
_cell_length_c   15.62229214
_cell_angle_alpha   109.97985481
_cell_angle_beta   90.00000000
_cell_angle_gamma   90.00000000
_symmetry_Int_Tables_number   1
_chemical_formula_structural   SrV6O15
_chemical_formula_sum   'Sr4 V24 O60'
_cell_volume   1132.26999929
_cell_formula_units_Z   4
loop_
 _symmetry_equiv_pos_site_id
 _symmetry_equiv_pos_as_xyz
  1  'x, y, z'
loop_
 _atom_site_type_symbol
 _atom_site_label
 _atom_site_symmetry_multiplicity
 _atom_site_fract_x
 _atom_site_fract_y
 _atom_site_fract_z
 _atom_site_occupancy
  O  O0  1  0.61297121  0.31539551  0.85007420  1
  O  O1  1  0.11297121  0.18460449  0.64992580  1
  O  O2  1  0.38702879  0.68460449  0.14992580  1
  O  O3  1  0.88702879  0.81539551  0.35007420  1
  O  O4  1  0.13953728  0.31960440  0.85403567  1
  O  O5  1  0.63953728  0.18039560  0.64596433  1
  O  O6  1  0.86046272  0.68039560  0.14596433  1
  O  O7  1  0.36046272  0.81960440  0.35403567  1
  O  O8  1  0.62794790  0.91960944  0.49223548  1
  O  O9  1  0.12794790  0.58039056  0.00776452  1
  O  O10  1  0.37205210  0.08039056  0.50776452  1
  O  O11  1  0.87205210  0.41960944  0.99223548  1
  O  O12  1  0.12443945  0.92153186  0.50360956  1
  O  O13  1  0.62443945  0.57846814  0.99639044  1
  O  O14  1  0.87556055  0.07846814  0.49639044  1
  O  O15  1  0.37556055  0.42153186  0.00360956  1
  O  O16  1  0.62830098  0.40328973  0.14014559  1
  O  O17  1  0.12830098  0.09671027  0.35985441  1
  O  O18  1  0.37169902  0.59671027  0.85985441  1
  O  O19  1  0.87169902  0.90328973  0.64014559  1
  O  O20  1  0.12072767  0.40298233  0.13615824  1
  O  O21  1  0.12300326  0.19831948  0.98682301  1
  O  O22  1  0.62072767  0.09701767  0.36384176  1
  O  O23  1  0.37927233  0.90298233  0.63615824  1
  O  O24  1  0.62581368  0.20090654  0.98774055  1
  O  O25  1  0.12581368  0.29909346  0.51225945  1
  O  O26  1  0.37418632  0.79909346  0.01225945  1
  O  O27  1  0.87418632  0.70090654  0.48774055  1
  O  O28  1  0.37507450  0.75392717  0.74999274  1
  O  O29  1  0.87507450  0.74607283  0.75000726  1
  O  O30  1  0.62492550  0.24607283  0.25000726  1
  O  O31  1  0.12492550  0.25392717  0.24999274  1
  O  O32  1  0.37418927  0.98726921  0.93765251  1
  O  O33  1  0.87418927  0.51273079  0.56234749  1
  O  O34  1  0.62581073  0.01273079  0.06234749  1
  O  O35  1  0.12581073  0.48726921  0.43765251  1
  O  O36  1  0.87562200  0.98358860  0.92967790  1
  O  O37  1  0.37562200  0.51641140  0.57032210  1
  O  O38  1  0.12437800  0.01641140  0.07032210  1
  O  O39  1  0.62437800  0.48358860  0.42967790  1
  O  O40  1  0.37530678  0.18696526  0.11621323  1
  O  O41  1  0.87530678  0.31303474  0.38378677  1
  O  O42  1  0.62469322  0.81303474  0.88378677  1
  O  O43  1  0.12469322  0.68696526  0.61621323  1
  O  O44  1  0.87449498  0.18558102  0.11631519  1
  O  O45  1  0.37449498  0.31441898  0.38368481  1
  O  O46  1  0.12550502  0.81441898  0.88368481  1
  O  O47  1  0.62550502  0.68558102  0.61631519  1
  O  O48  1  0.35874615  0.53294303  0.31353675  1
  O  O49  1  0.85874615  0.96705697  0.18646325  1
  O  O50  1  0.64125385  0.46705697  0.68646325  1
  O  O51  1  0.14125385  0.03294303  0.81353675  1
  O  O52  1  0.89135283  0.53281255  0.31548972  1
  O  O53  1  0.39135283  0.96718745  0.18451028  1
  O  O54  1  0.10864717  0.46718745  0.68451028  1
  O  O55  1  0.60864717  0.03281255  0.81548972  1
  O  O56  1  0.37699674  0.69831948  0.48682301  1
  O  O57  1  0.87699674  0.80168052  0.01317699  1
  O  O58  1  0.62300326  0.30168052  0.51317699  1
  O  O59  1  0.87927233  0.59701767  0.86384176  1
  V  V60  1  0.61929403  0.37766505  0.96460871  1
  V  V61  1  0.11929403  0.12233495  0.53539129  1
  V  V62  1  0.38070597  0.62233495  0.03539129  1
  V  V63  1  0.88070597  0.87766505  0.46460871  1
  V  V64  1  0.12540154  0.37809208  0.96854711  1
  V  V65  1  0.62540154  0.12190792  0.53145289  1
  V  V66  1  0.87459846  0.62190792  0.03145289  1
  V  V67  1  0.37459846  0.87809208  0.46854711  1
  V  V68  1  0.62550623  0.24286081  0.13013960  1
  V  V69  1  0.12550623  0.25713919  0.36986040  1
  V  V70  1  0.37449377  0.75713919  0.86986040  1
  V  V71  1  0.87449377  0.74286081  0.63013960  1
  V  V72  1  0.12430444  0.24127361  0.13351897  1
  V  V73  1  0.62430444  0.25872639  0.36648103  1
  V  V74  1  0.87569556  0.75872639  0.86648103  1
  V  V75  1  0.37569556  0.74127361  0.63351897  1
  V  V76  1  0.62456927  0.02054112  0.91686362  1
  V  V77  1  0.12456927  0.47945888  0.58313638  1
  V  V78  1  0.37543073  0.97945888  0.08313638  1
  V  V79  1  0.87543073  0.52054112  0.41686362  1
  V  V80  1  0.12635142  0.02126491  0.91499886  1
  V  V81  1  0.62635142  0.47873509  0.58500114  1
  V  V82  1  0.87364858  0.97873509  0.08500114  1
  V  V83  1  0.37364858  0.52126491  0.41499886  1
  Sr  Sr84  1  0.12320753  0.65308988  0.24472870  1
  Sr  Sr85  1  0.62320753  0.84691012  0.25527130  1
  Sr  Sr86  1  0.87679247  0.34691012  0.75527130  1
  Sr  Sr87  1  0.37679247  0.15308988  0.74472870  1
