# generated using pymatgen
data_Sr2ZnWO6
_symmetry_space_group_name_H-M   'P 1'
_cell_length_a   5.70709570
_cell_length_b   5.70709570
_cell_length_c   5.70709570
_cell_angle_alpha   60.00000002
_cell_angle_beta   60.00000001
_cell_angle_gamma   60.00000002
_symmetry_Int_Tables_number   1
_chemical_formula_structural   Sr2ZnWO6
_chemical_formula_sum   'Sr2 Zn1 W1 O6'
_cell_volume   131.44088303
_cell_formula_units_Z   1
loop_
 _symmetry_equiv_pos_site_id
 _symmetry_equiv_pos_as_xyz
  1  'x, y, z'
loop_
 _atom_site_type_symbol
 _atom_site_label
 _atom_site_symmetry_multiplicity
 _atom_site_fract_x
 _atom_site_fract_y
 _atom_site_fract_z
 _atom_site_occupancy
  O  O0  1  0.24103413  0.75896587  0.75896587  1
  O  O1  1  0.24103413  0.75896587  0.24103413  1
  O  O2  1  0.75896587  0.24103413  0.75896587  1
  O  O3  1  0.24103413  0.24103413  0.75896587  1
  O  O4  1  0.75896587  0.24103413  0.24103413  1
  O  O5  1  0.75896587  0.75896587  0.24103413  1
  Zn  Zn6  1  0.50000000  0.50000000  0.50000000  1
  Sr  Sr7  1  0.25000000  0.25000000  0.25000000  1
  Sr  Sr8  1  0.75000000  0.75000000  0.75000000  1
  W  W9  1  0.00000000  0.00000000  0.00000000  1
