# generated using pymatgen
data_ZnPb2F6
_symmetry_space_group_name_H-M   'P 1'
_cell_length_a   5.74180958
_cell_length_b   5.74180958
_cell_length_c   16.40590631
_cell_angle_alpha   90.00000000
_cell_angle_beta   90.00000000
_cell_angle_gamma   90.00000000
_symmetry_Int_Tables_number   1
_chemical_formula_structural   ZnPb2F6
_chemical_formula_sum   'Zn4 Pb8 F24'
_cell_volume   540.87610841
_cell_formula_units_Z   4
loop_
 _symmetry_equiv_pos_site_id
 _symmetry_equiv_pos_as_xyz
  1  'x, y, z'
loop_
 _atom_site_type_symbol
 _atom_site_label
 _atom_site_symmetry_multiplicity
 _atom_site_fract_x
 _atom_site_fract_y
 _atom_site_fract_z
 _atom_site_occupancy
  F  F0  1  0.75000000  0.75000000  0.75833142  1
  F  F1  1  0.75000000  0.75000000  0.25833142  1
  F  F2  1  0.25000000  0.25000000  0.74166858  1
  F  F3  1  0.25000000  0.25000000  0.24166858  1
  F  F4  1  0.75000000  0.25000000  0.25000000  1
  F  F5  1  0.25000000  0.75000000  0.75000000  1
  F  F6  1  0.25000000  0.75000000  0.25000000  1
  F  F7  1  0.75000000  0.25000000  0.75000000  1
  F  F8  1  0.75000000  0.75000000  0.96019036  1
  F  F9  1  0.75000000  0.75000000  0.46019036  1
  F  F10  1  0.25000000  0.25000000  0.53980964  1
  F  F11  1  0.25000000  0.25000000  0.03980964  1
  F  F12  1  0.06311581  0.06311581  0.38056277  1
  F  F13  1  0.43688419  0.06311581  0.88056277  1
  F  F14  1  0.06311581  0.43688419  0.88056277  1
  F  F15  1  0.56311581  0.93688419  0.11943723  1
  F  F16  1  0.93688419  0.56311581  0.11943723  1
  F  F17  1  0.43688419  0.43688419  0.38056277  1
  F  F18  1  0.56311581  0.56311581  0.61943723  1
  F  F19  1  0.93688419  0.93688419  0.61943723  1
  F  F20  1  0.75000000  0.25000000  0.00000000  1
  F  F21  1  0.25000000  0.75000000  0.50000000  1
  F  F22  1  0.25000000  0.75000000  0.00000000  1
  F  F23  1  0.75000000  0.25000000  0.50000000  1
  Zn  Zn24  1  0.50000000  0.50000000  0.50000000  1
  Zn  Zn25  1  0.00000000  0.50000000  0.00000000  1
  Zn  Zn26  1  0.50000000  0.00000000  0.00000000  1
  Zn  Zn27  1  0.00000000  0.00000000  0.50000000  1
  Pb  Pb28  1  0.01184309  0.01184309  0.84278371  1
  Pb  Pb29  1  0.48815691  0.48815691  0.84278371  1
  Pb  Pb30  1  0.51184309  0.51184309  0.15721629  1
  Pb  Pb31  1  0.01184309  0.48815691  0.34278371  1
  Pb  Pb32  1  0.48815691  0.01184309  0.34278371  1
  Pb  Pb33  1  0.98815691  0.51184309  0.65721629  1
  Pb  Pb34  1  0.51184309  0.98815691  0.65721629  1
  Pb  Pb35  1  0.98815691  0.98815691  0.15721629  1
