# generated using pymatgen
data_BaEr2NiO5
_symmetry_space_group_name_H-M   'P 1'
_cell_length_a   3.78097469
_cell_length_b   5.76704051
_cell_length_c   6.63639110
_cell_angle_alpha   115.75356217
_cell_angle_beta   106.55088544
_cell_angle_gamma   90.00000001
_symmetry_Int_Tables_number   1
_chemical_formula_structural   BaEr2NiO5
_chemical_formula_sum   'Ba1 Er2 Ni1 O5'
_cell_volume   123.64253366
_cell_formula_units_Z   1
loop_
 _symmetry_equiv_pos_site_id
 _symmetry_equiv_pos_as_xyz
  1  'x, y, z'
loop_
 _atom_site_type_symbol
 _atom_site_label
 _atom_site_symmetry_multiplicity
 _atom_site_fract_x
 _atom_site_fract_y
 _atom_site_fract_z
 _atom_site_occupancy
  O  O0  1  0.49999989  0.00000000  0.99999934  1
  O  O1  1  0.15100127  0.91148183  0.30200401  1
  O  O2  1  0.84899804  0.08851755  0.69799607  1
  O  O3  1  0.84899713  0.60947820  0.69799539  1
  O  O4  1  0.15100218  0.39052118  0.30200470  1
  Ni  Ni5  1  0.00000000  0.00000000  0.00000000  1
  Ba  Ba6  1  0.50000067  0.50000072  0.99999986  1
  Er  Er7  1  0.29661794  0.79661841  0.59323584  1
  Er  Er8  1  0.70338177  0.20338292  0.40676504  1
