# generated using pymatgen
data_Cu3As
_symmetry_space_group_name_H-M   'P 1'
_cell_length_a   8.35458508
_cell_length_b   8.35458508
_cell_length_c   8.35458508
_cell_angle_alpha   109.47122061
_cell_angle_beta   109.47122062
_cell_angle_gamma   109.47122068
_symmetry_Int_Tables_number   1
_chemical_formula_structural   Cu3As
_chemical_formula_sum   'Cu24 As8'
_cell_volume   448.90326811
_cell_formula_units_Z   8
loop_
 _symmetry_equiv_pos_site_id
 _symmetry_equiv_pos_as_xyz
  1  'x, y, z'
loop_
 _atom_site_type_symbol
 _atom_site_label
 _atom_site_symmetry_multiplicity
 _atom_site_fract_x
 _atom_site_fract_y
 _atom_site_fract_z
 _atom_site_occupancy
  Cu  Cu0  1  0.69489855  0.35214973  0.78421177  1
  Cu  Cu1  1  0.14785027  0.84274882  0.43206204  1
  Cu  Cu2  1  0.71578823  0.06793796  0.91068678  1
  Cu  Cu3  1  0.80510145  0.58931322  0.65725118  1
  Cu  Cu4  1  0.58931322  0.65725118  0.80510145  1
  Cu  Cu5  1  0.65725118  0.80510145  0.58931322  1
  Cu  Cu6  1  0.19489855  0.28421177  0.85214973  1
  Cu  Cu7  1  0.93206204  0.34274882  0.64785027  1
  Cu  Cu8  1  0.30510145  0.15725118  0.08931322  1
  Cu  Cu9  1  0.84274882  0.43206204  0.14785027  1
  Cu  Cu10  1  0.78421177  0.69489855  0.35214973  1
  Cu  Cu11  1  0.35214973  0.78421177  0.69489855  1
  Cu  Cu12  1  0.91068678  0.71578823  0.06793796  1
  Cu  Cu13  1  0.06793796  0.91068678  0.71578823  1
  Cu  Cu14  1  0.43206204  0.14785027  0.84274882  1
  Cu  Cu15  1  0.21578823  0.41068678  0.56793796  1
  Cu  Cu16  1  0.64785027  0.93206204  0.34274882  1
  Cu  Cu17  1  0.28421177  0.85214973  0.19489855  1
  Cu  Cu18  1  0.41068678  0.56793796  0.21578823  1
  Cu  Cu19  1  0.34274882  0.64785027  0.93206204  1
  Cu  Cu20  1  0.85214973  0.19489855  0.28421177  1
  Cu  Cu21  1  0.08931322  0.30510145  0.15725118  1
  Cu  Cu22  1  0.15725118  0.08931322  0.30510145  1
  Cu  Cu23  1  0.56793796  0.21578823  0.41068678  1
  As  As24  1  0.43725644  0.43725644  0.43725644  1
  As  As25  1  0.56274356  0.50000000  0.00000000  1
  As  As26  1  0.50000000  0.00000000  0.56274356  1
  As  As27  1  0.00000000  0.56274356  0.50000000  1
  As  As28  1  0.50000000  0.00000000  0.06274356  1
  As  As29  1  0.00000000  0.06274356  0.50000000  1
  As  As30  1  0.06274356  0.50000000  0.00000000  1
  As  As31  1  0.93725644  0.93725644  0.93725644  1
