# generated using pymatgen
data_SrV4O9
_symmetry_space_group_name_H-M   'P 1'
_cell_length_a   5.55850684
_cell_length_b   8.46943612
_cell_length_c   8.46943612
_cell_angle_alpha   90.00000000
_cell_angle_beta   90.00000000
_cell_angle_gamma   90.00000000
_symmetry_Int_Tables_number   1
_chemical_formula_structural   SrV4O9
_chemical_formula_sum   'Sr2 V8 O18'
_cell_volume   398.71918956
_cell_formula_units_Z   2
loop_
 _symmetry_equiv_pos_site_id
 _symmetry_equiv_pos_as_xyz
  1  'x, y, z'
loop_
 _atom_site_type_symbol
 _atom_site_label
 _atom_site_symmetry_multiplicity
 _atom_site_fract_x
 _atom_site_fract_y
 _atom_site_fract_z
 _atom_site_occupancy
  O  O0  1  0.50000000  0.75000000  0.25000000  1
  O  O1  1  0.50000000  0.25000000  0.75000000  1
  O  O2  1  0.09322752  0.67732383  0.00153860  1
  O  O3  1  0.09322752  0.49846140  0.67732383  1
  O  O4  1  0.09322752  0.00153860  0.82267617  1
  O  O5  1  0.09322752  0.82267617  0.49846140  1
  O  O6  1  0.90677248  0.32267617  0.99846140  1
  O  O7  1  0.90677248  0.50153860  0.32267617  1
  O  O8  1  0.90677248  0.99846140  0.17732383  1
  O  O9  1  0.90677248  0.17732383  0.50153860  1
  O  O10  1  0.46229321  0.04176983  0.35751179  1
  O  O11  1  0.46229321  0.14248821  0.04176983  1
  O  O12  1  0.46229321  0.35751179  0.45823017  1
  O  O13  1  0.46229321  0.45823017  0.14248821  1
  O  O14  1  0.53770679  0.95823017  0.64248821  1
  O  O15  1  0.53770679  0.85751179  0.95823017  1
  O  O16  1  0.53770679  0.64248821  0.54176983  1
  O  O17  1  0.53770679  0.54176983  0.85751179  1
  V  V18  1  0.38407793  0.65973619  0.03524810  1
  V  V19  1  0.38407793  0.46475190  0.65973619  1
  V  V20  1  0.38407793  0.03524810  0.84026381  1
  V  V21  1  0.38407793  0.84026381  0.46475190  1
  V  V22  1  0.61592207  0.34026381  0.96475190  1
  V  V23  1  0.61592207  0.53524810  0.34026381  1
  V  V24  1  0.61592207  0.96475190  0.15973619  1
  V  V25  1  0.61592207  0.15973619  0.53524810  1
  Sr  Sr26  1  0.85940521  0.75000000  0.75000000  1
  Sr  Sr27  1  0.14059479  0.25000000  0.25000000  1
