# generated using pymatgen
data_BaTm2NiO5
_symmetry_space_group_name_H-M   'P 1'
_cell_length_a   3.77038422
_cell_length_b   5.74027907
_cell_length_c   6.60388842
_cell_angle_alpha   115.76070741
_cell_angle_beta   106.58676450
_cell_angle_gamma   89.99999999
_symmetry_Int_Tables_number   1
_chemical_formula_structural   BaTm2NiO5
_chemical_formula_sum   'Ba1 Tm2 Ni1 O5'
_cell_volume   122.08620709
_cell_formula_units_Z   1
loop_
 _symmetry_equiv_pos_site_id
 _symmetry_equiv_pos_as_xyz
  1  'x, y, z'
loop_
 _atom_site_type_symbol
 _atom_site_label
 _atom_site_symmetry_multiplicity
 _atom_site_fract_x
 _atom_site_fract_y
 _atom_site_fract_z
 _atom_site_occupancy
  O  O0  1  0.50000099  1.00000000  0.00000078  1
  O  O1  1  0.15185159  0.91239334  0.30370157  1
  O  O2  1  0.84815007  0.08760705  0.69629937  1
  O  O3  1  0.84814867  0.60869271  0.69629864  1
  O  O4  1  0.15185021  0.39130768  0.30370034  1
  Ni  Ni5  1  0.00000000  0.00000000  0.00000000  1
  Ba  Ba6  1  0.49999927  0.50000012  0.99999972  1
  Tm  Tm7  1  0.29649353  0.79649439  0.59298769  1
  Tm  Tm8  1  0.70350535  0.20350600  0.40701280  1
