# generated using pymatgen
data_PbO
_symmetry_space_group_name_H-M   'P 1'
_cell_length_a   4.81682147
_cell_length_b   5.72835989
_cell_length_c   6.14762153
_cell_angle_alpha   90.00000000
_cell_angle_beta   90.00000000
_cell_angle_gamma   90.00000000
_symmetry_Int_Tables_number   1
_chemical_formula_structural   PbO
_chemical_formula_sum   'Pb4 O4'
_cell_volume   169.62816657
_cell_formula_units_Z   4
loop_
 _symmetry_equiv_pos_site_id
 _symmetry_equiv_pos_as_xyz
  1  'x, y, z'
loop_
 _atom_site_type_symbol
 _atom_site_label
 _atom_site_symmetry_multiplicity
 _atom_site_fract_x
 _atom_site_fract_y
 _atom_site_fract_z
 _atom_site_occupancy
  O  O0  1  0.75000000  0.90607825  0.13208366  1
  O  O1  1  0.25000000  0.09392175  0.86791634  1
  O  O2  1  0.75000000  0.40607825  0.86791634  1
  O  O3  1  0.25000000  0.59392175  0.13208366  1
  Pb  Pb4  1  0.75000000  0.01797237  0.77880495  1
  Pb  Pb5  1  0.25000000  0.98202763  0.22119505  1
  Pb  Pb6  1  0.75000000  0.51797237  0.22119505  1
  Pb  Pb7  1  0.25000000  0.48202763  0.77880495  1
