# generated using pymatgen
data_KSn2I5
_symmetry_space_group_name_H-M   'P 1'
_cell_length_a   9.01044989
_cell_length_b   9.01044989
_cell_length_c   10.24725067
_cell_angle_alpha   116.08168380
_cell_angle_beta   116.08168377
_cell_angle_gamma   89.99999999
_symmetry_Int_Tables_number   1
_chemical_formula_structural   KSn2I5
_chemical_formula_sum   'K2 Sn4 I10'
_cell_volume   651.59311605
_cell_formula_units_Z   2
loop_
 _symmetry_equiv_pos_site_id
 _symmetry_equiv_pos_as_xyz
  1  'x, y, z'
loop_
 _atom_site_type_symbol
 _atom_site_label
 _atom_site_symmetry_multiplicity
 _atom_site_fract_x
 _atom_site_fract_y
 _atom_site_fract_z
 _atom_site_occupancy
  K  K0  1  0.25000000  0.25000000  0.50000000  1
  K  K1  1  0.75000000  0.75000000  0.50000000  1
  Sn  Sn2  1  0.17776443  0.67776443  0.00000000  1
  Sn  Sn3  1  0.32223557  0.17776443  0.00000000  1
  Sn  Sn4  1  0.67776443  0.82223557  0.00000000  1
  Sn  Sn5  1  0.82223557  0.32223557  0.00000000  1
  I  I6  1  0.00000000  0.00000000  0.00000000  1
  I  I7  1  0.50000000  0.50000000  0.00000000  1
  I  I8  1  0.52330507  0.02330507  0.72912649  1
  I  I9  1  0.70582142  0.52330507  0.72912649  1
  I  I10  1  0.02330507  0.20582142  0.72912649  1
  I  I11  1  0.29417858  0.47669493  0.27087351  1
  I  I12  1  0.97669493  0.79417858  0.27087351  1
  I  I13  1  0.79417858  0.29417858  0.27087351  1
  I  I14  1  0.47669493  0.97669493  0.27087351  1
  I  I15  1  0.20582142  0.70582142  0.72912649  1
