# generated using pymatgen
data_U2Co2Sn
_symmetry_space_group_name_H-M   'P 1'
_cell_length_a   3.38660672
_cell_length_b   7.35523967
_cell_length_c   7.35523967
_cell_angle_alpha   90.00000000
_cell_angle_beta   90.00000000
_cell_angle_gamma   90.00000000
_symmetry_Int_Tables_number   1
_chemical_formula_structural   U2Co2Sn
_chemical_formula_sum   'U4 Co4 Sn2'
_cell_volume   183.21390162
_cell_formula_units_Z   2
loop_
 _symmetry_equiv_pos_site_id
 _symmetry_equiv_pos_as_xyz
  1  'x, y, z'
loop_
 _atom_site_type_symbol
 _atom_site_label
 _atom_site_symmetry_multiplicity
 _atom_site_fract_x
 _atom_site_fract_y
 _atom_site_fract_z
 _atom_site_occupancy
  Co  Co0  1  0.00000000  0.13465448  0.36534552  1
  Co  Co1  1  0.00000000  0.36534552  0.86534552  1
  Co  Co2  1  0.00000000  0.63465448  0.13465448  1
  Co  Co3  1  0.00000000  0.86534552  0.63465448  1
  Sn  Sn4  1  0.00000000  0.00000000  0.00000000  1
  Sn  Sn5  1  0.00000000  0.50000000  0.50000000  1
  U  U6  1  0.50000000  0.83465303  0.33465303  1
  U  U7  1  0.50000000  0.66534697  0.83465303  1
  U  U8  1  0.50000000  0.33465303  0.16534697  1
  U  U9  1  0.50000000  0.16534697  0.66534697  1
