# generated using pymatgen
data_Nd2Si3Ni
_symmetry_space_group_name_H-M   'P 1'
_cell_length_a   4.07806876
_cell_length_b   4.07492805
_cell_length_c   8.42158233
_cell_angle_alpha   90.00000000
_cell_angle_beta   90.00000000
_cell_angle_gamma   120.07311543
_symmetry_Int_Tables_number   1
_chemical_formula_structural   Nd2Si3Ni
_chemical_formula_sum   'Nd2 Si3 Ni1'
_cell_volume   121.10954618
_cell_formula_units_Z   1
loop_
 _symmetry_equiv_pos_site_id
 _symmetry_equiv_pos_as_xyz
  1  'x, y, z'
loop_
 _atom_site_type_symbol
 _atom_site_label
 _atom_site_symmetry_multiplicity
 _atom_site_fract_x
 _atom_site_fract_y
 _atom_site_fract_z
 _atom_site_occupancy
  Nd  Nd0  1  0.00000104  0.99996595  0.00955642  1
  Nd  Nd1  1  0.00000104  0.99996595  0.49044358  1
  Si  Si2  1  0.33329108  0.66745143  0.75000000  1
  Si  Si3  1  0.66667920  0.33340746  0.25000000  1
  Si  Si4  1  0.66652940  0.33263274  0.75000000  1
  Ni  Ni5  1  0.33329824  0.66657647  0.25000000  1
