# generated using pymatgen
data_CeSe2
_symmetry_space_group_name_H-M   'P 1'
_cell_length_a   11.13967204
_cell_length_b   8.21116776
_cell_length_c   17.18588716
_cell_angle_alpha   90.00000000
_cell_angle_beta   90.00000000
_cell_angle_gamma   88.44051602
_symmetry_Int_Tables_number   1
_chemical_formula_structural   CeSe2
_chemical_formula_sum   'Ce16 Se32'
_cell_volume   1571.40596645
_cell_formula_units_Z   16
loop_
 _symmetry_equiv_pos_site_id
 _symmetry_equiv_pos_as_xyz
  1  'x, y, z'
loop_
 _atom_site_type_symbol
 _atom_site_label
 _atom_site_symmetry_multiplicity
 _atom_site_fract_x
 _atom_site_fract_y
 _atom_site_fract_z
 _atom_site_occupancy
  Ce  Ce0  1  0.61862817  0.30867402  0.65920459  1
  Ce  Ce1  1  0.38137183  0.19132598  0.15920459  1
  Ce  Ce2  1  0.38137183  0.69132598  0.34079541  1
  Ce  Ce3  1  0.61862817  0.80867402  0.84079541  1
  Ce  Ce4  1  0.82253175  0.70173932  0.63269289  1
  Ce  Ce5  1  0.17746825  0.79826068  0.13269289  1
  Ce  Ce6  1  0.17746825  0.29826068  0.36730711  1
  Ce  Ce7  1  0.82253175  0.20173932  0.86730711  1
  Ce  Ce8  1  0.15562133  0.84911741  0.52178204  1
  Ce  Ce9  1  0.84437867  0.65088259  0.02178204  1
  Ce  Ce10  1  0.84437867  0.15088259  0.47821796  1
  Ce  Ce11  1  0.15562133  0.34911741  0.97821796  1
  Ce  Ce12  1  0.31091441  0.13221243  0.77845120  1
  Ce  Ce13  1  0.68908559  0.36778757  0.27845120  1
  Ce  Ce14  1  0.68908559  0.86778757  0.22154880  1
  Ce  Ce15  1  0.31091441  0.63221243  0.72154880  1
  Se  Se16  1  0.35998341  0.33262211  0.64654650  1
  Se  Se17  1  0.64001659  0.16737789  0.14654650  1
  Se  Se18  1  0.64001659  0.66737789  0.35345350  1
  Se  Se19  1  0.35998341  0.83262211  0.85345350  1
  Se  Se20  1  0.72660020  0.45139068  0.52815053  1
  Se  Se21  1  0.27339980  0.04860932  0.02815053  1
  Se  Se22  1  0.27339980  0.54860932  0.47184947  1
  Se  Se23  1  0.72660020  0.95139068  0.97184947  1
  Se  Se24  1  0.69574624  0.01023010  0.59518368  1
  Se  Se25  1  0.30425376  0.48976990  0.09518368  1
  Se  Se26  1  0.30425376  0.98976990  0.40481632  1
  Se  Se27  1  0.69574624  0.51023010  0.90481632  1
  Se  Se28  1  0.84281422  0.38203706  0.72288099  1
  Se  Se29  1  0.15718578  0.11796294  0.22288099  1
  Se  Se30  1  0.15718578  0.61796294  0.27711901  1
  Se  Se31  1  0.84281422  0.88203706  0.77711901  1
  Se  Se32  1  0.57070932  0.15295198  0.80681225  1
  Se  Se33  1  0.42929068  0.34704802  0.30681225  1
  Se  Se34  1  0.42929068  0.84704802  0.19318775  1
  Se  Se35  1  0.57070932  0.65295198  0.69318775  1
  Se  Se36  1  0.07810423  0.15056745  0.84900138  1
  Se  Se37  1  0.92189577  0.34943255  0.34900138  1
  Se  Se38  1  0.92189577  0.84943255  0.15099862  1
  Se  Se39  1  0.07810423  0.65056745  0.65099862  1
  Se  Se40  1  0.32549789  0.42667918  0.86171614  1
  Se  Se41  1  0.67450211  0.07332082  0.36171614  1
  Se  Se42  1  0.67450211  0.57332082  0.13828386  1
  Se  Se43  1  0.32549789  0.92667918  0.63828386  1
  Se  Se44  1  0.91222953  0.31065876  0.01833245  1
  Se  Se45  1  0.08777047  0.18934124  0.51833245  1
  Se  Se46  1  0.08777047  0.68934124  0.98166755  1
  Se  Se47  1  0.91222953  0.81065876  0.48166755  1
