# generated using pymatgen
data_CaAsH5O6
_symmetry_space_group_name_H-M   'P 1'
_cell_length_a   6.06829006
_cell_length_b   6.31533802
_cell_length_c   8.41560614
_cell_angle_alpha   103.06339820
_cell_angle_beta   101.84574462
_cell_angle_gamma   114.44311028
_symmetry_Int_Tables_number   1
_chemical_formula_structural   CaAsH5O6
_chemical_formula_sum   'Ca2 As2 H10 O12'
_cell_volume   269.28487805
_cell_formula_units_Z   2
loop_
 _symmetry_equiv_pos_site_id
 _symmetry_equiv_pos_as_xyz
  1  'x, y, z'
loop_
 _atom_site_type_symbol
 _atom_site_label
 _atom_site_symmetry_multiplicity
 _atom_site_fract_x
 _atom_site_fract_y
 _atom_site_fract_z
 _atom_site_occupancy
  H  H0  1  0.51792658  0.36956748  0.33433632  1
  H  H1  1  0.68359026  0.03523115  0.66566368  1
  H  H2  1  0.85108759  0.75527841  0.02051490  1
  H  H3  1  0.33057268  0.73476350  0.97948510  1
  H  H4  1  0.10964491  0.84275484  0.17169372  1
  H  H5  1  0.43795119  0.67106112  0.82830628  1
  H  H6  1  0.73164777  0.21443700  0.97979939  1
  H  H7  1  0.25184838  0.23463761  0.02020061  1
  H  H8  1  0.81459635  0.45576379  0.13387315  1
  H  H9  1  0.18072320  0.32189064  0.86612685  1
  O  O10  1  0.79014643  0.28620191  0.10746376  1
  O  O11  1  0.28294627  0.67259480  0.85067786  1
  O  O12  1  0.93226841  0.82191694  0.14932214  1
  O  O13  1  0.18268268  0.17873815  0.89253624  1
  O  O14  1  0.38698260  0.39030657  0.25078108  1
  O  O15  1  0.63620152  0.13952549  0.74921892  1
  O  O16  1  0.18526500  0.61950003  0.44307942  1
  O  O17  1  0.24218558  0.17642061  0.55692058  1
  O  O18  1  0.39881986  0.82707269  0.20154810  1
  O  O19  1  0.69727176  0.62552459  0.79845190  1
  O  O20  1  0.72373756  0.87526615  0.50112023  1
  O  O21  1  0.72261733  0.37414592  0.49887977  1
  Ca  Ca22  1  0.91118403  0.16418719  0.34481311  1
  Ca  Ca23  1  0.06637092  0.81937408  0.65518689  1
  As  As24  1  0.41850972  0.68796383  0.35108831  1
  As  As25  1  0.56742141  0.33687552  0.64891169  1
