# generated using pymatgen
data_CaH12(ClO3)2
_symmetry_space_group_name_H-M   'P 1'
_cell_length_a   7.88405480
_cell_length_b   7.88405480
_cell_length_c   4.03027960
_cell_angle_alpha   90.00000000
_cell_angle_beta   90.00000000
_cell_angle_gamma   120.00000001
_symmetry_Int_Tables_number   1
_chemical_formula_structural   CaH12(ClO3)2
_chemical_formula_sum   'Ca1 H12 Cl2 O6'
_cell_volume   216.95270855
_cell_formula_units_Z   1
loop_
 _symmetry_equiv_pos_site_id
 _symmetry_equiv_pos_as_xyz
  1  'x, y, z'
loop_
 _atom_site_type_symbol
 _atom_site_label
 _atom_site_symmetry_multiplicity
 _atom_site_fract_x
 _atom_site_fract_y
 _atom_site_fract_z
 _atom_site_occupancy
  H  H0  1  0.11383220  0.76568366  0.51937842  1
  H  H1  1  0.23431634  0.34814854  0.51937842  1
  H  H2  1  0.65185146  0.88616780  0.51937842  1
  H  H3  1  0.34814854  0.23431634  0.48062158  1
  H  H4  1  0.88616780  0.65185146  0.48062158  1
  H  H5  1  0.76568366  0.11383220  0.48062158  1
  H  H6  1  0.10013603  0.43614840  0.09961766  1
  H  H7  1  0.56385160  0.66398763  0.09961766  1
  H  H8  1  0.33601237  0.89986397  0.09961766  1
  H  H9  1  0.43614840  0.10013603  0.90038234  1
  H  H10  1  0.89986397  0.33601237  0.90038234  1
  H  H11  1  0.66398763  0.56385160  0.90038234  1
  O  O12  1  0.21469768  0.21469768  0.50000000  1
  O  O13  1  0.00000000  0.78530232  0.50000000  1
  O  O14  1  0.78530232  0.00000000  0.50000000  1
  O  O15  1  0.68850674  0.68850674  0.00000000  1
  O  O16  1  0.00000000  0.31149326  0.00000000  1
  O  O17  1  0.31149326  0.00000000  0.00000000  1
  Cl  Cl18  1  0.66666667  0.33333333  0.60060817  1
  Cl  Cl19  1  0.33333333  0.66666667  0.39939183  1
  Ca  Ca20  1  0.00000000  0.00000000  0.00000000  1
