# generated using pymatgen
data_Si3H9N
_symmetry_space_group_name_H-M   'P 1'
_cell_length_a   7.03683444
_cell_length_b   7.09494889
_cell_length_c   8.50191411
_cell_angle_alpha   95.40611047
_cell_angle_beta   99.37999107
_cell_angle_gamma   118.78240005
_symmetry_Int_Tables_number   1
_chemical_formula_structural   Si3H9N
_chemical_formula_sum   'Si6 H18 N2'
_cell_volume   359.65777282
_cell_formula_units_Z   2
loop_
 _symmetry_equiv_pos_site_id
 _symmetry_equiv_pos_as_xyz
  1  'x, y, z'
loop_
 _atom_site_type_symbol
 _atom_site_label
 _atom_site_symmetry_multiplicity
 _atom_site_fract_x
 _atom_site_fract_y
 _atom_site_fract_z
 _atom_site_occupancy
  H  H0  1  0.37325893  0.79411622  0.26582761  1
  H  H1  1  0.62674107  0.20588378  0.73417239  1
  H  H2  1  0.74092932  0.91324450  0.43742276  1
  H  H3  1  0.25907068  0.08675550  0.56257724  1
  H  H4  1  0.69324927  0.89269974  0.14711453  1
  H  H5  1  0.30675073  0.10730026  0.85288547  1
  H  H6  1  0.12366378  0.31202917  0.34030721  1
  H  H7  1  0.87633622  0.68797083  0.65969279  1
  H  H8  1  0.30155818  0.69890653  0.60579940  1
  H  H9  1  0.69844182  0.30109347  0.39420060  1
  H  H10  1  0.06021759  0.35140727  0.67846712  1
  H  H11  1  0.93978241  0.64859273  0.32153288  1
  H  H12  1  0.29327221  0.68293134  0.88769939  1
  H  H13  1  0.70672779  0.31706866  0.11230061  1
  H  H14  1  0.77676457  0.91154118  0.82363951  1
  H  H15  1  0.22323543  0.08845882  0.17636049  1
  H  H16  1  0.89981766  0.67879498  0.94570775  1
  H  H17  1  0.10018234  0.32120502  0.05429225  1
  N  N18  1  0.48914550  0.48924537  0.75032475  1
  N  N19  1  0.51085450  0.51075463  0.24967525  1
  Si  Si20  1  0.23060117  0.30330304  0.20352147  1
  Si  Si21  1  0.76939883  0.69669696  0.79647853  1
  Si  Si22  1  0.71910233  0.44080592  0.26947013  1
  Si  Si23  1  0.28089767  0.55919408  0.73052987  1
  Si  Si24  1  0.41659215  0.21339695  0.72382764  1
  Si  Si25  1  0.58340785  0.78660305  0.27617236  1
