# generated using pymatgen
data_NaB(H4O)2
_symmetry_space_group_name_H-M   'P 1'
_cell_length_a   6.89343867
_cell_length_b   10.32036638
_cell_length_c   12.06755544
_cell_angle_alpha   90.00000000
_cell_angle_beta   90.00000000
_cell_angle_gamma   90.00000000
_symmetry_Int_Tables_number   1
_chemical_formula_structural   NaB(H4O)2
_chemical_formula_sum   'Na8 B8 H64 O16'
_cell_volume   858.51983632
_cell_formula_units_Z   8
loop_
 _symmetry_equiv_pos_site_id
 _symmetry_equiv_pos_as_xyz
  1  'x, y, z'
loop_
 _atom_site_type_symbol
 _atom_site_label
 _atom_site_symmetry_multiplicity
 _atom_site_fract_x
 _atom_site_fract_y
 _atom_site_fract_z
 _atom_site_occupancy
  H  H0  1  0.26894060  0.60999955  0.17729286  1
  H  H1  1  0.76894060  0.39000045  0.32270714  1
  H  H2  1  0.23105940  0.10999955  0.82270714  1
  H  H3  1  0.73105940  0.89000045  0.67729286  1
  H  H4  1  0.73105940  0.39000045  0.82270714  1
  H  H5  1  0.23105940  0.60999955  0.67729286  1
  H  H6  1  0.76894060  0.89000045  0.17729286  1
  H  H7  1  0.26894060  0.10999955  0.32270714  1
  H  H8  1  0.01883734  0.51150022  0.18331600  1
  H  H9  1  0.51883734  0.48849978  0.31668400  1
  H  H10  1  0.48116266  0.01150022  0.81668400  1
  H  H11  1  0.98116266  0.98849978  0.68331600  1
  H  H12  1  0.98116266  0.48849978  0.81668400  1
  H  H13  1  0.48116266  0.51150022  0.68331600  1
  H  H14  1  0.51883734  0.98849978  0.18331600  1
  H  H15  1  0.01883734  0.01150022  0.31668400  1
  H  H16  1  0.89403108  0.49021255  0.68145222  1
  H  H17  1  0.39403108  0.50978745  0.81854778  1
  H  H18  1  0.60596892  0.99021255  0.31854778  1
  H  H19  1  0.10596892  0.00978745  0.18145222  1
  H  H20  1  0.10596892  0.50978745  0.31854778  1
  H  H21  1  0.60596892  0.49021255  0.18145222  1
  H  H22  1  0.39403108  0.00978745  0.68145222  1
  H  H23  1  0.89403108  0.99021255  0.81854778  1
  H  H24  1  0.01651132  0.20510201  0.30739736  1
  H  H25  1  0.21260058  0.47530443  0.88813557  1
  H  H26  1  0.78739942  0.02469557  0.38813557  1
  H  H27  1  0.28739942  0.97530443  0.11186443  1
  H  H28  1  0.28739942  0.47530443  0.38813557  1
  H  H29  1  0.78739942  0.52469557  0.11186443  1
  H  H30  1  0.21260058  0.97530443  0.61186443  1
  H  H31  1  0.71260058  0.02469557  0.88813557  1
  H  H32  1  0.01651132  0.70510201  0.19260264  1
  H  H33  1  0.51651132  0.29489799  0.30739736  1
  H  H34  1  0.48348868  0.20510201  0.80739736  1
  H  H35  1  0.98348868  0.79489799  0.69260264  1
  H  H36  1  0.98348868  0.29489799  0.80739736  1
  H  H37  1  0.48348868  0.70510201  0.69260264  1
  H  H38  1  0.51651132  0.79489799  0.19260264  1
  H  H39  1  0.08251432  0.11437886  0.45122557  1
  H  H40  1  0.23318108  0.26715276  0.67758212  1
  H  H41  1  0.73318108  0.73284724  0.82241788  1
  H  H42  1  0.26681892  0.76715276  0.32241788  1
  H  H43  1  0.76681892  0.23284724  0.17758212  1
  H  H44  1  0.76681892  0.73284724  0.32241788  1
  H  H45  1  0.26681892  0.26715276  0.17758212  1
  H  H46  1  0.73318108  0.23284724  0.67758212  1
  H  H47  1  0.23318108  0.76715276  0.82241788  1
  H  H48  1  0.30647672  0.39427691  0.62366070  1
  H  H49  1  0.80647672  0.60572309  0.87633930  1
  H  H50  1  0.19352328  0.89427691  0.37633930  1
  H  H51  1  0.69352328  0.10572309  0.12366070  1
  H  H52  1  0.69352328  0.60572309  0.37633930  1
  H  H53  1  0.19352328  0.39427691  0.12366070  1
  H  H54  1  0.80647672  0.10572309  0.62366070  1
  H  H55  1  0.30647672  0.89427691  0.87633930  1
  H  H56  1  0.08251432  0.61437886  0.04877443  1
  H  H57  1  0.58251432  0.38562114  0.45122557  1
  H  H58  1  0.41748568  0.11437886  0.95122557  1
  H  H59  1  0.91748568  0.88562114  0.54877443  1
  H  H60  1  0.91748568  0.38562114  0.95122557  1
  H  H61  1  0.41748568  0.61437886  0.54877443  1
  H  H62  1  0.58251432  0.88562114  0.04877443  1
  H  H63  1  0.71260058  0.52469557  0.61186443  1
  B  B64  1  0.09771509  0.61229973  0.14992312  1
  B  B65  1  0.59771509  0.38770027  0.35007688  1
  B  B66  1  0.40228491  0.11229973  0.85007688  1
  B  B67  1  0.90228491  0.88770027  0.64992312  1
  B  B68  1  0.90228491  0.38770027  0.85007688  1
  B  B69  1  0.40228491  0.61229973  0.64992312  1
  B  B70  1  0.59771509  0.88770027  0.14992312  1
  B  B71  1  0.09771509  0.11229973  0.35007688  1
  O  O72  1  0.24935567  0.80945769  0.89441905  1
  O  O73  1  0.74935567  0.19054231  0.60558095  1
  O  O74  1  0.25064433  0.30945769  0.10558095  1
  O  O75  1  0.75064433  0.69054231  0.39441905  1
  O  O76  1  0.75064433  0.19054231  0.10558095  1
  O  O77  1  0.25064433  0.80945769  0.39441905  1
  O  O78  1  0.74935567  0.69054231  0.89441905  1
  O  O79  1  0.24935567  0.30945769  0.60558095  1
  O  O80  1  0.85280494  0.00920666  0.89504259  1
  O  O81  1  0.35280494  0.99079334  0.60495741  1
  O  O82  1  0.64719506  0.50920666  0.10495741  1
  O  O83  1  0.14719506  0.49079334  0.39504259  1
  O  O84  1  0.14719506  0.99079334  0.10495741  1
  O  O85  1  0.64719506  0.00920666  0.39504259  1
  O  O86  1  0.35280494  0.49079334  0.89504259  1
  O  O87  1  0.85280494  0.50920666  0.60495741  1
  Na  Na88  1  0.95258920  0.82933116  0.01214671  1
  Na  Na89  1  0.45258920  0.17066884  0.48785329  1
  Na  Na90  1  0.54741080  0.32933116  0.98785329  1
  Na  Na91  1  0.04741080  0.67066884  0.51214671  1
  Na  Na92  1  0.04741080  0.17066884  0.98785329  1
  Na  Na93  1  0.54741080  0.82933116  0.51214671  1
  Na  Na94  1  0.45258920  0.67066884  0.01214671  1
  Na  Na95  1  0.95258920  0.32933116  0.48785329  1
