# generated using pymatgen
data_CaAl2Si2(H2O5)2
_symmetry_space_group_name_H-M   'P 1'
_cell_length_a   5.94890010
_cell_length_b   8.84400315
_cell_length_c   13.17551694
_cell_angle_alpha   90.00000000
_cell_angle_beta   90.00000000
_cell_angle_gamma   90.00000000
_symmetry_Int_Tables_number   1
_chemical_formula_structural   CaAl2Si2(H2O5)2
_chemical_formula_sum   'Ca4 Al8 Si8 H16 O40'
_cell_volume   693.19149916
_cell_formula_units_Z   4
loop_
 _symmetry_equiv_pos_site_id
 _symmetry_equiv_pos_as_xyz
  1  'x, y, z'
loop_
 _atom_site_type_symbol
 _atom_site_label
 _atom_site_symmetry_multiplicity
 _atom_site_fract_x
 _atom_site_fract_y
 _atom_site_fract_z
 _atom_site_occupancy
  H  H0  1  0.27568937  0.83391547  0.10579883  1
  H  H1  1  0.77568937  0.16608453  0.89420117  1
  H  H2  1  0.27568937  0.66608453  0.60579883  1
  H  H3  1  0.77568937  0.33391547  0.39420117  1
  H  H4  1  0.24951587  0.78149601  0.47645991  1
  H  H5  1  0.74951587  0.21850399  0.52354009  1
  H  H6  1  0.24951587  0.71850399  0.97645991  1
  H  H7  1  0.74951587  0.28149601  0.02354009  1
  H  H8  1  0.17837661  0.94449898  0.22339687  1
  H  H9  1  0.67837661  0.05550102  0.77660313  1
  H  H10  1  0.17837661  0.55550102  0.72339687  1
  H  H11  1  0.67837661  0.44449898  0.27660313  1
  H  H12  1  0.25595847  0.87721932  0.33041684  1
  H  H13  1  0.75595847  0.12278068  0.66958316  1
  H  H14  1  0.25595847  0.62278068  0.83041684  1
  H  H15  1  0.75595847  0.37721932  0.16958316  1
  O  O16  1  0.53223357  0.61305029  0.37437142  1
  O  O17  1  0.76110862  0.13984287  0.74619772  1
  O  O18  1  0.26008506  0.87910886  0.03866389  1
  O  O19  1  0.76110862  0.36015713  0.24619772  1
  O  O20  1  0.75662763  0.79911678  0.24874929  1
  O  O21  1  0.25662763  0.20088322  0.75125071  1
  O  O22  1  0.75662763  0.70088322  0.74874929  1
  O  O23  1  0.25662763  0.29911678  0.25125071  1
  O  O24  1  0.03223357  0.11305029  0.12562858  1
  O  O25  1  0.53223357  0.88694971  0.87437142  1
  O  O26  1  0.03223357  0.38694971  0.62562858  1
  O  O27  1  0.26110862  0.86015713  0.25380228  1
  O  O28  1  0.02023600  0.12650800  0.38179929  1
  O  O29  1  0.52023600  0.87349200  0.61820071  1
  O  O30  1  0.02023600  0.37349200  0.88179929  1
  O  O31  1  0.52023600  0.62650800  0.11820071  1
  O  O32  1  0.47511283  0.37109363  0.88569294  1
  O  O33  1  0.97511283  0.62890637  0.11430706  1
  O  O34  1  0.47511283  0.12890637  0.38569294  1
  O  O35  1  0.97511283  0.87109363  0.61430706  1
  O  O36  1  0.47799999  0.37451435  0.61687615  1
  O  O37  1  0.97799999  0.62548565  0.38312385  1
  O  O38  1  0.47799999  0.12548565  0.11687615  1
  O  O39  1  0.97799999  0.87451435  0.88312385  1
  O  O40  1  0.74766662  0.88618488  0.06260890  1
  O  O41  1  0.24766662  0.11381512  0.93739110  1
  O  O42  1  0.74766662  0.61381512  0.56260890  1
  O  O43  1  0.24766662  0.38618488  0.43739110  1
  O  O44  1  0.74330521  0.88342368  0.43432170  1
  O  O45  1  0.24330521  0.11657632  0.56567830  1
  O  O46  1  0.74330521  0.61657632  0.93432170  1
  O  O47  1  0.24330521  0.38342368  0.06567830  1
  O  O48  1  0.74942833  0.38805024  0.04985953  1
  O  O49  1  0.24942833  0.61194976  0.95014047  1
  O  O50  1  0.74942833  0.11194976  0.54985953  1
  O  O51  1  0.24942833  0.88805024  0.45014047  1
  O  O52  1  0.76008506  0.37910886  0.46133611  1
  O  O53  1  0.26008506  0.62089114  0.53866389  1
  O  O54  1  0.76008506  0.12089114  0.96133611  1
  O  O55  1  0.26110862  0.63984287  0.75380228  1
  Al  Al56  1  0.49741703  0.00052806  0.50091976  1
  Al  Al57  1  0.00390647  0.99632846  0.00193753  1
  Al  Al58  1  0.50390647  0.00367154  0.99806247  1
  Al  Al59  1  0.00390647  0.50367154  0.50193753  1
  Al  Al60  1  0.50390647  0.49632846  0.49806247  1
  Al  Al61  1  0.99741703  0.99947194  0.49908024  1
  Al  Al62  1  0.99741703  0.50052806  0.99908024  1
  Al  Al63  1  0.49741703  0.49947194  0.00091976  1
  Si  Si64  1  0.25108272  0.22575254  0.13431883  1
  Si  Si65  1  0.24752422  0.27147432  0.86868988  1
  Si  Si66  1  0.74752422  0.72852568  0.13131012  1
  Si  Si67  1  0.74752422  0.77147432  0.63131012  1
  Si  Si68  1  0.24752422  0.22852568  0.36868988  1
  Si  Si69  1  0.75108272  0.72575254  0.36568117  1
  Si  Si70  1  0.75108272  0.77424746  0.86568117  1
  Si  Si71  1  0.25108272  0.27424746  0.63431883  1
  Ca  Ca72  1  0.23412534  0.58275404  0.24805685  1
  Ca  Ca73  1  0.73412534  0.41724596  0.75194315  1
  Ca  Ca74  1  0.23412534  0.91724596  0.74805685  1
  Ca  Ca75  1  0.73412534  0.08275404  0.25194315  1
