# generated using pymatgen
data_MgAl2P2(HO)18
_symmetry_space_group_name_H-M   'P 1'
_cell_length_a   5.27011553
_cell_length_b   6.97466610
_cell_length_c   10.29531694
_cell_angle_alpha   96.68302090
_cell_angle_beta   101.76536216
_cell_angle_gamma   110.27694169
_symmetry_Int_Tables_number   1
_chemical_formula_structural   MgAl2P2(HO)18
_chemical_formula_sum   'Mg1 Al2 P2 H18 O18'
_cell_volume   340.23385301
_cell_formula_units_Z   1
loop_
 _symmetry_equiv_pos_site_id
 _symmetry_equiv_pos_as_xyz
  1  'x, y, z'
loop_
 _atom_site_type_symbol
 _atom_site_label
 _atom_site_symmetry_multiplicity
 _atom_site_fract_x
 _atom_site_fract_y
 _atom_site_fract_z
 _atom_site_occupancy
  H  H0  1  0.91909350  0.42327057  0.74818185  1
  H  H1  1  0.08090650  0.57672943  0.25181815  1
  H  H2  1  0.09602308  0.65816808  0.82138352  1
  H  H3  1  0.90397692  0.34183192  0.17861648  1
  H  H4  1  0.52702141  0.98900819  0.12321862  1
  H  H5  1  0.69946493  0.05838671  0.79360022  1
  H  H6  1  0.19834326  0.39711493  0.95141027  1
  H  H7  1  0.80165674  0.60288507  0.04858973  1
  H  H8  1  0.33874050  0.40267377  0.10321767  1
  H  H9  1  0.66125950  0.59732623  0.89678233  1
  H  H10  1  0.68498420  0.50574075  0.27692150  1
  H  H11  1  0.31501580  0.49425925  0.72307850  1
  H  H12  1  0.60749959  0.69967790  0.32638105  1
  H  H13  1  0.39250041  0.30032210  0.67361895  1
  H  H14  1  0.83167512  0.32556451  0.48640508  1
  H  H15  1  0.16832488  0.67443549  0.51359492  1
  H  H16  1  0.47297859  0.01099181  0.87678138  1
  H  H17  1  0.30053507  0.94161329  0.20639978  1
  O  O18  1  0.25927032  0.31302653  0.01296981  1
  O  O19  1  0.67781733  0.06283198  0.88769188  1
  O  O20  1  0.32218267  0.93716802  0.11230812  1
  O  O21  1  0.90099655  0.48594848  0.18893382  1
  O  O22  1  0.09900345  0.51405152  0.81106618  1
  O  O23  1  0.45794915  0.45750716  0.68422861  1
  O  O24  1  0.64404702  0.28984704  0.50253162  1
  O  O25  1  0.35595298  0.71015296  0.49746838  1
  O  O26  1  0.71214042  0.95480115  0.37247871  1
  O  O27  1  0.28785958  0.04519885  0.62752129  1
  O  O28  1  0.09676209  0.90584377  0.81810377  1
  O  O29  1  0.90323791  0.09415623  0.18189623  1
  O  O30  1  0.87526321  0.70088022  0.57463315  1
  O  O31  1  0.12473679  0.29911978  0.42536685  1
  O  O32  1  0.81363413  0.04120802  0.65064807  1
  O  O33  1  0.18636587  0.95879198  0.34935193  1
  O  O34  1  0.74072968  0.68697347  0.98703019  1
  O  O35  1  0.54205085  0.54249284  0.31577139  1
  Mg  Mg36  1  0.00000000  0.00000000  0.00000000  1
  Al  Al37  1  0.50000000  0.00000000  0.50000000  1
  Al  Al38  1  0.50000000  0.50000000  0.50000000  1
  P  P39  1  0.98496393  0.07815610  0.33277788  1
  P  P40  1  0.01503607  0.92184390  0.66722212  1
