# generated using pymatgen
data_Mn(PO3)3
_symmetry_space_group_name_H-M   'P 1'
_cell_length_a   8.41826666
_cell_length_b   8.44877635
_cell_length_c   9.00919389
_cell_angle_alpha   90.00000000
_cell_angle_beta   90.00005033
_cell_angle_gamma   90.00000000
_symmetry_Int_Tables_number   1
_chemical_formula_structural   Mn(PO3)3
_chemical_formula_sum   'Mn4 P12 O36'
_cell_volume   640.77037710
_cell_formula_units_Z   4
loop_
 _symmetry_equiv_pos_site_id
 _symmetry_equiv_pos_as_xyz
  1  'x, y, z'
loop_
 _atom_site_type_symbol
 _atom_site_label
 _atom_site_symmetry_multiplicity
 _atom_site_fract_x
 _atom_site_fract_y
 _atom_site_fract_z
 _atom_site_occupancy
  O  O0  1  0.63574566  0.31461615  0.35909407  1
  O  O1  1  0.95672856  0.27338920  0.84948514  1
  O  O2  1  0.90470270  0.13322503  0.37213540  1
  O  O3  1  0.91170963  0.38203805  0.58873689  1
  O  O4  1  0.04327155  0.77338986  0.65051507  1
  O  O5  1  0.09529742  0.63322451  0.12786374  1
  O  O6  1  0.08829049  0.88203752  0.91126332  1
  O  O7  1  0.09171240  0.40756013  0.32153384  1
  O  O8  1  0.13574561  0.18538332  0.64090653  1
  O  O9  1  0.15037193  0.46290807  0.75282344  1
  O  O10  1  0.16054991  0.83504788  0.40023059  1
  O  O11  1  0.18780994  0.08532905  0.14352347  1
  O  O12  1  0.21295021  0.36867529  0.06437512  1
  O  O13  1  0.28704865  0.63132485  0.56437461  1
  O  O14  1  0.31219012  0.91467109  0.64352411  1
  O  O15  1  0.33944896  0.16495226  0.90023127  1
  O  O16  1  0.34962813  0.53709207  0.25282306  1
  O  O17  1  0.36425326  0.81461563  0.14090617  1
  O  O18  1  0.40828767  0.59244001  0.82153463  1
  O  O19  1  0.41170957  0.11796262  0.41126194  1
  O  O20  1  0.40470264  0.36677444  0.62786453  1
  O  O21  1  0.45672851  0.22661147  0.15051487  1
  O  O22  1  0.54327161  0.72661094  0.34948537  1
  O  O23  1  0.86425451  0.68538399  0.85909368  1
  O  O24  1  0.58829054  0.61796209  0.08873830  1
  O  O25  1  0.59171245  0.09243935  0.67846557  1
  O  O26  1  0.90828772  0.90756079  0.17846530  1
  O  O27  1  0.65037198  0.03709141  0.24717607  1
  O  O28  1  0.66055116  0.66495174  0.59976894  1
  O  O29  1  0.68781000  0.41467042  0.85647610  1
  O  O30  1  0.71295146  0.13132537  0.93562449  1
  O  O31  1  0.78704990  0.86867477  0.43562512  1
  O  O32  1  0.81219017  0.58532853  0.35647677  1
  O  O33  1  0.83945021  0.33504721  0.09976965  1
  O  O34  1  0.84962819  0.96290873  0.74717567  1
  O  O35  1  0.59529748  0.86677511  0.87213568  1
  P  P36  1  0.67549636  0.00963747  0.80430846  1
  P  P37  1  0.70424659  0.69547136  0.44306442  1
  P  P38  1  0.79575239  0.30452759  0.94306393  1
  P  P39  1  0.82450382  0.99036386  0.30430915  1
  P  P40  1  0.03365033  0.32287019  0.69405487  1
  P  P41  1  0.17549630  0.49036439  0.19569109  1
  P  P42  1  0.20424773  0.80452825  0.55693628  1
  P  P43  1  0.29575233  0.19547189  0.05693582  1
  P  P44  1  0.32450376  0.50963694  0.69569065  1
  P  P45  1  0.46634973  0.67712876  0.19405579  1
  P  P46  1  0.53365038  0.17712928  0.30594445  1
  P  P47  1  0.96634860  0.82287086  0.80594423  1
  Mn  Mn48  1  0.86110758  0.36067783  0.35217214  1
  Mn  Mn49  1  0.63889259  0.63932350  0.85217249  1
  Mn  Mn50  1  0.36110753  0.13932284  0.64782772  1
  Mn  Mn51  1  0.13889253  0.86067730  0.14782810  1
