# generated using pymatgen
data_Li2SnP2O7
_symmetry_space_group_name_H-M   'P 1'
_cell_length_a   5.21176994
_cell_length_b   7.57588756
_cell_length_c   8.66329532
_cell_angle_alpha   66.51427659
_cell_angle_beta   88.92063359
_cell_angle_gamma   90.23651420
_symmetry_Int_Tables_number   1
_chemical_formula_structural   Li2SnP2O7
_chemical_formula_sum   'Li4 Sn2 P4 O14'
_cell_volume   313.64232929
_cell_formula_units_Z   2
loop_
 _symmetry_equiv_pos_site_id
 _symmetry_equiv_pos_as_xyz
  1  'x, y, z'
loop_
 _atom_site_type_symbol
 _atom_site_label
 _atom_site_symmetry_multiplicity
 _atom_site_fract_x
 _atom_site_fract_y
 _atom_site_fract_z
 _atom_site_occupancy
  Li  Li0  1  0.30854152  0.83755426  0.59088018  1
  Li  Li1  1  0.30149299  0.86460263  0.99822616  1
  Li  Li2  1  0.69850701  0.13539737  0.00177384  1
  Li  Li3  1  0.69145848  0.16244574  0.40911982  1
  O  O4  1  0.03066476  0.33487541  0.43717358  1
  O  O5  1  0.09271863  0.93702117  0.78167548  1
  O  O6  1  0.15084496  0.65640139  0.20231779  1
  O  O7  1  0.19233698  0.35456313  0.15030002  1
  O  O8  1  0.31741226  0.10714345  0.03965537  1
  O  O9  1  0.35048492  1.02562640  0.35475247  1
  O  O10  1  0.49817495  0.58692033  0.65051487  1
  O  O11  1  0.50182505  0.41307967  0.34948513  1
  O  O12  1  0.64951508  -0.02562640  0.64524753  1
  O  O13  1  0.68258774  0.89285655  0.96034463  1
  O  O14  1  0.80766302  0.64543687  0.84969998  1
  O  O15  1  0.84915504  0.34359861  0.79768221  1
  O  O16  1  0.90728137  0.06297883  0.21832452  1
  O  O17  1  0.96933524  0.66512459  0.56282642  1
  P  P18  1  0.19612722  0.12205738  0.19640410  1
  P  P19  1  0.22530130  0.44181288  0.29140240  1
  P  P20  1  0.77469870  0.55818712  0.70859760  1
  P  P21  1  0.80387278  0.87794262  0.80359590  1
  Sn  Sn22  1  0.23221067  0.27172284  0.69074284  1
  Sn  Sn23  1  0.76778933  0.72827716  0.30925716  1
