# generated using pymatgen
data_Li2Sn(PO3)4
_symmetry_space_group_name_H-M   'P 1'
_cell_length_a   9.80413565
_cell_length_b   10.45630534
_cell_length_c   9.60680795
_cell_angle_alpha   90.00000000
_cell_angle_beta   90.85852370
_cell_angle_gamma   90.00000000
_symmetry_Int_Tables_number   1
_chemical_formula_structural   Li2Sn(PO3)4
_chemical_formula_sum   'Li8 Sn4 P16 O48'
_cell_volume   984.73170438
_cell_formula_units_Z   4
loop_
 _symmetry_equiv_pos_site_id
 _symmetry_equiv_pos_as_xyz
  1  'x, y, z'
loop_
 _atom_site_type_symbol
 _atom_site_label
 _atom_site_symmetry_multiplicity
 _atom_site_fract_x
 _atom_site_fract_y
 _atom_site_fract_z
 _atom_site_occupancy
  Li  Li0  1  0.00781756  0.17535766  0.88609080  1
  Li  Li1  1  0.00409930  0.18296502  0.61258239  1
  Li  Li2  1  0.50781756  0.32464234  0.88609080  1
  Li  Li3  1  0.49590070  0.68296502  0.38741761  1
  Li  Li4  1  0.50409930  0.31703498  0.61258239  1
  Li  Li5  1  0.49218244  0.67535766  0.11390920  1
  Li  Li6  1  0.99590070  0.81703498  0.38741761  1
  Li  Li7  1  0.99218244  0.82464234  0.11390920  1
  O  O8  1  0.10006032  0.29845738  0.75133485  1
  O  O9  1  0.10265106  0.72180801  0.96936699  1
  O  O10  1  0.09678663  0.70580463  0.53422766  1
  O  O11  1  0.10624722  0.01582728  0.77068501  1
  O  O12  1  0.14844167  0.52535140  0.83232640  1
  O  O13  1  0.15088581  0.12625322  0.47437254  1
  O  O14  1  0.15688555  0.47135369  0.58216773  1
  O  O15  1  0.14904601  0.13253951  0.04425046  1
  O  O16  1  0.15250732  0.88594513  0.25584992  1
  O  O17  1  0.16588830  0.56509564  0.34349777  1
  O  O18  1  0.16610723  0.51683148  0.09178585  1
  O  O19  1  0.21334778  0.34006072  0.26022093  1
  O  O20  1  0.28665222  0.84006072  0.73977907  1
  O  O21  1  0.33389277  0.01683148  0.90821415  1
  O  O22  1  0.33411170  0.06509564  0.65650223  1
  O  O23  1  0.34749268  0.38594513  0.74415008  1
  O  O24  1  0.35095399  0.63253951  0.95574954  1
  O  O25  1  0.34311445  0.97135369  0.41783227  1
  O  O26  1  0.34911419  0.62625322  0.52562746  1
  O  O27  1  0.35155833  0.02535140  0.16767360  1
  O  O28  1  0.39375278  0.51582728  0.22931499  1
  O  O29  1  0.40321337  0.20580463  0.46577234  1
  O  O30  1  0.39734894  0.22180801  0.03063301  1
  O  O31  1  0.39993968  0.79845738  0.24866515  1
  O  O32  1  0.60006032  0.20154262  0.75133485  1
  O  O33  1  0.60265106  0.77819199  0.96936699  1
  O  O34  1  0.59678663  0.79419537  0.53422766  1
  O  O35  1  0.60624722  0.48417272  0.77068501  1
  O  O36  1  0.64844167  0.97464860  0.83232640  1
  O  O37  1  0.65088581  0.37374678  0.47437254  1
  O  O38  1  0.65688555  0.02864631  0.58216773  1
  O  O39  1  0.64904601  0.36746049  0.04425046  1
  O  O40  1  0.65250732  0.61405487  0.25584992  1
  O  O41  1  0.66588830  0.93490436  0.34349777  1
  O  O42  1  0.66610723  0.98316852  0.09178585  1
  O  O43  1  0.71334778  0.15993928  0.26022093  1
  O  O44  1  0.78665222  0.65993928  0.73977907  1
  O  O45  1  0.83389277  0.48316852  0.90821415  1
  O  O46  1  0.83411170  0.43490436  0.65650223  1
  O  O47  1  0.84749268  0.11405487  0.74415008  1
  O  O48  1  0.85095399  0.86746049  0.95574954  1
  O  O49  1  0.84311445  0.52864631  0.41783227  1
  O  O50  1  0.84911419  0.87374678  0.52562746  1
  O  O51  1  0.85155833  0.47464860  0.16767360  1
  O  O52  1  0.89375278  0.98417272  0.22931499  1
  O  O53  1  0.90321337  0.29419537  0.46577234  1
  O  O54  1  0.89734894  0.27819199  0.03063301  1
  O  O55  1  0.89993968  0.70154262  0.24866515  1
  P  P56  1  0.19904461  0.61011388  0.96281727  1
  P  P57  1  0.19654312  0.40769700  0.73175478  1
  P  P58  1  0.19825128  0.60222569  0.50347817  1
  P  P59  1  0.24576407  0.47825519  0.23301472  1
  P  P60  1  0.25423593  0.97825519  0.76698528  1
  P  P61  1  0.30174872  0.10222569  0.49652183  1
  P  P62  1  0.30345688  0.90769700  0.26824522  1
  P  P63  1  0.30095539  0.11011388  0.03718273  1
  P  P64  1  0.69904461  0.88988612  0.96281727  1
  P  P65  1  0.69654312  0.09230300  0.73175478  1
  P  P66  1  0.69825128  0.89777431  0.50347817  1
  P  P67  1  0.74576407  0.02174481  0.23301472  1
  P  P68  1  0.75423593  0.52174481  0.76698528  1
  P  P69  1  0.80174872  0.39777431  0.49652183  1
  P  P70  1  0.80345688  0.59230300  0.26824522  1
  P  P71  1  0.80095539  0.38988612  0.03718273  1
  Sn  Sn72  1  0.02587190  0.20207859  0.25290968  1
  Sn  Sn73  1  0.47412810  0.70207859  0.74709032  1
  Sn  Sn74  1  0.52587190  0.29792141  0.25290968  1
  Sn  Sn75  1  0.97412810  0.79792141  0.74709032  1
