# generated using pymatgen
data_B9H8S
_symmetry_space_group_name_H-M   'P 1'
_cell_length_a   6.80977437
_cell_length_b   9.94223786
_cell_length_c   12.48945575
_cell_angle_alpha   90.00000000
_cell_angle_beta   95.63485915
_cell_angle_gamma   90.00000000
_symmetry_Int_Tables_number   1
_chemical_formula_structural   B9H8S
_chemical_formula_sum   'B36 H32 S4'
_cell_volume   841.50503831
_cell_formula_units_Z   4
loop_
 _symmetry_equiv_pos_site_id
 _symmetry_equiv_pos_as_xyz
  1  'x, y, z'
loop_
 _atom_site_type_symbol
 _atom_site_label
 _atom_site_symmetry_multiplicity
 _atom_site_fract_x
 _atom_site_fract_y
 _atom_site_fract_z
 _atom_site_occupancy
  H  H0  1  0.09941701  0.68277605  0.66927522  1
  H  H1  1  0.40058299  0.18277605  0.83072478  1
  H  H2  1  0.90058299  0.31722395  0.33072478  1
  H  H3  1  0.59941701  0.81722395  0.16927522  1
  H  H4  1  0.77905158  0.59057501  0.80940920  1
  H  H5  1  0.72094842  0.09057501  0.69059080  1
  H  H6  1  0.22094842  0.40942499  0.19059080  1
  H  H7  1  0.27905158  0.90942499  0.30940920  1
  H  H8  1  0.94989707  0.91444945  0.80368969  1
  H  H9  1  0.55010293  0.41444945  0.69631031  1
  H  H10  1  0.05010293  0.08555055  0.19631031  1
  H  H11  1  0.44989707  0.58555055  0.30368969  1
  H  H12  1  0.42789596  0.79766967  0.83093982  1
  H  H13  1  0.07210404  0.29766967  0.66906018  1
  H  H14  1  0.57210404  0.20233033  0.16906018  1
  H  H15  1  0.92789596  0.70233033  0.33093982  1
  H  H16  1  0.74396249  0.52637741  0.16365105  1
  H  H17  1  0.75603751  0.02637741  0.33634895  1
  H  H18  1  0.25603751  0.47362259  0.83634895  1
  H  H19  1  0.24396249  0.97362259  0.66365105  1
  H  H20  1  0.76855642  0.79025317  0.98843990  1
  H  H21  1  0.73144358  0.29025317  0.51156010  1
  H  H22  1  0.23144358  0.20974683  0.01156010  1
  H  H23  1  0.26855642  0.70974683  0.48843990  1
  H  H24  1  0.23110808  0.93713248  0.00403935  1
  H  H25  1  0.26889192  0.43713248  0.49596065  1
  H  H26  1  0.76889192  0.06286752  0.99596065  1
  H  H27  1  0.73110808  0.56286752  0.50403935  1
  H  H28  1  0.44755528  0.62389717  0.02716842  1
  H  H29  1  0.05244472  0.12389717  0.47283158  1
  H  H30  1  0.55244472  0.37610283  0.97283158  1
  H  H31  1  0.94755528  0.87610283  0.52716842  1
  B  B32  1  0.10192105  0.68977151  0.76445390  1
  B  B33  1  0.39807895  0.18977151  0.73554610  1
  B  B34  1  0.89807895  0.31022849  0.23554610  1
  B  B35  1  0.60192105  0.81022849  0.26445390  1
  B  B36  1  0.92990873  0.64028296  0.84770283  1
  B  B37  1  0.57009127  0.14028296  0.65229717  1
  B  B38  1  0.07009127  0.35971704  0.15229717  1
  B  B39  1  0.42990873  0.85971704  0.34770283  1
  B  B40  1  0.02204037  0.81481616  0.84412747  1
  B  B41  1  0.47795963  0.31481616  0.65587253  1
  B  B42  1  0.97795963  0.18518384  0.15587253  1
  B  B43  1  0.52204037  0.68518384  0.34412747  1
  B  B44  1  0.27861894  0.75194868  0.85853589  1
  B  B45  1  0.22138106  0.25194868  0.64146411  1
  B  B46  1  0.72138106  0.24805132  0.14146411  1
  B  B47  1  0.77861894  0.74805132  0.35853589  1
  B  B48  1  0.18624843  0.57743070  0.86222248  1
  B  B49  1  0.31375157  0.07743070  0.63777752  1
  B  B50  1  0.81375157  0.42256930  0.13777752  1
  B  B51  1  0.68624843  0.92256930  0.36222248  1
  B  B52  1  0.91872826  0.75038580  0.95873279  1
  B  B53  1  0.58127174  0.25038580  0.54126721  1
  B  B54  1  0.08127174  0.24961420  0.04126721  1
  B  B55  1  0.41872826  0.74961420  0.45873279  1
  B  B56  1  0.17516932  0.83206080  0.96691115  1
  B  B57  1  0.32483068  0.33206080  0.53308885  1
  B  B58  1  0.82483068  0.16793920  0.03308885  1
  B  B59  1  0.67516932  0.66793920  0.46691115  1
  B  B60  1  0.29553635  0.65802138  0.98002308  1
  B  B61  1  0.20446365  0.15802138  0.51997692  1
  B  B62  1  0.70446365  0.34197862  0.01997692  1
  B  B63  1  0.79553635  0.84197862  0.48002308  1
  B  B64  1  0.03805984  0.57259702  0.97254164  1
  B  B65  1  0.46194016  0.07259702  0.52745836  1
  B  B66  1  0.96194016  0.42740298  0.02745836  1
  B  B67  1  0.53805984  0.92740298  0.47254164  1
  S  S68  1  0.10951016  0.71079408  0.07868589  1
  S  S69  1  0.39048984  0.21079408  0.42131411  1
  S  S70  1  0.89048984  0.28920592  0.92131411  1
  S  S71  1  0.60951016  0.78920592  0.57868589  1
