# generated using pymatgen
data_Yb(Mo3S4)2
_symmetry_space_group_name_H-M   'P 1'
_cell_length_a   6.53371480
_cell_length_b   6.53371481
_cell_length_c   6.53371480
_cell_angle_alpha   89.42893982
_cell_angle_beta   89.42893982
_cell_angle_gamma   89.42893982
_symmetry_Int_Tables_number   1
_chemical_formula_structural   Yb(Mo3S4)2
_chemical_formula_sum   'Yb1 Mo6 S8'
_cell_volume   278.87926774
_cell_formula_units_Z   1
loop_
 _symmetry_equiv_pos_site_id
 _symmetry_equiv_pos_as_xyz
  1  'x, y, z'
loop_
 _atom_site_type_symbol
 _atom_site_label
 _atom_site_symmetry_multiplicity
 _atom_site_fract_x
 _atom_site_fract_y
 _atom_site_fract_z
 _atom_site_occupancy
  S  S0  1  0.76104043  0.76104043  0.76104043  1
  S  S1  1  0.87230862  0.25407355  0.62338609  1
  S  S2  1  0.25407355  0.62338609  0.87230862  1
  S  S3  1  0.62338609  0.87230862  0.25407355  1
  S  S4  1  0.12769138  0.74592645  0.37661391  1
  S  S5  1  0.74592645  0.37661391  0.12769138  1
  S  S6  1  0.23895957  0.23895957  0.23895957  1
  S  S7  1  0.37661391  0.12769138  0.74592645  1
  Mo  Mo8  1  0.22342479  0.41817933  0.55954134  1
  Mo  Mo9  1  0.58182067  0.44045866  0.77657521  1
  Mo  Mo10  1  0.44045866  0.77657521  0.58182067  1
  Mo  Mo11  1  0.55954134  0.22342479  0.41817933  1
  Mo  Mo12  1  0.41817933  0.55954134  0.22342479  1
  Mo  Mo13  1  0.77657521  0.58182067  0.44045866  1
  Yb  Yb14  1  0.00000000  0.00000000  0.00000000  1
