# generated using pymatgen
data_V4As3
_symmetry_space_group_name_H-M   'P 1'
_cell_length_a   3.37030034
_cell_length_b   7.14862273
_cell_length_c   9.10018400
_cell_angle_alpha   100.47440919
_cell_angle_beta   90.00000000
_cell_angle_gamma   103.63470166
_symmetry_Int_Tables_number   1
_chemical_formula_structural   V4As3
_chemical_formula_sum   'V8 As6'
_cell_volume   209.31057256
_cell_formula_units_Z   2
loop_
 _symmetry_equiv_pos_site_id
 _symmetry_equiv_pos_as_xyz
  1  'x, y, z'
loop_
 _atom_site_type_symbol
 _atom_site_label
 _atom_site_symmetry_multiplicity
 _atom_site_fract_x
 _atom_site_fract_y
 _atom_site_fract_z
 _atom_site_occupancy
  V  V0  1  0.55931668  0.11863336  0.72859253  1
  V  V1  1  0.44068332  0.88136664  0.27140747  1
  V  V2  1  0.77383692  0.54767385  0.81017378  1
  V  V3  1  0.22616308  0.45232615  0.18982622  1
  V  V4  1  0.33644975  0.67289951  0.55177453  1
  V  V5  1  0.66355025  0.32710049  0.44822547  1
  V  V6  1  0.00000000  0.00000000  0.00000000  1
  V  V7  1  0.00000000  0.00000000  0.50000000  1
  As  As8  1  0.17486694  0.34973388  0.65423541  1
  As  As9  1  0.82513306  0.65026612  0.34576459  1
  As  As10  1  0.64302753  0.28605505  0.99279802  1
  As  As11  1  0.35697247  0.71394495  0.00720198  1
  As  As12  1  0.92907971  0.85815942  0.73247725  1
  As  As13  1  0.07092029  0.14184058  0.26752275  1
