# generated using pymatgen
data_MnH8(ClO2)2
_symmetry_space_group_name_H-M   'P 1'
_cell_length_a   6.20306278
_cell_length_b   9.60522841
_cell_length_c   11.19706165
_cell_angle_alpha   90.00000000
_cell_angle_beta   99.23001354
_cell_angle_gamma   90.00000000
_symmetry_Int_Tables_number   1
_chemical_formula_structural   MnH8(ClO2)2
_chemical_formula_sum   'Mn4 H32 Cl8 O16'
_cell_volume   658.50358247
_cell_formula_units_Z   4
loop_
 _symmetry_equiv_pos_site_id
 _symmetry_equiv_pos_as_xyz
  1  'x, y, z'
loop_
 _atom_site_type_symbol
 _atom_site_label
 _atom_site_symmetry_multiplicity
 _atom_site_fract_x
 _atom_site_fract_y
 _atom_site_fract_z
 _atom_site_occupancy
  H  H0  1  0.64123530  0.43524215  0.13763142  1
  H  H1  1  0.85876436  0.93524247  0.36236857  1
  H  H2  1  0.35876475  0.56475746  0.86236871  1
  H  H3  1  0.14123569  0.06475818  0.63763156  1
  H  H4  1  0.69774300  0.56840555  0.06199052  1
  H  H5  1  0.80225666  0.06840522  0.43800947  1
  H  H6  1  0.30225705  0.43159406  0.93800961  1
  H  H7  1  0.19774340  0.93159438  0.56199066  1
  H  H8  1  0.43118152  0.42736288  0.40479206  1
  H  H9  1  0.06881851  0.92736321  0.09520755  1
  H  H10  1  0.56881853  0.57263672  0.59520807  1
  H  H11  1  0.93118154  0.07263640  0.90479257  1
  H  H12  1  0.68320156  0.42579414  0.38950277  1
  H  H13  1  0.81679810  0.92579447  0.11049722  1
  H  H14  1  0.10540737  0.64513000  0.11578882  1
  H  H15  1  0.18320195  0.07420618  0.88950291  1
  H  H16  1  0.97255756  0.69567780  0.29888217  1
  H  H17  1  0.52744210  0.19567748  0.20111782  1
  H  H18  1  0.02744250  0.30432285  0.70111796  1
  H  H19  1  0.47255796  0.80432317  0.79888141  1
  H  H20  1  0.90196871  0.70215229  0.42861003  1
  H  H21  1  0.59803095  0.20215196  0.07138996  1
  H  H22  1  0.09803134  0.29784732  0.57139010  1
  H  H23  1  0.40196911  0.79784764  0.92860927  1
  H  H24  1  0.13104167  0.51461924  0.19946719  1
  H  H25  1  0.36895835  0.01461996  0.30053332  1
  H  H26  1  0.86895838  0.48538036  0.80053294  1
  H  H27  1  0.63104170  0.98538069  0.69946680  1
  H  H28  1  0.60540739  0.85487098  0.61578933  1
  H  H29  1  0.89459268  0.35487065  0.88421131  1
  H  H30  1  0.39459266  0.14512967  0.38421080  1
  H  H31  1  0.31679686  0.57420651  0.61049721  1
  O  O32  1  0.62993011  0.53752373  0.13082449  1
  O  O33  1  0.87006955  0.03752445  0.36917550  1
  O  O34  1  0.37006995  0.46247587  0.86917564  1
  O  O35  1  0.12993050  0.96247619  0.63082462  1
  O  O36  1  0.54251695  0.47428645  0.36655033  1
  O  O37  1  0.95748271  0.97428678  0.13344966  1
  O  O38  1  0.45748310  0.52571315  0.63344980  1
  O  O39  1  0.04251734  0.02571283  0.86655047  1
  O  O40  1  0.85942086  0.73353491  0.34344305  1
  O  O41  1  0.64057880  0.23353458  0.15655693  1
  O  O42  1  0.14057919  0.26646470  0.65655707  1
  O  O43  1  0.35941962  0.76646502  0.84344305  1
  O  O44  1  0.15861545  0.61576606  0.20066983  1
  O  O45  1  0.34138458  0.11576678  0.29932979  1
  O  O46  1  0.65861549  0.88423387  0.70066944  1
  O  O47  1  0.84138460  0.38423355  0.79933030  1
  Cl  Cl48  1  0.46364035  0.86582113  0.11410808  1
  Cl  Cl49  1  0.03635967  0.36582185  0.38589243  1
  Cl  Cl50  1  0.53635970  0.13417847  0.88589205  1
  Cl  Cl51  1  0.96364038  0.63417879  0.61410770  1
  Cl  Cl52  1  0.41064667  0.81311951  0.44069742  1
  Cl  Cl53  1  0.08935336  0.31312023  0.05930220  1
  Cl  Cl54  1  0.91064669  0.68688042  0.94069793  1
  Cl  Cl55  1  0.58935340  0.18688010  0.55930181  1
  Mn  Mn56  1  0.51432947  0.67242788  0.26635990  1
  Mn  Mn57  1  0.98567019  0.17242860  0.23364009  1
  Mn  Mn58  1  0.48567059  0.32757173  0.73363933  1
  Mn  Mn59  1  0.01432987  0.82757205  0.76636004  1
