# generated using pymatgen
data_Nb4Al
_symmetry_space_group_name_H-M   'P 1'
_cell_length_a   2.83496141
_cell_length_b   2.83496141
_cell_length_c   11.67734788
_cell_angle_alpha   84.91708049
_cell_angle_beta   84.91708049
_cell_angle_gamma   105.67176854
_symmetry_Int_Tables_number   1
_chemical_formula_structural   Nb4Al
_chemical_formula_sum   'Nb4 Al1'
_cell_volume   89.38491744
_cell_formula_units_Z   1
loop_
 _symmetry_equiv_pos_site_id
 _symmetry_equiv_pos_as_xyz
  1  'x, y, z'
loop_
 _atom_site_type_symbol
 _atom_site_label
 _atom_site_symmetry_multiplicity
 _atom_site_fract_x
 _atom_site_fract_y
 _atom_site_fract_z
 _atom_site_occupancy
  Nb  Nb0  1  0.40414248  0.40414248  0.19171505  1
  Nb  Nb1  1  0.80070513  0.80070513  0.39858974  1
  Nb  Nb2  1  0.19929487  0.19929487  0.60141026  1
  Nb  Nb3  1  0.59585752  0.59585752  0.80828495  1
  Al  Al4  1  0.00000000  -0.00000000  0.00000000  1
