# generated using pymatgen
data_RbCrCl3
_symmetry_space_group_name_H-M   'P 1'
_cell_length_a   7.12686579
_cell_length_b   7.19013135
_cell_length_c   12.91119844
_cell_angle_alpha   93.55888504
_cell_angle_beta   90.00000000
_cell_angle_gamma   119.70935758
_symmetry_Int_Tables_number   1
_chemical_formula_structural   RbCrCl3
_chemical_formula_sum   'Rb4 Cr4 Cl12'
_cell_volume   573.17216410
_cell_formula_units_Z   4
loop_
 _symmetry_equiv_pos_site_id
 _symmetry_equiv_pos_as_xyz
  1  'x, y, z'
loop_
 _atom_site_type_symbol
 _atom_site_label
 _atom_site_symmetry_multiplicity
 _atom_site_fract_x
 _atom_site_fract_y
 _atom_site_fract_z
 _atom_site_occupancy
  Cl  Cl0  1  0.27198767  0.14545314  0.14096070  1
  Cl  Cl1  1  0.12653453  0.85454686  0.35903930  1
  Cl  Cl2  1  0.72801233  0.85454686  0.85903930  1
  Cl  Cl3  1  0.87346547  0.14545314  0.64096070  1
  Cl  Cl4  1  0.35383958  0.16539703  0.64971722  1
  Cl  Cl5  1  0.18844254  0.83460297  0.85028278  1
  Cl  Cl6  1  0.64616042  0.83460297  0.35028278  1
  Cl  Cl7  1  0.81155746  0.16539703  0.14971722  1
  Cl  Cl8  1  0.17878194  0.32556906  0.91529178  1
  Cl  Cl9  1  0.85321288  0.67443094  0.58470822  1
  Cl  Cl10  1  0.82121806  0.67443094  0.08470822  1
  Cl  Cl11  1  0.14678712  0.32556906  0.41529178  1
  Cr  Cr12  1  0.00000000  0.00000000  0.50000000  1
  Cr  Cr13  1  0.00000000  0.00000000  0.00000000  1
  Cr  Cr14  1  0.96023852  0.00000000  0.25000000  1
  Cr  Cr15  1  0.03976148  0.00000000  0.75000000  1
  Rb  Rb16  1  0.35024652  0.66572442  0.62880031  1
  Rb  Rb17  1  0.68452210  0.33427558  0.87119969  1
  Rb  Rb18  1  0.64975348  0.33427558  0.37119969  1
  Rb  Rb19  1  0.31547790  0.66572442  0.12880031  1
