# generated using pymatgen
data_NaP5
_symmetry_space_group_name_H-M   'P 1'
_cell_length_a   6.55264054
_cell_length_b   7.08414478
_cell_length_c   11.05685350
_cell_angle_alpha   90.00000000
_cell_angle_beta   90.00000000
_cell_angle_gamma   90.00000000
_symmetry_Int_Tables_number   1
_chemical_formula_structural   NaP5
_chemical_formula_sum   'Na4 P20'
_cell_volume   513.25752823
_cell_formula_units_Z   4
loop_
 _symmetry_equiv_pos_site_id
 _symmetry_equiv_pos_as_xyz
  1  'x, y, z'
loop_
 _atom_site_type_symbol
 _atom_site_label
 _atom_site_symmetry_multiplicity
 _atom_site_fract_x
 _atom_site_fract_y
 _atom_site_fract_z
 _atom_site_occupancy
  Na  Na0  1  0.25000000  0.09002589  0.42445220  1
  Na  Na1  1  0.75000000  0.90997411  0.57554780  1
  Na  Na2  1  0.75000000  0.59002589  0.07554780  1
  Na  Na3  1  0.25000000  0.40997411  0.92445220  1
  P  P4  1  0.01352338  0.09329404  0.08165832  1
  P  P5  1  0.51352338  0.90670596  0.91834168  1
  P  P6  1  0.98647662  0.59329404  0.41834168  1
  P  P7  1  0.48647662  0.40670596  0.58165832  1
  P  P8  1  0.98647662  0.90670596  0.91834168  1
  P  P9  1  0.48647662  0.09329404  0.08165832  1
  P  P10  1  0.01352338  0.40670596  0.58165832  1
  P  P11  1  0.51352338  0.59329404  0.41834168  1
  P  P12  1  0.25000000  0.63371679  0.14059736  1
  P  P13  1  0.75000000  0.36628321  0.85940264  1
  P  P14  1  0.75000000  0.13371679  0.35940264  1
  P  P15  1  0.25000000  0.86628321  0.64059736  1
  P  P16  1  0.25000000  0.48017383  0.31105825  1
  P  P17  1  0.75000000  0.51982617  0.68894175  1
  P  P18  1  0.75000000  0.98017383  0.18894175  1
  P  P19  1  0.25000000  0.01982617  0.81105825  1
  P  P20  1  0.25000000  0.56563883  0.68603200  1
  P  P21  1  0.75000000  0.43436117  0.31396800  1
  P  P22  1  0.75000000  0.06563883  0.81396800  1
  P  P23  1  0.25000000  0.93436117  0.18603200  1
