# generated using pymatgen
data_Dy3S2Cl5
_symmetry_space_group_name_H-M   'P 1'
_cell_length_a   6.38704220
_cell_length_b   6.81623575
_cell_length_c   21.81445836
_cell_angle_alpha   90.00000000
_cell_angle_beta   90.00000000
_cell_angle_gamma   90.00000000
_symmetry_Int_Tables_number   1
_chemical_formula_structural   Dy3S2Cl5
_chemical_formula_sum   'Dy12 S8 Cl20'
_cell_volume   949.70521446
_cell_formula_units_Z   4
loop_
 _symmetry_equiv_pos_site_id
 _symmetry_equiv_pos_as_xyz
  1  'x, y, z'
loop_
 _atom_site_type_symbol
 _atom_site_label
 _atom_site_symmetry_multiplicity
 _atom_site_fract_x
 _atom_site_fract_y
 _atom_site_fract_z
 _atom_site_occupancy
  S  S0  1  0.80829416  0.32856942  0.67233001  1
  S  S1  1  0.30829416  0.17143058  0.17233001  1
  S  S2  1  0.80829416  0.32856942  0.82766999  1
  S  S3  1  0.19170584  0.67143058  0.32766999  1
  S  S4  1  0.69170584  0.82856942  0.67233001  1
  S  S5  1  0.69170584  0.82856942  0.82766999  1
  S  S6  1  0.19170584  0.67143058  0.17233001  1
  S  S7  1  0.30829416  0.17143058  0.32766999  1
  Cl  Cl8  1  0.15454351  0.68238550  0.75000000  1
  Cl  Cl9  1  0.65454351  0.81761450  0.25000000  1
  Cl  Cl10  1  0.34545649  0.18238550  0.75000000  1
  Cl  Cl11  1  0.84545649  0.31761450  0.25000000  1
  Cl  Cl12  1  0.83489107  0.03873335  0.11738660  1
  Cl  Cl13  1  0.83489107  0.03873335  0.38261340  1
  Cl  Cl14  1  0.33489107  0.46126665  0.88261340  1
  Cl  Cl15  1  0.66510893  0.53873335  0.38261340  1
  Cl  Cl16  1  0.16510893  0.96126665  0.61738660  1
  Cl  Cl17  1  0.16510893  0.96126665  0.88261340  1
  Cl  Cl18  1  0.66510893  0.53873335  0.11738660  1
  Cl  Cl19  1  0.33489107  0.46126665  0.61738660  1
  Cl  Cl20  1  0.32332897  0.16762669  0.02018453  1
  Cl  Cl21  1  0.82332897  0.33237331  0.97981547  1
  Cl  Cl22  1  0.17667103  0.66762669  0.47981547  1
  Cl  Cl23  1  0.67667103  0.83237331  0.52018453  1
  Cl  Cl24  1  0.67667103  0.83237331  0.97981547  1
  Cl  Cl25  1  0.17667103  0.66762669  0.02018453  1
  Cl  Cl26  1  0.82332897  0.33237331  0.52018453  1
  Cl  Cl27  1  0.32332897  0.16762669  0.47981547  1
  Dy  Dy28  1  0.04911245  0.38001507  0.40190064  1
  Dy  Dy29  1  0.54911245  0.11998493  0.59809936  1
  Dy  Dy30  1  0.45088755  0.88001507  0.09809936  1
  Dy  Dy31  1  0.95088755  0.61998493  0.90190064  1
  Dy  Dy32  1  0.95088755  0.61998493  0.59809936  1
  Dy  Dy33  1  0.45088755  0.88001507  0.40190064  1
  Dy  Dy34  1  0.54911245  0.11998493  0.90190064  1
  Dy  Dy35  1  0.04911245  0.38001507  0.09809936  1
  Dy  Dy36  1  0.55040848  0.53746357  0.75000000  1
  Dy  Dy37  1  0.05040848  0.96253643  0.25000000  1
  Dy  Dy38  1  0.94959152  0.03746357  0.75000000  1
  Dy  Dy39  1  0.44959152  0.46253643  0.25000000  1
