# generated using pymatgen
data_B5H9
_symmetry_space_group_name_H-M   'P 1'
_cell_length_a   10.38275226
_cell_length_b   10.54069410
_cell_length_c   10.54069410
_cell_angle_alpha   90.00000000
_cell_angle_beta   90.00000000
_cell_angle_gamma   90.00000000
_symmetry_Int_Tables_number   1
_chemical_formula_structural   B5H9
_chemical_formula_sum   'B40 H72'
_cell_volume   1153.58848254
_cell_formula_units_Z   8
loop_
 _symmetry_equiv_pos_site_id
 _symmetry_equiv_pos_as_xyz
  1  'x, y, z'
loop_
 _atom_site_type_symbol
 _atom_site_label
 _atom_site_symmetry_multiplicity
 _atom_site_fract_x
 _atom_site_fract_y
 _atom_site_fract_z
 _atom_site_occupancy
  H  H0  1  0.48222559  0.66973122  0.09460979  1
  H  H1  1  0.73222559  0.90539021  0.66973122  1
  H  H2  1  0.23222559  0.09460979  0.33026878  1
  H  H3  1  -0.01777441  0.33026878  0.90539021  1
  H  H4  1  0.47575124  0.56659112  0.24453467  1
  H  H5  1  0.72575124  0.75546533  0.56659112  1
  H  H6  1  0.22575124  0.24453467  0.43340888  1
  H  H7  1  0.97575124  0.43340888  0.75546533  1
  H  H8  1  0.39706427  0.70374636  0.33575871  1
  H  H9  1  0.64706427  0.66424129  0.70374636  1
  H  H10  1  0.14706427  0.33575871  0.29625364  1
  H  H11  1  0.89706427  0.29625364  0.66424129  1
  H  H12  1  0.40313632  0.80628238  0.18586202  1
  H  H13  1  0.65313632  0.81413798  0.80628238  1
  H  H14  1  0.15313632  0.18586202  0.19371762  1
  H  H15  1  0.90313632  0.19371762  0.81413798  1
  H  H16  1  0.63021469  0.54448775  0.12528172  1
  H  H17  1  0.88021469  0.87471828  0.54448775  1
  H  H18  1  0.38021469  0.12528172  0.45551225  1
  H  H19  1  0.13021469  0.45551225  0.87471828  1
  H  H20  1  0.20947928  0.63416741  0.12978166  1
  H  H21  1  0.45947928  0.87021834  0.63416741  1
  H  H22  1  0.95947928  0.12978166  0.36583259  1
  H  H23  1  0.70947928  0.36583259  0.87021834  1
  H  H24  1  1.00594206  0.53688802  0.34816286  1
  H  H25  1  0.25594206  0.65183714  0.53688802  1
  H  H26  1  0.75594206  0.34816286  0.46311198  1
  H  H27  1  0.50594206  0.46311198  0.65183714  1
  H  H28  1  0.91470894  0.57415758  0.03451635  1
  H  H29  1  0.16470894  0.96548365  0.57415758  1
  H  H30  1  0.66470894  0.03451635  0.42584242  1
  H  H31  1  0.41470894  0.42584242  0.96548365  1
  H  H32  1  0.03907609  0.87923770  0.03591906  1
  H  H33  1  0.28907609  0.96408094  0.87923770  1
  H  H34  1  0.78907609  0.03591906  0.12076230  1
  H  H35  1  0.53907609  0.12076230  0.96408094  1
  H  H36  1  0.13085568  0.84124051  0.34894481  1
  H  H37  1  0.38085568  0.65105519  0.84124051  1
  H  H38  1  0.88085568  0.34894481  0.15875949  1
  H  H39  1  0.63085568  0.15875949  0.65105519  1
  H  H40  1  0.88579405  0.62374799  0.22050667  1
  H  H41  1  0.13579405  0.77949333  0.62374799  1
  H  H42  1  0.63579405  0.22050667  0.37625201  1
  H  H43  1  0.38579405  0.37625201  0.77949333  1
  H  H44  1  0.89853049  0.75725721  0.09821035  1
  H  H45  1  0.14853049  0.90178965  0.75725721  1
  H  H46  1  0.64853049  0.09821035  0.24274279  1
  H  H47  1  0.39853049  0.24274279  0.90178965  1
  H  H48  1  0.98273640  0.86197320  0.22170258  1
  H  H49  1  0.23273640  0.77829742  0.86197320  1
  H  H50  1  0.73273640  0.22170258  0.13802680  1
  H  H51  1  0.48273640  0.13802680  0.77829742  1
  H  H52  1  0.97013859  0.72803200  0.34362861  1
  H  H53  1  0.22013859  0.65637139  0.72803200  1
  H  H54  1  0.72013859  0.34362861  0.27196800  1
  H  H55  1  0.47013859  0.27196800  0.65637139  1
  H  H56  1  0.52195621  0.58789517  0.43252196  1
  H  H57  1  0.77195621  0.56747804  0.58789517  1
  H  H58  1  0.27195621  0.43252196  0.41210483  1
  H  H59  1  0.02195621  0.41210483  0.56747804  1
  H  H60  1  0.42978092  0.89438773  0.35789018  1
  H  H61  1  0.67978092  0.64210982  0.89438773  1
  H  H62  1  0.17978092  0.35789018  0.10561227  1
  H  H63  1  0.92978092  0.10561227  0.64210982  1
  H  H64  1  0.53772270  0.85175558  0.05061852  1
  H  H65  1  0.78772270  0.94938148  0.85175558  1
  H  H66  1  0.28772270  0.05061852  0.14824442  1
  H  H67  1  0.03772270  0.14824442  0.94938148  1
  H  H68  1  0.71941329  0.78982428  0.29715321  1
  H  H69  1  0.96941329  0.70284679  0.78982428  1
  H  H70  1  0.46941329  0.29715321  0.21017572  1
  H  H71  1  0.21941329  0.21017572  0.70284679  1
  B  B72  1  0.06999730  0.37516401  0.82190028  1
  B  B73  1  0.31999730  0.17809972  0.37516401  1
  B  B74  1  0.81999730  0.82190028  0.62483599  1
  B  B75  1  0.56999730  0.62483599  0.17809972  1
  B  B76  1  0.51391070  0.64742146  0.33686405  1
  B  B77  1  0.76391070  0.66313595  0.64742146  1
  B  B78  1  0.26391070  0.33686405  0.35257854  1
  B  B79  1  0.01391070  0.35257854  0.66313595  1
  B  B80  1  0.46616501  0.80561288  0.29819855  1
  B  B81  1  0.71616501  0.70180145  0.80561288  1
  B  B82  1  0.21616501  0.29819855  0.19438712  1
  B  B83  1  0.96616501  0.19438712  0.70180145  1
  B  B84  1  0.52204433  0.78341619  0.13930577  1
  B  B85  1  0.77204433  0.86069423  0.78341619  1
  B  B86  1  0.27204433  0.13930577  0.21658381  1
  B  B87  1  0.02204433  0.21658381  0.86069423  1
  B  B88  1  0.61628341  0.75110375  0.26653708  1
  B  B89  1  0.86628341  0.73346292  0.75110375  1
  B  B90  1  0.36628341  0.26653708  0.24889625  1
  B  B91  1  0.11628341  0.24889625  0.73346292  1
  B  B92  1  0.56692652  0.21862224  0.72324880  1
  B  B93  1  0.81692652  0.27675120  0.21862224  1
  B  B94  1  0.31692652  0.72324880  0.78137776  1
  B  B95  1  0.06692652  0.78137776  0.27675120  1
  B  B96  1  0.51960894  0.19935072  0.88520982  1
  B  B97  1  0.76960894  0.11479018  0.19935072  1
  B  B98  1  0.26960894  0.88520982  0.80064928  1
  B  B99  1  0.01960894  0.80064928  0.11479018  1
  B  B100  1  0.45599543  0.35693571  0.88592025  1
  B  B101  1  0.70599543  0.11407975  0.35693571  1
  B  B102  1  0.20599543  0.88592025  0.64306429  1
  B  B103  1  0.95599543  0.64306429  0.11407975  1
  B  B104  1  0.50279796  0.37622339  0.72402654  1
  B  B105  1  0.75279796  0.27597346  0.37622339  1
  B  B106  1  0.25279796  0.72402654  0.62377661  1
  B  B107  1  0.00279796  0.62377661  0.27597346  1
  B  B108  1  0.60794360  0.32564081  0.83632201  1
  B  B109  1  0.85794360  0.16367799  0.32564081  1
  B  B110  1  0.35794360  0.83632201  0.67435919  1
  B  B111  1  0.10794360  0.67435919  0.16367799  1
