# generated using pymatgen
data_BaPdCl4
_symmetry_space_group_name_H-M   'P 1'
_cell_length_a   7.00128800
_cell_length_b   7.75587703
_cell_length_c   12.68317294
_cell_angle_alpha   90.00000000
_cell_angle_beta   90.00000000
_cell_angle_gamma   90.00000000
_symmetry_Int_Tables_number   1
_chemical_formula_structural   BaPdCl4
_chemical_formula_sum   'Ba4 Pd4 Cl16'
_cell_volume   688.71060715
_cell_formula_units_Z   4
loop_
 _symmetry_equiv_pos_site_id
 _symmetry_equiv_pos_as_xyz
  1  'x, y, z'
loop_
 _atom_site_type_symbol
 _atom_site_label
 _atom_site_symmetry_multiplicity
 _atom_site_fract_x
 _atom_site_fract_y
 _atom_site_fract_z
 _atom_site_occupancy
  Cl  Cl0  1  0.88842341  0.47149893  0.17254106  1
  Cl  Cl1  1  0.38842341  0.52850107  0.32745894  1
  Cl  Cl2  1  0.61157659  0.97149893  0.32745894  1
  Cl  Cl3  1  0.11157659  0.02850107  0.17254106  1
  Cl  Cl4  1  0.11157659  0.52850107  0.82745894  1
  Cl  Cl5  1  0.61157659  0.47149893  0.67254106  1
  Cl  Cl6  1  0.38842341  0.02850107  0.67254106  1
  Cl  Cl7  1  0.88842341  0.97149893  0.82745894  1
  Cl  Cl8  1  0.79403729  0.90424791  0.56283990  1
  Cl  Cl9  1  0.29403729  0.09575209  0.93716010  1
  Cl  Cl10  1  0.70596271  0.40424791  0.93716010  1
  Cl  Cl11  1  0.20596271  0.59575209  0.56283990  1
  Cl  Cl12  1  0.20596271  0.09575209  0.43716010  1
  Cl  Cl13  1  0.70596271  0.90424791  0.06283990  1
  Cl  Cl14  1  0.29403729  0.59575209  0.06283990  1
  Cl  Cl15  1  0.79403729  0.40424791  0.43716010  1
  Pd  Pd16  1  0.00000000  0.50000000  0.00000000  1
  Pd  Pd17  1  0.50000000  0.50000000  0.50000000  1
  Pd  Pd18  1  0.50000000  0.00000000  0.50000000  1
  Pd  Pd19  1  0.00000000  0.00000000  0.00000000  1
  Ba  Ba20  1  0.50000000  0.75000000  0.85252347  1
  Ba  Ba21  1  0.00000000  0.25000000  0.64747653  1
  Ba  Ba22  1  0.50000000  0.25000000  0.14747653  1
  Ba  Ba23  1  0.00000000  0.75000000  0.35252347  1
