# generated using pymatgen
data_Th2Al7
_symmetry_space_group_name_H-M   'P 1'
_cell_length_a   5.55318748
_cell_length_b   5.86976548
_cell_length_c   11.49104035
_cell_angle_alpha   90.00000000
_cell_angle_beta   90.00000000
_cell_angle_gamma   90.00000000
_symmetry_Int_Tables_number   1
_chemical_formula_structural   Th2Al7
_chemical_formula_sum   'Th4 Al14'
_cell_volume   374.56089607
_cell_formula_units_Z   2
loop_
 _symmetry_equiv_pos_site_id
 _symmetry_equiv_pos_as_xyz
  1  'x, y, z'
loop_
 _atom_site_type_symbol
 _atom_site_label
 _atom_site_symmetry_multiplicity
 _atom_site_fract_x
 _atom_site_fract_y
 _atom_site_fract_z
 _atom_site_occupancy
  Al  Al0  1  0.50000000  0.00000000  0.00000000  1
  Al  Al1  1  0.50000000  0.50000000  0.50000000  1
  Al  Al2  1  0.50000000  0.59722685  0.75174302  1
  Al  Al3  1  0.50000000  0.40277315  0.24825698  1
  Al  Al4  1  0.50000000  0.09722685  0.74825698  1
  Al  Al5  1  0.50000000  0.90277315  0.25174302  1
  Al  Al6  1  0.76219486  0.85237330  0.59127599  1
  Al  Al7  1  0.76219486  0.14762670  0.40872401  1
  Al  Al8  1  0.23780514  0.35237330  0.90872401  1
  Al  Al9  1  0.23780514  0.64762670  0.09127599  1
  Al  Al10  1  0.23780514  0.14762670  0.40872401  1
  Al  Al11  1  0.23780514  0.85237330  0.59127599  1
  Al  Al12  1  0.76219486  0.64762670  0.09127599  1
  Al  Al13  1  0.76219486  0.35237330  0.90872401  1
  Th  Th14  1  0.00000000  0.85609398  0.85272717  1
  Th  Th15  1  0.00000000  0.14390602  0.14727283  1
  Th  Th16  1  0.00000000  0.35609398  0.64727283  1
  Th  Th17  1  0.00000000  0.64390602  0.35272717  1
