# generated using pymatgen
data_LiNb3O8
_symmetry_space_group_name_H-M   'P 1'
_cell_length_a   5.10193610
_cell_length_b   7.63227100
_cell_length_c   15.21345834
_cell_angle_alpha   101.61281259
_cell_angle_beta   90.00000000
_cell_angle_gamma   90.00000000
_symmetry_Int_Tables_number   1
_chemical_formula_structural   LiNb3O8
_chemical_formula_sum   'Li4 Nb12 O32'
_cell_volume   580.27599364
_cell_formula_units_Z   4
loop_
 _symmetry_equiv_pos_site_id
 _symmetry_equiv_pos_as_xyz
  1  'x, y, z'
loop_
 _atom_site_type_symbol
 _atom_site_label
 _atom_site_symmetry_multiplicity
 _atom_site_fract_x
 _atom_site_fract_y
 _atom_site_fract_z
 _atom_site_occupancy
  Li  Li0  1  0.74118287  0.84038439  0.57938582  1
  Li  Li1  1  0.75881713  0.34038439  0.07938582  1
  Li  Li2  1  0.25881713  0.15961561  0.42061418  1
  Li  Li3  1  0.24118287  0.65961561  0.92061418  1
  O  O4  1  0.07968292  0.43870331  0.39887557  1
  O  O5  1  0.57968292  0.06129669  0.10112443  1
  O  O6  1  0.92031708  0.56129669  0.60112443  1
  O  O7  1  0.42031708  0.93870331  0.89887557  1
  O  O8  1  0.93458093  0.80192714  0.45028877  1
  O  O9  1  0.43458093  0.69807286  0.04971123  1
  O  O10  1  0.06541907  0.19807286  0.54971123  1
  O  O11  1  0.56541907  0.30192714  0.95028877  1
  O  O12  1  0.58290977  0.56388163  0.34528176  1
  O  O13  1  0.91709023  0.06388163  0.84528176  1
  O  O14  1  0.41709023  0.43611837  0.65471824  1
  O  O15  1  0.08290977  0.93611837  0.15471824  1
  O  O16  1  0.56764508  0.80327273  0.71799827  1
  O  O17  1  0.06764508  0.69672727  0.78200173  1
  O  O18  1  0.43235492  0.19672727  0.28200173  1
  O  O19  1  0.93235492  0.30327273  0.21799827  1
  O  O20  1  0.59885273  0.58124060  0.84528857  1
  O  O21  1  0.09885273  0.91875940  0.65471143  1
  O  O22  1  0.40114727  0.41875940  0.15471143  1
  O  O23  1  0.90114727  0.08124060  0.34528857  1
  O  O24  1  0.41411638  0.19963347  0.78303969  1
  O  O25  1  0.91411638  0.30036653  0.71696031  1
  O  O26  1  0.58588362  0.80036653  0.21696031  1
  O  O27  1  0.08588362  0.69963347  0.28303969  1
  O  O28  1  0.89465266  0.81239011  0.96073050  1
  O  O29  1  0.39465266  0.68760989  0.53926950  1
  O  O30  1  0.10534734  0.18760989  0.03926950  1
  O  O31  1  0.60534734  0.31239011  0.46073050  1
  O  O32  1  0.06045493  0.39983244  0.90104787  1
  O  O33  1  0.56045493  0.10016756  0.59895213  1
  O  O34  1  0.93954507  0.60016756  0.09895213  1
  O  O35  1  0.43954507  0.89983244  0.40104787  1
  Nb  Nb36  1  0.76106684  0.85351282  0.33476761  1
  Nb  Nb37  1  0.26106684  0.64648718  0.16523239  1
  Nb  Nb38  1  0.23893316  0.14648718  0.66523239  1
  Nb  Nb39  1  0.73893316  0.35351282  0.83476761  1
  Nb  Nb40  1  0.25706561  0.67423738  0.42556387  1
  Nb  Nb41  1  0.75706561  0.82576262  0.07443613  1
  Nb  Nb42  1  0.74293439  0.32576262  0.57443613  1
  Nb  Nb43  1  0.24293439  0.17423738  0.92556387  1
  Nb  Nb44  1  0.76938320  0.34018861  0.33130498  1
  Nb  Nb45  1  0.26938320  0.15981139  0.16869502  1
  Nb  Nb46  1  0.23061680  0.65981139  0.66869502  1
  Nb  Nb47  1  0.73061680  0.84018861  0.83130498  1
