# generated using pymatgen
data_Mn3Cu3O8
_symmetry_space_group_name_H-M   'P 1'
_cell_length_a   5.95544770
_cell_length_b   5.95544768
_cell_length_c   5.95544832
_cell_angle_alpha   60.33378866
_cell_angle_beta   60.33378667
_cell_angle_gamma   60.33378307
_symmetry_Int_Tables_number   1
_chemical_formula_structural   Mn3Cu3O8
_chemical_formula_sum   'Mn3 Cu3 O8'
_cell_volume   150.48583459
_cell_formula_units_Z   1
loop_
 _symmetry_equiv_pos_site_id
 _symmetry_equiv_pos_as_xyz
  1  'x, y, z'
loop_
 _atom_site_type_symbol
 _atom_site_label
 _atom_site_symmetry_multiplicity
 _atom_site_fract_x
 _atom_site_fract_y
 _atom_site_fract_z
 _atom_site_occupancy
  Cu  Cu0  1  0.00210903  0.00210903  0.00210903  1
  Cu  Cu1  1  0.24789097  0.24789097  0.24789097  1
  Cu  Cu2  1  0.62500000  0.62500000  0.62500000  1
  Mn  Mn3  1  0.12500000  0.62500000  0.62500000  1
  Mn  Mn4  1  0.62500000  0.12500000  0.62500000  1
  Mn  Mn5  1  0.62500000  0.62500000  0.12500000  1
  O  O6  1  0.38395721  0.38395721  0.38395721  1
  O  O7  1  0.38121911  0.38121911  0.83858955  1
  O  O8  1  0.38121911  0.83858955  0.38121911  1
  O  O9  1  0.83858955  0.38121911  0.38121911  1
  O  O10  1  0.41141045  0.86878089  0.86878089  1
  O  O11  1  0.86878089  0.41141045  0.86878089  1
  O  O12  1  0.86878089  0.86878089  0.41141045  1
  O  O13  1  0.86604279  0.86604279  0.86604279  1
