# generated using pymatgen
data_Li4Ni(PO4)2
_symmetry_space_group_name_H-M   'P 1'
_cell_length_a   8.27525353
_cell_length_b   10.28175812
_cell_length_c   8.28991295
_cell_angle_alpha   90.00000000
_cell_angle_beta   106.21807663
_cell_angle_gamma   90.00000000
_symmetry_Int_Tables_number   1
_chemical_formula_structural   Li4Ni(PO4)2
_chemical_formula_sum   'Li16 Ni4 P8 O32'
_cell_volume   677.27166048
_cell_formula_units_Z   4
loop_
 _symmetry_equiv_pos_site_id
 _symmetry_equiv_pos_as_xyz
  1  'x, y, z'
loop_
 _atom_site_type_symbol
 _atom_site_label
 _atom_site_symmetry_multiplicity
 _atom_site_fract_x
 _atom_site_fract_y
 _atom_site_fract_z
 _atom_site_occupancy
  Li  Li0  1  0.09917536  0.66378007  0.60060574  1
  Li  Li1  1  0.85154819  0.65318086  0.85133003  1
  Li  Li2  1  0.40082464  0.16378007  0.39939426  1
  Li  Li3  1  0.34052642  0.66312461  0.34706464  1
  Li  Li4  1  0.77105916  0.57422699  0.52138274  1
  Li  Li5  1  0.15947358  0.16312461  0.65293536  1
  Li  Li6  1  0.35154819  0.84681914  0.85133003  1
  Li  Li7  1  0.59917536  0.83621993  0.60060574  1
  Li  Li8  1  0.90082464  0.33621993  0.39939426  1
  Li  Li9  1  0.27105916  0.92577301  0.52138274  1
  Li  Li10  1  0.72894084  0.07422699  0.47861726  1
  Li  Li11  1  0.22894084  0.42577301  0.47861726  1
  Li  Li12  1  0.64845181  0.15318086  0.14866997  1
  Li  Li13  1  0.14845181  0.34681914  0.14866997  1
  Li  Li14  1  0.65947358  0.33687539  0.65293536  1
  Li  Li15  1  0.84052642  0.83687539  0.34706464  1
  Ni  Ni16  1  0.90740774  0.15037909  0.90308783  1
  Ni  Ni17  1  0.59259226  0.65037909  0.09691217  1
  Ni  Ni18  1  0.40740774  0.34962091  0.90308783  1
  Ni  Ni19  1  0.09259226  0.84962091  0.09691217  1
  P  P20  1  0.97647806  0.90867554  0.70867300  1
  P  P21  1  0.53677559  0.09363627  0.76997919  1
  P  P22  1  0.47647806  0.59132446  0.70867300  1
  P  P23  1  0.96322441  0.59363627  0.23002081  1
  P  P24  1  0.52352194  0.40867554  0.29132700  1
  P  P25  1  0.03677559  0.40636373  0.76997919  1
  P  P26  1  0.46322441  0.90636373  0.23002081  1
  P  P27  1  0.02352194  0.09132446  0.29132700  1
  O  O28  1  0.68740308  0.39662903  0.43816476  1
  O  O29  1  0.55195357  0.33564132  0.13674085  1
  O  O30  1  0.05195357  0.16435868  0.13674085  1
  O  O31  1  0.31295560  0.89559275  0.06705691  1
  O  O32  1  0.97929926  0.54859864  0.72747087  1
  O  O33  1  0.81259692  0.89662903  0.56183524  1
  O  O34  1  0.81295560  0.60440725  0.06705691  1
  O  O35  1  0.62888087  0.65055547  0.66112452  1
  O  O36  1  0.40820234  0.84738450  0.37947722  1
  O  O37  1  0.68704440  0.10440725  0.93294309  1
  O  O38  1  0.12888087  0.84944453  0.66112452  1
  O  O39  1  0.47929926  0.95140136  0.72747087  1
  O  O40  1  0.44804643  0.66435868  0.86325915  1
  O  O41  1  0.09179766  0.34738450  0.62052278  1
  O  O42  1  0.90820234  0.65261550  0.37947722  1
  O  O43  1  0.59179766  0.15261550  0.62052278  1
  O  O44  1  0.37111913  0.34944453  0.33887548  1
  O  O45  1  0.50948162  0.44349659  0.74695296  1
  O  O46  1  0.87111913  0.15055547  0.33887548  1
  O  O47  1  0.11131042  0.67271262  0.19652795  1
  O  O48  1  0.49051838  0.55650341  0.25304704  1
  O  O49  1  0.18704440  0.39559275  0.93294309  1
  O  O50  1  0.02070074  0.45140136  0.27252913  1
  O  O51  1  0.99051838  0.94349659  0.25304704  1
  O  O52  1  0.61131042  0.82728738  0.19652795  1
  O  O53  1  0.31259692  0.60337097  0.56183524  1
  O  O54  1  0.88868958  0.32728738  0.80347205  1
  O  O55  1  0.38868958  0.17271262  0.80347205  1
  O  O56  1  0.52070074  0.04859864  0.27252913  1
  O  O57  1  0.18740308  0.10337097  0.43816476  1
  O  O58  1  0.00948162  0.05650341  0.74695296  1
  O  O59  1  0.94804643  0.83564132  0.86325915  1
