# generated using pymatgen
data_LiMnP2O7
_symmetry_space_group_name_H-M   'P 1'
_cell_length_a   5.17038849
_cell_length_b   8.01549914
_cell_length_c   13.59410354
_cell_angle_alpha   90.00000000
_cell_angle_beta   89.65062473
_cell_angle_gamma   90.00000000
_symmetry_Int_Tables_number   1
_chemical_formula_structural   LiMnP2O7
_chemical_formula_sum   'Li4 Mn4 P8 O28'
_cell_volume   563.37328257
_cell_formula_units_Z   4
loop_
 _symmetry_equiv_pos_site_id
 _symmetry_equiv_pos_as_xyz
  1  'x, y, z'
loop_
 _atom_site_type_symbol
 _atom_site_label
 _atom_site_symmetry_multiplicity
 _atom_site_fract_x
 _atom_site_fract_y
 _atom_site_fract_z
 _atom_site_occupancy
  Li  Li0  1  0.27441519  0.81242608  0.28867957  1
  Li  Li1  1  0.22558639  0.31242613  0.21132061  1
  Li  Li2  1  0.77441483  0.68757377  0.78867973  1
  Li  Li3  1  0.72558603  0.18757382  0.71132077  1
  O  O4  1  0.22735863  0.89061493  0.57448266  1
  O  O5  1  0.98924697  0.48142369  0.77967322  1
  O  O6  1  0.92140534  0.67739013  0.50381780  1
  O  O7  1  0.89872139  0.85790397  0.33303924  1
  O  O8  1  0.06514217  0.86490611  0.75234654  1
  O  O9  1  0.01075231  0.51857746  0.22032710  1
  O  O10  1  0.07859394  0.32260977  0.49618252  1
  O  O11  1  0.10127793  0.14209593  0.66696034  1
  O  O12  1  0.17792116  0.08587911  0.90365970  1
  O  O13  1  0.13297497  0.22840379  0.07254699  1
  O  O14  1  0.27264096  0.39061497  0.92551730  1
  O  O15  1  0.93485909  0.13509380  0.24765306  1
  O  O16  1  0.32207842  0.58587906  0.59634026  1
  O  O17  1  0.39872166  0.64209588  0.83303962  1
  O  O18  1  0.36702470  0.72840374  0.42745243  1
  O  O19  1  0.43485741  0.36490615  0.74765342  1
  O  O20  1  0.42140570  0.82260972  0.00381764  1
  O  O21  1  0.48924733  0.01857626  0.27967306  1
  O  O22  1  0.82207812  0.91412080  0.09634062  1
  O  O23  1  0.57859556  0.17739018  0.99618196  1
  O  O24  1  0.56514187  0.63509375  0.25234690  1
  O  O25  1  0.63297462  0.27159616  0.57254715  1
  O  O26  1  0.60127763  0.35790402  0.16696070  1
  O  O27  1  0.67792089  0.41412084  0.40365932  1
  O  O28  1  0.77264065  0.10938498  0.42551766  1
  O  O29  1  0.72735836  0.60938493  0.07448228  1
  O  O30  1  0.86702434  0.77159611  0.92745259  1
  O  O31  1  0.51075199  0.98142364  0.72032652  1
  P  P32  1  0.78865520  0.28912325  0.47786185  1
  P  P33  1  0.73761304  0.52864686  0.18261360  1
  P  P34  1  0.76238597  0.02864691  0.31738634  1
  P  P35  1  0.71134382  0.78912320  0.02213809  1
  P  P36  1  0.21134412  0.71087665  0.52213773  1
  P  P37  1  0.26238627  0.47135305  0.81738598  1
  P  P38  1  0.28865547  0.21087670  0.97786223  1
  P  P39  1  0.23761331  0.97135300  0.68261398  1
  Mn  Mn40  1  0.24132142  0.84954063  0.88166479  1
  Mn  Mn41  1  0.25867816  0.34954068  0.61833517  1
  Mn  Mn42  1  0.74132310  0.65045922  0.38166443  1
  Mn  Mn43  1  0.75867786  0.15045927  0.11833553  1
