# generated using pymatgen
data_LiV(PO3)3
_symmetry_space_group_name_H-M   'P 1'
_cell_length_a   8.53478210
_cell_length_b   8.74640121
_cell_length_c   8.83371295
_cell_angle_alpha   90.00000000
_cell_angle_beta   90.00000000
_cell_angle_gamma   90.00000000
_symmetry_Int_Tables_number   1
_chemical_formula_structural   LiV(PO3)3
_chemical_formula_sum   'Li4 V4 P12 O36'
_cell_volume   659.42455616
_cell_formula_units_Z   4
loop_
 _symmetry_equiv_pos_site_id
 _symmetry_equiv_pos_as_xyz
  1  'x, y, z'
loop_
 _atom_site_type_symbol
 _atom_site_label
 _atom_site_symmetry_multiplicity
 _atom_site_fract_x
 _atom_site_fract_y
 _atom_site_fract_z
 _atom_site_occupancy
  Li  Li0  1  0.15160842  0.86539232  0.38450042  1
  Li  Li1  1  0.34839156  0.13460837  0.88450078  1
  Li  Li2  1  0.65160841  0.63460815  0.61549917  1
  Li  Li3  1  0.84839154  0.36539140  0.11549881  1
  O  O4  1  0.39587123  0.87384121  0.41723996  1
  O  O5  1  0.09133368  0.39076093  0.13416788  1
  O  O6  1  0.10412876  0.12615834  0.91724032  1
  O  O7  1  0.12573968  0.61535751  0.31972002  1
  O  O8  1  0.12890441  0.80579748  0.62162648  1
  O  O9  1  0.13765917  0.53717366  0.73457504  1
  O  O10  1  0.16003131  0.14039725  0.40667375  1
  O  O11  1  0.19081732  0.90435412  0.15736284  1
  O  O12  1  0.22874819  0.63554756  0.05055573  1
  O  O13  1  0.27125180  0.36445313  0.55055609  1
  O  O14  1  0.30918267  0.09564542  0.65736206  1
  O  O15  1  0.33996867  0.85960344  0.90667411  1
  O  O16  1  0.36234081  0.46282588  0.23457468  1
  O  O17  1  0.37109557  0.19420206  0.12162612  1
  O  O18  1  0.37426030  0.38464319  0.81971924  1
  O  O19  1  0.04015091  0.22530229  0.65468019  1
  O  O20  1  0.40866630  0.60923976  0.63416825  1
  O  O21  1  0.45984908  0.77469841  0.15467983  1
  O  O22  1  0.54015089  0.27469748  0.34531939  1
  O  O23  1  0.59133366  0.10923884  0.86583170  1
  O  O24  1  0.60412874  0.37384144  0.08276041  1
  O  O25  1  0.62573967  0.88464296  0.68028071  1
  O  O26  1  0.62890439  0.69420183  0.37837424  1
  O  O27  1  0.63765915  0.96282681  0.26542568  1
  O  O28  1  0.95984906  0.72530206  0.84531976  1
  O  O29  1  0.69081730  0.59564519  0.84263788  1
  O  O30  1  0.72874817  0.86445290  0.94944386  1
  O  O31  1  0.77125178  0.13554664  0.44944464  1
  O  O32  1  0.80918265  0.40435435  0.34263752  1
  O  O33  1  0.83996865  0.64039703  0.09332662  1
  O  O34  1  0.86234079  0.03717389  0.76542491  1
  O  O35  1  0.87109555  0.30579771  0.87837461  1
  O  O36  1  0.87426028  0.11535774  0.18028035  1
  O  O37  1  0.89587121  0.62615926  0.58275963  1
  O  O38  1  0.90866629  0.89076070  0.36583248  1
  O  O39  1  0.66003130  0.35960367  0.59332584  1
  P  P40  1  0.02795429  0.67866305  0.68243949  1
  P  P41  1  0.18953434  0.52167331  0.19031121  1
  P  P42  1  0.20151804  0.19268533  0.56260638  1
  P  P43  1  0.29848312  0.80731421  0.06260716  1
  P  P44  1  0.31046564  0.47832738  0.69031157  1
  P  P45  1  0.47204569  0.32133764  0.18243912  1
  P  P46  1  0.52795427  0.82133741  0.31756124  1
  P  P47  1  0.68953433  0.97832715  0.80968838  1
  P  P48  1  0.97204568  0.17866213  0.81756046  1
  P  P49  1  0.79848310  0.69268510  0.93739357  1
  P  P50  1  0.81046562  0.02167354  0.30968915  1
  P  P51  1  0.70151802  0.30731444  0.43739320  1
  V  V52  1  0.12911092  0.14485757  0.16035503  1
  V  V53  1  0.37088907  0.85514312  0.66035539  1
  V  V54  1  0.62911090  0.35514335  0.83964456  1
  V  V55  1  0.87088905  0.64485734  0.33964533  1
