# generated using pymatgen
data_Nd4Ge13
_symmetry_space_group_name_H-M   'P 1'
_cell_length_a   4.01447494
_cell_length_b   4.14830860
_cell_length_c   22.39181814
_cell_angle_alpha   90.00000000
_cell_angle_beta   90.00000000
_cell_angle_gamma   90.00000000
_symmetry_Int_Tables_number   1
_chemical_formula_structural   Nd4Ge13
_chemical_formula_sum   'Nd4 Ge13'
_cell_volume   372.89723775
_cell_formula_units_Z   1
loop_
 _symmetry_equiv_pos_site_id
 _symmetry_equiv_pos_as_xyz
  1  'x, y, z'
loop_
 _atom_site_type_symbol
 _atom_site_label
 _atom_site_symmetry_multiplicity
 _atom_site_fract_x
 _atom_site_fract_y
 _atom_site_fract_z
 _atom_site_occupancy
  Nd  Nd0  1  -0.00000000  0.50000000  0.32770348  1
  Nd  Nd1  1  0.50000000  0.50000000  0.83691278  1
  Nd  Nd2  1  0.50000000  0.50000000  0.15700907  1
  Nd  Nd3  1  -0.00000000  0.50000000  0.67454192  1
  Ge  Ge4  1  0.00000000  -0.00000000  0.19824679  1
  Ge  Ge5  1  0.50000000  0.00000000  0.71773262  1
  Ge  Ge6  1  0.50000000  -0.00000000  0.26731502  1
  Ge  Ge7  1  -0.00000000  -0.00000000  0.78918858  1
  Ge  Ge8  1  -0.00000000  -0.00000000  0.46018839  1
  Ge  Ge9  1  0.50000000  0.00000000  0.94260241  1
  Ge  Ge10  1  0.50000000  -0.00000000  0.05472326  1
  Ge  Ge11  1  0.00000000  0.00000000  0.57347268  1
  Ge  Ge12  1  0.50000000  0.50000000  0.45517859  1
  Ge  Ge13  1  -0.00000000  0.50000000  0.94234512  1
  Ge  Ge14  1  -0.00000000  0.50000000  0.05369021  1
  Ge  Ge15  1  0.50000000  0.50000000  0.56935063  1
  Ge  Ge16  1  0.50000000  0.00000000  0.38359848  1
