# generated using pymatgen
data_Te8Ir3
_symmetry_space_group_name_H-M   'P 1'
_cell_length_a   19.56400530
_cell_length_b   9.21498718
_cell_length_c   9.14986281
_cell_angle_alpha   60.23450570
_cell_angle_beta   45.42627332
_cell_angle_gamma   44.89216475
_symmetry_Int_Tables_number   1
_chemical_formula_structural   Te8Ir3
_chemical_formula_sum   'Te24 Ir9'
_cell_volume   829.32521656
_cell_formula_units_Z   3
loop_
 _symmetry_equiv_pos_site_id
 _symmetry_equiv_pos_as_xyz
  1  'x, y, z'
loop_
 _atom_site_type_symbol
 _atom_site_label
 _atom_site_symmetry_multiplicity
 _atom_site_fract_x
 _atom_site_fract_y
 _atom_site_fract_z
 _atom_site_occupancy
  Ir  Ir0  1  0.00079593  0.00067307  0.99558913  1
  Ir  Ir1  1  0.33333334  0.99999992  0.49999996  1
  Ir  Ir2  1  0.33333321  0.49999996  0.00000006  1
  Ir  Ir3  1  0.66587069  0.99932688  0.00441106  1
  Ir  Ir4  1  0.33333323  0.49999999  0.50000003  1
  Ir  Ir5  1  0.66756590  0.99938881  0.49890490  1
  Ir  Ir6  1  0.66728136  0.49948910  0.00259398  1
  Ir  Ir7  1  0.99910085  0.00061132  0.50109514  1
  Ir  Ir8  1  0.99938543  0.50051091  0.99740597  1
  Te  Te9  1  0.03910723  0.12913587  0.62469778  1
  Te  Te10  1  0.12558475  0.36076286  0.12367201  1
  Te  Te11  1  0.21192756  0.36573812  0.35999019  1
  Te  Te12  1  0.12491822  0.12442197  0.87229408  1
  Te  Te13  1  0.20867844  0.87086753  0.13983900  1
  Te  Te14  1  0.12533880  0.62314345  0.62223246  1
  Te  Te15  1  0.37093245  0.13091162  0.63490492  1
  Te  Te16  1  0.45925581  0.38106008  0.12126815  1
  Te  Te17  1  0.20741120  0.61893982  0.87873158  1
  Te  Te18  1  0.29573429  0.86908833  0.36509509  1
  Te  Te19  1  0.54132804  0.37685634  0.37776729  1
  Te  Te20  1  0.45798845  0.12913213  0.86016083  1
  Te  Te21  1  0.54174828  0.87557825  0.12770578  1
  Te  Te22  1  0.45473915  0.63426170  0.64000969  1
  Te  Te23  1  0.70486680  0.12939231  0.62600086  1
  Te  Te24  1  0.79304460  0.36850084  0.13080472  1
  Te  Te25  1  0.54108175  0.63923737  0.87632815  1
  Te  Te26  1  0.62755941  0.87086405  0.37530239  1
  Te  Te27  1  0.87620478  0.37396056  0.36761577  1
  Te  Te28  1  0.78849944  0.13208264  0.87122875  1
  Te  Te29  1  0.87816706  0.86791756  0.12877129  1
  Te  Te30  1  0.79046181  0.62603962  0.63238446  1
  Te  Te31  1  0.87362193  0.63149921  0.86919521  1
  Te  Te32  1  0.96179980  0.87060782  0.37399931  1
