# generated using pymatgen
data_Fe4(PO4)3
_symmetry_space_group_name_H-M   'P 1'
_cell_length_a   8.85288677
_cell_length_b   8.85288678
_cell_length_c   6.55956013
_cell_angle_alpha   73.08392096
_cell_angle_beta   106.91607899
_cell_angle_gamma   87.26845911
_symmetry_Int_Tables_number   1
_chemical_formula_structural   Fe4(PO4)3
_chemical_formula_sum   'Fe8 P6 O24'
_cell_volume   465.62813634
_cell_formula_units_Z   2
loop_
 _symmetry_equiv_pos_site_id
 _symmetry_equiv_pos_as_xyz
  1  'x, y, z'
loop_
 _atom_site_type_symbol
 _atom_site_label
 _atom_site_symmetry_multiplicity
 _atom_site_fract_x
 _atom_site_fract_y
 _atom_site_fract_z
 _atom_site_occupancy
  O  O0  1  0.48352113  0.73122086  0.68652571  1
  O  O1  1  0.82363334  0.73807823  0.46416120  1
  O  O2  1  0.78995722  0.18991501  0.34055687  1
  O  O3  1  0.72631790  0.53146273  0.26175116  1
  O  O4  1  0.81008420  0.21004352  0.84055630  1
  O  O5  1  0.74286263  0.49550493  0.82759119  1
  O  O6  1  0.00361228  0.32755508  0.10494603  1
  O  O7  1  0.96466908  0.42134357  0.68726433  1
  O  O8  1  0.00986379  0.66993011  0.89415636  1
  O  O9  1  0.04633567  0.60873785  0.31063913  1
  O  O10  1  0.26192092  0.17636759  0.96416053  1
  O  O11  1  0.18236757  0.26517986  0.53736239  1
  O  O12  1  0.18746812  0.80230265  0.61935701  1
  O  O13  1  0.26803266  0.46873652  0.75175065  1
  O  O14  1  0.57865547  0.03533172  0.18726368  1
  O  O15  1  0.26877916  0.51647923  0.18652559  1
  O  O16  1  0.39126238  0.95366535  0.81063882  1
  O  O17  1  0.33006970  0.99013616  0.39415632  1
  O  O18  1  0.46853688  0.27368166  0.76175117  1
  O  O19  1  0.73482041  0.81763212  0.03736262  1
  O  O20  1  0.50449533  0.25713797  0.32759107  1
  O  O21  1  0.53126448  0.73196720  0.25175108  1
  O  O22  1  0.67244453  0.99638839  0.60494563  1
  O  O23  1  0.19769757  0.81253176  0.11935715  1
  P  P24  1  0.13123804  0.65460666  0.12912730  1
  P  P25  1  0.28914060  0.28989082  0.75170142  1
  P  P26  1  0.34539387  0.86876209  0.62912744  1
  P  P27  1  0.64201894  0.11960391  0.36873849  1
  P  P28  1  0.71011011  0.71085909  0.25170189  1
  P  P29  1  0.88039658  0.35797995  0.86873908  1
  Fe  Fe30  1  0.93434477  0.35290646  0.38334767  1
  Fe  Fe31  1  0.75634845  0.75310022  0.75390515  1
  Fe  Fe32  1  0.50160447  0.49213680  0.25966748  1
  Fe  Fe33  1  0.64709333  0.06565497  0.88334769  1
  Fe  Fe34  1  0.36873614  0.93985856  0.11745334  1
  Fe  Fe35  1  0.50786362  0.49839452  0.75966801  1
  Fe  Fe36  1  0.24689933  0.24365143  0.25390504  1
  Fe  Fe37  1  0.06014113  0.63126349  0.61745336  1
