# generated using pymatgen
data_Fe4As2O11
_symmetry_space_group_name_H-M   'P 1'
_cell_length_a   5.14403119
_cell_length_b   6.57525999
_cell_length_c   6.73326962
_cell_angle_alpha   108.94071738
_cell_angle_beta   106.12899713
_cell_angle_gamma   98.14768464
_symmetry_Int_Tables_number   1
_chemical_formula_structural   Fe4As2O11
_chemical_formula_sum   'Fe4 As2 O11'
_cell_volume   200.07896105
_cell_formula_units_Z   1
loop_
 _symmetry_equiv_pos_site_id
 _symmetry_equiv_pos_as_xyz
  1  'x, y, z'
loop_
 _atom_site_type_symbol
 _atom_site_label
 _atom_site_symmetry_multiplicity
 _atom_site_fract_x
 _atom_site_fract_y
 _atom_site_fract_z
 _atom_site_occupancy
  O  O0  1  0.73912815  0.52531970  0.95648506  1
  O  O1  1  0.26087185  0.47468030  0.04351494  1
  O  O2  1  0.00000000  0.00000000  0.00000000  1
  O  O3  1  0.92595848  0.20723486  0.63168547  1
  O  O4  1  0.07404152  0.79276514  0.36831453  1
  O  O5  1  0.39343466  0.27782229  0.46071888  1
  O  O6  1  0.21549974  0.65582208  0.73783997  1
  O  O7  1  0.78450026  0.34417792  0.26216003  1
  O  O8  1  0.46326598  0.09149064  0.78794937  1
  O  O9  1  0.53673402  0.90850936  0.21205063  1
  O  O10  1  0.60656534  0.72217771  0.53928112  1
  Fe  Fe11  1  0.10427266  0.75337684  0.03150410  1
  Fe  Fe12  1  0.89572734  0.24662316  0.96849590  1
  Fe  Fe13  1  0.65805866  0.62804747  0.25057311  1
  Fe  Fe14  1  0.34194134  0.37195253  0.74942689  1
  As  As15  1  0.33745661  0.81462522  0.60574232  1
  As  As16  1  0.66254339  0.18537478  0.39425768  1
