# generated using pymatgen
data_LiFe(PO3)4
_symmetry_space_group_name_H-M   'P 1'
_cell_length_a   8.51653515
_cell_length_b   8.51653516
_cell_length_c   7.73718063
_cell_angle_alpha   82.52351129
_cell_angle_beta   97.47648872
_cell_angle_gamma   67.22071010
_symmetry_Int_Tables_number   1
_chemical_formula_structural   LiFe(PO3)4
_chemical_formula_sum   'Li2 Fe2 P8 O24'
_cell_volume   502.91896920
_cell_formula_units_Z   2
loop_
 _symmetry_equiv_pos_site_id
 _symmetry_equiv_pos_as_xyz
  1  'x, y, z'
loop_
 _atom_site_type_symbol
 _atom_site_label
 _atom_site_symmetry_multiplicity
 _atom_site_fract_x
 _atom_site_fract_y
 _atom_site_fract_z
 _atom_site_occupancy
  Li  Li0  1  0.51110587  0.18012893  0.22677656  1
  Li  Li1  1  0.81987036  0.48889402  0.72677706  1
  O  O2  1  0.37137001  0.33949861  0.01675628  1
  O  O3  1  0.99673981  0.74235285  0.51742962  1
  O  O4  1  0.11287793  0.12720918  0.26376369  1
  O  O5  1  0.09146684  0.36475002  0.81403184  1
  O  O6  1  0.25764703  0.00326021  0.01742902  1
  O  O7  1  0.15288152  0.62893026  0.83934000  1
  O  O8  1  0.35962234  0.10312485  0.69658268  1
  O  O9  1  0.09241585  0.85329577  0.18208585  1
  O  O10  1  0.14670453  0.90758424  0.68208517  1
  O  O11  1  0.32979055  0.41279351  0.67722862  1
  O  O12  1  0.66050064  0.62863020  0.51675544  1
  O  O13  1  0.40635502  0.26892427  0.41455277  1
  O  O14  1  0.62309230  0.17726124  0.69705051  1
  O  O15  1  0.37106969  0.84711861  0.33934069  1
  O  O16  1  0.89687489  0.64037731  0.19658340  1
  O  O17  1  0.58720563  0.67021005  0.17722784  1
  O  O18  1  0.87279079  0.88712152  0.76376305  1
  O  O19  1  0.84331704  0.09312356  0.34388618  1
  O  O20  1  0.73107574  0.59364498  0.91455206  1
  O  O21  1  0.90687576  0.15668354  0.84388529  1
  O  O22  1  0.63524944  0.90853326  0.31403247  1
  O  O23  1  0.82273881  0.37690751  0.19704996  1
  O  O24  1  0.98838866  0.25948756  0.51544562  1
  O  O25  1  0.74051210  0.01161147  0.01544626  1
  P  P26  1  0.57728792  0.75958107  0.35085152  1
  P  P27  1  0.76665944  0.57836220  0.10903912  1
  P  P28  1  0.04518186  0.79678662  0.68647076  1
  P  P29  1  0.24041899  0.42271204  0.85085212  1
  P  P30  1  0.42163742  0.23334092  0.60903960  1
  P  P31  1  0.20321305  0.95481796  0.18647016  1
  P  P32  1  0.78974946  0.06058420  0.84315002  1
  P  P33  1  0.93941635  0.21025045  0.34315082  1
  Fe  Fe34  1  0.87721569  0.86321073  0.26306564  1
  Fe  Fe35  1  0.13678921  0.12278329  0.76306636  1
