# generated using pymatgen
data_Zn(FeO2)2
_symmetry_space_group_name_H-M   'P 1'
_cell_length_a   6.05135988
_cell_length_b   6.05149683
_cell_length_c   18.12522821
_cell_angle_alpha   59.95424819
_cell_angle_beta   59.95537851
_cell_angle_gamma   59.99081257
_symmetry_Int_Tables_number   1
_chemical_formula_structural   Zn(FeO2)2
_chemical_formula_sum   'Zn6 Fe12 O24'
_cell_volume   468.98310211
_cell_formula_units_Z   6
loop_
 _symmetry_equiv_pos_site_id
 _symmetry_equiv_pos_as_xyz
  1  'x, y, z'
loop_
 _atom_site_type_symbol
 _atom_site_label
 _atom_site_symmetry_multiplicity
 _atom_site_fract_x
 _atom_site_fract_y
 _atom_site_fract_z
 _atom_site_occupancy
  Fe  Fe0  1  0.00447606  0.49842415  0.16623726  1
  Fe  Fe1  1  0.49842667  0.49842357  0.16621481  1
  Fe  Fe2  1  0.00071452  0.50045203  0.49946681  1
  Fe  Fe3  1  0.49842579  0.00447444  0.16623699  1
  Fe  Fe4  1  0.50099077  0.50098727  0.33230888  1
  Fe  Fe5  1  0.50043759  0.50043698  0.49946696  1
  Fe  Fe6  1  0.00220944  0.49912894  0.83316848  1
  Fe  Fe7  1  0.50045017  0.00071688  0.49946820  1
  Fe  Fe8  1  0.49912769  0.00221108  0.83316768  1
  Fe  Fe9  1  0.50098325  0.50098352  0.66568235  1
  Fe  Fe10  1  0.49913531  0.49913647  0.83316518  1
  Fe  Fe11  1  0.87634917  0.87635414  0.95697337  1
  O  O12  1  0.25344324  0.25344354  0.09079236  1
  O  O13  1  0.25939519  0.25939327  0.24054839  1
  O  O14  1  0.25353057  0.72075131  0.09075110  1
  O  O15  1  0.72075193  0.25352830  0.09075220  1
  O  O16  1  0.28378291  0.73856938  0.24634443  1
  O  O17  1  0.26010778  0.26010485  0.42043453  1
  O  O18  1  0.73857267  0.28378015  0.24634453  1
  O  O19  1  0.74487917  0.74487839  0.08849117  1
  O  O20  1  0.26013799  0.71844093  0.42041612  1
  O  O21  1  0.26030979  0.26031356  0.57303256  1
  O  O22  1  0.73864758  0.73864372  0.24630389  1
  O  O23  1  0.71844303  0.26013573  0.42041595  1
  O  O24  1  0.28081641  0.73935190  0.58018549  1
  O  O25  1  0.26094949  0.26095010  0.75335799  1
  O  O26  1  0.73935114  0.28081626  0.58018501  1
  O  O27  1  0.73985732  0.73985388  0.42680700  1
  O  O28  1  0.25969850  0.25970300  0.90697252  1
  O  O29  1  0.26092855  0.71802364  0.75336611  1
  O  O30  1  0.73934600  0.73934844  0.58017994  1
  O  O31  1  0.71802264  0.26092956  0.75336538  1
  O  O32  1  0.26806056  0.74986128  0.91074155  1
  O  O33  1  0.73790084  0.73789634  0.76208917  1
  O  O34  1  0.74985417  0.26806375  0.91074326  1
  O  O35  1  0.74987523  0.74988198  0.91072789  1
  Zn  Zn36  1  0.12132942  0.12132836  0.04531697  1
  Zn  Zn37  1  0.12445973  0.12445684  0.37551565  1
  Zn  Zn38  1  0.49814850  0.49815061  0.00187679  1
  Zn  Zn39  1  0.12568549  0.12568655  0.70764364  1
  Zn  Zn40  1  0.87665630  0.87665335  0.29004758  1
  Zn  Zn41  1  0.87533144  0.87533153  0.62469385  1
