# generated using pymatgen
data_SrLa4TiAl4O15
_symmetry_space_group_name_H-M   'P 1'
_cell_length_a   3.84749883
_cell_length_b   38.34429782
_cell_length_c   5.41785790
_cell_angle_alpha   45.05191596
_cell_angle_beta   90.00000000
_cell_angle_gamma   90.00000000
_symmetry_Int_Tables_number   1
_chemical_formula_structural   SrLa4TiAl4O15
_chemical_formula_sum   'Sr2 La8 Ti2 Al8 O30'
_cell_volume   565.69853977
_cell_formula_units_Z   2
loop_
 _symmetry_equiv_pos_site_id
 _symmetry_equiv_pos_as_xyz
  1  'x, y, z'
loop_
 _atom_site_type_symbol
 _atom_site_label
 _atom_site_symmetry_multiplicity
 _atom_site_fract_x
 _atom_site_fract_y
 _atom_site_fract_z
 _atom_site_occupancy
  Al  Al0  1  0.50000000  0.20331847  0.48338479  1
  Al  Al1  1  0.50000000  0.30219331  0.48894884  1
  Al  Al2  1  0.50000000  0.40095512  0.49521470  1
  Al  Al3  1  0.50000000  0.50032481  0.49838289  1
  Al  Al4  1  0.50000000  0.59967519  0.50161711  1
  Al  Al5  1  0.50000000  0.69904488  0.50478530  1
  Al  Al6  1  0.50000000  0.79780669  0.51105116  1
  Al  Al7  1  0.50000000  0.89668153  0.51661521  1
  La  La8  1  0.00000000  0.20418061  0.97907081  1
  La  La9  1  0.00000000  0.30147836  0.99256296  1
  La  La10  1  0.00000000  0.40100008  0.99499821  1
  La  La11  1  0.00000000  0.50014986  0.99925848  1
  La  La12  1  0.00000000  0.59985014  0.00074152  1
  La  La13  1  0.00000000  0.69899992  0.00500179  1
  La  La14  1  0.00000000  0.79852164  0.00743704  1
  La  La15  1  0.00000000  0.89581939  0.02092919  1
  O  O16  1  0.00000000  0.99617856  0.51914175  1
  O  O17  1  0.00000000  0.10382144  0.48085825  1
  O  O18  1  0.00000000  0.20503258  0.47481495  1
  O  O19  1  0.00000000  0.30174522  0.49126244  1
  O  O20  1  0.00000000  0.40105261  0.49472638  1
  O  O21  1  0.00000000  0.50016987  0.49915072  1
  O  O22  1  0.00000000  0.59983013  0.50084928  1
  O  O23  1  0.50000000  0.05000000  0.50000000  1
  O  O24  1  0.50000000  0.15417814  0.47852472  1
  O  O25  1  0.50000000  0.25255804  0.48861787  1
  O  O26  1  0.50000000  0.35150042  0.49219816  1
  O  O27  1  0.50000000  0.45064587  0.49673425  1
  O  O28  1  0.50000000  0.55000000  0.50000000  1
  O  O29  1  0.50000000  0.64935413  0.50326575  1
  O  O30  1  0.50000000  0.74849958  0.50780184  1
  O  O31  1  0.50000000  0.15418743  0.97967479  1
  O  O32  1  0.50000000  0.84744196  0.51138213  1
  O  O33  1  0.50000000  0.05000000  0.00000000  1
  O  O34  1  0.50000000  0.94582186  0.52147528  1
  O  O35  1  0.50000000  0.35150060  0.99272459  1
  O  O36  1  0.50000000  0.25254542  0.98570128  1
  O  O37  1  0.50000000  0.45065534  0.99684341  1
  O  O38  1  0.50000000  0.64934466  0.00315659  1
  O  O39  1  0.50000000  0.55000000  0.00000000  1
  O  O40  1  0.50000000  0.84745458  0.01429872  1
  O  O41  1  0.50000000  0.74849940  0.00727541  1
  O  O42  1  0.50000000  0.94581257  0.02032521  1
  O  O43  1  0.00000000  0.69894739  0.50527362  1
  O  O44  1  0.00000000  0.79825478  0.50873756  1
  O  O45  1  0.00000000  0.89496742  0.52518505  1
  Sr  Sr46  1  0.00000000  0.99703072  0.01484473  1
  Sr  Sr47  1  0.00000000  0.10296928  0.98515527  1
  Ti  Ti48  1  0.50000000  0.99784423  0.51072580  1
  Ti  Ti49  1  0.50000000  0.10215577  0.48927420  1
