# generated using pymatgen
data_Nb2Ru
_symmetry_space_group_name_H-M   'P 1'
_cell_length_a   2.85118469
_cell_length_b   2.85118469
_cell_length_c   6.82314724
_cell_angle_alpha   97.98360340
_cell_angle_beta   97.98360340
_cell_angle_gamma   109.58763861
_symmetry_Int_Tables_number   1
_chemical_formula_structural   Nb2Ru
_chemical_formula_sum   'Nb2 Ru1'
_cell_volume   50.71809482
_cell_formula_units_Z   1
loop_
 _symmetry_equiv_pos_site_id
 _symmetry_equiv_pos_as_xyz
  1  'x, y, z'
loop_
 _atom_site_type_symbol
 _atom_site_label
 _atom_site_symmetry_multiplicity
 _atom_site_fract_x
 _atom_site_fract_y
 _atom_site_fract_z
 _atom_site_occupancy
  Nb  Nb0  1  0.66040529  0.66040529  0.32080958  1
  Nb  Nb1  1  0.33959471  0.33959471  0.67919042  1
  Ru  Ru2  1  -0.00000000  0.00000000  0.00000000  1
