# generated using pymatgen
data_LiYF4
_symmetry_space_group_name_H-M   'P 1'
_cell_length_a   5.13418472
_cell_length_b   5.36142041
_cell_length_c   5.36265619
_cell_angle_alpha   90.00000000
_cell_angle_beta   90.00000000
_cell_angle_gamma   90.84673571
_symmetry_Int_Tables_number   1
_chemical_formula_structural   LiYF4
_chemical_formula_sum   'Li2 Y2 F8'
_cell_volume   147.59915840
_cell_formula_units_Z   2
loop_
 _symmetry_equiv_pos_site_id
 _symmetry_equiv_pos_as_xyz
  1  'x, y, z'
loop_
 _atom_site_type_symbol
 _atom_site_label
 _atom_site_symmetry_multiplicity
 _atom_site_fract_x
 _atom_site_fract_y
 _atom_site_fract_z
 _atom_site_occupancy
  Li  Li0  1  0.00000000  0.75000000  0.75698940  1
  Li  Li1  1  0.00000000  0.25000000  0.24301060  1
  F  F2  1  0.73630254  0.06771454  0.43553016  1
  F  F3  1  0.26369746  0.43228546  0.43553016  1
  F  F4  1  0.73727888  0.94077070  0.93715355  1
  F  F5  1  0.26272112  0.55922930  0.93715355  1
  F  F6  1  0.26272112  0.05922930  0.06284645  1
  F  F7  1  0.73727888  0.44077070  0.06284645  1
  F  F8  1  0.73630254  0.56771454  0.56446984  1
  F  F9  1  0.26369746  0.93228546  0.56446984  1
  Y  Y10  1  0.50000000  0.25000000  0.74915202  1
  Y  Y11  1  0.50000000  0.75000000  0.25084798  1
