# generated using pymatgen
data_MgGeO3
_symmetry_space_group_name_H-M   'P 1'
_cell_length_a   5.47043343
_cell_length_b   5.47043343
_cell_length_c   5.47043344
_cell_angle_alpha   54.54173781
_cell_angle_beta   54.54173782
_cell_angle_gamma   54.54173781
_symmetry_Int_Tables_number   1
_chemical_formula_structural   MgGeO3
_chemical_formula_sum   'Mg2 Ge2 O6'
_cell_volume   101.02990512
_cell_formula_units_Z   2
loop_
 _symmetry_equiv_pos_site_id
 _symmetry_equiv_pos_as_xyz
  1  'x, y, z'
loop_
 _atom_site_type_symbol
 _atom_site_label
 _atom_site_symmetry_multiplicity
 _atom_site_fract_x
 _atom_site_fract_y
 _atom_site_fract_z
 _atom_site_occupancy
  O  O0  1  0.04600400  0.78065489  0.44051670  1
  O  O1  1  0.78065489  0.44051670  0.04600400  1
  O  O2  1  0.44051670  0.04600400  0.78065489  1
  O  O3  1  0.95399600  0.21934511  0.55948330  1
  O  O4  1  0.55948330  0.95399600  0.21934511  1
  O  O5  1  0.21934511  0.55948330  0.95399600  1
  Mg  Mg6  1  0.35896381  0.35896381  0.35896381  1
  Mg  Mg7  1  0.64103619  0.64103619  0.64103619  1
  Ge  Ge8  1  0.15332770  0.15332770  0.15332770  1
  Ge  Ge9  1  0.84667230  0.84667230  0.84667230  1
