# generated using pymatgen
data_SrLiTa2O6F
_symmetry_space_group_name_H-M   'P 1'
_cell_length_a   7.46180897
_cell_length_b   7.46180861
_cell_length_c   7.42067494
_cell_angle_alpha   60.18218475
_cell_angle_beta   60.18218687
_cell_angle_gamma   60.57426715
_symmetry_Int_Tables_number   1
_chemical_formula_structural   SrLiTa2O6F
_chemical_formula_sum   'Sr2 Li2 Ta4 O12 F2'
_cell_volume   294.21647561
_cell_formula_units_Z   2
loop_
 _symmetry_equiv_pos_site_id
 _symmetry_equiv_pos_as_xyz
  1  'x, y, z'
loop_
 _atom_site_type_symbol
 _atom_site_label
 _atom_site_symmetry_multiplicity
 _atom_site_fract_x
 _atom_site_fract_y
 _atom_site_fract_z
 _atom_site_occupancy
  F  F0  1  0.52436975  0.52436975  0.47563025  1
  F  F1  1  0.72563025  0.72563025  0.77436975  1
  Li  Li2  1  0.62500000  0.62500000  0.12500000  1
  Li  Li3  1  0.62500000  0.62500000  0.62500000  1
  O  O4  1  0.06148781  0.43982939  0.05554074  1
  O  O5  1  0.05388715  0.05388715  0.44611285  1
  O  O6  1  0.06148781  0.43982939  0.44314206  1
  O  O7  1  0.43982939  0.06148781  0.05554074  1
  O  O8  1  0.18851219  0.81017061  0.19445926  1
  O  O9  1  0.43639547  0.43639547  0.06360453  1
  O  O10  1  0.19611285  0.19611285  0.80388715  1
  O  O11  1  0.43982939  0.06148781  0.44314206  1
  O  O12  1  0.18851219  0.81017061  0.80685794  1
  O  O13  1  0.81017061  0.18851219  0.19445926  1
  O  O14  1  0.81017061  0.18851219  0.80685794  1
  O  O15  1  0.81360453  0.81360453  0.18639547  1
  Sr  Sr16  1  0.12500000  0.62500000  0.62500000  1
  Sr  Sr17  1  0.62500000  0.12500000  0.62500000  1
  Ta  Ta18  1  0.12500000  0.12500000  0.12500000  1
  Ta  Ta19  1  0.12500000  0.62500000  0.12500000  1
  Ta  Ta20  1  0.12500000  0.12500000  0.62500000  1
  Ta  Ta21  1  0.62500000  0.12500000  0.12500000  1
