# generated using pymatgen
data_Al5CuSe8
_symmetry_space_group_name_H-M   'P 1'
_cell_length_a   7.51342576
_cell_length_b   7.51342630
_cell_length_c   7.51342572
_cell_angle_alpha   60.00000162
_cell_angle_beta   59.99999982
_cell_angle_gamma   60.00000237
_symmetry_Int_Tables_number   1
_chemical_formula_structural   Al5CuSe8
_chemical_formula_sum   'Al5 Cu1 Se8'
_cell_volume   299.91559029
_cell_formula_units_Z   1
loop_
 _symmetry_equiv_pos_site_id
 _symmetry_equiv_pos_as_xyz
  1  'x, y, z'
loop_
 _atom_site_type_symbol
 _atom_site_label
 _atom_site_symmetry_multiplicity
 _atom_site_fract_x
 _atom_site_fract_y
 _atom_site_fract_z
 _atom_site_occupancy
  Al  Al0  1  0.25000000  0.25000000  0.25000000  1
  Al  Al1  1  0.10368275  0.63210575  0.63210575  1
  Al  Al2  1  0.63210575  0.63210575  0.10368275  1
  Al  Al3  1  0.63210575  0.10368275  0.63210575  1
  Al  Al4  1  0.63210575  0.63210575  0.63210575  1
  Cu  Cu5  1  0.00000000  0.00000000  0.00000000  1
  Se  Se6  1  0.38393930  0.38393930  0.38393930  1
  Se  Se7  1  0.38393930  0.84818210  0.38393930  1
  Se  Se8  1  0.38393930  0.38393930  0.84818210  1
  Se  Se9  1  0.84818210  0.38393930  0.38393930  1
  Se  Se10  1  0.39365707  0.86878098  0.86878098  1
  Se  Se11  1  0.86878098  0.86878098  0.39365707  1
  Se  Se12  1  0.86878098  0.39365707  0.86878098  1
  Se  Se13  1  0.86878098  0.86878098  0.86878098  1
