# generated using pymatgen
data_SrV2CuO7
_symmetry_space_group_name_H-M   'P 1'
_cell_length_a   5.53899361
_cell_length_b   7.51576420
_cell_length_c   14.70548121
_cell_angle_alpha   90.00000000
_cell_angle_beta   90.00000000
_cell_angle_gamma   90.00000000
_symmetry_Int_Tables_number   1
_chemical_formula_structural   SrV2CuO7
_chemical_formula_sum   'Sr4 V8 Cu4 O28'
_cell_volume   612.18579872
_cell_formula_units_Z   4
loop_
 _symmetry_equiv_pos_site_id
 _symmetry_equiv_pos_as_xyz
  1  'x, y, z'
loop_
 _atom_site_type_symbol
 _atom_site_label
 _atom_site_symmetry_multiplicity
 _atom_site_fract_x
 _atom_site_fract_y
 _atom_site_fract_z
 _atom_site_occupancy
  O  O0  1  0.25000000  0.42709950  0.99473796  1
  O  O1  1  0.75000000  0.57290050  0.00526204  1
  O  O2  1  0.75000000  0.92709950  0.50526204  1
  O  O3  1  0.25000000  0.07290050  0.49473796  1
  O  O4  1  0.25000000  0.11724050  0.86995377  1
  O  O5  1  0.75000000  0.88275950  0.13004623  1
  O  O6  1  0.75000000  0.61724050  0.63004623  1
  O  O7  1  0.25000000  0.38275950  0.36995377  1
  O  O8  1  0.00267389  0.56370594  0.17200997  1
  O  O9  1  0.50267389  0.43629406  0.82799003  1
  O  O10  1  0.99732611  0.06370594  0.32799003  1
  O  O11  1  0.49732611  0.93629406  0.67200997  1
  O  O12  1  0.99732611  0.43629406  0.82799003  1
  O  O13  1  0.49732611  0.56370594  0.17200997  1
  O  O14  1  0.00267389  0.93629406  0.67200997  1
  O  O15  1  0.50267389  0.06370594  0.32799003  1
  O  O16  1  0.50230468  0.70444300  0.35809864  1
  O  O17  1  0.00230468  0.29555700  0.64190136  1
  O  O18  1  0.49769532  0.20444300  0.14190136  1
  O  O19  1  0.99769532  0.79555700  0.85809864  1
  O  O20  1  0.49769532  0.29555700  0.64190136  1
  O  O21  1  0.99769532  0.70444300  0.35809864  1
  O  O22  1  0.50230468  0.79555700  0.85809864  1
  O  O23  1  0.00230468  0.20444300  0.14190136  1
  O  O24  1  0.25000000  0.63474991  0.52532519  1
  O  O25  1  0.75000000  0.36525009  0.47467481  1
  O  O26  1  0.75000000  0.13474991  0.97467481  1
  O  O27  1  0.25000000  0.86525009  0.02532519  1
  V  V28  1  0.25000000  0.35749354  0.88847581  1
  V  V29  1  0.75000000  0.64250646  0.11152419  1
  V  V30  1  0.75000000  0.85749354  0.61152419  1
  V  V31  1  0.25000000  0.14250646  0.38847581  1
  V  V32  1  0.25000000  0.88573829  0.91142327  1
  V  V33  1  0.75000000  0.11426171  0.08857673  1
  V  V34  1  0.75000000  0.38573829  0.58857673  1
  V  V35  1  0.25000000  0.61426171  0.41142327  1
  Cu  Cu36  1  0.25000000  0.11121919  0.63635286  1
  Cu  Cu37  1  0.75000000  0.88878081  0.36364714  1
  Cu  Cu38  1  0.75000000  0.61121919  0.86364714  1
  Cu  Cu39  1  0.25000000  0.38878081  0.13635286  1
  Sr  Sr40  1  0.25000000  0.61623930  0.69895137  1
  Sr  Sr41  1  0.75000000  0.38376070  0.30104863  1
  Sr  Sr42  1  0.75000000  0.11623930  0.80104863  1
  Sr  Sr43  1  0.25000000  0.88376070  0.19895137  1
