# generated using pymatgen
data_MgH12S2O9
_symmetry_space_group_name_H-M   'P 1'
_cell_length_a   6.89925741
_cell_length_b   9.50011745
_cell_length_c   14.51067227
_cell_angle_alpha   90.00000000
_cell_angle_beta   90.00000000
_cell_angle_gamma   90.00000000
_symmetry_Int_Tables_number   1
_chemical_formula_structural   MgH12S2O9
_chemical_formula_sum   'Mg4 H48 S8 O36'
_cell_volume   951.08395849
_cell_formula_units_Z   4
loop_
 _symmetry_equiv_pos_site_id
 _symmetry_equiv_pos_as_xyz
  1  'x, y, z'
loop_
 _atom_site_type_symbol
 _atom_site_label
 _atom_site_symmetry_multiplicity
 _atom_site_fract_x
 _atom_site_fract_y
 _atom_site_fract_z
 _atom_site_occupancy
  Mg  Mg0  1  0.00000000  0.00000000  0.00000000  1
  Mg  Mg1  1  0.50000000  0.50000000  0.00000000  1
  Mg  Mg2  1  0.50000000  0.50000000  0.50000000  1
  Mg  Mg3  1  0.00000000  0.00000000  0.50000000  1
  S  S4  1  0.43559086  0.03742968  0.25000000  1
  S  S5  1  0.93559086  0.46257032  0.75000000  1
  S  S6  1  0.06440914  0.53742968  0.25000000  1
  S  S7  1  0.56440914  0.96257032  0.75000000  1
  S  S8  1  0.61043151  0.21025134  0.25000000  1
  S  S9  1  0.11043151  0.28974866  0.75000000  1
  S  S10  1  0.88956849  0.71025134  0.25000000  1
  S  S11  1  0.38956849  0.78974866  0.75000000  1
  O  O12  1  0.47161139  0.95397251  0.16532280  1
  O  O13  1  0.97161139  0.54602749  0.83467720  1
  O  O14  1  0.02838861  0.45397251  0.33467720  1
  O  O15  1  0.52838861  0.04602749  0.66532280  1
  O  O16  1  0.52838861  0.04602749  0.83467720  1
  O  O17  1  0.02838861  0.45397251  0.16532280  1
  O  O18  1  0.97161139  0.54602749  0.66532280  1
  O  O19  1  0.47161139  0.95397251  0.33467720  1
  O  O20  1  0.23146518  0.08998064  0.25000000  1
  O  O21  1  0.73146518  0.41001936  0.75000000  1
  O  O22  1  0.26853482  0.58998064  0.25000000  1
  O  O23  1  0.76853482  0.91001936  0.75000000  1
  O  O24  1  0.14750337  0.84221392  0.08105782  1
  O  O25  1  0.64750337  0.65778608  0.91894218  1
  O  O26  1  0.35249663  0.34221392  0.41894218  1
  O  O27  1  0.85249663  0.15778608  0.58105782  1
  O  O28  1  0.85249663  0.15778608  0.91894218  1
  O  O29  1  0.35249663  0.34221392  0.08105782  1
  O  O30  1  0.64750337  0.65778608  0.58105782  1
  O  O31  1  0.14750337  0.84221392  0.41894218  1
  O  O32  1  0.96916219  0.12557794  0.11505774  1
  O  O33  1  0.46916219  0.37442206  0.88494226  1
  O  O34  1  0.53083781  0.62557794  0.38494226  1
  O  O35  1  0.03083781  0.87442206  0.61505774  1
  O  O36  1  0.03083781  0.87442206  0.88494226  1
  O  O37  1  0.53083781  0.62557794  0.11505774  1
  O  O38  1  0.46916219  0.37442206  0.61505774  1
  O  O39  1  0.96916219  0.12557794  0.38494226  1
  O  O40  1  0.74027744  0.89850712  0.02464992  1
  O  O41  1  0.24027744  0.60149288  0.97535008  1
  O  O42  1  0.75972256  0.39850712  0.47535008  1
  O  O43  1  0.25972256  0.10149288  0.52464992  1
  O  O44  1  0.25972256  0.10149288  0.97535008  1
  O  O45  1  0.75972256  0.39850712  0.02464992  1
  O  O46  1  0.24027744  0.60149288  0.52464992  1
  O  O47  1  0.74027744  0.89850712  0.47535008  1
  H  H48  1  0.26788479  0.87733986  0.11150888  1
  H  H49  1  0.76788479  0.62266014  0.88849112  1
  H  H50  1  0.23211521  0.37733986  0.38849112  1
  H  H51  1  0.73211521  0.12266014  0.61150888  1
  H  H52  1  0.73211521  0.12266014  0.88849112  1
  H  H53  1  0.23211521  0.37733986  0.11150888  1
  H  H54  1  0.76788479  0.62266014  0.61150888  1
  H  H55  1  0.26788479  0.87733986  0.38849112  1
  H  H56  1  0.06455624  0.80575452  0.13186440  1
  H  H57  1  0.56455624  0.69424548  0.86813560  1
  H  H58  1  0.43544376  0.30575452  0.36813560  1
  H  H59  1  0.93544376  0.19424548  0.63186440  1
  H  H60  1  0.93544376  0.19424548  0.86813560  1
  H  H61  1  0.43544376  0.30575452  0.13186440  1
  H  H62  1  0.56455624  0.69424548  0.63186440  1
  H  H63  1  0.06455624  0.80575452  0.36813560  1
  H  H64  1  0.07251035  0.11718644  0.16254790  1
  H  H65  1  0.57251035  0.38281356  0.83745210  1
  H  H66  1  0.42748965  0.61718644  0.33745210  1
  H  H67  1  0.92748965  0.88281356  0.66254790  1
  H  H68  1  0.92748965  0.88281356  0.83745210  1
  H  H69  1  0.42748965  0.61718644  0.16254790  1
  H  H70  1  0.57251035  0.38281356  0.66254790  1
  H  H71  1  0.07251035  0.11718644  0.33745210  1
  H  H72  1  0.84966275  0.14943376  0.14926985  1
  H  H73  1  0.34966275  0.35056624  0.85073015  1
  H  H74  1  0.65033725  0.64943376  0.35073015  1
  H  H75  1  0.15033725  0.85056624  0.64926985  1
  H  H76  1  0.15033725  0.85056624  0.85073015  1
  H  H77  1  0.65033725  0.64943376  0.14926985  1
  H  H78  1  0.34966275  0.35056624  0.64926985  1
  H  H79  1  0.84966275  0.14943376  0.35073015  1
  H  H80  1  0.64887819  0.91512211  0.07570205  1
  H  H81  1  0.14887819  0.58487789  0.92429795  1
  H  H82  1  0.85112181  0.41512211  0.42429795  1
  H  H83  1  0.35112181  0.08487789  0.57570205  1
  H  H84  1  0.35112181  0.08487789  0.92429795  1
  H  H85  1  0.85112181  0.41512211  0.07570205  1
  H  H86  1  0.14887819  0.58487789  0.57570205  1
  H  H87  1  0.64887819  0.91512211  0.42429795  1
  H  H88  1  0.69920145  0.81296285  0.99101429  1
  H  H89  1  0.19920145  0.68703715  0.00898571  1
  H  H90  1  0.80079855  0.31296285  0.50898571  1
  H  H91  1  0.30079855  0.18703715  0.49101429  1
  H  H92  1  0.30079855  0.18703715  0.00898571  1
  H  H93  1  0.80079855  0.31296285  0.99101429  1
  H  H94  1  0.19920145  0.68703715  0.49101429  1
  H  H95  1  0.69920145  0.81296285  0.50898571  1
