# generated using pymatgen
data_V2Zn4O9
_symmetry_space_group_name_H-M   'P 1'
_cell_length_a   8.30461917
_cell_length_b   9.82809158
_cell_length_c   10.51578525
_cell_angle_alpha   117.16984789
_cell_angle_beta   90.00000000
_cell_angle_gamma   90.00000000
_symmetry_Int_Tables_number   1
_chemical_formula_structural   V2Zn4O9
_chemical_formula_sum   'V8 Zn16 O36'
_cell_volume   763.57750830
_cell_formula_units_Z   4
loop_
 _symmetry_equiv_pos_site_id
 _symmetry_equiv_pos_as_xyz
  1  'x, y, z'
loop_
 _atom_site_type_symbol
 _atom_site_label
 _atom_site_symmetry_multiplicity
 _atom_site_fract_x
 _atom_site_fract_y
 _atom_site_fract_z
 _atom_site_occupancy
  O  O0  1  0.07405479  0.13453218  0.94328582  1
  O  O1  1  0.57405479  0.86546782  0.05671418  1
  O  O2  1  0.70284566  0.58817721  0.12002315  1
  O  O3  1  0.20284566  0.41182279  0.87997685  1
  O  O4  1  0.73457245  0.07545735  0.87391789  1
  O  O5  1  0.23457245  0.92454265  0.12608211  1
  O  O6  1  0.92993252  0.65373977  0.95202731  1
  O  O7  1  0.42993252  0.34626023  0.04797269  1
  O  O8  1  0.38508995  0.50158243  0.53908370  1
  O  O9  1  0.88508995  0.49841757  0.46091630  1
  O  O10  1  0.68901443  0.38576139  0.61035482  1
  O  O11  1  0.18901443  0.61423861  0.38964518  1
  O  O12  1  0.82932387  0.32424348  0.15122223  1
  O  O13  1  0.32932387  0.67575652  0.84877777  1
  O  O14  1  0.01538477  0.77788901  0.76391993  1
  O  O15  1  0.34066432  0.18441156  0.50918004  1
  O  O16  1  0.66726296  0.74256895  0.74581491  1
  O  O17  1  0.16726296  0.25743105  0.25418509  1
  O  O18  1  0.86937495  0.01249563  0.07964809  1
  O  O19  1  0.36937495  0.98750437  0.92035191  1
  O  O20  1  0.36035856  0.86746950  0.39816325  1
  O  O21  1  0.86035856  0.13253050  0.60183675  1
  O  O22  1  0.03492288  0.39607878  0.64118913  1
  O  O23  1  0.53492288  0.60392122  0.35881087  1
  O  O24  1  0.86733258  0.18558432  0.36572832  1
  O  O25  1  0.36733258  0.81441568  0.63427168  1
  O  O26  1  0.53069302  0.44532803  0.84387841  1
  O  O27  1  0.03069302  0.55467197  0.15612159  1
  O  O28  1  0.02645665  0.92126346  0.33190669  1
  O  O29  1  0.52645665  0.07873654  0.66809331  1
  O  O30  1  0.67927118  0.94094661  0.33783369  1
  O  O31  1  0.17927118  0.05905339  0.66216631  1
  O  O32  1  0.36277833  0.65471882  0.11445064  1
  O  O33  1  0.86277833  0.34528118  0.88554936  1
  O  O34  1  0.51538477  0.22211099  0.23608007  1
  O  O35  1  0.84066432  0.81558844  0.49081996  1
  V  V36  1  0.37770961  0.85330368  0.99616892  1
  V  V37  1  0.87770961  0.14669632  0.00383108  1
  V  V38  1  0.35366923  0.04167359  0.55658664  1
  V  V39  1  0.85366923  0.95832641  0.44341336  1
  V  V40  1  0.38081294  0.46654631  0.97006092  1
  V  V41  1  0.88081294  0.53345369  0.02993908  1
  V  V42  1  0.37007613  0.64104814  0.47863098  1
  V  V43  1  0.87007613  0.35895186  0.52136902  1
  Zn  Zn44  1  0.81209807  0.80768784  0.91464163  1
  Zn  Zn45  1  0.31209807  0.19231216  0.08535837  1
  Zn  Zn46  1  0.02881748  0.43973095  0.28146312  1
  Zn  Zn47  1  0.52881748  0.56026905  0.71853688  1
  Zn  Zn48  1  0.35287782  0.28586882  0.38971339  1
  Zn  Zn49  1  0.85287782  0.71413118  0.61028661  1
  Zn  Zn50  1  0.66730701  0.06531499  0.22675431  1
  Zn  Zn51  1  0.16730701  0.93468501  0.77324569  1
  Zn  Zn52  1  0.17603234  0.74015434  0.26178287  1
  Zn  Zn53  1  0.67603234  0.25984566  0.73821713  1
  Zn  Zn54  1  0.10409880  0.60208170  0.79029964  1
  Zn  Zn55  1  0.60409880  0.39791830  0.20970036  1
  Zn  Zn56  1  0.55012562  0.74810551  0.25882087  1
  Zn  Zn57  1  0.05012562  0.25189449  0.74117913  1
  Zn  Zn58  1  0.05394107  0.06347808  0.23453244  1
  Zn  Zn59  1  0.55394107  0.93652192  0.76546756  1
