# generated using pymatgen
data_Cr4Cu3(PO4)6
_symmetry_space_group_name_H-M   'P 1'
_cell_length_a   6.31007092
_cell_length_b   7.94996191
_cell_length_c   9.44986172
_cell_angle_alpha   107.04186828
_cell_angle_beta   107.37912550
_cell_angle_gamma   100.21710838
_symmetry_Int_Tables_number   1
_chemical_formula_structural   Cr4Cu3(PO4)6
_chemical_formula_sum   'Cr4 Cu3 P6 O24'
_cell_volume   413.91277857
_cell_formula_units_Z   1
loop_
 _symmetry_equiv_pos_site_id
 _symmetry_equiv_pos_as_xyz
  1  'x, y, z'
loop_
 _atom_site_type_symbol
 _atom_site_label
 _atom_site_symmetry_multiplicity
 _atom_site_fract_x
 _atom_site_fract_y
 _atom_site_fract_z
 _atom_site_occupancy
  O  O0  1  0.79525583  0.05531512  0.30118879  1
  O  O1  1  0.20474583  0.94470524  0.69882223  1
  O  O2  1  0.77748246  0.79604158  0.06501921  1
  O  O3  1  0.22253273  0.20397911  0.93499241  1
  O  O4  1  0.63875993  0.25926280  0.49725351  1
  O  O5  1  0.36122742  0.74075021  0.50274193  1
  O  O6  1  0.00815433  0.18645927  0.65402713  1
  O  O7  1  0.99183462  0.81354288  0.34596678  1
  O  O8  1  0.88586761  0.47855864  0.84319691  1
  O  O9  1  0.11414779  0.52145402  0.15682293  1
  O  O10  1  0.87238675  0.19278554  0.08144257  1
  O  O11  1  0.12767850  0.80717241  0.91855086  1
  O  O12  1  0.92139070  0.44656945  0.34107693  1
  O  O13  1  0.28723170  0.03226854  0.24559451  1
  O  O14  1  0.71275485  0.96775202  0.75439836  1
  O  O15  1  0.31701028  0.55073461  0.92285568  1
  O  O16  1  0.68303050  0.44928107  0.07715883  1
  O  O17  1  0.25192597  0.29427273  0.46457446  1
  O  O18  1  0.07862277  0.55343838  0.65892480  1
  O  O19  1  0.44223672  0.35505793  0.27340914  1
  O  O20  1  0.55779299  0.64497274  0.72660987  1
  O  O21  1  0.45190238  0.26110751  0.75946583  1
  O  O22  1  0.54809744  0.73891735  0.24052522  1
  O  O23  1  0.74807666  0.70573158  0.53543280  1
  P  P24  1  0.77677747  0.85394315  0.23777439  1
  P  P25  1  0.22320139  0.14608264  0.76225525  1
  P  P26  1  0.60175699  0.76411963  0.63230107  1
  P  P27  1  0.39823431  0.23590282  0.36769086  1
  P  P28  1  0.09753818  0.60586229  0.83740276  1
  P  P29  1  0.90248957  0.39406444  0.16257341  1
  Cr  Cr30  1  0.62069124  0.54268951  0.89159153  1
  Cr  Cr31  1  0.04750306  0.71061804  0.52169148  1
  Cr  Cr32  1  0.37931808  0.45733328  0.10841387  1
  Cr  Cr33  1  0.95251484  0.28940627  0.47830397  1
  Cu  Cu34  1  0.29541090  0.82390493  0.31019127  1
  Cu  Cu35  1  0.70456883  0.17613161  0.68978462  1
  Cu  Cu36  1  -0.00014965  -0.00019132  -0.00003216  1
