# generated using pymatgen
data_LaCu(WO4)2
_symmetry_space_group_name_H-M   'P 1'
_cell_length_a   7.33637947
_cell_length_b   7.55370609
_cell_length_c   7.73370727
_cell_angle_alpha   114.50602713
_cell_angle_beta   115.55346068
_cell_angle_gamma   91.52961902
_symmetry_Int_Tables_number   1
_chemical_formula_structural   LaCu(WO4)2
_chemical_formula_sum   'La2 Cu2 W4 O16'
_cell_volume   340.61010434
_cell_formula_units_Z   2
loop_
 _symmetry_equiv_pos_site_id
 _symmetry_equiv_pos_as_xyz
  1  'x, y, z'
loop_
 _atom_site_type_symbol
 _atom_site_label
 _atom_site_symmetry_multiplicity
 _atom_site_fract_x
 _atom_site_fract_y
 _atom_site_fract_z
 _atom_site_occupancy
  O  O0  1  0.53666552  0.46936796  0.73285016  1
  O  O1  1  0.46333448  0.53063204  0.26714984  1
  O  O2  1  0.05218992  0.30940014  0.09486233  1
  O  O3  1  0.94781008  0.69059986  0.90513767  1
  O  O4  1  0.20162598  0.36773336  0.81982521  1
  O  O5  1  0.79837402  0.63226664  0.18017479  1
  O  O6  1  0.82374809  0.35433245  0.44670747  1
  O  O7  1  0.17625191  0.64566755  0.55329253  1
  O  O8  1  0.61347481  0.83166827  0.74524004  1
  O  O9  1  0.38652519  0.16833173  0.25475996  1
  O  O10  1  0.47613528  0.82560694  0.00328083  1
  O  O11  1  0.52386472  0.17439306  0.99671917  1
  O  O12  1  0.14588668  0.99578610  0.80388591  1
  O  O13  1  0.85411332  0.00421390  0.19611409  1
  O  O14  1  0.29694614  0.99466058  0.52361601  1
  O  O15  1  0.70305386  0.00533942  0.47638399  1
  Cu  Cu16  1  0.77804103  0.32362168  0.04408819  1
  Cu  Cu17  1  0.22195897  0.67637832  0.95591181  1
  La  La18  1  0.18468252  0.28476634  0.46226596  1
  La  La19  1  0.81531748  0.71523366  0.53773404  1
  W  W20  1  0.72798618  0.70354394  0.96223676  1
  W  W21  1  0.35484675  0.89967928  0.71347484  1
  W  W22  1  0.27201382  0.29645606  0.03776324  1
  W  W23  1  0.64515325  0.10032072  0.28652516  1
