# generated using pymatgen
data_Al2SiO5
_symmetry_space_group_name_H-M   'P 1'
_cell_length_a   5.63563603
_cell_length_b   7.20385236
_cell_length_c   7.93487094
_cell_angle_alpha   106.00960082
_cell_angle_beta   89.89984577
_cell_angle_gamma   101.13216109
_symmetry_Int_Tables_number   1
_chemical_formula_structural   Al2SiO5
_chemical_formula_sum   'Al8 Si4 O20'
_cell_volume   303.36854543
_cell_formula_units_Z   4
loop_
 _symmetry_equiv_pos_site_id
 _symmetry_equiv_pos_as_xyz
  1  'x, y, z'
loop_
 _atom_site_type_symbol
 _atom_site_label
 _atom_site_symmetry_multiplicity
 _atom_site_fract_x
 _atom_site_fract_y
 _atom_site_fract_z
 _atom_site_occupancy
  O  O0  1  0.24403729  0.49801864  0.76994720  1
  O  O1  1  0.75596271  0.50198136  0.23005280  1
  O  O2  1  0.75534182  0.49867917  0.72363413  1
  O  O3  1  0.24465818  0.50132083  0.27636587  1
  O  O4  1  0.53377747  0.70954961  0.05318391  1
  O  O5  1  0.46622253  0.29045039  0.94681609  1
  O  O6  1  0.57211192  0.71869059  0.55539247  1
  O  O7  1  0.42788808  0.28130941  0.44460753  1
  O  O8  1  0.36105652  0.87767261  0.37001682  1
  O  O9  1  0.63894348  0.12232739  0.62998318  1
  O  O10  1  0.33231177  0.89105254  0.84708293  1
  O  O11  1  0.66768823  0.10894746  0.15291707  1
  O  O12  1  0.12840442  0.11004615  0.14645778  1
  O  O13  1  0.87159558  0.88995385  0.85354222  1
  O  O14  1  0.18161039  0.12320190  0.68603092  1
  O  O15  1  0.81838961  0.87679810  0.31396908  1
  O  O16  1  0.95524001  0.27393152  0.45477238  1
  O  O17  1  0.04475999  0.72606848  0.54522762  1
  O  O18  1  0.93449586  0.28238298  0.93468002  1
  O  O19  1  0.06550414  0.71761702  0.06531998  1
  Al  Al20  1  0.83499094  0.88800866  0.08262327  1
  Al  Al21  1  0.16500906  0.11199134  0.91737673  1
  Al  Al22  1  0.35971049  0.90015988  0.61368947  1
  Al  Al23  1  0.64028951  0.09984012  0.38631053  1
  Al  Al24  1  0.04965624  0.70286890  0.30124585  1
  Al  Al25  1  0.95034376  0.29713110  0.69875415  1
  Al  Al26  1  0.54195833  0.67500306  0.29598143  1
  Al  Al27  1  0.45804167  0.32499694  0.70401857  1
  Si  Si28  1  0.81097720  0.70917016  0.66849966  1
  Si  Si29  1  0.18902280  0.29082984  0.33150034  1
  Si  Si30  1  0.29327084  0.70399736  0.93509091  1
  Si  Si31  1  0.70672916  0.29600264  0.06490909  1
