# generated using pymatgen
data_Hg2Mo5O16
_symmetry_space_group_name_H-M   'P 1'
_cell_length_a   5.64023078
_cell_length_b   9.40430194
_cell_length_c   14.48313812
_cell_angle_alpha   108.36568170
_cell_angle_beta   90.00000000
_cell_angle_gamma   90.00000000
_symmetry_Int_Tables_number   1
_chemical_formula_structural   Hg2Mo5O16
_chemical_formula_sum   'Hg4 Mo10 O32'
_cell_volume   729.09148319
_cell_formula_units_Z   2
loop_
 _symmetry_equiv_pos_site_id
 _symmetry_equiv_pos_as_xyz
  1  'x, y, z'
loop_
 _atom_site_type_symbol
 _atom_site_label
 _atom_site_symmetry_multiplicity
 _atom_site_fract_x
 _atom_site_fract_y
 _atom_site_fract_z
 _atom_site_occupancy
  O  O0  1  0.66918732  0.61844553  0.02051071  1
  O  O1  1  0.66918732  0.88155447  0.47948929  1
  O  O2  1  0.33081268  0.38155447  0.97948929  1
  O  O3  1  0.33081268  0.11844553  0.52051071  1
  O  O4  1  0.85664699  0.36768668  0.67290435  1
  O  O5  1  0.85664699  0.13231332  0.82709565  1
  O  O6  1  0.14335301  0.63231332  0.32709565  1
  O  O7  1  0.14335301  0.86768668  0.17290435  1
  O  O8  1  0.95605281  0.58754165  0.86611724  1
  O  O9  1  0.95605281  0.91245835  0.63388276  1
  O  O10  1  0.04394719  0.41245835  0.13388276  1
  O  O11  1  0.04394719  0.08754165  0.36611724  1
  O  O12  1  0.46179988  0.62227174  0.83395069  1
  O  O13  1  0.46179988  0.87772826  0.66604931  1
  O  O14  1  0.32252652  0.14367645  0.15510863  1
  O  O15  1  0.32252652  0.35632355  0.34489137  1
  O  O16  1  0.67747348  0.85632355  0.84489137  1
  O  O17  1  0.67747348  0.64367645  0.65510863  1
  O  O18  1  0.18246633  0.61537466  0.67701465  1
  O  O19  1  0.18246633  0.88462534  0.82298535  1
  O  O20  1  0.81753367  0.38462534  0.32298535  1
  O  O21  1  0.81753367  0.11537466  0.17701465  1
  O  O22  1  0.09802685  0.37960603  0.49951215  1
  O  O23  1  0.09802685  0.12039397  0.00048785  1
  O  O24  1  0.90197315  0.62039397  0.50048785  1
  O  O25  1  0.90197315  0.87960603  0.99951215  1
  O  O26  1  0.40604959  0.85845053  0.01320863  1
  O  O27  1  0.40604959  0.64154947  0.48679137  1
  O  O28  1  0.59395041  0.14154947  0.98679137  1
  O  O29  1  0.59395041  0.35845053  0.51320863  1
  O  O30  1  0.53820012  0.12227174  0.33395069  1
  O  O31  1  0.53820012  0.37772826  0.16604931  1
  Mo  Mo32  1  0.37516378  0.75000000  0.75000000  1
  Mo  Mo33  1  0.62483622  0.25000000  0.25000000  1
  Mo  Mo34  1  0.72297568  0.69686060  0.92873956  1
  Mo  Mo35  1  0.72297568  0.80313940  0.57126044  1
  Mo  Mo36  1  0.27702432  0.30313940  0.07126044  1
  Mo  Mo37  1  0.27702432  0.19686060  0.42873956  1
  Mo  Mo38  1  0.82363040  0.45759224  0.58664135  1
  Mo  Mo39  1  0.82363040  0.04240776  0.91335865  1
  Mo  Mo40  1  0.17636960  0.54240776  0.41335865  1
  Mo  Mo41  1  0.17636960  0.95759224  0.08664135  1
  Hg  Hg42  1  0.27189998  0.39075408  0.80201638  1
  Hg  Hg43  1  0.27189998  0.10924592  0.69798362  1
  Hg  Hg44  1  0.72810002  0.60924592  0.19798362  1
  Hg  Hg45  1  0.72810002  0.89075408  0.30201638  1
