# generated using pymatgen
data_BaNpPH2O7
_symmetry_space_group_name_H-M   'P 1'
_cell_length_a   6.97876671
_cell_length_b   7.11851456
_cell_length_c   13.65916048
_cell_angle_alpha   90.00000000
_cell_angle_beta   107.72012138
_cell_angle_gamma   90.00000000
_symmetry_Int_Tables_number   1
_chemical_formula_structural   BaNpPH2O7
_chemical_formula_sum   'Ba4 Np4 P4 H8 O28'
_cell_volume   646.37115503
_cell_formula_units_Z   4
loop_
 _symmetry_equiv_pos_site_id
 _symmetry_equiv_pos_as_xyz
  1  'x, y, z'
loop_
 _atom_site_type_symbol
 _atom_site_label
 _atom_site_symmetry_multiplicity
 _atom_site_fract_x
 _atom_site_fract_y
 _atom_site_fract_z
 _atom_site_occupancy
  Ba  Ba0  1  0.21767225  0.44777551  0.14699969  1
  Ba  Ba1  1  0.28232775  0.94777551  0.35300031  1
  Ba  Ba2  1  0.78232775  0.55222449  0.85300031  1
  Ba  Ba3  1  0.71767225  0.05222449  0.64699969  1
  Np  Np4  1  0.70422084  0.76932240  0.17858895  1
  Np  Np5  1  0.79577916  0.26932240  0.32141105  1
  Np  Np6  1  0.29577916  0.23067760  0.82141105  1
  Np  Np7  1  0.20422084  0.73067760  0.67858895  1
  P  P8  1  0.84017466  0.78350637  0.42261527  1
  P  P9  1  0.65982534  0.28350637  0.07738473  1
  P  P10  1  0.15982534  0.21649363  0.57738473  1
  P  P11  1  0.34017466  0.71649363  0.92261527  1
  O  O12  1  0.71563673  0.10422045  0.14660680  1
  O  O13  1  0.78436327  0.60422045  0.35339320  1
  O  O14  1  0.28436327  0.89577955  0.85339320  1
  O  O15  1  0.21563673  0.39577955  0.64660680  1
  O  O16  1  0.63564659  0.43550285  0.15891088  1
  O  O17  1  0.86435341  0.93550285  0.34108912  1
  O  O18  1  0.36435341  0.56449715  0.84108912  1
  O  O19  1  0.13564659  0.06449715  0.65891088  1
  O  O20  1  0.82335736  0.34453543  0.03100694  1
  O  O21  1  0.67664264  0.84453543  0.46899306  1
  O  O22  1  0.17664264  0.65546457  0.96899306  1
  O  O23  1  0.32335736  0.15546457  0.53100694  1
  O  O24  1  0.94461914  0.70406299  0.69553705  1
  O  O25  1  0.55538086  0.20406299  0.80446295  1
  O  O26  1  0.05538086  0.29593701  0.30446295  1
  O  O27  1  0.44461914  0.79593701  0.19553705  1
  O  O28  1  0.55006086  0.73970869  1.00236207  1
  O  O29  1  0.94993914  0.23970869  0.49763793  1
  O  O30  1  0.44993914  0.26029131  -0.00236207  1
  O  O31  1  0.05006086  0.76029131  0.50236207  1
  O  O32  1  0.96605516  0.73226001  0.17183272  1
  O  O33  1  0.53394484  0.23226001  0.32816728  1
  O  O34  1  0.03394484  0.26773999  0.82816728  1
  O  O35  1  0.46605516  0.76773999  0.67183272  1
  O  O36  1  0.17988098  0.06665971  0.10464189  1
  O  O37  1  0.32011902  0.56665971  0.39535811  1
  O  O38  1  0.82011902  0.93334029  0.89535811  1
  O  O39  1  0.67988098  0.43334029  0.60464189  1
  H  H40  1  0.27873117  0.96212838  0.12457707  1
  H  H41  1  0.22126883  0.46212838  0.37542293  1
  H  H42  1  0.72126883  0.03787162  0.87542293  1
  H  H43  1  0.77873117  0.53787162  0.62457707  1
  H  H44  1  0.13649245  0.06646620  0.02971639  1
  H  H45  1  0.36350755  0.56646620  0.47028361  1
  H  H46  1  0.86350755  0.93353380  0.97028361  1
  H  H47  1  0.63649245  0.43353380  0.52971639  1
