# generated using pymatgen
data_Ga4GeS4
_symmetry_space_group_name_H-M   'P 1'
_cell_length_a   11.63714681
_cell_length_b   11.63714681
_cell_length_c   11.63714681
_cell_angle_alpha   90.00000000
_cell_angle_beta   90.00000000
_cell_angle_gamma   90.00000000
_symmetry_Int_Tables_number   1
_chemical_formula_structural   Ga4GeS4
_chemical_formula_sum   'Ga32 Ge8 S32'
_cell_volume   1575.93949553
_cell_formula_units_Z   8
loop_
 _symmetry_equiv_pos_site_id
 _symmetry_equiv_pos_as_xyz
  1  'x, y, z'
loop_
 _atom_site_type_symbol
 _atom_site_label
 _atom_site_symmetry_multiplicity
 _atom_site_fract_x
 _atom_site_fract_y
 _atom_site_fract_z
 _atom_site_occupancy
  Ga  Ga0  1  0.22273989  0.77726011  0.27726011  1
  Ga  Ga1  1  0.22357797  0.53759745  0.06626189  1
  Ga  Ga2  1  0.43373811  0.77642203  0.03759745  1
  Ga  Ga3  1  0.46240255  0.56626189  0.27642203  1
  Ga  Ga4  1  0.53759745  0.06626189  0.22357797  1
  Ga  Ga5  1  0.56626189  0.27642203  0.46240255  1
  Ga  Ga6  1  0.72273989  0.72273989  0.72273989  1
  Ga  Ga7  1  0.72273989  0.77726011  0.22273989  1
  Ga  Ga8  1  0.72357797  0.96240255  0.93373811  1
  Ga  Ga9  1  0.72357797  0.53759745  0.43373811  1
  Ga  Ga10  1  0.77642203  0.03759745  0.43373811  1
  Ga  Ga11  1  0.77726011  0.27726011  0.22273989  1
  Ga  Ga12  1  0.93373811  0.72357797  0.96240255  1
  Ga  Ga13  1  0.93373811  0.77642203  0.46240255  1
  Ga  Ga14  1  0.96240255  0.93373811  0.72357797  1
  Ga  Ga15  1  0.96240255  0.56626189  0.22357797  1
  Ga  Ga16  1  0.03759745  0.43373811  0.77642203  1
  Ga  Ga17  1  0.03759745  0.06626189  0.27642203  1
  Ga  Ga18  1  0.06626189  0.22357797  0.53759745  1
  Ga  Ga19  1  0.06626189  0.27642203  0.03759745  1
  Ga  Ga20  1  0.22273989  0.72273989  0.77726011  1
  Ga  Ga21  1  0.22357797  0.96240255  0.56626189  1
  Ga  Ga22  1  0.27642203  0.46240255  0.56626189  1
  Ga  Ga23  1  0.27642203  0.03759745  0.06626189  1
  Ga  Ga24  1  0.27726011  0.22273989  0.77726011  1
  Ga  Ga25  1  0.27726011  0.27726011  0.27726011  1
  Ga  Ga26  1  0.43373811  0.72357797  0.53759745  1
  Ga  Ga27  1  0.46240255  0.93373811  0.77642203  1
  Ga  Ga28  1  0.53759745  0.43373811  0.72357797  1
  Ga  Ga29  1  0.56626189  0.22357797  0.96240255  1
  Ga  Ga30  1  0.77642203  0.46240255  0.93373811  1
  Ga  Ga31  1  0.77726011  0.22273989  0.72273989  1
  Ge  Ge32  1  0.09985086  0.90014914  0.40014914  1
  Ge  Ge33  1  0.59985086  0.59985086  0.59985086  1
  Ge  Ge34  1  0.59985086  0.90014914  0.09985086  1
  Ge  Ge35  1  0.90014914  0.40014914  0.09985086  1
  Ge  Ge36  1  0.09985086  0.59985086  0.90014914  1
  Ge  Ge37  1  0.40014914  0.09985086  0.90014914  1
  Ge  Ge38  1  0.40014914  0.40014914  0.40014914  1
  Ge  Ge39  1  0.90014914  0.09985086  0.59985086  1
  S  S40  1  0.41910935  0.58089065  0.08089065  1
  S  S41  1  0.58089065  0.08089065  0.41910935  1
  S  S42  1  0.91910935  0.91910935  0.91910935  1
  S  S43  1  0.91910935  0.58089065  0.41910935  1
  S  S44  1  0.08089065  0.41910935  0.58089065  1
  S  S45  1  0.08089065  0.08089065  0.08089065  1
  S  S46  1  0.08261844  0.24718594  0.83680877  1
  S  S47  1  0.08261844  0.25281406  0.33680877  1
  S  S48  1  0.16319123  0.58261844  0.25281406  1
  S  S49  1  0.16319123  0.91738156  0.75281406  1
  S  S50  1  0.24718594  0.83680877  0.08261844  1
  S  S51  1  0.24718594  0.66319123  0.58261844  1
  S  S52  1  0.25281406  0.16319123  0.58261844  1
  S  S53  1  0.25281406  0.33680877  0.08261844  1
  S  S54  1  0.33680877  0.08261844  0.25281406  1
  S  S55  1  0.33680877  0.41738156  0.75281406  1
  S  S56  1  0.41738156  0.75281406  0.33680877  1
  S  S57  1  0.41738156  0.74718594  0.83680877  1
  S  S58  1  0.41910935  0.91910935  0.58089065  1
  S  S59  1  0.58089065  0.41910935  0.91910935  1
  S  S60  1  0.58261844  0.25281406  0.16319123  1
  S  S61  1  0.58261844  0.24718594  0.66319123  1
  S  S62  1  0.66319123  0.58261844  0.24718594  1
  S  S63  1  0.66319123  0.91738156  0.74718594  1
  S  S64  1  0.74718594  0.66319123  0.91738156  1
  S  S65  1  0.74718594  0.83680877  0.41738156  1
  S  S66  1  0.75281406  0.16319123  0.91738156  1
  S  S67  1  0.75281406  0.33680877  0.41738156  1
  S  S68  1  0.83680877  0.08261844  0.24718594  1
  S  S69  1  0.83680877  0.41738156  0.74718594  1
  S  S70  1  0.91738156  0.74718594  0.66319123  1
  S  S71  1  0.91738156  0.75281406  0.16319123  1
