# generated using pymatgen
data_Li3Co3(PO4)4
_symmetry_space_group_name_H-M   'P 1'
_cell_length_a   7.68397902
_cell_length_b   8.01721109
_cell_length_c   5.08064312
_cell_angle_alpha   90.90169985
_cell_angle_beta   94.30944662
_cell_angle_gamma   87.90068346
_symmetry_Int_Tables_number   1
_chemical_formula_structural   Li3Co3(PO4)4
_chemical_formula_sum   'Li3 Co3 P4 O16'
_cell_volume   311.86750896
_cell_formula_units_Z   1
loop_
 _symmetry_equiv_pos_site_id
 _symmetry_equiv_pos_as_xyz
  1  'x, y, z'
loop_
 _atom_site_type_symbol
 _atom_site_label
 _atom_site_symmetry_multiplicity
 _atom_site_fract_x
 _atom_site_fract_y
 _atom_site_fract_z
 _atom_site_occupancy
  Li  Li0  1  0.59677467  0.13664535  0.08872388  1
  Li  Li1  1  0.10420125  0.36167587  0.60223784  1
  Li  Li2  1  0.40405196  0.85923362  0.91205848  1
  Co  Co3  1  0.01144673  0.02127061  0.48420692  1
  Co  Co4  1  0.90027787  0.64216175  0.40550388  1
  Co  Co5  1  0.47673983  0.48661765  0.99901368  1
  P  P6  1  0.69605025  0.31087090  0.53497902  1
  P  P7  1  0.29930440  0.69291842  0.46377514  1
  P  P8  1  0.80288681  0.80745558  0.96539016  1
  P  P9  1  0.20089063  0.19100695  0.03236221  1
  O  O10  1  0.64738640  0.92437034  0.93945920  1
  O  O11  1  0.35618006  0.07142311  0.05509234  1
  O  O12  1  0.94830880  0.85728427  0.18391647  1
  O  O13  1  0.23598048  0.87225649  0.53805962  1
  O  O14  1  0.76058636  0.62880647  0.06993891  1
  O  O15  1  0.14168804  0.57361199  0.44118282  1
  O  O16  1  0.43449853  0.63426039  0.68765496  1
  O  O17  1  0.11280794  0.19868972  0.30233832  1
  O  O18  1  0.88759321  0.79130405  0.69382530  1
  O  O19  1  0.25192008  0.37114865  0.95386011  1
  O  O20  1  0.85003284  0.43316952  0.54814365  1
  O  O21  1  0.61656364  0.31616604  0.80823089  1
  O  O22  1  0.76832501  0.13343503  0.46024089  1
  O  O23  1  0.55226660  0.35715461  0.31743525  1
  O  O24  1  0.38648966  0.68310355  0.19659885  1
  O  O25  1  0.05674995  0.14395906  0.81577023  1
