# generated using pymatgen
data_ZrPb2F8
_symmetry_space_group_name_H-M   'P 1'
_cell_length_a   5.51727093
_cell_length_b   9.89905475
_cell_length_c   11.83574548
_cell_angle_alpha   90.00000000
_cell_angle_beta   90.00000000
_cell_angle_gamma   90.00000000
_symmetry_Int_Tables_number   1
_chemical_formula_structural   ZrPb2F8
_chemical_formula_sum   'Zr4 Pb8 F32'
_cell_volume   646.41831749
_cell_formula_units_Z   4
loop_
 _symmetry_equiv_pos_site_id
 _symmetry_equiv_pos_as_xyz
  1  'x, y, z'
loop_
 _atom_site_type_symbol
 _atom_site_label
 _atom_site_symmetry_multiplicity
 _atom_site_fract_x
 _atom_site_fract_y
 _atom_site_fract_z
 _atom_site_occupancy
  Pb  Pb0  1  0.75000000  0.13984157  0.07640594  1
  Pb  Pb1  1  0.25000000  0.86015843  0.92359406  1
  Pb  Pb2  1  0.75000000  0.63984157  0.42359406  1
  Pb  Pb3  1  0.25000000  0.36015843  0.57640594  1
  Pb  Pb4  1  0.75000000  0.53491451  0.84749104  1
  Pb  Pb5  1  0.25000000  0.46508549  0.15250896  1
  Pb  Pb6  1  0.75000000  0.03491451  0.65250896  1
  Pb  Pb7  1  0.25000000  0.96508549  0.34749104  1
  Zr  Zr8  1  0.75000000  0.75182600  0.13048170  1
  Zr  Zr9  1  0.25000000  0.24817400  0.86951830  1
  Zr  Zr10  1  0.75000000  0.25182600  0.36951830  1
  Zr  Zr11  1  0.25000000  0.74817400  0.63048170  1
  F  F12  1  0.49156710  0.90324789  0.12557793  1
  F  F13  1  0.99156710  0.09675211  0.87442207  1
  F  F14  1  0.00843290  0.40324789  0.37442207  1
  F  F15  1  0.50843290  0.59675211  0.62557793  1
  F  F16  1  0.50843290  0.09675211  0.87442207  1
  F  F17  1  0.00843290  0.90324789  0.12557793  1
  F  F18  1  0.99156710  0.59675211  0.62557793  1
  F  F19  1  0.49156710  0.40324789  0.37442207  1
  F  F20  1  0.00283320  0.86894436  0.53249926  1
  F  F21  1  0.50283320  0.13105564  0.46750074  1
  F  F22  1  0.49716680  0.36894436  0.96750074  1
  F  F23  1  0.99716680  0.63105564  0.03249926  1
  F  F24  1  0.99716680  0.13105564  0.46750074  1
  F  F25  1  0.49716680  0.86894436  0.53249926  1
  F  F26  1  0.50283320  0.63105564  0.03249926  1
  F  F27  1  0.00283320  0.36894436  0.96750074  1
  F  F28  1  0.51299501  0.63801230  0.23969338  1
  F  F29  1  0.01299501  0.36198770  0.76030662  1
  F  F30  1  0.98700499  0.13801230  0.26030662  1
  F  F31  1  0.48700499  0.86198770  0.73969338  1
  F  F32  1  0.48700499  0.36198770  0.76030662  1
  F  F33  1  0.98700499  0.63801230  0.23969338  1
  F  F34  1  0.01299501  0.86198770  0.73969338  1
  F  F35  1  0.51299501  0.13801230  0.26030662  1
  F  F36  1  0.75000000  0.82601561  0.95817156  1
  F  F37  1  0.25000000  0.17398439  0.04182844  1
  F  F38  1  0.75000000  0.32601561  0.54182844  1
  F  F39  1  0.25000000  0.67398439  0.45817156  1
  F  F40  1  0.75000000  0.84402650  0.30354947  1
  F  F41  1  0.25000000  0.15597350  0.69645053  1
  F  F42  1  0.75000000  0.34402650  0.19645053  1
  F  F43  1  0.25000000  0.65597350  0.80354947  1
