# generated using pymatgen
data_Li6V3P8O29
_symmetry_space_group_name_H-M   'P 1'
_cell_length_a   9.81892006
_cell_length_b   9.86340856
_cell_length_c   13.99994862
_cell_angle_alpha   89.96110680
_cell_angle_beta   90.80710013
_cell_angle_gamma   59.85776707
_symmetry_Int_Tables_number   1
_chemical_formula_structural   Li6V3P8O29
_chemical_formula_sum   'Li12 V6 P16 O58'
_cell_volume   1172.36554244
_cell_formula_units_Z   2
loop_
 _symmetry_equiv_pos_site_id
 _symmetry_equiv_pos_as_xyz
  1  'x, y, z'
loop_
 _atom_site_type_symbol
 _atom_site_label
 _atom_site_symmetry_multiplicity
 _atom_site_fract_x
 _atom_site_fract_y
 _atom_site_fract_z
 _atom_site_occupancy
  Li  Li0  1  0.77625674  0.91811870  0.56126461  1
  Li  Li1  1  0.67689818  0.65575075  0.38683161  1
  Li  Li2  1  0.67628007  0.66714795  0.88666514  1
  Li  Li3  1  0.77573647  0.30657372  0.06090451  1
  Li  Li4  1  0.68665994  0.22484141  0.43887533  1
  Li  Li5  1  0.31076391  0.91356847  0.06333156  1
  Li  Li6  1  0.68650078  0.08831610  0.93870825  1
  Li  Li7  1  0.31066587  0.77636219  0.56323435  1
  Li  Li8  1  0.22987618  0.67779745  0.94544210  1
  Li  Li9  1  0.09996583  0.67063897  0.43796303  1
  Li  Li10  1  0.22994343  0.09332618  0.44514106  1
  Li  Li11  1  0.09928471  0.22899674  0.93753723  1
  O  O12  1  0.98051838  0.79538975  0.73823565  1
  O  O13  1  0.99913064  0.75340586  0.56119577  1
  O  O14  1  0.92154178  0.74512450  0.34336753  1
  O  O15  1  0.78835864  0.99441347  0.24845153  1
  O  O16  1  0.89209655  0.62625058  0.82875081  1
  O  O17  1  0.74493991  0.91866154  0.83965109  1
  O  O18  1  0.81102160  0.66390792  0.17390760  1
  O  O19  1  0.89236047  0.48116045  0.32915415  1
  O  O20  1  0.99931131  0.24706638  0.06113216  1
  O  O21  1  0.98005451  0.22448203  0.23813909  1
  O  O22  1  0.92178978  0.33315654  0.84304028  1
  O  O23  1  0.66758523  0.82001435  0.66288715  1
  O  O24  1  0.62823724  0.88211209  0.32415731  1
  O  O25  1  0.81139464  0.52482067  0.67341817  1
  O  O26  1  0.66265139  0.66916325  0.02058222  1
  O  O27  1  0.66071093  0.66852233  0.52063776  1
  O  O28  1  0.66746814  0.51232566  0.16307810  1
  O  O29  1  0.49225544  0.88149164  0.82612184  1
  O  O30  1  0.51116233  0.81564690  0.16631507  1
  O  O31  1  0.74452125  0.33631481  0.33954734  1
  O  O32  1  0.78865302  0.21712422  0.74829331  1
  O  O33  1  0.75188184  0.23925785  0.56547125  1
  O  O34  1  0.75401235  0.24423507  0.92875352  1
  O  O35  1  0.62818066  0.48910145  0.82470647  1
  O  O36  1  0.51150062  0.67300445  0.66725458  1
  O  O37  1  0.49201267  0.62620060  0.32612280  1
  O  O38  1  0.33653979  0.91791402  0.34622786  1
  O  O39  1  0.66315637  0.25114018  0.16285212  1
  O  O40  1  0.75288572  0.00177343  0.42886208  1
  O  O41  1  0.75039730  0.00872267  0.06564169  1
  O  O42  1  0.24636431  0.99726813  0.57224710  1
  O  O43  1  0.21495712  0.99542333  0.75263285  1
  O  O44  1  0.51688174  0.38436107  0.67362677  1
  O  O45  1  0.66391280  0.08507800  0.66303661  1
  O  O46  1  0.33641929  0.74569465  0.84674335  1
  O  O47  1  0.48510767  0.32671649  0.33604748  1
  O  O48  1  0.38038533  0.52314120  0.18219644  1
  O  O49  1  0.24595811  0.75732235  0.07230060  1
  O  O50  1  0.25023717  0.74809610  0.43238218  1
  O  O51  1  0.21465686  0.78986500  0.25265554  1
  O  O52  1  0.24495821  0.67320345  0.66017369  1
  O  O53  1  0.48541073  0.18725604  0.83643873  1
  O  O54  1  0.33424381  0.48656156  0.82910406  1
  O  O55  1  0.51646172  0.09857521  0.17458506  1
  O  O56  1  0.33030040  0.34715396  0.97908659  1
  O  O57  1  0.32832445  0.32709971  0.47925226  1
  O  O58  1  0.38076177  0.09661483  0.68223493  1
  O  O59  1  0.18324274  0.47990674  0.32993513  1
  O  O60  1  0.08412530  0.66454883  0.16298276  1
  O  O61  1  0.33301791  0.17927699  0.33093537  1
  O  O62  1  0.01465045  0.76667649  0.91918238  1
  O  O63  1  0.10294787  0.51853229  0.67320481  1
  O  O64  1  0.18341355  0.33695659  0.83077251  1
  O  O65  1  0.10217341  0.37929259  0.17273800  1
  O  O66  1  0.24467451  0.08237567  0.16074999  1
  O  O67  1  0.25058582  0.00208488  0.93238255  1
  O  O68  1  0.08466883  0.25157404  0.66305690  1
  O  O69  1  0.01418341  0.21745347  0.41910598  1
  P  P70  1  0.91443331  0.77094509  0.83812304  1
  P  P71  1  0.77150893  0.90750127  0.34064156  1
  P  P72  1  0.91420325  0.31430937  0.33819040  1
  P  P73  1  0.66243437  0.66639175  0.12754697  1
  P  P74  1  0.66231027  0.67117649  0.62762815  1
  P  P75  1  0.77189738  0.32051168  0.84045537  1
  P  P76  1  0.67763499  0.23587726  0.65633926  1
  P  P77  1  0.32580511  0.90687225  0.84456411  1
  P  P78  1  0.67720315  0.08656745  0.15657820  1
  P  P79  1  0.32563444  0.76731188  0.34439790  1
  P  P80  1  0.22731777  0.68402958  0.16150205  1
  P  P81  1  0.33474946  0.33587888  0.87300094  1
  P  P82  1  0.33406390  0.32968574  0.37298089  1
  P  P83  1  0.08457854  0.68030766  0.65395487  1
  P  P84  1  0.22770103  0.08881691  0.66158962  1
  P  P85  1  0.08414129  0.23571792  0.15392299  1
  V  V86  1  0.99901948  0.43541486  0.74664856  1
  V  V87  1  0.56757169  0.42977879  0.24900358  1
  V  V88  1  0.43231640  0.56612341  0.75065094  1
  V  V89  1  0.56793363  0.00231237  0.74901707  1
  V  V90  1  0.43178881  0.00140037  0.25078243  1
  V  V91  1  0.99885490  0.56586804  0.24671942  1
