# generated using pymatgen
data_Na2Al17Si11B7(H3O31)2
_symmetry_space_group_name_H-M   'P 1'
_cell_length_a   9.48960884
_cell_length_b   9.48484672
_cell_length_c   18.91580092
_cell_angle_alpha   113.64181067
_cell_angle_beta   113.53775304
_cell_angle_gamma   114.40586684
_symmetry_Int_Tables_number   1
_chemical_formula_structural   Na2Al17Si11B7(H3O31)2
_chemical_formula_sum   'Na2 Al17 Si11 B7 H6 O62'
_cell_volume   1044.85850978
_cell_formula_units_Z   1
loop_
 _symmetry_equiv_pos_site_id
 _symmetry_equiv_pos_as_xyz
  1  'x, y, z'
loop_
 _atom_site_type_symbol
 _atom_site_label
 _atom_site_symmetry_multiplicity
 _atom_site_fract_x
 _atom_site_fract_y
 _atom_site_fract_z
 _atom_site_occupancy
  Al  Al0  1  0.37635999  0.94094337  0.80732845  1
  Al  Al1  1  0.37939585  0.60527700  0.97037519  1
  Al  Al2  1  0.61077779  0.79260185  0.80613555  1
  Al  Al3  1  0.61183642  0.60946980  0.89663342  1
  Al  Al4  1  0.59377707  0.37071692  0.96916743  1
  Al  Al5  1  0.60311061  0.93495332  0.68910558  1
  Al  Al6  1  0.38200984  0.94295508  0.30207568  1
  Al  Al7  1  0.38357648  0.59749426  0.46409697  1
  Al  Al8  1  0.80826060  0.62775091  0.81134623  1
  Al  Al9  1  0.63151402  0.80143044  0.32066079  1
  Al  Al10  1  0.60100513  0.38657032  0.46591014  1
  Al  Al11  1  0.60353379  0.93838945  0.19172092  1
  Al  Al12  1  0.93740491  0.37936222  0.80436289  1
  Al  Al13  1  0.94129903  0.61495626  0.69370813  1
  Al  Al14  1  0.80100058  0.63099503  0.31964137  1
  Al  Al15  1  0.93856494  0.60506096  0.19156809  1
  Al  Al16  1  0.94131055  0.38148158  0.30143511  1
  B  B17  1  0.26512200  0.59414445  0.79816105  1
  B  B18  1  0.22349576  0.02664020  0.91928063  1
  B  B19  1  0.27029936  0.59920955  0.29483990  1
  B  B20  1  0.59698958  0.26824028  0.80059538  1
  B  B21  1  0.59819705  0.59914335  0.63555869  1
  B  B22  1  0.60051103  0.27188477  0.29575954  1
  B  B23  1  0.59744523  0.59756396  0.13607280  1
  H  H24  1  0.27896219  0.65399974  0.64112243  1
  H  H25  1  0.27453999  0.27509868  0.82706505  1
  H  H26  1  0.27889327  0.66199152  0.14093828  1
  H  H27  1  0.30327958  0.30113159  0.33312508  1
  H  H28  1  0.65470975  0.28621410  0.64173538  1
  H  H29  1  0.65872487  0.27983886  0.13937360  1
  Na  Na30  1  0.20818585  0.20772950  0.60399373  1
  Na  Na31  1  0.28570561  0.27887927  0.14320600  1
  O  O32  1  0.00015661  0.62388309  0.89847201  1
  O  O33  1  0.01621581  0.80959473  0.82023156  1
  O  O34  1  0.11002199  0.39016913  0.91187490  1
  O  O35  1  0.11414833  0.82656559  0.70002193  1
  O  O36  1  0.20007750  0.53116721  0.84138830  1
  O  O37  1  0.19885277  0.67691425  0.76547196  1
  O  O38  1  0.20075011  0.18278975  0.95282492  1
  O  O39  1  0.20421622  0.93116853  0.60317617  1
  O  O40  1  0.00612694  0.62999348  0.39871733  1
  O  O41  1  1.00050231  0.79566265  0.31220065  1
  O  O42  1  0.03973453  0.32465809  0.52013694  1
  O  O43  1  0.02819159  0.02943842  0.65807525  1
  O  O44  1  0.41048176  0.41125911  0.89678291  1
  O  O45  1  0.41434788  0.79455560  0.70879017  1
  O  O46  1  0.40532344  0.58579364  0.79418094  1
  O  O47  1  0.38059486  0.10065425  0.91003208  1
  O  O48  1  0.39133273  0.82113133  0.55742633  1
  O  O49  1  0.10458585  0.82162296  0.19530469  1
  O  O50  1  0.10765869  0.39695826  0.41064210  1
  O  O51  1  0.19842815  0.52084230  0.33346503  1
  O  O52  1  0.20138947  0.69057329  0.26920127  1
  O  O53  1  0.79401064  0.79615153  0.89861927  1
  O  O54  1  0.20033583  0.91953667  0.09680691  1
  O  O55  1  0.20178791  0.20307972  0.46242736  1
  O  O56  1  0.53099429  0.20104456  0.84260776  1
  O  O57  1  0.52930407  0.67913099  0.60146546  1
  O  O58  1  0.59031695  0.58962525  0.70604928  1
  O  O59  1  0.59033312  0.40833639  0.79606158  1
  O  O60  1  0.32390933  0.04161235  0.51988772  1
  O  O61  1  0.03892372  0.30791042  0.01692758  1
  O  O62  1  0.03813656  0.03734287  0.15441577  1
  O  O63  1  0.61074594  0.80537850  0.50182965  1
  O  O64  1  0.62375263  -0.00132334  0.89801200  1
  O  O65  1  0.40763884  0.80928559  0.20417774  1
  O  O66  1  0.39541409  0.39485498  0.40903544  1
  O  O67  1  0.39453011  0.58999555  0.27953373  1
  O  O68  1  0.68006399  0.20017045  0.76818020  1
  O  O69  1  0.68351220  0.53635528  0.60360652  1
  O  O70  1  0.39647176  0.82456999  0.05285346  1
  O  O71  1  0.39689589  0.10917108  0.41091045  1
  O  O72  1  0.79660893  0.41851829  0.70981025  1
  O  O73  1  0.80564774  0.61249593  0.50162398  1
  O  O74  1  0.79422748  0.99641148  0.81229664  1
  O  O75  1  0.84894384  0.84877695  0.41051706  1
  O  O76  1  0.52294287  0.20038870  0.33461692  1
  O  O77  1  0.52767572  0.67716172  0.10004079  1
  O  O78  1  0.59354990  0.59374490  0.20709166  1
  O  O79  1  0.59145873  0.39623967  0.28060523  1
  O  O80  1  0.82065418  0.39430570  0.55864161  1
  O  O81  1  0.82503993  0.11375496  0.70066355  1
  O  O82  1  0.31133966  0.03423695  0.00894275  1
  O  O83  1  0.62467285  0.79271301  0.99924976  1
  O  O84  1  0.62926394  0.00660889  0.39948600  1
  O  O85  1  0.92859133  0.20501717  0.60357182  1
  O  O86  1  0.69090253  0.20223239  0.26952325  1
  O  O87  1  0.68052288  0.53236832  0.10134287  1
  O  O88  1  0.80660580  0.40768245  0.20359841  1
  O  O89  1  0.79386867  1.00031612  0.31257334  1
  O  O90  1  0.79216422  0.62310133  0.99922835  1
  O  O91  1  0.82198947  0.10188430  0.19676209  1
  O  O92  1  0.82223776  0.39456372  0.05243002  1
  O  O93  1  0.91483264  0.20029749  0.09967132  1
  Si  Si94  1  0.03865783  0.21343407  0.92111832  1
  Si  Si95  1  0.02360635  0.83613942  0.60944583  1
  Si  Si96  1  0.22733259  0.84755496  0.51779268  1
  Si  Si97  1  0.03057467  0.22535272  0.42159750  1
  Si  Si98  1  0.03171281  0.84326516  0.11010585  1
  Si  Si99  1  0.22479616  0.03239522  0.42145755  1
  Si  Si100  1  0.23044146  0.85267330  0.01298830  1
  Si  Si101  1  0.83446835  0.02358999  0.60944686  1
  Si  Si102  1  0.84619044  0.22942767  0.51861246  1
  Si  Si103  1  0.84465185  0.03031796  0.11207229  1
  Si  Si104  1  0.84587230  0.22534598  0.01506990  1
