# generated using pymatgen
data_K2Ba(SO)12
_symmetry_space_group_name_H-M   'P 1'
_cell_length_a   9.38522170
_cell_length_b   11.12570999
_cell_length_c   11.89519219
_cell_angle_alpha   90.00000000
_cell_angle_beta   112.12354857
_cell_angle_gamma   90.00000000
_symmetry_Int_Tables_number   1
_chemical_formula_structural   K2Ba(SO)12
_chemical_formula_sum   'K4 Ba2 S24 O24'
_cell_volume   1150.61506627
_cell_formula_units_Z   2
loop_
 _symmetry_equiv_pos_site_id
 _symmetry_equiv_pos_as_xyz
  1  'x, y, z'
loop_
 _atom_site_type_symbol
 _atom_site_label
 _atom_site_symmetry_multiplicity
 _atom_site_fract_x
 _atom_site_fract_y
 _atom_site_fract_z
 _atom_site_occupancy
  Ba  Ba0  1  0.75000000  0.98682990  0.00000000  1
  Ba  Ba1  1  0.25000000  0.01317010  0.00000000  1
  K  K2  1  0.50000000  0.00000000  0.50000000  1
  K  K3  1  0.00000000  0.00000000  0.50000000  1
  K  K4  1  0.75000000  0.55183925  0.00000000  1
  K  K5  1  0.25000000  0.44816075  0.00000000  1
  S  S6  1  0.95561173  0.72644381  0.86312094  1
  S  S7  1  0.54438827  0.72644381  0.13687906  1
  S  S8  1  0.04438827  0.27355619  0.13687906  1
  S  S9  1  0.45561173  0.27355619  0.86312094  1
  S  S10  1  0.83259519  0.71500731  0.66783987  1
  S  S11  1  0.66740481  0.71500731  0.33216013  1
  S  S12  1  0.16740481  0.28499269  0.33216013  1
  S  S13  1  0.33259519  0.28499269  0.66783987  1
  S  S14  1  0.67495541  0.58374766  0.65212870  1
  S  S15  1  0.82504459  0.58374766  0.34787130  1
  S  S16  1  0.32504459  0.41625234  0.34787130  1
  S  S17  1  0.17495541  0.41625234  0.65212870  1
  S  S18  1  0.45325874  0.65248685  0.60250952  1
  S  S19  1  0.04674126  0.65248685  0.39749048  1
  S  S20  1  0.54674126  0.34751315  0.39749048  1
  S  S21  1  0.95325874  0.34751315  0.60250952  1
  S  S22  1  0.40623561  0.69802789  0.75093253  1
  S  S23  1  0.09376439  0.69802789  0.24906747  1
  S  S24  1  0.59376439  0.30197211  0.24906747  1
  S  S25  1  0.90623561  0.30197211  0.75093253  1
  S  S26  1  0.42234137  0.89196684  0.74842944  1
  S  S27  1  0.07765863  0.89196684  0.25157056  1
  S  S28  1  0.57765863  0.10803316  0.25157056  1
  S  S29  1  0.92234137  0.10803316  0.74842944  1
  O  O30  1  0.00691008  0.60352349  0.90193921  1
  O  O31  1  0.49308992  0.60352349  0.09806079  1
  O  O32  1  0.99308992  0.39647651  0.09806079  1
  O  O33  1  0.50691008  0.39647651  0.90193921  1
  O  O34  1  0.07752729  0.81125734  0.86900736  1
  O  O35  1  0.42247271  0.81125734  0.13099264  1
  O  O36  1  0.92247271  0.18874266  0.13099264  1
  O  O37  1  0.57752729  0.18874266  0.86900736  1
  O  O38  1  0.84668086  0.77022102  0.91609068  1
  O  O39  1  0.65331914  0.77022102  0.08390932  1
  O  O40  1  0.15331914  0.22977898  0.08390932  1
  O  O41  1  0.34668086  0.22977898  0.91609068  1
  O  O42  1  0.29406107  0.93301935  0.64126675  1
  O  O43  1  0.20593893  0.93301935  0.35873325  1
  O  O44  1  0.70593893  0.06698065  0.35873325  1
  O  O45  1  0.79406107  0.06698065  0.64126675  1
  O  O46  1  0.41358065  0.92328015  0.86638405  1
  O  O47  1  0.08641935  0.92328015  0.13361595  1
  O  O48  1  0.58641935  0.07671985  0.13361595  1
  O  O49  1  0.91358065  0.07671985  0.86638405  1
  O  O50  1  0.57316909  0.92171152  0.74501819  1
  O  O51  1  0.92683091  0.92171152  0.25498181  1
  O  O52  1  0.42683091  0.07828848  0.25498181  1
  O  O53  1  0.07316909  0.07828848  0.74501819  1
