# generated using pymatgen
data_CsV3(TeO6)2
_symmetry_space_group_name_H-M   'P 1'
_cell_length_a   7.27519083
_cell_length_b   7.27519091
_cell_length_c   11.86958073
_cell_angle_alpha   90.00000000
_cell_angle_beta   90.00000000
_cell_angle_gamma   119.99999554
_symmetry_Int_Tables_number   1
_chemical_formula_structural   CsV3(TeO6)2
_chemical_formula_sum   'Cs2 V6 Te4 O24'
_cell_volume   544.07004263
_cell_formula_units_Z   2
loop_
 _symmetry_equiv_pos_site_id
 _symmetry_equiv_pos_as_xyz
  1  'x, y, z'
loop_
 _atom_site_type_symbol
 _atom_site_label
 _atom_site_symmetry_multiplicity
 _atom_site_fract_x
 _atom_site_fract_y
 _atom_site_fract_z
 _atom_site_occupancy
  Cs  Cs0  1  0.66666700  0.33333300  0.51428452  1
  Cs  Cs1  1  0.33333300  0.66666700  0.01428452  1
  V  V2  1  0.87018824  0.20420393  0.83524227  1
  V  V3  1  0.79579607  0.66598430  0.83524227  1
  V  V4  1  0.66598430  0.87018824  0.33524227  1
  V  V5  1  0.33401570  0.12981176  0.83524227  1
  V  V6  1  0.20420393  0.33401570  0.33524227  1
  V  V7  1  0.12981176  0.79579607  0.33524227  1
  Te  Te8  1  0.33333300  0.66666700  0.57452512  1
  Te  Te9  1  0.66666700  0.33333300  0.07452512  1
  Te  Te10  1  0.00000000  0.00000000  0.60171371  1
  Te  Te11  1  0.00000000  0.00000000  0.10171371  1
  O  O12  1  0.18820467  0.40043036  0.50007615  1
  O  O13  1  0.12953103  0.88218066  0.86711555  1
  O  O14  1  0.85661507  0.12087950  0.68187437  1
  O  O15  1  0.91493824  0.45465290  0.81450721  1
  O  O16  1  0.87912050  0.73573556  0.68187437  1
  O  O17  1  0.81179533  0.59956964  0.00007615  1
  O  O18  1  0.40043036  0.21222569  0.00007615  1
  O  O19  1  0.21222569  0.81179533  0.50007615  1
  O  O20  1  0.78777431  0.18820467  0.00007615  1
  O  O21  1  0.11781934  0.24735037  0.86711555  1
  O  O22  1  0.08506176  0.54534710  0.31450721  1
  O  O23  1  0.54534710  0.46028534  0.81450721  1
  O  O24  1  0.75264963  0.87046897  0.86711555  1
  O  O25  1  0.24735037  0.12953103  0.36711555  1
  O  O26  1  0.45465290  0.53971466  0.31450721  1
  O  O27  1  0.88218066  0.75264963  0.36711555  1
  O  O28  1  0.53971466  0.08506176  0.81450721  1
  O  O29  1  0.46028534  0.91493824  0.31450721  1
  O  O30  1  0.14338493  0.87912050  0.18187437  1
  O  O31  1  0.73573556  0.85661507  0.18187437  1
  O  O32  1  0.26426444  0.14338493  0.68187437  1
  O  O33  1  0.59956964  0.78777431  0.50007615  1
  O  O34  1  0.12087950  0.26426444  0.18187437  1
  O  O35  1  0.87046897  0.11781934  0.36711555  1
