# generated using pymatgen
data_Ca3Nb4(O6F)2
_symmetry_space_group_name_H-M   'P 1'
_cell_length_a   10.58895148
_cell_length_b   10.58895148
_cell_length_c   10.58895148
_cell_angle_alpha   90.00000000
_cell_angle_beta   90.00000000
_cell_angle_gamma   90.00000000
_symmetry_Int_Tables_number   1
_chemical_formula_structural   Ca3Nb4(O6F)2
_chemical_formula_sum   'Ca12 Nb16 O48 F8'
_cell_volume   1187.29564535
_cell_formula_units_Z   4
loop_
 _symmetry_equiv_pos_site_id
 _symmetry_equiv_pos_as_xyz
  1  'x, y, z'
loop_
 _atom_site_type_symbol
 _atom_site_label
 _atom_site_symmetry_multiplicity
 _atom_site_fract_x
 _atom_site_fract_y
 _atom_site_fract_z
 _atom_site_occupancy
  Ca  Ca0  1  0.87500000  0.86383515  0.61383515  1
  Ca  Ca1  1  0.88616485  0.12500000  0.36383515  1
  Ca  Ca2  1  0.63616485  0.38616485  0.37500000  1
  Ca  Ca3  1  0.86383515  0.61383515  0.87500000  1
  Ca  Ca4  1  0.37500000  0.63616485  0.38616485  1
  Ca  Ca5  1  0.12500000  0.36383515  0.88616485  1
  Ca  Ca6  1  0.36383515  0.88616485  0.12500000  1
  Ca  Ca7  1  0.62500000  0.13616485  0.11383515  1
  Ca  Ca8  1  0.11383515  0.62500000  0.13616485  1
  Ca  Ca9  1  0.61383515  0.87500000  0.86383515  1
  Ca  Ca10  1  0.13616485  0.11383515  0.62500000  1
  Ca  Ca11  1  0.38616485  0.37500000  0.63616485  1
  Nb  Nb12  1  0.87500000  0.12384939  0.87384939  1
  Nb  Nb13  1  0.87384939  0.87500000  0.12384939  1
  Nb  Nb14  1  0.37384939  0.62500000  0.87615061  1
  Nb  Nb15  1  0.87500000  0.62500000  0.37500000  1
  Nb  Nb16  1  0.62615061  0.12500000  0.62384939  1
  Nb  Nb17  1  0.37500000  0.37615061  0.12615061  1
  Nb  Nb18  1  0.37500000  0.87500000  0.62500000  1
  Nb  Nb19  1  0.12615061  0.37500000  0.37615061  1
  Nb  Nb20  1  0.12384939  0.87384939  0.87500000  1
  Nb  Nb21  1  0.12500000  0.62384939  0.62615061  1
  Nb  Nb22  1  0.62500000  0.37500000  0.87500000  1
  Nb  Nb23  1  0.62384939  0.62615061  0.12500000  1
  Nb  Nb24  1  0.37615061  0.12615061  0.37500000  1
  Nb  Nb25  1  0.87615061  0.37384939  0.62500000  1
  Nb  Nb26  1  0.62500000  0.87615061  0.37384939  1
  Nb  Nb27  1  0.12500000  0.12500000  0.12500000  1
  O  O28  1  0.00165287  0.49531342  0.69713610  1
  O  O29  1  0.31234003  0.01008951  0.50823613  1
  O  O30  1  0.49176387  0.81234003  0.48991049  1
  O  O31  1  0.25165287  0.44713610  0.25468658  1
  O  O32  1  0.06234003  0.24176387  0.26008951  1
  O  O33  1  0.98991049  0.00823613  0.18765997  1
  O  O34  1  0.05286390  0.74531342  0.75165287  1
  O  O35  1  0.73991049  0.56234003  0.25823613  1
  O  O36  1  0.99176387  0.68765997  0.51008951  1
  O  O37  1  0.74176387  0.23991049  0.93765997  1
  O  O38  1  0.49531342  0.69713610  0.00165287  1
  O  O39  1  0.00468658  0.30286390  0.50165287  1
  O  O40  1  0.50165287  0.00468658  0.30286390  1
  O  O41  1  0.68765997  0.51008951  0.99176387  1
  O  O42  1  0.99531342  0.80286390  0.99834713  1
  O  O43  1  0.49834713  0.50468658  0.19713610  1
  O  O44  1  0.80286390  0.99834713  0.99531342  1
  O  O45  1  0.24176387  0.26008951  0.06234003  1
  O  O46  1  0.75823613  0.76008951  0.43765997  1
  O  O47  1  0.30286390  0.50165287  0.00468658  1
  O  O48  1  0.25468658  0.25165287  0.44713610  1
  O  O49  1  0.93765997  0.74176387  0.23991049  1
  O  O50  1  0.24834713  0.55286390  0.75468658  1
  O  O51  1  0.50468658  0.19713610  0.49834713  1
  O  O52  1  0.43765997  0.75823613  0.76008951  1
  O  O53  1  0.69713610  0.00165287  0.49531342  1
  O  O54  1  0.99834713  0.99531342  0.80286390  1
  O  O55  1  0.23991049  0.93765997  0.74176387  1
  O  O56  1  0.24531342  0.74834713  0.94713610  1
  O  O57  1  0.74531342  0.75165287  0.05286390  1
  O  O58  1  0.19713610  0.49834713  0.50468658  1
  O  O59  1  0.18765997  0.98991049  0.00823613  1
  O  O60  1  0.56234003  0.25823613  0.73991049  1
  O  O61  1  0.25823613  0.73991049  0.56234003  1
  O  O62  1  0.48991049  0.49176387  0.81234003  1
  O  O63  1  0.75165287  0.05286390  0.74531342  1
  O  O64  1  0.44713610  0.25468658  0.25165287  1
  O  O65  1  0.76008951  0.43765997  0.75823613  1
  O  O66  1  0.75468658  0.24834713  0.55286390  1
  O  O67  1  0.01008951  0.50823613  0.31234003  1
  O  O68  1  0.55286390  0.75468658  0.24834713  1
  O  O69  1  0.94713610  0.24531342  0.74834713  1
  O  O70  1  0.26008951  0.06234003  0.24176387  1
  O  O71  1  0.74834713  0.94713610  0.24531342  1
  O  O72  1  0.51008951  0.99176387  0.68765997  1
  O  O73  1  0.50823613  0.31234003  0.01008951  1
  O  O74  1  0.81234003  0.48991049  0.49176387  1
  O  O75  1  0.00823613  0.18765997  0.98991049  1
  F  F76  1  0.51165821  0.98834179  0.01165821  1
  F  F77  1  0.01165821  0.51165821  0.98834179  1
  F  F78  1  0.48834179  0.48834179  0.48834179  1
  F  F79  1  0.26165821  0.73834179  0.23834179  1
  F  F80  1  0.73834179  0.23834179  0.26165821  1
  F  F81  1  0.98834179  0.01165821  0.51165821  1
  F  F82  1  0.23834179  0.26165821  0.73834179  1
  F  F83  1  0.76165821  0.76165821  0.76165821  1
