# generated using pymatgen
data_NaO2
_symmetry_space_group_name_H-M   'P 1'
_cell_length_a   4.42854223
_cell_length_b   4.42854223
_cell_length_c   3.36447882
_cell_angle_alpha   90.00000000
_cell_angle_beta   48.84243777
_cell_angle_gamma   120.00000000
_symmetry_Int_Tables_number   1
_chemical_formula_structural   NaO2
_chemical_formula_sum   'Na1 O2'
_cell_volume   37.14280179
_cell_formula_units_Z   1
loop_
 _symmetry_equiv_pos_site_id
 _symmetry_equiv_pos_as_xyz
  1  'x, y, z'
loop_
 _atom_site_type_symbol
 _atom_site_label
 _atom_site_symmetry_multiplicity
 _atom_site_fract_x
 _atom_site_fract_y
 _atom_site_fract_z
 _atom_site_occupancy
  Na  Na0  1  -0.00000000  -0.00000000  0.00000000  1
  O  O1  1  0.20706601  0.60353301  0.18940098  1
  O  O2  1  0.79293399  0.39646699  0.81059902  1
