# generated using pymatgen
data_KNb5O13
_symmetry_space_group_name_H-M   'P 1'
_cell_length_a   5.79959395
_cell_length_b   10.95673686
_cell_length_c   17.07994880
_cell_angle_alpha   90.00000000
_cell_angle_beta   90.00000000
_cell_angle_gamma   90.00000000
_symmetry_Int_Tables_number   1
_chemical_formula_structural   KNb5O13
_chemical_formula_sum   'K4 Nb20 O52'
_cell_volume   1085.33893818
_cell_formula_units_Z   4
loop_
 _symmetry_equiv_pos_site_id
 _symmetry_equiv_pos_as_xyz
  1  'x, y, z'
loop_
 _atom_site_type_symbol
 _atom_site_label
 _atom_site_symmetry_multiplicity
 _atom_site_fract_x
 _atom_site_fract_y
 _atom_site_fract_z
 _atom_site_occupancy
  K  K0  1  0.78846941  0.32581325  0.25000000  1
  K  K1  1  0.21153059  0.67418675  0.75000000  1
  K  K2  1  0.21153059  0.82581325  0.25000000  1
  K  K3  1  0.78846941  0.17418675  0.75000000  1
  Nb  Nb4  1  0.83189754  0.93523109  0.07631903  1
  Nb  Nb5  1  0.33999846  0.13304904  0.13683981  1
  Nb  Nb6  1  0.33999846  0.36695096  0.86316019  1
  Nb  Nb7  1  0.83189754  0.93523109  0.42368097  1
  Nb  Nb8  1  0.16810246  0.06476891  0.92368097  1
  Nb  Nb9  1  0.83189754  0.56476891  0.57631903  1
  Nb  Nb10  1  0.66000154  0.63304904  0.36316019  1
  Nb  Nb11  1  0.83189754  0.56476891  0.92368097  1
  Nb  Nb12  1  0.66000154  0.63304904  0.13683981  1
  Nb  Nb13  1  0.33999846  0.13304904  0.36316019  1
  Nb  Nb14  1  0.16810246  0.06476891  0.57631903  1
  Nb  Nb15  1  0.32309005  0.75000000  0.50000000  1
  Nb  Nb16  1  0.16810246  0.43523109  0.42368097  1
  Nb  Nb17  1  0.32309005  0.75000000  0.00000000  1
  Nb  Nb18  1  0.67690995  0.25000000  0.00000000  1
  Nb  Nb19  1  0.33999846  0.36695096  0.63683981  1
  Nb  Nb20  1  0.16810246  0.43523109  0.07631903  1
  Nb  Nb21  1  0.67690995  0.25000000  0.50000000  1
  Nb  Nb22  1  0.66000154  0.86695096  0.63683981  1
  Nb  Nb23  1  0.66000154  0.86695096  0.86316019  1
  O  O24  1  0.13183927  0.28334939  0.12795002  1
  O  O25  1  0.59331820  0.25199846  0.39009783  1
  O  O26  1  0.40758885  0.99423221  0.63554604  1
  O  O27  1  0.90915053  0.98204833  0.86471430  1
  O  O28  1  0.90915053  0.51795167  0.36471430  1
  O  O29  1  0.35440131  0.12343279  0.48753905  1
  O  O30  1  0.12916567  0.60764690  0.49629592  1
  O  O31  1  0.12916567  0.89235310  0.99629592  1
  O  O32  1  0.35440131  0.37656721  0.98753905  1
  O  O33  1  0.36696462  0.34741503  0.75000000  1
  O  O34  1  0.59331820  0.24800154  0.89009783  1
  O  O35  1  0.09084947  0.01795167  0.13528570  1
  O  O36  1  0.59331820  0.25199846  0.10990217  1
  O  O37  1  0.12916567  0.60764690  0.00370408  1
  O  O38  1  0.40668180  0.75199846  0.10990217  1
  O  O39  1  0.40758885  0.50576779  0.36445396  1
  O  O40  1  0.63303538  0.65258497  0.25000000  1
  O  O41  1  0.13183927  0.21665061  0.62795002  1
  O  O42  1  0.59241115  0.49423221  0.86445396  1
  O  O43  1  0.40668180  0.75199846  0.39009783  1
  O  O44  1  0.09084947  0.48204833  0.86471430  1
  O  O45  1  0.64559869  0.62343279  0.48753905  1
  O  O46  1  0.64559869  0.87656721  0.51246095  1
  O  O47  1  0.13183927  0.21665061  0.87204998  1
  O  O48  1  0.63303538  0.84741503  0.75000000  1
  O  O49  1  0.40758885  0.50576779  0.13554604  1
  O  O50  1  0.87083433  0.10764690  0.49629592  1
  O  O51  1  0.40668180  0.74800154  0.60990217  1
  O  O52  1  0.90915053  0.51795167  0.13528570  1
  O  O53  1  0.40758885  0.99423221  0.86445396  1
  O  O54  1  0.59241115  0.49423221  0.63554604  1
  O  O55  1  0.09084947  0.01795167  0.36471430  1
  O  O56  1  0.87083433  0.39235310  0.50370408  1
  O  O57  1  0.40668180  0.74800154  0.89009783  1
  O  O58  1  0.64559869  0.87656721  0.98753905  1
  O  O59  1  0.09084947  0.48204833  0.63528570  1
  O  O60  1  0.36696462  0.15258497  0.25000000  1
  O  O61  1  0.35440131  0.37656721  0.51246095  1
  O  O62  1  0.59331820  0.24800154  0.60990217  1
  O  O63  1  0.12916567  0.89235310  0.50370408  1
  O  O64  1  0.64559869  0.62343279  0.01246095  1
  O  O65  1  0.59241115  0.00576779  0.36445396  1
  O  O66  1  0.87083433  0.39235310  0.99629592  1
  O  O67  1  0.87083433  0.10764690  0.00370408  1
  O  O68  1  0.59241115  0.00576779  0.13554604  1
  O  O69  1  0.86816073  0.78334939  0.37204998  1
  O  O70  1  0.86816073  0.78334939  0.12795002  1
  O  O71  1  0.90915053  0.98204833  0.63528570  1
  O  O72  1  0.86816073  0.71665061  0.87204998  1
  O  O73  1  0.13183927  0.28334939  0.37204998  1
  O  O74  1  0.86816073  0.71665061  0.62795002  1
  O  O75  1  0.35440131  0.12343279  0.01246095  1
