# generated using pymatgen
data_P2Pb3O8
_symmetry_space_group_name_H-M   'P 1'
_cell_length_a   5.95188863
_cell_length_b   7.61241567
_cell_length_c   9.49190983
_cell_angle_alpha   100.88536600
_cell_angle_beta   90.00000000
_cell_angle_gamma   113.01256442
_symmetry_Int_Tables_number   1
_chemical_formula_structural   P2Pb3O8
_chemical_formula_sum   'P4 Pb6 O16'
_cell_volume   387.41603746
_cell_formula_units_Z   2
loop_
 _symmetry_equiv_pos_site_id
 _symmetry_equiv_pos_as_xyz
  1  'x, y, z'
loop_
 _atom_site_type_symbol
 _atom_site_label
 _atom_site_symmetry_multiplicity
 _atom_site_fract_x
 _atom_site_fract_y
 _atom_site_fract_z
 _atom_site_occupancy
  Pb  Pb0  1  0.70181566  0.00000000  0.25000000  1
  Pb  Pb1  1  0.29818434  0.00000000  0.75000000  1
  Pb  Pb2  1  -0.00313770  0.64215113  0.34813884  1
  Pb  Pb3  1  0.35471118  0.35784887  0.15186116  1
  Pb  Pb4  1  1.00313770  0.35784887  0.65186116  1
  Pb  Pb5  1  0.64528882  0.64215113  0.84813884  1
  P  P6  1  0.34862606  0.19856044  0.44489548  1
  P  P7  1  0.15006561  0.80143956  0.05510452  1
  P  P8  1  0.65137394  0.80143956  0.55510452  1
  P  P9  1  0.84993439  0.19856044  0.94489548  1
  O  O10  1  0.26008263  0.97419347  0.42278206  1
  O  O11  1  0.28588916  0.02580653  0.07721794  1
  O  O12  1  0.73991737  0.02580653  0.57721794  1
  O  O13  1  0.71411084  0.97419347  0.92278206  1
  O  O14  1  0.60191506  0.28465348  0.38341274  1
  O  O15  1  0.31726158  0.71534652  0.11658726  1
  O  O16  1  0.39808494  0.71534652  0.61658726  1
  O  O17  1  0.68273842  0.28465348  0.88341274  1
  O  O18  1  0.16292890  0.25698572  0.36678004  1
  O  O19  1  0.90594318  0.74301428  0.13321996  1
  O  O20  1  0.83707110  0.74301428  0.63321996  1
  O  O21  1  0.09405682  0.25698572  0.86678004  1
  O  O22  1  0.36021602  0.28308070  0.61015158  1
  O  O23  1  0.07713532  0.71691930  0.88984842  1
  O  O24  1  0.63978398  0.71691930  0.38984842  1
  O  O25  1  0.92286468  0.28308070  0.11015158  1
