# generated using pymatgen
data_Rb4Nb11O30
_symmetry_space_group_name_H-M   'P 1'
_cell_length_a   15.35941095
_cell_length_b   15.35941086
_cell_length_c   15.35941100
_cell_angle_alpha   28.70454228
_cell_angle_beta   28.70454286
_cell_angle_gamma   28.70454426
_symmetry_Int_Tables_number   1
_chemical_formula_structural   Rb4Nb11O30
_chemical_formula_sum   'Rb4 Nb11 O30'
_cell_volume   739.00267640
_cell_formula_units_Z   1
loop_
 _symmetry_equiv_pos_site_id
 _symmetry_equiv_pos_as_xyz
  1  'x, y, z'
loop_
 _atom_site_type_symbol
 _atom_site_label
 _atom_site_symmetry_multiplicity
 _atom_site_fract_x
 _atom_site_fract_y
 _atom_site_fract_z
 _atom_site_occupancy
  Rb  Rb0  1  0.73270614  0.73270614  0.73270614  1
  Rb  Rb1  1  0.26729386  0.26729386  0.26729386  1
  Rb  Rb2  1  0.45225487  0.45225487  0.45225487  1
  Rb  Rb3  1  0.54774513  0.54774513  0.54774513  1
  Nb  Nb4  1  0.19588448  0.19588448  0.69598208  1
  Nb  Nb5  1  0.69598208  0.19588448  0.19588448  1
  Nb  Nb6  1  0.19588448  0.69598208  0.19588448  1
  Nb  Nb7  1  0.80411552  0.80411552  0.30401792  1
  Nb  Nb8  1  0.30401792  0.80411552  0.80411552  1
  Nb  Nb9  1  0.80411552  0.30401792  0.80411552  1
  Nb  Nb10  1  0.10013524  0.10013524  0.10013524  1
  Nb  Nb11  1  0.89986476  0.89986476  0.89986476  1
  Nb  Nb12  1  0.50000000  0.00000000  0.00000000  1
  Nb  Nb13  1  0.00000000  0.50000000  0.00000000  1
  Nb  Nb14  1  0.00000000  0.00000000  0.50000000  1
  O  O15  1  0.19315175  0.19315175  0.82176342  1
  O  O16  1  0.82176342  0.19315175  0.19315175  1
  O  O17  1  0.19315175  0.82176342  0.19315175  1
  O  O18  1  0.80684825  0.80684825  0.17823658  1
  O  O19  1  0.17823658  0.80684825  0.80684825  1
  O  O20  1  0.80684825  0.17823658  0.80684825  1
  O  O21  1  0.37135249  0.99826776  0.99826776  1
  O  O22  1  0.99826776  0.37135249  0.99826776  1
  O  O23  1  0.99826776  0.99826776  0.37135249  1
  O  O24  1  0.00173224  0.62864751  0.00173224  1
  O  O25  1  0.00173224  0.00173224  0.62864751  1
  O  O26  1  0.62864751  0.00173224  0.00173224  1
  O  O27  1  0.30382825  0.87714572  0.87714572  1
  O  O28  1  0.87714572  0.30382825  0.87714572  1
  O  O29  1  0.87714572  0.87714572  0.30382825  1
  O  O30  1  0.12285428  0.69617175  0.12285428  1
  O  O31  1  0.12285428  0.12285428  0.69617175  1
  O  O32  1  0.69617175  0.12285428  0.12285428  1
  O  O33  1  0.48064428  0.48064428  0.13208121  1
  O  O34  1  0.13208121  0.48064428  0.48064428  1
  O  O35  1  0.48064428  0.13208121  0.48064428  1
  O  O36  1  0.51935572  0.51935572  0.86791879  1
  O  O37  1  0.86791879  0.51935572  0.51935572  1
  O  O38  1  0.51935572  0.86791879  0.51935572  1
  O  O39  1  0.29838539  0.29838539  0.92706857  1
  O  O40  1  0.92706857  0.29838539  0.29838539  1
  O  O41  1  0.29838539  0.92706857  0.29838539  1
  O  O42  1  0.70161461  0.70161461  0.07293143  1
  O  O43  1  0.07293143  0.70161461  0.70161461  1
  O  O44  1  0.70161461  0.07293143  0.70161461  1
