# generated using pymatgen
data_MnSbS2Br
_symmetry_space_group_name_H-M   'P 1'
_cell_length_a   3.86265467
_cell_length_b   6.64950961
_cell_length_c   9.59898933
_cell_angle_alpha   91.39625524
_cell_angle_beta   90.00000000
_cell_angle_gamma   106.88469405
_symmetry_Int_Tables_number   1
_chemical_formula_structural   MnSbS2Br
_chemical_formula_sum   'Mn2 Sb2 S4 Br2'
_cell_volume   235.84285322
_cell_formula_units_Z   2
loop_
 _symmetry_equiv_pos_site_id
 _symmetry_equiv_pos_as_xyz
  1  'x, y, z'
loop_
 _atom_site_type_symbol
 _atom_site_label
 _atom_site_symmetry_multiplicity
 _atom_site_fract_x
 _atom_site_fract_y
 _atom_site_fract_z
 _atom_site_occupancy
  Mn  Mn0  1  0.00000000  0.00000000  0.00000000  1
  Mn  Mn1  1  0.00000000  0.00000000  0.50000000  1
  Sb  Sb2  1  0.71035838  0.42071677  0.80943395  1
  Sb  Sb3  1  0.28964162  0.57928323  0.19056605  1
  S  S4  1  0.63795035  0.27590069  0.05048309  1
  S  S5  1  0.07451549  0.14903098  0.75755898  1
  S  S6  1  0.36204965  0.72409931  0.94951691  1
  S  S7  1  0.92548451  0.85096902  0.24244102  1
  Br  Br8  1  0.36732904  0.73465808  0.56918627  1
  Br  Br9  1  0.63267096  0.26534192  0.43081373  1
