# generated using pymatgen
data_Cu3B7BrO13
_symmetry_space_group_name_H-M   'P 1'
_cell_length_a   8.54156176
_cell_length_b   8.54156174
_cell_length_c   8.54156251
_cell_angle_alpha   59.99999698
_cell_angle_beta   59.99999705
_cell_angle_gamma   59.99999794
_symmetry_Int_Tables_number   1
_chemical_formula_structural   Cu3B7BrO13
_chemical_formula_sum   'Cu6 B14 Br2 O26'
_cell_volume   440.65313984
_cell_formula_units_Z   2
loop_
 _symmetry_equiv_pos_site_id
 _symmetry_equiv_pos_as_xyz
  1  'x, y, z'
loop_
 _atom_site_type_symbol
 _atom_site_label
 _atom_site_symmetry_multiplicity
 _atom_site_fract_x
 _atom_site_fract_y
 _atom_site_fract_z
 _atom_site_occupancy
  Cu  Cu0  1  0.00000000  0.00000000  0.50000000  1
  Cu  Cu1  1  0.50000000  0.00000000  0.50000000  1
  Cu  Cu2  1  0.50000000  0.50000000  0.00000000  1
  Cu  Cu3  1  0.00000000  0.50000000  0.50000000  1
  Cu  Cu4  1  0.00000000  0.50000000  0.00000000  1
  Cu  Cu5  1  0.50000000  0.00000000  0.00000000  1
  B  B6  1  0.25720748  0.58093084  0.58093084  1
  B  B7  1  0.08093084  0.08093084  0.08093084  1
  B  B8  1  0.08093084  0.75720748  0.08093084  1
  B  B9  1  0.75000000  0.75000000  0.25000000  1
  B  B10  1  0.25000000  0.75000000  0.25000000  1
  B  B11  1  0.58093084  0.58093084  0.25720748  1
  B  B12  1  0.75000000  0.25000000  0.25000000  1
  B  B13  1  0.08093084  0.08093084  0.75720748  1
  B  B14  1  0.25000000  0.25000000  0.75000000  1
  B  B15  1  0.25000000  0.75000000  0.75000000  1
  B  B16  1  0.58093084  0.58093084  0.58093084  1
  B  B17  1  0.58093084  0.25720748  0.58093084  1
  B  B18  1  0.75720748  0.08093084  0.08093084  1
  B  B19  1  0.75000000  0.25000000  0.75000000  1
  Br  Br20  1  0.25000000  0.25000000  0.25000000  1
  Br  Br21  1  0.75000000  0.75000000  0.75000000  1
  O  O22  1  0.50000000  0.50000000  0.50000000  1
  O  O23  1  0.20371350  0.59968308  0.43592926  1
  O  O24  1  0.59968308  0.76067416  0.43592926  1
  O  O25  1  0.00000000  0.00000000  0.00000000  1
  O  O26  1  0.43592926  0.59968308  0.76067416  1
  O  O27  1  0.20371350  0.76067416  0.59968308  1
  O  O28  1  0.20371350  0.43592926  0.76067416  1
  O  O29  1  0.59968308  0.43592926  0.20371350  1
  O  O30  1  0.70371350  0.09968308  0.26067416  1
  O  O31  1  0.70371350  0.93592926  0.09968308  1
  O  O32  1  0.76067416  0.20371350  0.43592926  1
  O  O33  1  0.93592926  0.70371350  0.26067416  1
  O  O34  1  0.09968308  0.93592926  0.26067416  1
  O  O35  1  0.59968308  0.20371350  0.76067416  1
  O  O36  1  0.43592926  0.20371350  0.59968308  1
  O  O37  1  0.26067416  0.70371350  0.09968308  1
  O  O38  1  0.26067416  0.93592926  0.70371350  1
  O  O39  1  0.76067416  0.43592926  0.59968308  1
  O  O40  1  0.09968308  0.26067416  0.70371350  1
  O  O41  1  0.93592926  0.26067416  0.09968308  1
  O  O42  1  0.70371350  0.26067416  0.93592926  1
  O  O43  1  0.43592926  0.76067416  0.20371350  1
  O  O44  1  0.09968308  0.70371350  0.93592926  1
  O  O45  1  0.93592926  0.09968308  0.70371350  1
  O  O46  1  0.26067416  0.09968308  0.93592926  1
  O  O47  1  0.76067416  0.59968308  0.20371350  1
