# generated using pymatgen
data_Zn3(BO3)2
_symmetry_space_group_name_H-M   'P 1'
_cell_length_a   5.08611467
_cell_length_b   8.48316326
_cell_length_c   12.54087878
_cell_angle_alpha   103.17179098
_cell_angle_beta   101.69749104
_cell_angle_gamma   90.00098614
_symmetry_Int_Tables_number   1
_chemical_formula_structural   Zn3(BO3)2
_chemical_formula_sum   'Zn12 B8 O24'
_cell_volume   515.30914468
_cell_formula_units_Z   4
loop_
 _symmetry_equiv_pos_site_id
 _symmetry_equiv_pos_as_xyz
  1  'x, y, z'
loop_
 _atom_site_type_symbol
 _atom_site_label
 _atom_site_symmetry_multiplicity
 _atom_site_fract_x
 _atom_site_fract_y
 _atom_site_fract_z
 _atom_site_occupancy
  Zn  Zn0  1  0.80984490  0.37988180  0.25430468  1
  Zn  Zn1  1  0.55537548  0.12014420  0.74568571  1
  Zn  Zn2  1  0.19015510  0.62011820  0.74569532  1
  Zn  Zn3  1  0.44462452  0.87985580  0.25431429  1
  Zn  Zn4  1  0.22399886  0.17490406  0.09786644  1
  Zn  Zn5  1  0.12613573  0.32509777  0.90213092  1
  Zn  Zn6  1  0.77600114  0.82509594  0.90213356  1
  Zn  Zn7  1  0.87386427  0.67490223  0.09786908  1
  Zn  Zn8  1  0.90061127  0.71220951  0.41912211  1
  Zn  Zn9  1  0.48145258  0.78779151  0.58088771  1
  Zn  Zn10  1  0.09938873  0.28779049  0.58087789  1
  Zn  Zn11  1  0.51854742  0.21220849  0.41911229  1
  B  B12  1  0.25849579  0.96272073  0.86931574  1
  B  B13  1  0.38910015  0.53727364  0.13068702  1
  B  B14  1  0.74150421  0.03727927  0.13068426  1
  B  B15  1  0.61089985  0.46272636  0.86931298  1
  B  B16  1  0.37242532  0.52017512  0.37470521  1
  B  B17  1  0.99764298  0.97980982  0.62529315  1
  B  B18  1  0.62757468  0.47982488  0.62529479  1
  B  B19  1  0.00235702  0.02019018  0.37470685  1
  O  O20  1  0.16425963  0.10094296  0.92783307  1
  O  O21  1  0.23630827  0.39906896  0.07217140  1
  O  O22  1  0.83574037  0.89905704  0.07216693  1
  O  O23  1  0.76369173  0.60093104  0.92782860  1
  O  O24  1  0.66750105  0.53983994  0.16198365  1
  O  O25  1  0.50556179  0.96014150  0.83799603  1
  O  O26  1  0.33249895  0.46016006  0.83801635  1
  O  O27  1  0.49443821  0.03985850  0.16200397  1
  O  O28  1  0.89911203  0.18003378  0.16064790  1
  O  O29  1  0.73848596  0.31995719  0.83932838  1
  O  O30  1  0.10088797  0.81996622  0.83935210  1
  O  O31  1  0.26151404  0.68004281  0.16067162  1
  O  O32  1  0.48889001  0.37978168  0.32739399  1
  O  O33  1  0.16145692  0.12020285  0.67257413  1
  O  O34  1  0.51110999  0.62021832  0.67260601  1
  O  O35  1  0.83854308  0.87979715  0.32742587  1
  O  O36  1  0.09764405  0.83994163  0.56876652  1
  O  O37  1  0.52896543  0.66002636  0.43125620  1
  O  O38  1  0.90235595  0.16005837  0.43123348  1
  O  O39  1  0.47103457  0.33997364  0.56874380  1
  O  O40  1  0.09691075  0.52043815  0.36742832  1
  O  O41  1  0.72941438  0.97957792  0.63257504  1
  O  O42  1  0.90308925  0.47956185  0.63257168  1
  O  O43  1  0.27058562  0.02042208  0.36742496  1
