# generated using pymatgen
data_TcO3F
_symmetry_space_group_name_H-M   'P 1'
_cell_length_a   5.26265864
_cell_length_b   6.01755409
_cell_length_c   9.51785715
_cell_angle_alpha   93.24876959
_cell_angle_beta   90.00000000
_cell_angle_gamma   90.00000000
_symmetry_Int_Tables_number   1
_chemical_formula_structural   TcO3F
_chemical_formula_sum   'Tc4 O12 F4'
_cell_volume   300.93026273
_cell_formula_units_Z   4
loop_
 _symmetry_equiv_pos_site_id
 _symmetry_equiv_pos_as_xyz
  1  'x, y, z'
loop_
 _atom_site_type_symbol
 _atom_site_label
 _atom_site_symmetry_multiplicity
 _atom_site_fract_x
 _atom_site_fract_y
 _atom_site_fract_z
 _atom_site_occupancy
  Tc  Tc0  1  0.08327000  0.67007444  0.36231724  1
  Tc  Tc1  1  0.91673000  0.32992556  0.63768276  1
  Tc  Tc2  1  0.41673000  0.67007444  0.86231724  1
  Tc  Tc3  1  0.58327000  0.32992556  0.13768276  1
  O  O4  1  0.16527922  0.78738737  0.94983386  1
  O  O5  1  0.71978780  0.45890594  0.28816418  1
  O  O6  1  0.28021220  0.54109406  0.71183582  1
  O  O7  1  0.58499782  0.88882583  0.80577457  1
  O  O8  1  0.33472078  0.78738737  0.44983386  1
  O  O9  1  0.21978780  0.54109406  0.21183582  1
  O  O10  1  0.83472078  0.21261263  0.05016614  1
  O  O11  1  0.41500218  0.11117417  0.19422543  1
  O  O12  1  0.66527922  0.21261263  0.55016614  1
  O  O13  1  0.91500218  0.88882583  0.30577457  1
  O  O14  1  0.78021220  0.45890594  0.78816418  1
  O  O15  1  0.08499782  0.11117417  0.69422543  1
  F  F16  1  0.63342751  0.64943449  0.04209715  1
  F  F17  1  0.36657249  0.35056551  0.95790285  1
  F  F18  1  0.13342751  0.35056551  0.45790285  1
  F  F19  1  0.86657249  0.64943449  0.54209715  1
