# generated using pymatgen
data_AsS2NF10
_symmetry_space_group_name_H-M   'P 1'
_cell_length_a   10.08460118
_cell_length_b   12.31436638
_cell_length_c   15.15133277
_cell_angle_alpha   90.00000000
_cell_angle_beta   90.00000000
_cell_angle_gamma   90.00000000
_symmetry_Int_Tables_number   1
_chemical_formula_structural   AsS2NF10
_chemical_formula_sum   'As8 S16 N8 F80'
_cell_volume   1881.57543763
_cell_formula_units_Z   8
loop_
 _symmetry_equiv_pos_site_id
 _symmetry_equiv_pos_as_xyz
  1  'x, y, z'
loop_
 _atom_site_type_symbol
 _atom_site_label
 _atom_site_symmetry_multiplicity
 _atom_site_fract_x
 _atom_site_fract_y
 _atom_site_fract_z
 _atom_site_occupancy
  As  As0  1  0.23451144  0.11305156  0.91732396  1
  As  As1  1  0.26548856  0.61305156  0.91732396  1
  As  As2  1  0.76548856  0.61305156  0.58267604  1
  As  As3  1  0.26548856  0.88694844  0.41732396  1
  As  As4  1  0.23451144  0.38694844  0.41732396  1
  As  As5  1  0.73451144  0.11305156  0.58267604  1
  As  As6  1  0.76548856  0.88694844  0.08267604  1
  As  As7  1  0.73451144  0.38694844  0.08267604  1
  S  S8  1  0.98573068  0.83474514  0.83481875  1
  S  S9  1  0.01426932  0.33474514  0.66518125  1
  S  S10  1  0.64087750  0.34413277  0.40267968  1
  S  S11  1  0.01426932  0.16525486  0.16518125  1
  S  S12  1  0.85912250  0.65586723  0.90267968  1
  S  S13  1  0.35912250  0.65586723  0.59732032  1
  S  S14  1  0.35912250  0.84413277  0.09732032  1
  S  S15  1  0.48573068  0.83474514  0.66518125  1
  S  S16  1  0.98573068  0.66525486  0.33481875  1
  S  S17  1  0.14087750  0.34413277  0.09732032  1
  S  S18  1  0.64087750  0.15586723  0.90267968  1
  S  S19  1  0.85912250  0.84413277  0.40267968  1
  S  S20  1  0.48573068  0.66525486  0.16518125  1
  S  S21  1  0.14087750  0.15586723  0.59732032  1
  S  S22  1  0.51426932  0.16525486  0.33481875  1
  S  S23  1  0.51426932  0.33474514  0.83481875  1
  N  N24  1  0.89779535  0.73083554  0.82278045  1
  N  N25  1  0.39779535  0.73083554  0.67721955  1
  N  N26  1  0.10220465  0.23083554  0.67721955  1
  N  N27  1  0.10220465  0.26916446  0.17721955  1
  N  N28  1  0.60220465  0.26916446  0.32278045  1
  N  N29  1  0.60220465  0.23083554  0.82278045  1
  N  N30  1  0.89779535  0.76916446  0.32278045  1
  N  N31  1  0.39779535  0.76916446  0.17721955  1
  F  F32  1  0.20358495  0.64999617  0.61083963  1
  F  F33  1  0.30309464  0.10018757  0.81098210  1
  F  F34  1  0.30309464  0.39981243  0.31098210  1
  F  F35  1  0.30335182  0.51321163  0.44925075  1
  F  F36  1  0.80335182  0.98678837  0.55074925  1
  F  F37  1  0.32850516  0.87104206  0.52790220  1
  F  F38  1  0.88859694  0.95889107  0.35998526  1
  F  F39  1  0.91971385  0.17749908  0.24821925  1
  F  F40  1  0.29641505  0.35000383  0.11083963  1
  F  F41  1  0.89317948  0.92276545  0.79039848  1
  F  F42  1  0.58028615  0.67749908  0.24821925  1
  F  F43  1  0.88445697  0.17938756  0.54656189  1
  F  F44  1  0.16765311  0.25877786  0.39115457  1
  F  F45  1  0.91338050  0.95212849  0.11541001  1
  F  F46  1  0.88445697  0.32061244  0.04656189  1
  F  F47  1  0.19690536  0.89981243  0.31098210  1
  F  F48  1  0.10682052  0.42276545  0.70960152  1
  F  F49  1  0.30335182  0.98678837  0.94925075  1
  F  F50  1  0.41971385  0.17749908  0.25178075  1
  F  F51  1  0.60682052  0.07723455  0.29039848  1
  F  F52  1  0.67149484  0.37104206  0.97209780  1
  F  F53  1  0.19664818  0.48678837  0.94925075  1
  F  F54  1  0.08028615  0.67749908  0.25178075  1
  F  F55  1  0.61554303  0.82061244  0.04656189  1
  F  F56  1  0.80309464  0.10018757  0.68901790  1
  F  F57  1  0.89317948  0.57723455  0.29039848  1
  F  F58  1  0.10682052  0.07723455  0.20960152  1
  F  F59  1  0.58661950  0.04787151  0.61541001  1
  F  F60  1  0.20358495  0.85000383  0.11083963  1
  F  F61  1  0.32850516  0.62895794  0.02790220  1
  F  F62  1  0.19664818  0.01321163  0.44925075  1
  F  F63  1  0.33234689  0.74122214  0.89115457  1
  F  F64  1  0.69690536  0.89981243  0.18901790  1
  F  F65  1  0.66765311  0.25877786  0.10884543  1
  F  F66  1  0.39317948  0.92276545  0.70960152  1
  F  F67  1  0.11140306  0.04110893  0.64001474  1
  F  F68  1  0.38445697  0.17938756  0.95343811  1
  F  F69  1  0.69664818  0.01321163  0.05074925  1
  F  F70  1  0.19690536  0.60018757  0.81098210  1
  F  F71  1  0.41338050  0.54787151  0.88458999  1
  F  F72  1  0.39317948  0.57723455  0.20960152  1
  F  F73  1  0.08661950  0.04787151  0.88458999  1
  F  F74  1  0.91971385  0.32250092  0.74821925  1
  F  F75  1  0.79641505  0.35000383  0.38916037  1
  F  F76  1  0.29641505  0.14999617  0.61083963  1
  F  F77  1  0.38859694  0.54110893  0.64001474  1
  F  F78  1  0.66765311  0.24122214  0.60884543  1
  F  F79  1  0.17149484  0.37104206  0.52790220  1
  F  F80  1  0.91338050  0.54787151  0.61541001  1
  F  F81  1  0.33234689  0.75877786  0.39115457  1
  F  F82  1  0.60682052  0.42276545  0.79039848  1
  F  F83  1  0.41971385  0.32250092  0.75178075  1
  F  F84  1  0.69664818  0.48678837  0.55074925  1
  F  F85  1  0.41338050  0.95212849  0.38458999  1
  F  F86  1  0.61140306  0.04110893  0.85998526  1
  F  F87  1  0.70358495  0.85000383  0.38916037  1
  F  F88  1  0.61140306  0.45889107  0.35998526  1
  F  F89  1  0.80335182  0.51321163  0.05074925  1
  F  F90  1  0.38445697  0.32061244  0.45343811  1
  F  F91  1  0.83234689  0.75877786  0.10884543  1
  F  F92  1  0.58661950  0.45212849  0.11541001  1
  F  F93  1  0.58028615  0.82250092  0.74821925  1
  F  F94  1  0.67149484  0.12895794  0.47209780  1
  F  F95  1  0.80309464  0.39981243  0.18901790  1
  F  F96  1  0.38859694  0.95889107  0.14001474  1
  F  F97  1  0.82850516  0.87104206  0.97209780  1
  F  F98  1  0.69690536  0.60018757  0.68901790  1
  F  F99  1  0.11140306  0.45889107  0.14001474  1
  F  F100  1  0.70358495  0.64999617  0.88916037  1
  F  F101  1  0.08661950  0.45212849  0.38458999  1
  F  F102  1  0.08028615  0.82250092  0.75178075  1
  F  F103  1  0.83234689  0.74122214  0.60884543  1
  F  F104  1  0.16765311  0.24122214  0.89115457  1
  F  F105  1  0.61554303  0.67938756  0.54656189  1
  F  F106  1  0.17149484  0.12895794  0.02790220  1
  F  F107  1  0.11554303  0.82061244  0.45343811  1
  F  F108  1  0.82850516  0.62895794  0.47209780  1
  F  F109  1  0.79641505  0.14999617  0.88916037  1
  F  F110  1  0.11554303  0.67938756  0.95343811  1
  F  F111  1  0.88859694  0.54110893  0.85998526  1
