# generated using pymatgen
data_BaTi2O5
_symmetry_space_group_name_H-M   'P 1'
_cell_length_a   3.96927868
_cell_length_b   8.74977036
_cell_length_c   9.59550969
_cell_angle_alpha   102.51331170
_cell_angle_beta   90.00000000
_cell_angle_gamma   103.11003427
_symmetry_Int_Tables_number   1
_chemical_formula_structural   BaTi2O5
_chemical_formula_sum   'Ba3 Ti6 O15'
_cell_volume   316.43539138
_cell_formula_units_Z   3
loop_
 _symmetry_equiv_pos_site_id
 _symmetry_equiv_pos_as_xyz
  1  'x, y, z'
loop_
 _atom_site_type_symbol
 _atom_site_label
 _atom_site_symmetry_multiplicity
 _atom_site_fract_x
 _atom_site_fract_y
 _atom_site_fract_z
 _atom_site_occupancy
  Ba  Ba0  1  0.63067887  0.26387352  0.98404954  1
  Ba  Ba1  1  0.36680535  0.73612648  0.01595046  1
  Ba  Ba2  1  0.49666825  0.00000000  0.50000000  1
  Ti  Ti3  1  0.98819687  0.92234039  0.79058266  1
  Ti  Ti4  1  0.82410672  0.66693273  0.30438883  1
  Ti  Ti5  1  0.15717399  0.33306727  0.69561117  1
  Ti  Ti6  1  0.77931822  0.58712425  0.62740093  1
  Ti  Ti7  1  0.06585648  0.07765961  0.20941734  1
  Ti  Ti8  1  0.19219397  0.41287575  0.37259907  1
  O  O9  1  0.78228102  0.57902040  0.12265389  1
  O  O10  1  0.25293521  0.52912153  0.60104380  1
  O  O11  1  0.66399151  0.34992895  0.66270241  1
  O  O12  1  0.83717772  0.69455862  0.81401685  1
  O  O13  1  0.98574458  0.00000000  0.00000000  1
  O  O14  1  0.31406256  0.65007105  0.33729759  1
  O  O15  1  0.14261910  0.30544138  0.18598315  1
  O  O16  1  0.20326062  0.42097960  0.87734611  1
  O  O17  1  0.44382278  0.93013213  0.79098806  1
  O  O18  1  0.04161851  0.11514911  0.71066015  1
  O  O19  1  0.51369065  0.06986787  0.20901194  1
  O  O20  1  0.88263518  0.78323640  0.57483639  1
  O  O21  1  0.72381368  0.47087847  0.39895620  1
  O  O22  1  0.09939877  0.21676360  0.42516361  1
  O  O23  1  0.92646941  0.88485089  0.28933985  1
