# generated using pymatgen
data_Er2SiSO4
_symmetry_space_group_name_H-M   'P 1'
_cell_length_a   6.85532635
_cell_length_b   8.19519936
_cell_length_c   8.19519935
_cell_angle_alpha   98.20032787
_cell_angle_beta   90.00000000
_cell_angle_gamma   90.00000000
_symmetry_Int_Tables_number   1
_chemical_formula_structural   Er2SiSO4
_chemical_formula_sum   'Er8 Si4 S4 O16'
_cell_volume   455.70505034
_cell_formula_units_Z   4
loop_
 _symmetry_equiv_pos_site_id
 _symmetry_equiv_pos_as_xyz
  1  'x, y, z'
loop_
 _atom_site_type_symbol
 _atom_site_label
 _atom_site_symmetry_multiplicity
 _atom_site_fract_x
 _atom_site_fract_y
 _atom_site_fract_z
 _atom_site_occupancy
  Er  Er0  1  0.02306474  0.32863908  0.67136092  1
  Er  Er1  1  0.75000000  0.18952942  0.31047058  1
  Er  Er2  1  0.47693526  0.82863908  0.17136092  1
  Er  Er3  1  0.25000000  0.81047058  0.68952942  1
  Er  Er4  1  0.25000000  0.31047058  0.18952942  1
  Er  Er5  1  0.52306474  0.17136092  0.82863908  1
  Er  Er6  1  0.97693526  0.67136092  0.32863908  1
  Er  Er7  1  0.75000000  0.68952942  0.81047058  1
  Si  Si8  1  0.75000000  0.43613636  0.06386364  1
  Si  Si9  1  0.25000000  0.56386364  0.93613636  1
  Si  Si10  1  0.75000000  0.93613636  0.56386364  1
  Si  Si11  1  0.25000000  0.06386364  0.43613636  1
  S  S12  1  0.25288338  0.50910357  0.49089643  1
  S  S13  1  0.75288338  0.99089643  0.00910357  1
  S  S14  1  0.24711662  0.00910357  0.99089643  1
  S  S15  1  0.74711662  0.49089643  0.50910357  1
  O  O16  1  0.23561195  0.60958576  0.13716185  1
  O  O17  1  0.76438805  0.13716185  0.60958576  1
  O  O18  1  0.06395102  0.16940222  0.38126673  1
  O  O19  1  0.43604898  0.11873327  0.33059778  1
  O  O20  1  0.23561195  0.86283815  0.39041424  1
  O  O21  1  0.26438805  0.10958576  0.63716185  1
  O  O22  1  0.43604898  0.66940222  0.88126673  1
  O  O23  1  0.26438805  0.36283815  0.89041424  1
  O  O24  1  0.76438805  0.39041424  0.86283815  1
  O  O25  1  0.06395102  0.61873327  0.83059778  1
  O  O26  1  0.73561195  0.89041424  0.36283815  1
  O  O27  1  0.93604898  0.83059778  0.61873327  1
  O  O28  1  0.56395102  0.88126673  0.66940222  1
  O  O29  1  0.73561195  0.63716185  0.10958576  1
  O  O30  1  0.93604898  0.38126673  0.16940222  1
  O  O31  1  0.56395102  0.33059778  0.11873327  1
