# generated using pymatgen
data_Sr2LaTa3O11
_symmetry_space_group_name_H-M   'P 1'
_cell_length_a   3.98083885
_cell_length_b   5.75800408
_cell_length_c   11.46006347
_cell_angle_alpha   104.55205743
_cell_angle_beta   99.99938392
_cell_angle_gamma   90.00051787
_symmetry_Int_Tables_number   1
_chemical_formula_structural   Sr2LaTa3O11
_chemical_formula_sum   'Sr2 La1 Ta3 O11'
_cell_volume   250.13223824
_cell_formula_units_Z   1
loop_
 _symmetry_equiv_pos_site_id
 _symmetry_equiv_pos_as_xyz
  1  'x, y, z'
loop_
 _atom_site_type_symbol
 _atom_site_label
 _atom_site_symmetry_multiplicity
 _atom_site_fract_x
 _atom_site_fract_y
 _atom_site_fract_z
 _atom_site_occupancy
  Sr  Sr0  1  0.20478911  0.20486639  0.40967928  1
  Sr  Sr1  1  0.79521089  0.79513361  0.59032072  1
  La  La2  1  0.00000000  0.50000000  0.00000000  1
  Ta  Ta3  1  0.63498658  0.63507725  0.27008979  1
  Ta  Ta4  1  0.36501342  0.36492275  0.72991021  1
  Ta  Ta5  1  0.50000000  0.00000000  0.00000000  1
  O  O6  1  0.55936035  0.32305679  0.11892461  1
  O  O7  1  0.55934555  0.79583716  0.11890151  1
  O  O8  1  0.30548060  0.06788801  0.61078839  1
  O  O9  1  0.69453886  0.45718175  0.38921728  1
  O  O10  1  0.44063965  0.67694321  0.88107539  1
  O  O11  1  0.44065445  0.20416284  0.88109849  1
  O  O12  1  0.00000000  0.00000000  0.00000000  1
  O  O13  1  0.12006244  0.62017498  0.24028643  1
  O  O14  1  0.87993756  0.37982502  0.75971357  1
  O  O15  1  0.69451940  0.93211199  0.38921161  1
  O  O16  1  0.30546114  0.54281825  0.61078272  1
