# generated using pymatgen
data_Ba3AlF9
_symmetry_space_group_name_H-M   'P 1'
_cell_length_a   7.65853975
_cell_length_b   14.79851483
_cell_length_c   15.10369841
_cell_angle_alpha   90.00000000
_cell_angle_beta   90.00000000
_cell_angle_gamma   90.00000000
_symmetry_Int_Tables_number   1
_chemical_formula_structural   Ba3AlF9
_chemical_formula_sum   'Ba24 Al8 F72'
_cell_volume   1711.77787175
_cell_formula_units_Z   8
loop_
 _symmetry_equiv_pos_site_id
 _symmetry_equiv_pos_as_xyz
  1  'x, y, z'
loop_
 _atom_site_type_symbol
 _atom_site_label
 _atom_site_symmetry_multiplicity
 _atom_site_fract_x
 _atom_site_fract_y
 _atom_site_fract_z
 _atom_site_occupancy
  Ba  Ba0  1  0.74192095  0.40178886  0.89153016  1
  Ba  Ba1  1  0.00000000  0.85617952  0.00000000  1
  Ba  Ba2  1  0.24159902  0.19817853  0.31136987  1
  Ba  Ba3  1  0.24159902  0.69817853  0.18863013  1
  Ba  Ba4  1  0.74960070  0.28133718  0.22695024  1
  Ba  Ba5  1  0.49245806  0.00425365  0.85458699  1
  Ba  Ba6  1  0.25039930  0.28133718  0.77304976  1
  Ba  Ba7  1  0.25807905  0.40178886  0.10846984  1
  Ba  Ba8  1  0.50754194  0.00425365  0.14541301  1
  Ba  Ba9  1  0.50754194  0.50425365  0.35458699  1
  Ba  Ba10  1  0.49245806  0.50425365  0.64541301  1
  Ba  Ba11  1  0.77223113  0.06948527  0.40491759  1
  Ba  Ba12  1  0.00000000  0.17737017  0.00000000  1
  Ba  Ba13  1  0.22776887  0.06948527  0.59508241  1
  Ba  Ba14  1  0.00000000  0.67737017  0.50000000  1
  Ba  Ba15  1  0.77223113  0.56948527  0.09508241  1
  Ba  Ba16  1  0.75840098  0.69817853  0.81136987  1
  Ba  Ba17  1  0.00000000  0.35617952  0.50000000  1
  Ba  Ba18  1  0.25039930  0.78133718  0.72695024  1
  Ba  Ba19  1  0.75840098  0.19817853  0.68863013  1
  Ba  Ba20  1  0.25807905  0.90178886  0.39153016  1
  Ba  Ba21  1  0.74960070  0.78133718  0.27304976  1
  Ba  Ba22  1  0.22776887  0.56948527  0.90491759  1
  Ba  Ba23  1  0.74192095  0.90178886  0.60846984  1
  Al  Al24  1  0.50000000  0.81060338  0.00000000  1
  Al  Al25  1  0.50000000  0.20488300  0.00000000  1
  Al  Al26  1  0.98322512  0.48408194  0.69902649  1
  Al  Al27  1  0.50000000  0.70488300  0.50000000  1
  Al  Al28  1  0.01677488  0.98408194  0.19902649  1
  Al  Al29  1  0.01677488  0.48408194  0.30097351  1
  Al  Al30  1  0.98322512  0.98408194  0.80097351  1
  Al  Al31  1  0.50000000  0.31060338  0.50000000  1
  F  F32  1  0.66987060  0.28676713  0.02826247  1
  F  F33  1  0.50000000  0.49294728  0.00000000  1
  F  F34  1  0.93493114  0.25130845  0.84097233  1
  F  F35  1  0.43481245  0.20744433  0.11714133  1
  F  F36  1  0.21805840  0.53371612  0.25576768  1
  F  F37  1  0.65887277  0.90327183  0.99174085  1
  F  F38  1  0.15073313  0.87996096  0.18428458  1
  F  F39  1  0.67276401  0.22773232  0.51160570  1
  F  F40  1  0.34112723  0.40327183  0.49174085  1
  F  F41  1  0.56518755  0.70744433  0.61714133  1
  F  F42  1  0.34013887  0.11483306  0.97634258  1
  F  F43  1  0.66987060  0.78676713  0.47173753  1
  F  F44  1  0.33012940  0.28676713  0.97173753  1
  F  F45  1  0.13888243  0.56754736  0.07409940  1
  F  F46  1  0.33012940  0.78676713  0.52826247  1
  F  F47  1  0.92487874  0.22817487  0.37046326  1
  F  F48  1  0.44700770  0.92362665  0.69975069  1
  F  F49  1  0.07512126  0.72817487  0.87046326  1
  F  F50  1  0.07650701  0.52046106  0.41108296  1
  F  F51  1  0.50000000  0.99294728  0.50000000  1
  F  F52  1  0.93493114  0.75130845  0.65902767  1
  F  F53  1  0.34013887  0.61483306  0.52365742  1
  F  F54  1  0.65986113  0.11483306  0.02365742  1
  F  F55  1  0.00000000  0.37774925  0.00000000  1
  F  F56  1  0.06506886  0.25130845  0.15902767  1
  F  F57  1  0.10832125  0.08577783  0.78046192  1
  F  F58  1  0.65887277  0.40327183  0.50825915  1
  F  F59  1  0.51833868  0.31260194  0.37673235  1
  F  F60  1  0.04781058  0.44210871  0.80881135  1
  F  F61  1  0.00000000  0.87774925  0.50000000  1
  F  F62  1  0.92349299  0.52046106  0.58891704  1
  F  F63  1  0.43481245  0.70744433  0.38285867  1
  F  F64  1  0.56518755  0.20744433  0.88285867  1
  F  F65  1  0.89167875  0.08577783  0.21953808  1
  F  F66  1  0.95218942  0.94210871  0.30881135  1
  F  F67  1  0.84926687  0.37996096  0.68428458  1
  F  F68  1  0.07650701  0.02046106  0.08891704  1
  F  F69  1  0.92487874  0.72817487  0.12953674  1
  F  F70  1  0.78194160  0.03371612  0.75576768  1
  F  F71  1  0.92349299  0.02046106  0.91108296  1
  F  F72  1  0.48166132  0.31260194  0.62326765  1
  F  F73  1  0.84926687  0.87996096  0.81571542  1
  F  F74  1  0.17137615  0.92424251  0.84591913  1
  F  F75  1  0.51833868  0.81260194  0.12326765  1
  F  F76  1  0.07512126  0.22817487  0.62953674  1
  F  F77  1  0.44188968  0.13588313  0.71778341  1
  F  F78  1  0.34112723  0.90327183  0.00825915  1
  F  F79  1  0.17137615  0.42424251  0.65408087  1
  F  F80  1  0.55811032  0.13588313  0.28221659  1
  F  F81  1  0.32723599  0.22773232  0.48839430  1
  F  F82  1  0.82862385  0.42424251  0.34591913  1
  F  F83  1  0.86111757  0.06754736  0.57409940  1
  F  F84  1  0.32723599  0.72773232  0.01160570  1
  F  F85  1  0.55811032  0.63588313  0.21778341  1
  F  F86  1  0.10832125  0.58577783  0.71953808  1
  F  F87  1  0.55299230  0.42362665  0.19975069  1
  F  F88  1  0.44700770  0.42362665  0.80024931  1
  F  F89  1  0.15073313  0.37996096  0.31571542  1
  F  F90  1  0.21805840  0.03371612  0.24423232  1
  F  F91  1  0.95218942  0.44210871  0.19118865  1
  F  F92  1  0.13888243  0.06754736  0.42590060  1
  F  F93  1  0.82862385  0.92424251  0.15408087  1
  F  F94  1  0.65986113  0.61483306  0.47634258  1
  F  F95  1  0.06506886  0.75130845  0.34097233  1
  F  F96  1  0.04781058  0.94210871  0.69118865  1
  F  F97  1  0.78194160  0.53371612  0.74423232  1
  F  F98  1  0.67276401  0.72773232  0.98839430  1
  F  F99  1  0.89167875  0.58577783  0.28046192  1
  F  F100  1  0.48166132  0.81260194  0.87673235  1
  F  F101  1  0.55299230  0.92362665  0.30024931  1
  F  F102  1  0.86111757  0.56754736  0.92590060  1
  F  F103  1  0.44188968  0.63588313  0.78221659  1
