# generated using pymatgen
data_LuU4S5O4
_symmetry_space_group_name_H-M   'P 1'
_cell_length_a   3.79035778
_cell_length_b   3.79035817
_cell_length_c   17.47756956
_cell_angle_alpha   96.22510468
_cell_angle_beta   96.22510534
_cell_angle_gamma   90.00000303
_symmetry_Int_Tables_number   1
_chemical_formula_structural   LuU4S5O4
_chemical_formula_sum   'Lu1 U4 S5 O4'
_cell_volume   248.12698560
_cell_formula_units_Z   1
loop_
 _symmetry_equiv_pos_site_id
 _symmetry_equiv_pos_as_xyz
  1  'x, y, z'
loop_
 _atom_site_type_symbol
 _atom_site_label
 _atom_site_symmetry_multiplicity
 _atom_site_fract_x
 _atom_site_fract_y
 _atom_site_fract_z
 _atom_site_occupancy
  Lu  Lu0  1  0.50000000  0.50000000  0.00000000  1
  U  U1  1  0.30764764  0.30764764  0.61529528  1
  U  U2  1  0.69235236  0.69235236  0.38470472  1
  U  U3  1  0.11416952  0.11416952  0.22833904  1
  U  U4  1  0.88583048  0.88583048  0.77166096  1
  S  S5  1  0.77698895  0.77698895  0.55397789  1
  S  S6  1  0.42294936  0.42294936  0.84589871  1
  S  S7  1  0.22301105  0.22301105  0.44602211  1
  S  S8  1  0.57705064  0.57705064  0.15410129  1
  S  S9  1  0.00000000  0.00000000  0.00000000  1
  O  O10  1  0.15103579  0.65103579  0.30207158  1
  O  O11  1  0.65103579  0.15103579  0.30207158  1
  O  O12  1  0.84896421  0.34896421  0.69792842  1
  O  O13  1  0.34896421  0.84896421  0.69792842  1
