# generated using pymatgen
data_Ce(BO2)3
_symmetry_space_group_name_H-M   'P 1'
_cell_length_a   4.31622332
_cell_length_b   4.49978503
_cell_length_c   18.61514012
_cell_angle_alpha   90.00000000
_cell_angle_beta   90.00000000
_cell_angle_gamma   90.00000000
_symmetry_Int_Tables_number   1
_chemical_formula_structural   Ce(BO2)3
_chemical_formula_sum   'Ce4 B12 O24'
_cell_volume   361.54468629
_cell_formula_units_Z   4
loop_
 _symmetry_equiv_pos_site_id
 _symmetry_equiv_pos_as_xyz
  1  'x, y, z'
loop_
 _atom_site_type_symbol
 _atom_site_label
 _atom_site_symmetry_multiplicity
 _atom_site_fract_x
 _atom_site_fract_y
 _atom_site_fract_z
 _atom_site_occupancy
  Ce  Ce0  1  0.86254675  0.19783947  0.65939674  1
  Ce  Ce1  1  0.86254675  0.80216053  0.15939674  1
  Ce  Ce2  1  0.36254675  0.19783947  0.84060326  1
  Ce  Ce3  1  0.36254675  0.80216053  0.34060326  1
  B  B4  1  0.31823349  0.17704841  0.49847693  1
  B  B5  1  0.86205548  0.64628551  0.78738192  1
  B  B6  1  0.34359222  0.32509080  0.07330903  1
  B  B7  1  0.84359222  0.67490920  0.92669097  1
  B  B8  1  0.34359222  0.67490920  0.57330903  1
  B  B9  1  0.81823349  0.82295159  0.50152307  1
  B  B10  1  0.36205548  0.35371449  0.21261808  1
  B  B11  1  0.36205548  0.64628551  0.71261808  1
  B  B12  1  0.86205548  0.35371449  0.28738192  1
  B  B13  1  0.31823349  0.82295159  0.99847693  1
  B  B14  1  0.84359222  0.32509080  0.42669097  1
  B  B15  1  0.81823349  0.17704841  0.00152307  1
  O  O16  1  0.23351722  0.23221121  0.14425025  1
  O  O17  1  0.26877746  0.36210139  0.56063048  1
  O  O18  1  0.17801745  0.26738860  0.43188322  1
  O  O19  1  0.76877746  0.63789861  0.43936952  1
  O  O20  1  0.85565423  0.32337720  0.79059553  1
  O  O21  1  0.18210945  0.24619478  0.27610688  1
  O  O22  1  0.76877746  0.36210139  0.93936952  1
  O  O23  1  0.17445625  0.12878761  0.01631116  1
  O  O24  1  0.67801745  0.26738860  0.06811678  1
  O  O25  1  0.73351722  0.23221121  0.35574975  1
  O  O26  1  0.18210945  0.75380522  0.77610688  1
  O  O27  1  0.17445625  0.87121239  0.51631116  1
  O  O28  1  0.26877746  0.63789861  0.06063048  1
  O  O29  1  0.68210945  0.24619478  0.22389312  1
  O  O30  1  0.35565423  0.67662280  0.20940447  1
  O  O31  1  0.35565423  0.32337720  0.70940447  1
  O  O32  1  0.23351722  0.76778879  0.64425025  1
  O  O33  1  0.85565423  0.67662280  0.29059553  1
  O  O34  1  0.73351722  0.76778879  0.85574975  1
  O  O35  1  0.67445625  0.12878761  0.48368884  1
  O  O36  1  0.67801745  0.73261140  0.56811678  1
  O  O37  1  0.67445625  0.87121239  0.98368884  1
  O  O38  1  0.68210945  0.75380522  0.72389312  1
  O  O39  1  0.17801745  0.73261140  0.93188322  1
