# generated using pymatgen
data_RbNi2F6
_symmetry_space_group_name_H-M   'P 1'
_cell_length_a   7.21653368
_cell_length_b   7.21733009
_cell_length_c   7.21733010
_cell_angle_alpha   60.00264678
_cell_angle_beta   60.00365026
_cell_angle_gamma   60.00365021
_symmetry_Int_Tables_number   1
_chemical_formula_structural   RbNi2F6
_chemical_formula_sum   'Rb2 Ni4 F12'
_cell_volume   265.82720756
_cell_formula_units_Z   2
loop_
 _symmetry_equiv_pos_site_id
 _symmetry_equiv_pos_as_xyz
  1  'x, y, z'
loop_
 _atom_site_type_symbol
 _atom_site_label
 _atom_site_symmetry_multiplicity
 _atom_site_fract_x
 _atom_site_fract_y
 _atom_site_fract_z
 _atom_site_occupancy
  F  F0  1  0.92792162  0.42787396  0.32211082  1
  F  F1  1  0.67790640  0.57212604  0.67788918  1
  F  F2  1  0.07207838  0.17788918  0.07212604  1
  F  F3  1  0.32209360  0.82211082  0.92787396  1
  F  F4  1  0.07207838  0.57212604  0.67788918  1
  F  F5  1  0.32209360  0.42787396  0.32211082  1
  F  F6  1  0.32211023  0.42788977  0.92788977  1
  F  F7  1  0.67788977  0.57211023  0.07211023  1
  F  F8  1  0.07201314  0.17798686  0.67798686  1
  F  F9  1  0.92798686  0.82201314  0.32201314  1
  F  F10  1  0.67790640  0.17788918  0.07212604  1
  F  F11  1  0.92792162  0.82211082  0.92787396  1
  Ni  Ni12  1  0.00000000  0.50000000  0.50000000  1
  Ni  Ni13  1  0.00000000  0.00000000  0.00000000  1
  Ni  Ni14  1  0.50000000  0.50000000  0.00000000  1
  Ni  Ni15  1  0.00000000  0.50000000  0.00000000  1
  Rb  Rb16  1  0.62509562  0.12490438  0.62490438  1
  Rb  Rb17  1  0.37490438  0.87509562  0.37509562  1
