# generated using pymatgen
data_NaCoO2
_symmetry_space_group_name_H-M   'P 1'
_cell_length_a   3.01916041
_cell_length_b   3.01904086
_cell_length_c   5.74330489
_cell_angle_alpha   89.99999622
_cell_angle_beta   105.23477090
_cell_angle_gamma   60.00132214
_symmetry_Int_Tables_number   1
_chemical_formula_structural   NaCoO2
_chemical_formula_sum   'Na1 Co1 O2'
_cell_volume   43.19971149
_cell_formula_units_Z   1
loop_
 _symmetry_equiv_pos_site_id
 _symmetry_equiv_pos_as_xyz
  1  'x, y, z'
loop_
 _atom_site_type_symbol
 _atom_site_label
 _atom_site_symmetry_multiplicity
 _atom_site_fract_x
 _atom_site_fract_y
 _atom_site_fract_z
 _atom_site_occupancy
  Na  Na0  1  0.33794955  0.83102522  0.50691586  1
  Co  Co1  1  0.99884793  0.00057604  0.99829764  1
  O  O2  1  0.79669509  0.60165246  0.19497604  1
  O  O3  1  0.20170743  0.39914628  0.80271046  1
