# generated using pymatgen
data_Al2CuSi2O7F2
_symmetry_space_group_name_H-M   'P 1'
_cell_length_a   4.82309899
_cell_length_b   8.96850795
_cell_length_c   14.19470607
_cell_angle_alpha   90.00002611
_cell_angle_beta   90.00010313
_cell_angle_gamma   90.00013056
_symmetry_Int_Tables_number   1
_chemical_formula_structural   Al2CuSi2O7F2
_chemical_formula_sum   'Al8 Si8 Cu4 O28 F8'
_cell_volume   614.00622898
_cell_formula_units_Z   4
loop_
 _symmetry_equiv_pos_site_id
 _symmetry_equiv_pos_as_xyz
  1  'x, y, z'
loop_
 _atom_site_type_symbol
 _atom_site_label
 _atom_site_symmetry_multiplicity
 _atom_site_fract_x
 _atom_site_fract_y
 _atom_site_fract_z
 _atom_site_occupancy
  Al  Al0  1  0.59594559  0.36891655  0.95016953  1
  Al  Al1  1  0.90405550  0.86891516  0.54983110  1
  Al  Al2  1  0.09594458  0.13108480  0.45016822  1
  Al  Al3  1  0.90405484  0.86891504  0.95016716  1
  Al  Al4  1  0.40405404  0.63108316  0.04983105  1
  Al  Al5  1  0.40405365  0.63108315  0.45016721  1
  Al  Al6  1  0.09594460  0.13108454  0.04983227  1
  Al  Al7  1  0.59594623  0.36891639  0.54983315  1
  Si  Si8  1  0.09491995  0.56177934  0.85360962  1
  Si  Si9  1  0.40507823  0.06177704  0.85360987  1
  Cu  Cu10  1  0.85985877  0.85456999  0.74999387  1
  Si  Si11  1  0.59492077  0.93822189  0.35360992  1
  Si  Si12  1  0.90508268  0.43822173  0.35360901  1
  Cu  Cu13  1  0.35987681  0.64544321  0.24999389  1
  Si  Si14  1  0.90508064  0.43822151  0.14639069  1
  Si  Si15  1  0.40507766  0.06177875  0.64639041  1
  Si  Si16  1  0.59492140  0.93822323  0.14639027  1
  Si  Si17  1  0.09491834  0.56177804  0.64639138  1
  Cu  Cu18  1  0.64013409  0.35455698  0.75000730  1
  Cu  Cu19  1  0.14013369  0.14542946  0.25000223  1
  O  O20  1  0.75908824  0.47417331  0.25000021  1
  O  O21  1  0.53164847  0.75745285  0.35390161  1
  O  O22  1  0.03164400  0.74254935  0.85390019  1
  O  O23  1  0.96835359  0.25745131  0.14609850  1
  O  O24  1  0.30543838  0.03482638  0.35678116  1
  O  O25  1  0.19456533  0.53482950  0.35677784  1
  O  O26  1  0.69455996  0.96517429  0.64321752  1
  O  O27  1  0.19456362  0.53482779  0.14321884  1
  O  O28  1  0.30543769  0.03482677  0.14321957  1
  O  O29  1  0.46835303  0.24254759  0.64609946  1
  O  O30  1  0.96835253  0.25745154  0.35390194  1
  O  O31  1  0.80150960  0.98587379  0.44132231  1
  O  O32  1  0.19848993  0.01412602  0.55867813  1
  O  O33  1  0.80543751  0.46517248  0.85678227  1
  O  O34  1  0.80151001  0.98587376  0.05867795  1
  O  O35  1  0.30150910  0.51412620  0.94132201  1
  O  O36  1  0.74091125  0.97417320  0.25000024  1
  O  O37  1  0.69849077  0.48587361  0.05867831  1
  O  O38  1  0.69849054  0.48587347  0.44132237  1
  O  O39  1  0.30150948  0.51412656  0.55867806  1
  O  O40  1  0.24091180  0.52582640  0.75000015  1
  O  O41  1  0.80543495  0.46517061  0.64322252  1
  O  O42  1  0.19848967  0.01412634  0.94132240  1
  O  O43  1  0.46834836  0.24254568  0.85390499  1
  O  O44  1  0.53165203  0.75745457  0.14609542  1
  O  O45  1  0.69456195  0.96517269  0.85677975  1
  O  O46  1  0.25908812  0.02582652  0.74999998  1
  O  O47  1  0.03164801  0.74254790  0.64609722  1
  F  F48  1  0.39436573  0.25389819  0.03116623  1
  F  F49  1  0.10563431  0.75389846  0.03116611  1
  F  F50  1  0.60563407  0.74610189  0.53116573  1
  F  F51  1  0.89436561  0.24610131  0.53116607  1
  F  F52  1  0.60563386  0.74610162  0.96883430  1
  F  F53  1  0.39436614  0.25389807  0.46883438  1
  F  F54  1  0.10563435  0.75389851  0.46883400  1
  F  F55  1  0.89436593  0.24610153  0.96883410  1
