# generated using pymatgen
data_LiAlSiO4
_symmetry_space_group_name_H-M   'P 1'
_cell_length_a   5.35651795
_cell_length_b   5.35651806
_cell_length_c   11.10301038
_cell_angle_alpha   90.00000000
_cell_angle_beta   90.00000000
_cell_angle_gamma   119.99999926
_symmetry_Int_Tables_number   1
_chemical_formula_structural   LiAlSiO4
_chemical_formula_sum   'Li3 Al3 Si3 O12'
_cell_volume   275.89035553
_cell_formula_units_Z   3
loop_
 _symmetry_equiv_pos_site_id
 _symmetry_equiv_pos_as_xyz
  1  'x, y, z'
loop_
 _atom_site_type_symbol
 _atom_site_label
 _atom_site_symmetry_multiplicity
 _atom_site_fract_x
 _atom_site_fract_y
 _atom_site_fract_z
 _atom_site_occupancy
  Li  Li0  1  0.00000000  0.00000000  0.83333300  1
  Li  Li1  1  0.00000000  0.00000000  0.16666700  1
  Li  Li2  1  0.00000000  0.00000000  0.50000000  1
  Al  Al3  1  0.50000000  0.50000000  0.83333300  1
  Al  Al4  1  0.00000000  0.50000000  0.16666700  1
  Al  Al5  1  0.50000000  0.00000000  0.50000000  1
  Si  Si6  1  0.00000000  0.50000000  0.66666700  1
  Si  Si7  1  0.50000000  0.00000000  0.00000000  1
  Si  Si8  1  0.50000000  0.50000000  0.33333300  1
  O  O9  1  0.78558216  0.18567579  0.08448694  1
  O  O10  1  0.59990637  0.78558216  0.41782094  1
  O  O11  1  0.18567579  0.78558216  0.58217906  1
  O  O12  1  0.40009363  0.21441784  0.41782094  1
  O  O13  1  0.78558216  0.59990637  0.24884606  1
  O  O14  1  0.81432421  0.59990637  0.75115394  1
  O  O15  1  0.18567579  0.40009363  0.75115394  1
  O  O16  1  0.40009363  0.18567579  0.91551306  1
  O  O17  1  0.21441784  0.40009363  0.24884606  1
  O  O18  1  0.21441784  0.81432421  0.08448694  1
  O  O19  1  0.81432421  0.21441784  0.58217906  1
  O  O20  1  0.59990637  0.81432421  0.91551306  1
