# generated using pymatgen
data_Sr2MnSbO6
_symmetry_space_group_name_H-M   'P 1'
_cell_length_a   5.59674141
_cell_length_b   5.59672929
_cell_length_c   5.73990342
_cell_angle_alpha   119.17588167
_cell_angle_beta   119.17597281
_cell_angle_gamma   90.00080785
_symmetry_Int_Tables_number   1
_chemical_formula_structural   Sr2MnSbO6
_chemical_formula_sum   'Sr2 Mn1 Sb1 O6'
_cell_volume   130.23492840
_cell_formula_units_Z   1
loop_
 _symmetry_equiv_pos_site_id
 _symmetry_equiv_pos_as_xyz
  1  'x, y, z'
loop_
 _atom_site_type_symbol
 _atom_site_label
 _atom_site_symmetry_multiplicity
 _atom_site_fract_x
 _atom_site_fract_y
 _atom_site_fract_z
 _atom_site_occupancy
  Sr  Sr0  1  0.00601285  0.50601900  0.01203904  1
  Sr  Sr1  1  0.50601675  0.00601949  0.01204542  1
  Mn  Mn2  1  0.75806756  0.75805735  0.51611160  1
  Sb  Sb3  1  0.25833196  0.25833025  0.51665968  1
  O  O4  1  0.49535837  0.49535928  0.99070521  1
  O  O5  1  0.00607625  0.00608103  0.51918248  1
  O  O6  1  0.51309200  0.00609902  0.51919425  1
  O  O7  1  0.51310781  0.51310934  0.51918386  1
  O  O8  1  0.02183434  0.02183589  0.04368287  1
  O  O9  1  0.00610211  0.51308934  0.51919559  1
