# generated using pymatgen
data_OsO2F3
_symmetry_space_group_name_H-M   'P 1'
_cell_length_a   5.76357924
_cell_length_b   10.32882949
_cell_length_c   12.90978012
_cell_angle_alpha   90.00000000
_cell_angle_beta   101.48218846
_cell_angle_gamma   90.00000000
_symmetry_Int_Tables_number   1
_chemical_formula_structural   OsO2F3
_chemical_formula_sum   'Os8 O16 F24'
_cell_volume   753.15155046
_cell_formula_units_Z   8
loop_
 _symmetry_equiv_pos_site_id
 _symmetry_equiv_pos_as_xyz
  1  'x, y, z'
loop_
 _atom_site_type_symbol
 _atom_site_label
 _atom_site_symmetry_multiplicity
 _atom_site_fract_x
 _atom_site_fract_y
 _atom_site_fract_z
 _atom_site_occupancy
  Os  Os0  1  0.02946923  0.25836093  0.49654532  1
  Os  Os1  1  0.34100268  0.99155831  0.21743107  1
  Os  Os2  1  0.97053077  0.74163907  0.50345468  1
  Os  Os3  1  0.65899732  0.00844169  0.78256893  1
  Os  Os4  1  0.34100268  0.50844169  0.71743107  1
  Os  Os5  1  0.65899732  0.49155831  0.28256893  1
  Os  Os6  1  0.97053077  0.75836093  0.00345468  1
  Os  Os7  1  0.02946923  0.24163907  0.99654532  1
  O  O8  1  0.46906115  0.84468501  0.25255637  1
  O  O9  1  0.47145169  0.55913084  0.35513249  1
  O  O10  1  0.25891652  0.33411067  0.46037099  1
  O  O11  1  0.60478562  0.57788040  0.16725888  1
  O  O12  1  0.39521438  0.42211960  0.83274112  1
  O  O13  1  0.53093885  0.15531499  0.74744363  1
  O  O14  1  0.52854831  0.44086916  0.64486751  1
  O  O15  1  0.25891652  0.16588933  0.96037099  1
  O  O16  1  0.47145169  0.94086916  0.85513249  1
  O  O17  1  0.74108348  0.66588933  0.53962901  1
  O  O18  1  0.53093885  0.34468501  0.24744363  1
  O  O19  1  0.60478562  0.92211960  0.66725888  1
  O  O20  1  0.39521438  0.07788040  0.33274112  1
  O  O21  1  0.46906115  0.65531499  0.75255637  1
  O  O22  1  0.74108348  0.83411067  0.03962901  1
  O  O23  1  0.52854831  0.05913084  0.14486751  1
  F  F24  1  0.90791415  0.16540458  0.37112534  1
  F  F25  1  0.02566501  0.55649386  0.72451910  1
  F  F26  1  0.81668758  0.60559229  0.94496806  1
  F  F27  1  0.90791415  0.33459542  0.87112534  1
  F  F28  1  0.97433499  0.05649386  0.77548090  1
  F  F29  1  0.97433499  0.44350614  0.27548090  1
  F  F30  1  0.81668758  0.89440771  0.44496806  1
  F  F31  1  0.76145388  0.21015443  0.55078715  1
  F  F32  1  0.09208585  0.66540458  0.12887466  1
  F  F33  1  0.11738631  0.15604406  0.14255344  1
  F  F34  1  0.02566501  0.94350614  0.22451910  1
  F  F35  1  0.23854612  0.78984557  0.44921285  1
  F  F36  1  0.18331242  0.10559229  0.55503194  1
  F  F37  1  0.81257639  0.41049642  0.44220898  1
  F  F38  1  0.18331242  0.39440771  0.05503194  1
  F  F39  1  0.88261369  0.65604406  0.35744656  1
  F  F40  1  0.23854612  0.71015443  0.94921285  1
  F  F41  1  0.81257639  0.08950358  0.94220898  1
  F  F42  1  0.11738631  0.34395594  0.64255344  1
  F  F43  1  0.18742361  0.58950358  0.55779102  1
  F  F44  1  0.76145388  0.28984557  0.05078715  1
  F  F45  1  0.09208585  0.83459542  0.62887466  1
  F  F46  1  0.18742361  0.91049642  0.05779102  1
  F  F47  1  0.88261369  0.84395594  0.85744656  1
