# generated using pymatgen
data_SiO2
_symmetry_space_group_name_H-M   'P 1'
_cell_length_a   4.74970120
_cell_length_b   8.17644784
_cell_length_c   8.60321396
_cell_angle_alpha   90.00000000
_cell_angle_beta   90.00000000
_cell_angle_gamma   90.00000000
_symmetry_Int_Tables_number   1
_chemical_formula_structural   SiO2
_chemical_formula_sum   'Si8 O16'
_cell_volume   334.11169974
_cell_formula_units_Z   8
loop_
 _symmetry_equiv_pos_site_id
 _symmetry_equiv_pos_as_xyz
  1  'x, y, z'
loop_
 _atom_site_type_symbol
 _atom_site_label
 _atom_site_symmetry_multiplicity
 _atom_site_fract_x
 _atom_site_fract_y
 _atom_site_fract_z
 _atom_site_occupancy
  Si  Si0  1  0.14503111  0.06296504  0.15900286  1
  Si  Si1  1  0.14503111  0.43703496  0.65900286  1
  Si  Si2  1  0.64503111  0.56296504  0.84099714  1
  Si  Si3  1  0.35496889  0.43703496  0.15900286  1
  Si  Si4  1  0.85496889  0.56296504  0.34099714  1
  Si  Si5  1  0.85496889  0.93703496  0.84099714  1
  Si  Si6  1  0.64503111  0.93703496  0.34099714  1
  Si  Si7  1  0.35496889  0.06296504  0.65900286  1
  O  O8  1  0.58540298  0.05333063  0.80000129  1
  O  O9  1  0.58540298  0.44666937  0.30000129  1
  O  O10  1  0.41459702  0.55333063  0.69999871  1
  O  O11  1  0.25000000  0.25000000  0.63899417  1
  O  O12  1  0.08540298  0.55333063  0.19999871  1
  O  O13  1  0.41459702  0.94666937  0.19999871  1
  O  O14  1  0.91459702  0.05333063  0.30000129  1
  O  O15  1  0.00000000  0.50000000  0.50000000  1
  O  O16  1  0.75000000  0.75000000  0.36100583  1
  O  O17  1  0.75000000  0.75000000  0.86100583  1
  O  O18  1  0.91459702  0.44666937  0.80000129  1
  O  O19  1  0.50000000  0.50000000  0.00000000  1
  O  O20  1  0.25000000  0.25000000  0.13899417  1
  O  O21  1  0.08540298  0.94666937  0.69999871  1
  O  O22  1  0.00000000  0.00000000  0.00000000  1
  O  O23  1  0.50000000  0.00000000  0.50000000  1
