# generated using pymatgen
data_Na5Y4Si4O16F
_symmetry_space_group_name_H-M   'P 1'
_cell_length_a   5.45669007
_cell_length_b   8.70725859
_cell_length_c   8.70725924
_cell_angle_alpha   84.36546118
_cell_angle_beta   71.73927923
_cell_angle_gamma   71.73928010
_symmetry_Int_Tables_number   1
_chemical_formula_structural   Na5Y4Si4O16F
_chemical_formula_sum   'Na5 Y4 Si4 O16 F1'
_cell_volume   373.08747902
_cell_formula_units_Z   1
loop_
 _symmetry_equiv_pos_site_id
 _symmetry_equiv_pos_as_xyz
  1  'x, y, z'
loop_
 _atom_site_type_symbol
 _atom_site_label
 _atom_site_symmetry_multiplicity
 _atom_site_fract_x
 _atom_site_fract_y
 _atom_site_fract_z
 _atom_site_occupancy
  Na  Na0  1  0.09897402  0.51545728  0.30566267  1
  Na  Na1  1  0.50000000  0.00000000  0.00000000  1
  Na  Na2  1  0.59536331  0.30566267  0.48454272  1
  Na  Na3  1  0.38556871  0.69433733  0.51545728  1
  Na  Na4  1  0.92009397  0.48454272  0.69433733  1
  Y  Y5  1  0.13955953  0.06663673  0.70164416  1
  Y  Y6  1  0.79380374  0.29835584  0.06663673  1
  Y  Y7  1  0.15879631  0.70164416  0.93336327  1
  Y  Y8  1  0.90784043  0.93336327  0.29835584  1
  Si  Si9  1  0.40736123  0.35067321  0.85630767  1
  Si  Si10  1  0.24196556  0.14369233  0.35067321  1
  Si  Si11  1  0.73633110  0.85630767  0.64932679  1
  Si  Si12  1  0.61434211  0.64932679  0.14369233  1
  O  O13  1  0.12925695  0.27789115  0.49660957  1
  O  O14  1  0.44890027  0.82701446  0.76000572  1
  O  O15  1  0.92087431  0.86173187  0.76450059  1
  O  O16  1  0.22996883  0.96812105  0.43941893  1
  O  O17  1  0.72408527  0.23999428  0.82701446  1
  O  O18  1  0.59285190  0.50339043  0.27789115  1
  O  O19  1  0.31462510  0.76450059  0.13826813  1
  O  O20  1  0.21739383  0.23549941  0.86173187  1
  O  O21  1  0.37413348  0.49660957  0.72210885  1
  O  O22  1  0.90375767  0.72210885  0.50339043  1
  O  O23  1  0.03592045  0.17298554  0.23999428  1
  O  O24  1  0.54710676  0.13826813  0.23549941  1
  O  O25  1  0.79109401  0.76000572  0.17298554  1
  O  O26  1  0.63750881  0.03187895  0.56058107  1
  O  O27  1  0.80191012  0.56058107  0.96812105  1
  O  O28  1  0.33061224  0.43941893  0.03187895  1
  F  F29  1  0.00000000  0.00000000  0.00000000  1
