# generated using pymatgen
data_Na2Ge4O9
_symmetry_space_group_name_H-M   'P 1'
_cell_length_a   11.47575033
_cell_length_b   11.47575028
_cell_length_c   9.83791246
_cell_angle_alpha   90.00000000
_cell_angle_beta   90.00000000
_cell_angle_gamma   120.00000018
_symmetry_Int_Tables_number   1
_chemical_formula_structural   Na2Ge4O9
_chemical_formula_sum   'Na12 Ge24 O54'
_cell_volume   1122.00751249
_cell_formula_units_Z   6
loop_
 _symmetry_equiv_pos_site_id
 _symmetry_equiv_pos_as_xyz
  1  'x, y, z'
loop_
 _atom_site_type_symbol
 _atom_site_label
 _atom_site_symmetry_multiplicity
 _atom_site_fract_x
 _atom_site_fract_y
 _atom_site_fract_z
 _atom_site_occupancy
  Na  Na0  1  0.67081446  0.66302861  0.07669413  1
  Na  Na1  1  0.00778584  0.67081446  0.92330587  1
  Na  Na2  1  0.00778584  0.33697139  0.42330587  1
  Na  Na3  1  0.99221416  0.66302861  0.57669413  1
  Na  Na4  1  0.99221416  0.32918554  0.07669413  1
  Na  Na5  1  0.33697139  0.32918554  0.57669413  1
  Na  Na6  1  0.66302861  0.67081446  0.42330587  1
  Na  Na7  1  0.33697139  0.00778584  0.07669413  1
  Na  Na8  1  0.66302861  0.99221416  0.92330587  1
  Na  Na9  1  0.32918554  0.33697139  0.92330587  1
  Na  Na10  1  0.67081446  0.00778584  0.57669413  1
  Na  Na11  1  0.32918554  0.99221416  0.42330587  1
  Ge  Ge12  1  0.85037594  0.34419755  0.79925457  1
  Ge  Ge13  1  0.00000000  0.17639400  0.75000000  1
  Ge  Ge14  1  0.50617839  0.65580245  0.70074543  1
  Ge  Ge15  1  0.17639400  0.17639400  0.25000000  1
  Ge  Ge16  1  0.34419755  0.85037594  0.70074543  1
  Ge  Ge17  1  0.14962406  0.65580245  0.20074543  1
  Ge  Ge18  1  0.66666700  0.33333300  0.55415333  1
  Ge  Ge19  1  0.17639400  0.00000000  0.75000000  1
  Ge  Ge20  1  0.65580245  0.50617839  0.79925457  1
  Ge  Ge21  1  0.34419755  0.49382161  0.20074543  1
  Ge  Ge22  1  0.82360600  0.00000000  0.25000000  1
  Ge  Ge23  1  0.00000000  0.00000000  0.50000000  1
  Ge  Ge24  1  0.85037594  0.50617839  0.29925457  1
  Ge  Ge25  1  0.33333300  0.66666700  0.44584667  1
  Ge  Ge26  1  1.00000000  0.82360600  0.25000000  1
  Ge  Ge27  1  0.82360600  0.82360600  0.75000000  1
  Ge  Ge28  1  0.65580245  0.14962406  0.29925457  1
  Ge  Ge29  1  0.50617839  0.85037594  0.20074543  1
  Ge  Ge30  1  0.49382161  0.14962406  0.79925457  1
  Ge  Ge31  1  0.33333300  0.66666700  0.94584667  1
  Ge  Ge32  1  0.49382161  0.34419755  0.29925457  1
  Ge  Ge33  1  0.00000000  0.00000000  0.00000000  1
  Ge  Ge34  1  0.66666700  0.33333300  0.05415333  1
  Ge  Ge35  1  0.14962406  0.49382161  0.70074543  1
  O  O36  1  0.17552641  0.58357042  0.05375882  1
  O  O37  1  0.09612562  0.94112881  0.38016824  1
  O  O38  1  0.94112881  0.84500319  0.61983176  1
  O  O39  1  0.00000000  0.50499694  0.25000000  1
  O  O40  1  0.24863916  0.73731688  0.83054768  1
  O  O41  1  0.26268312  0.51132228  0.83054768  1
  O  O42  1  0.59195599  0.41642958  0.44624118  1
  O  O43  1  0.75136084  0.26268312  0.16945232  1
  O  O44  1  0.84500319  0.94112881  0.88016824  1
  O  O45  1  0.50499694  0.50499694  0.75000000  1
  O  O46  1  0.17552641  0.59195599  0.55375882  1
  O  O47  1  0.90387438  0.84500319  0.11983176  1
  O  O48  1  0.77564943  0.67498426  0.85442045  1
  O  O49  1  0.49500306  0.49500306  0.25000000  1
  O  O50  1  0.41642958  0.82447359  0.55375882  1
  O  O51  1  0.58357042  0.17552641  0.44624118  1
  O  O52  1  0.49500306  0.00000000  0.75000000  1
  O  O53  1  0.05887119  0.15499681  0.38016824  1
  O  O54  1  0.59195599  0.17552641  0.94624118  1
  O  O55  1  0.58357042  0.40804401  0.94624118  1
  O  O56  1  0.82447359  0.40804401  0.44624118  1
  O  O57  1  0.22435057  0.89933483  0.64557955  1
  O  O58  1  0.77564943  0.10066517  0.35442045  1
  O  O59  1  1.00000000  0.49500306  0.75000000  1
  O  O60  1  0.48867772  0.73731688  0.33054768  1
  O  O61  1  0.15499681  0.09612562  0.61983176  1
  O  O62  1  0.67498426  0.77564943  0.64557955  1
  O  O63  1  0.40804401  0.82447359  0.05375882  1
  O  O64  1  0.10066517  0.32501574  0.64557955  1
  O  O65  1  0.75136084  0.48867772  0.66945232  1
  O  O66  1  0.50499694  0.00000000  0.25000000  1
  O  O67  1  0.84500319  0.90387438  0.38016824  1
  O  O68  1  0.94112881  0.09612562  0.11983176  1
  O  O69  1  0.32501574  0.22435057  0.35442045  1
  O  O70  1  0.82447359  0.41642958  0.94624118  1
  O  O71  1  0.51132228  0.24863916  0.16945232  1
  O  O72  1  0.90387438  0.05887119  0.61983176  1
  O  O73  1  0.24863916  0.51132228  0.33054768  1
  O  O74  1  0.15499681  0.05887119  0.11983176  1
  O  O75  1  0.51132228  0.26268312  0.66945232  1
  O  O76  1  0.09612562  0.15499681  0.88016824  1
  O  O77  1  0.05887119  0.90387438  0.88016824  1
  O  O78  1  0.40804401  0.58357042  0.55375882  1
  O  O79  1  0.89933483  0.67498426  0.35442045  1
  O  O80  1  0.48867772  0.75136084  0.83054768  1
  O  O81  1  0.41642958  0.59195599  0.05375882  1
  O  O82  1  0.10066517  0.77564943  0.14557955  1
  O  O83  1  0.67498426  0.89933483  0.14557955  1
  O  O84  1  0.26268312  0.75136084  0.33054768  1
  O  O85  1  0.89933483  0.22435057  0.85442045  1
  O  O86  1  0.73731688  0.48867772  0.16945232  1
  O  O87  1  0.22435057  0.32501574  0.14557955  1
  O  O88  1  0.32501574  0.10066517  0.85442045  1
  O  O89  1  0.73731688  0.24863916  0.66945232  1
