# generated using pymatgen
data_Zn3(BO3)2
_symmetry_space_group_name_H-M   'P 1'
_cell_length_a   5.08419514
_cell_length_b   8.48526161
_cell_length_c   12.53380207
_cell_angle_alpha   103.18831788
_cell_angle_beta   101.70087234
_cell_angle_gamma   89.99731318
_symmetry_Int_Tables_number   1
_chemical_formula_structural   Zn3(BO3)2
_chemical_formula_sum   'Zn12 B8 O24'
_cell_volume   514.91000233
_cell_formula_units_Z   4
loop_
 _symmetry_equiv_pos_site_id
 _symmetry_equiv_pos_as_xyz
  1  'x, y, z'
loop_
 _atom_site_type_symbol
 _atom_site_label
 _atom_site_symmetry_multiplicity
 _atom_site_fract_x
 _atom_site_fract_y
 _atom_site_fract_z
 _atom_site_occupancy
  Zn  Zn0  1  0.18931746  0.37060161  0.74447743  1
  Zn  Zn1  1  0.80929834  0.13033740  0.25214293  1
  Zn  Zn2  1  0.48067342  0.53803261  0.57949470  1
  Zn  Zn3  1  0.77220650  0.57579239  0.89988114  1
  Zn  Zn4  1  0.09880337  0.03803304  0.57949027  1
  Zn  Zn5  1  0.51680821  0.96226293  0.41702790  1
  Zn  Zn6  1  0.44289889  0.63034590  0.25210561  1
  Zn  Zn7  1  0.12766091  0.07575344  0.89987334  1
  Zn  Zn8  1  0.90023355  0.46229595  0.41701298  1
  Zn  Zn9  1  0.55501588  0.87061610  0.74447194  1
  Zn  Zn10  1  0.87520244  0.42534678  0.09515917  1
  Zn  Zn11  1  0.22001601  0.92539268  0.09518029  1
  B  B12  1  0.73612426  0.78823700  0.12823257  1
  B  B13  1  0.99675803  0.73015386  0.62368893  1
  B  B14  1  0.37272091  0.27030146  0.37313165  1
  B  B15  1  0.25403813  0.71317358  0.86701926  1
  B  B16  1  0.61291281  0.21317215  0.86700732  1
  B  B17  1  0.62688404  0.23017972  0.62370184  1
  B  B18  1  1.00047809  0.77030597  0.37312478  1
  B  B19  1  0.39213107  0.28824124  0.12821972  1
  O  O20  1  0.67036427  0.29181628  0.16090020  1
  O  O21  1  0.26311546  0.43088719  0.15675866  1
  O  O22  1  0.48927372  0.13009533  0.32573287  1
  O  O23  1  0.50173249  0.71096899  0.83620383  1
  O  O24  1  0.46982678  0.09070726  0.56668729  1
  O  O25  1  0.24102511  0.14931087  0.06979016  1
  O  O26  1  0.82878674  0.64927861  0.06979058  1
  O  O27  1  0.26846580  0.77061406  0.36541425  1
  O  O28  1  0.51046217  0.37058162  0.67112872  1
  O  O29  1  0.90078573  0.90991548  0.43004912  1
  O  O30  1  0.16059594  0.87056697  0.67110485  1
  O  O31  1  0.49059040  0.79184003  0.16089968  1
  O  O32  1  0.89373996  0.93086274  0.15679199  1
  O  O33  1  0.33441686  0.21097185  0.83620739  1
  O  O34  1  0.72883844  0.72963399  0.63137703  1
  O  O35  1  0.83648426  0.63011674  0.32572940  1
  O  O36  1  0.73990264  0.07039551  0.83685776  1
  O  O37  1  0.15829850  0.85108464  0.92528332  1
  O  O38  1  0.90248520  0.22963564  0.63137234  1
  O  O39  1  0.09702117  0.27064962  0.36540855  1
  O  O40  1  0.76691667  0.35111422  0.92526845  1
  O  O41  1  0.09683466  0.59069193  0.56668091  1
  O  O42  1  0.52934979  0.40989413  0.43006816  1
  O  O43  1  0.09690492  0.57039048  0.83685071  1
