# generated using pymatgen
data_Pr3Nb(Cl3O2)2
_symmetry_space_group_name_H-M   'P 1'
_cell_length_a   12.94551603
_cell_length_b   12.94551604
_cell_length_c   3.99644490
_cell_angle_alpha   90.00000000
_cell_angle_beta   90.00000000
_cell_angle_gamma   119.99999997
_symmetry_Int_Tables_number   1
_chemical_formula_structural   Pr3Nb(Cl3O2)2
_chemical_formula_sum   'Pr6 Nb2 Cl12 O8'
_cell_volume   580.02030248
_cell_formula_units_Z   2
loop_
 _symmetry_equiv_pos_site_id
 _symmetry_equiv_pos_as_xyz
  1  'x, y, z'
loop_
 _atom_site_type_symbol
 _atom_site_label
 _atom_site_symmetry_multiplicity
 _atom_site_fract_x
 _atom_site_fract_y
 _atom_site_fract_z
 _atom_site_occupancy
  Pr  Pr0  1  0.39541939  0.11443158  0.25000000  1
  Pr  Pr1  1  0.71901219  0.60458061  0.25000000  1
  Pr  Pr2  1  0.60458061  0.88556842  0.75000000  1
  Pr  Pr3  1  0.28098781  0.39541939  0.75000000  1
  Pr  Pr4  1  0.11443158  0.71901219  0.75000000  1
  Pr  Pr5  1  0.88556842  0.28098781  0.25000000  1
  Nb  Nb6  1  0.66666700  0.33333300  0.75000000  1
  Nb  Nb7  1  0.33333300  0.66666700  0.25000000  1
  Cl  Cl8  1  0.62808054  0.06993570  0.25000000  1
  Cl  Cl9  1  0.75183227  0.85585688  0.25000000  1
  Cl  Cl10  1  0.14414312  0.89597540  0.25000000  1
  Cl  Cl11  1  0.37191946  0.93006430  0.75000000  1
  Cl  Cl12  1  0.93006430  0.55814484  0.25000000  1
  Cl  Cl13  1  0.24816773  0.14414312  0.75000000  1
  Cl  Cl14  1  0.06993570  0.44185516  0.75000000  1
  Cl  Cl15  1  0.10402460  0.24816773  0.25000000  1
  Cl  Cl16  1  0.85585688  0.10402460  0.75000000  1
  Cl  Cl17  1  0.89597540  0.75183227  0.75000000  1
  Cl  Cl18  1  0.55814484  0.62808054  0.75000000  1
  Cl  Cl19  1  0.44185516  0.37191946  0.25000000  1
  O  O20  1  0.80008482  0.30746893  0.75000000  1
  O  O21  1  0.66666700  0.33333300  0.25000000  1
  O  O22  1  0.19991518  0.69253107  0.25000000  1
  O  O23  1  0.50738412  0.19991518  0.75000000  1
  O  O24  1  0.30746893  0.50738412  0.25000000  1
  O  O25  1  0.49261588  0.80008482  0.25000000  1
  O  O26  1  0.69253107  0.49261588  0.75000000  1
  O  O27  1  0.33333300  0.66666700  0.75000000  1
