# generated using pymatgen
data_AgTeO3
_symmetry_space_group_name_H-M   'P 1'
_cell_length_a   5.52890905
_cell_length_b   7.05462619
_cell_length_c   7.52912558
_cell_angle_alpha   90.00000000
_cell_angle_beta   90.00000000
_cell_angle_gamma   101.08991251
_symmetry_Int_Tables_number   1
_chemical_formula_structural   AgTeO3
_chemical_formula_sum   'Ag4 Te4 O12'
_cell_volume   288.18511135
_cell_formula_units_Z   4
loop_
 _symmetry_equiv_pos_site_id
 _symmetry_equiv_pos_as_xyz
  1  'x, y, z'
loop_
 _atom_site_type_symbol
 _atom_site_label
 _atom_site_symmetry_multiplicity
 _atom_site_fract_x
 _atom_site_fract_y
 _atom_site_fract_z
 _atom_site_occupancy
  Ag  Ag0  1  0.00000000  0.00000000  0.50000000  1
  Ag  Ag1  1  0.00000000  0.00000000  0.00000000  1
  Ag  Ag2  1  0.55700609  0.81380717  0.75000000  1
  Ag  Ag3  1  0.44299391  0.18619283  0.25000000  1
  Te  Te4  1  0.51926925  0.68299753  0.25000000  1
  Te  Te5  1  0.48073075  0.31700247  0.75000000  1
  Te  Te6  1  0.00000000  0.50000000  0.00000000  1
  Te  Te7  1  0.00000000  0.50000000  0.50000000  1
  O  O8  1  0.23145431  0.32623355  0.48813712  1
  O  O9  1  0.73934021  0.27674039  0.93558269  1
  O  O10  1  0.66360522  0.94526887  0.25000000  1
  O  O11  1  0.89524419  0.43672090  0.25000000  1
  O  O12  1  0.23145431  0.32623355  0.01186288  1
  O  O13  1  0.10475581  0.56327910  0.75000000  1
  O  O14  1  0.73934021  0.27674039  0.56441731  1
  O  O15  1  0.26065979  0.72325961  0.06441731  1
  O  O16  1  0.76854569  0.67376645  0.98813712  1
  O  O17  1  0.76854569  0.67376645  0.51186288  1
  O  O18  1  0.26065979  0.72325961  0.43558269  1
  O  O19  1  0.33639478  0.05473113  0.75000000  1
