# generated using pymatgen
data_Cu4GeS4
_symmetry_space_group_name_H-M   'P 1'
_cell_length_a   9.82329870
_cell_length_b   10.04083716
_cell_length_c   13.20522398
_cell_angle_alpha   90.00000000
_cell_angle_beta   90.00000000
_cell_angle_gamma   100.65515616
_symmetry_Int_Tables_number   1
_chemical_formula_structural   Cu4GeS4
_chemical_formula_sum   'Cu32 Ge8 S32'
_cell_volume   1280.02823776
_cell_formula_units_Z   8
loop_
 _symmetry_equiv_pos_site_id
 _symmetry_equiv_pos_as_xyz
  1  'x, y, z'
loop_
 _atom_site_type_symbol
 _atom_site_label
 _atom_site_symmetry_multiplicity
 _atom_site_fract_x
 _atom_site_fract_y
 _atom_site_fract_z
 _atom_site_occupancy
  Cu  Cu0  1  0.66306290  0.92489797  0.63547635  1
  Cu  Cu1  1  0.73035562  0.49071010  0.41164312  1
  Cu  Cu2  1  0.57161957  0.57024157  0.66134629  1
  Cu  Cu3  1  0.88619206  0.02888389  0.54734999  1
  Cu  Cu4  1  0.91816360  0.48764955  0.18681662  1
  Cu  Cu5  1  0.19579989  0.68107604  0.34405708  1
  Cu  Cu6  1  0.16114337  0.78166251  0.81652969  1
  Cu  Cu7  1  0.08183640  0.51235045  0.81318338  1
  Cu  Cu8  1  0.32167960  0.82441697  0.65597607  1
  Cu  Cu9  1  0.42838043  0.42975843  0.33865371  1
  Cu  Cu10  1  0.67832040  0.17558303  0.34402393  1
  Cu  Cu11  1  0.83885663  0.21833749  0.18347031  1
  Cu  Cu12  1  0.80420011  0.81892396  0.84405708  1
  Cu  Cu13  1  0.66306290  0.42489797  0.86452365  1
  Cu  Cu14  1  0.42838043  0.92975843  0.16134629  1
  Cu  Cu15  1  0.67832040  0.67558303  0.15597607  1
  Cu  Cu16  1  0.33693710  0.07510203  0.36452365  1
  Cu  Cu17  1  0.80420011  0.31892396  0.65594292  1
  Cu  Cu18  1  0.11380794  0.47111611  0.04734999  1
  Cu  Cu19  1  0.83885663  0.71833749  0.31652969  1
  Cu  Cu20  1  0.26964438  0.00928990  0.91164312  1
  Cu  Cu21  1  0.32167960  0.32441697  0.84402393  1
  Cu  Cu22  1  0.91816360  0.98764955  0.31318338  1
  Cu  Cu23  1  0.16114337  0.28166251  0.68347031  1
  Cu  Cu24  1  0.33693710  0.57510203  0.13547635  1
  Cu  Cu25  1  0.19579989  0.18107604  0.15594292  1
  Cu  Cu26  1  0.57161957  0.07024157  0.83865371  1
  Cu  Cu27  1  0.73035562  0.99071010  0.08835688  1
  Cu  Cu28  1  0.08183640  0.01235045  0.68681662  1
  Cu  Cu29  1  0.11380794  0.97111611  0.45265001  1
  Cu  Cu30  1  0.26964438  0.50928990  0.58835688  1
  Cu  Cu31  1  0.88619206  0.52888389  0.95265001  1
  Ge  Ge32  1  0.06090648  0.31624736  0.41292058  1
  Ge  Ge33  1  0.44790523  0.69314964  0.91261902  1
  Ge  Ge34  1  0.44790523  0.19314964  0.58738098  1
  Ge  Ge35  1  0.93909352  0.68375264  0.58707942  1
  Ge  Ge36  1  0.55209477  0.30685036  0.08738098  1
  Ge  Ge37  1  0.06090648  0.81624736  0.08707942  1
  Ge  Ge38  1  0.93909352  0.18375264  0.91292058  1
  Ge  Ge39  1  0.55209477  0.80685036  0.41261902  1
  S  S40  1  0.13265833  0.13879852  0.82967176  1
  S  S41  1  0.73562546  0.98911872  0.41546989  1
  S  S42  1  0.37130306  0.36595586  0.17398759  1
  S  S43  1  0.50280144  0.74968168  0.57745121  1
  S  S44  1  0.60521947  0.12304162  0.17508689  1
  S  S45  1  0.86734167  0.86120148  0.17032824  1
  S  S46  1  0.98801010  0.74613467  0.92774638  1
  S  S47  1  0.87915524  0.36541412  0.82462426  1
  S  S48  1  0.98801010  0.24613467  0.57225362  1
  S  S49  1  0.13265833  0.63879852  0.67032824  1
  S  S50  1  0.87915524  0.86541412  0.67537574  1
  S  S51  1  0.39478053  0.37695838  0.67508689  1
  S  S52  1  0.12084476  0.63458588  0.17537574  1
  S  S53  1  0.75740599  0.00821766  0.91818415  1
  S  S54  1  0.60521947  0.62304162  0.32491311  1
  S  S55  1  0.26437454  0.01088128  0.58453011  1
  S  S56  1  0.86734167  0.36120148  0.32967176  1
  S  S57  1  0.49719856  0.25031832  0.42254879  1
  S  S58  1  0.01198990  0.25386533  0.07225362  1
  S  S59  1  0.62869694  0.13404414  0.67398759  1
  S  S60  1  0.12084476  0.13458588  0.32462426  1
  S  S61  1  0.01198990  0.75386533  0.42774638  1
  S  S62  1  0.49719856  0.75031832  0.07745121  1
  S  S63  1  0.26437454  0.51088128  0.91546989  1
  S  S64  1  0.62869694  0.63404414  0.82601241  1
  S  S65  1  0.50280144  0.24968168  0.92254879  1
  S  S66  1  0.39478053  0.87695838  0.82491311  1
  S  S67  1  0.73562546  0.48911872  0.08453011  1
  S  S68  1  0.24259401  0.99178234  0.08181585  1
  S  S69  1  0.75740599  0.50821766  0.58181585  1
  S  S70  1  0.37130306  0.86595586  0.32601241  1
  S  S71  1  0.24259401  0.49178234  0.41818415  1
