# generated using pymatgen
data_NiAs2S6(OF)12
_symmetry_space_group_name_H-M   'P 1'
_cell_length_a   8.09283799
_cell_length_b   8.94998516
_cell_length_c   15.43177357
_cell_angle_alpha   90.00000000
_cell_angle_beta   92.96317209
_cell_angle_gamma   90.00000000
_symmetry_Int_Tables_number   1
_chemical_formula_structural   NiAs2S6(OF)12
_chemical_formula_sum   'Ni2 As4 S12 O24 F24'
_cell_volume   1116.24094768
_cell_formula_units_Z   2
loop_
 _symmetry_equiv_pos_site_id
 _symmetry_equiv_pos_as_xyz
  1  'x, y, z'
loop_
 _atom_site_type_symbol
 _atom_site_label
 _atom_site_symmetry_multiplicity
 _atom_site_fract_x
 _atom_site_fract_y
 _atom_site_fract_z
 _atom_site_occupancy
  Ni  Ni0  1  0.00000000  0.00000000  0.00000000  1
  Ni  Ni1  1  0.00000000  0.50000000  0.50000000  1
  As  As2  1  0.74143930  0.00378571  0.35769531  1
  As  As3  1  0.25856070  0.99621429  0.64230469  1
  As  As4  1  0.74143930  0.49621429  0.85769531  1
  As  As5  1  0.25856070  0.50378571  0.14230469  1
  S  S6  1  0.24093784  0.24427456  0.40498886  1
  S  S7  1  0.75906216  0.74427456  0.09501114  1
  S  S8  1  0.22386884  0.75771798  0.88413898  1
  S  S9  1  0.77613116  0.24228202  0.11586102  1
  S  S10  1  0.70264907  0.49446556  0.34189015  1
  S  S11  1  0.77613116  0.25771798  0.61586102  1
  S  S12  1  0.75906216  0.75572544  0.59501114  1
  S  S13  1  0.24093784  0.25572544  0.90498886  1
  S  S14  1  0.29735093  0.50553444  0.65810985  1
  S  S15  1  0.22386884  0.74228202  0.38413898  1
  S  S16  1  0.70264907  0.00553444  0.84189015  1
  S  S17  1  0.29735093  0.99446556  0.15810985  1
  O  O18  1  0.61893052  0.16835790  0.10402944  1
  O  O19  1  0.90816803  0.67387448  0.57203305  1
  O  O20  1  0.60232403  0.68377759  0.57702032  1
  O  O21  1  0.90816803  0.82612552  0.07203305  1
  O  O22  1  0.07955961  0.66573994  0.41739734  1
  O  O23  1  0.18670151  0.46431775  0.72418115  1
  O  O24  1  0.38106948  0.83164210  0.89597056  1
  O  O25  1  0.07955961  0.83426006  0.91739734  1
  O  O26  1  0.22445282  0.98127769  0.06924242  1
  O  O27  1  0.39767597  0.18377759  0.92297968  1
  O  O28  1  0.09183197  0.32612552  0.42796695  1
  O  O29  1  0.77554718  0.01872231  0.93075758  1
  O  O30  1  0.09183197  0.17387448  0.92796695  1
  O  O31  1  0.22445282  0.51872231  0.56924242  1
  O  O32  1  0.38106948  0.66835790  0.39597056  1
  O  O33  1  0.77554718  0.48127769  0.43075758  1
  O  O34  1  0.60232403  0.81622241  0.07702032  1
  O  O35  1  0.81329849  0.53568225  0.27581885  1
  O  O36  1  0.81329849  0.96431775  0.77581885  1
  O  O37  1  0.18670151  0.03568225  0.22418115  1
  O  O38  1  0.92044039  0.33426006  0.58260266  1
  O  O39  1  0.92044039  0.16573994  0.08260266  1
  O  O40  1  0.39767597  0.31622241  0.42297968  1
  O  O41  1  0.61893052  0.33164210  0.60402944  1
  F  F42  1  0.72556632  0.82386556  0.40555767  1
  F  F43  1  0.47500631  0.50556442  0.16667591  1
  F  F44  1  0.22792790  0.42041748  0.24481671  1
  F  F45  1  0.04253616  0.99690379  0.61858104  1
  F  F46  1  0.52499369  0.49443558  0.83332409  1
  F  F47  1  0.77207210  0.57958252  0.75518329  1
  F  F48  1  0.27443368  0.32386556  0.09444233  1
  F  F49  1  0.22792790  0.07958252  0.74481671  1
  F  F50  1  0.75718907  0.18490122  0.30890708  1
  F  F51  1  0.24281093  0.68490122  0.19109292  1
  F  F52  1  0.77207210  0.92041748  0.25518329  1
  F  F53  1  0.24281093  0.81509878  0.69109292  1
  F  F54  1  0.71071721  0.41198795  0.95991529  1
  F  F55  1  0.28928279  0.91198795  0.54008471  1
  F  F56  1  0.75718907  0.31509878  0.80890708  1
  F  F57  1  0.28928279  0.58801205  0.04008471  1
  F  F58  1  0.95746384  0.00309621  0.38141896  1
  F  F59  1  0.52499369  0.00556442  0.33332409  1
  F  F60  1  0.71071721  0.08801205  0.45991529  1
  F  F61  1  0.95746384  0.49690379  0.88141896  1
  F  F62  1  0.04253616  0.50309621  0.11858104  1
  F  F63  1  0.72556632  0.67613444  0.90555767  1
  F  F64  1  0.27443368  0.17613444  0.59444233  1
  F  F65  1  0.47500631  0.99443558  0.66667591  1
