# generated using pymatgen
data_Ba(RuO2)6
_symmetry_space_group_name_H-M   'P 1'
_cell_length_a   9.50200296
_cell_length_b   9.96699968
_cell_length_c   9.96699968
_cell_angle_alpha   90.00000000
_cell_angle_beta   90.00000000
_cell_angle_gamma   90.00000000
_symmetry_Int_Tables_number   1
_chemical_formula_structural   Ba(RuO2)6
_chemical_formula_sum   'Ba4 Ru24 O48'
_cell_volume   943.93926112
_cell_formula_units_Z   4
loop_
 _symmetry_equiv_pos_site_id
 _symmetry_equiv_pos_as_xyz
  1  'x, y, z'
loop_
 _atom_site_type_symbol
 _atom_site_label
 _atom_site_symmetry_multiplicity
 _atom_site_fract_x
 _atom_site_fract_y
 _atom_site_fract_z
 _atom_site_occupancy
  Ba  Ba0  1  0.87501688  0.25000000  0.25000000  1
  Ba  Ba1  1  0.70470993  0.75000000  0.75000000  1
  Ba  Ba2  1  0.29529007  0.25000000  0.25000000  1
  Ba  Ba3  1  0.12498312  0.75000000  0.75000000  1
  Ru  Ru4  1  0.41697123  0.60406837  0.41858616  1
  Ru  Ru5  1  0.24912889  0.58358741  0.10277900  1
  Ru  Ru6  1  0.08120166  0.90335500  0.08139158  1
  Ru  Ru7  1  0.24912889  0.91641259  0.39722100  1
  Ru  Ru8  1  0.58302877  0.10406837  0.91858616  1
  Ru  Ru9  1  0.24912889  0.10277900  0.91641259  1
  Ru  Ru10  1  0.75087111  0.08358741  0.60277900  1
  Ru  Ru11  1  0.08120166  0.41860842  0.90335500  1
  Ru  Ru12  1  0.91879834  0.91860842  0.40335500  1
  Ru  Ru13  1  0.58302877  0.91858616  0.39593163  1
  Ru  Ru14  1  0.91879834  0.40335500  0.58139158  1
  Ru  Ru15  1  0.41697123  0.89593163  0.08141384  1
  Ru  Ru16  1  0.75087111  0.60277900  0.41641259  1
  Ru  Ru17  1  0.58302877  0.39593163  0.58141384  1
  Ru  Ru18  1  0.08120166  0.59664500  0.41860842  1
  Ru  Ru19  1  0.41697123  0.08141384  0.60406837  1
  Ru  Ru20  1  0.41697123  0.41858616  0.89593163  1
  Ru  Ru21  1  0.75087111  0.89722100  0.08358741  1
  Ru  Ru22  1  0.91879834  0.09664500  0.91860842  1
  Ru  Ru23  1  0.75087111  0.41641259  0.89722100  1
  Ru  Ru24  1  0.24912889  0.39722100  0.58358741  1
  Ru  Ru25  1  0.08120166  0.08139158  0.59664500  1
  Ru  Ru26  1  0.58302877  0.58141384  0.10406837  1
  Ru  Ru27  1  0.91879834  0.58139158  0.09664500  1
  O  O28  1  0.24956181  0.29796655  0.90872304  1
  O  O29  1  0.08441923  0.44318398  0.10883617  1
  O  O30  1  0.75043819  0.40872304  0.70203345  1
  O  O31  1  0.58457714  0.89969096  0.94939673  1
  O  O32  1  0.91635780  0.29375638  0.91036877  1
  O  O33  1  0.41542286  0.05060327  0.39969096  1
  O  O34  1  0.08364220  0.79375638  0.41036877  1
  O  O35  1  0.41646829  0.79787827  0.40602356  1
  O  O36  1  0.24926948  0.89976800  0.94883815  1
  O  O37  1  0.41542286  0.39969096  0.44939673  1
  O  O38  1  0.24956181  0.20203345  0.59127696  1
  O  O39  1  0.58457714  0.55060327  0.89969096  1
  O  O40  1  0.08364220  0.41036877  0.70624362  1
  O  O41  1  0.41646829  0.70212173  0.09397644  1
  O  O42  1  0.75073052  0.39976800  0.44883815  1
  O  O43  1  0.91558077  0.94318398  0.60883617  1
  O  O44  1  0.24956181  0.90872304  0.20203345  1
  O  O45  1  0.58457714  0.60030904  0.55060327  1
  O  O46  1  0.08441923  0.10883617  0.05681602  1
  O  O47  1  0.08364220  0.08963123  0.79375638  1
  O  O48  1  0.91558077  0.55681602  0.89116383  1
  O  O49  1  0.75073052  0.44883815  0.10023200  1
  O  O50  1  0.24926948  0.94883815  0.60023200  1
  O  O51  1  0.91635780  0.91036877  0.20624362  1
  O  O52  1  0.91635780  0.58963123  0.29375638  1
  O  O53  1  0.41542286  0.10030904  0.05060327  1
  O  O54  1  0.08441923  0.39116383  0.44318398  1
  O  O55  1  0.58353171  0.29787827  0.90602356  1
  O  O56  1  0.24956181  0.59127696  0.29796655  1
  O  O57  1  0.91558077  0.60883617  0.55681602  1
  O  O58  1  0.41646829  0.09397644  0.79787827  1
  O  O59  1  0.75073052  0.10023200  0.05116185  1
  O  O60  1  0.58353171  0.20212173  0.59397644  1
  O  O61  1  0.91558077  0.89116383  0.94318398  1
  O  O62  1  0.08441923  0.05681602  0.39116383  1
  O  O63  1  0.58457714  0.94939673  0.60030904  1
  O  O64  1  0.41542286  0.44939673  0.10030904  1
  O  O65  1  0.58353171  0.90602356  0.20212173  1
  O  O66  1  0.75073052  0.05116185  0.39976800  1
  O  O67  1  0.24926948  0.55116185  0.89976800  1
  O  O68  1  0.58353171  0.59397644  0.29787827  1
  O  O69  1  0.08364220  0.70624362  0.08963123  1
  O  O70  1  0.41646829  0.40602356  0.70212173  1
  O  O71  1  0.75043819  0.70203345  0.09127696  1
  O  O72  1  0.75043819  0.09127696  0.79796655  1
  O  O73  1  0.75043819  0.79796655  0.40872304  1
  O  O74  1  0.24926948  0.60023200  0.55116185  1
  O  O75  1  0.91635780  0.20624362  0.58963123  1
