# generated using pymatgen
data_Ni5Te4(ClO6)2
_symmetry_space_group_name_H-M   'P 1'
_cell_length_a   5.31059459
_cell_length_b   10.27646487
_cell_length_c   13.70191760
_cell_angle_alpha   85.14317581
_cell_angle_beta   78.82594990
_cell_angle_gamma   75.02567472
_symmetry_Int_Tables_number   1
_chemical_formula_structural   Ni5Te4(ClO6)2
_chemical_formula_sum   'Ni10 Te8 Cl4 O24'
_cell_volume   708.21099402
_cell_formula_units_Z   2
loop_
 _symmetry_equiv_pos_site_id
 _symmetry_equiv_pos_as_xyz
  1  'x, y, z'
loop_
 _atom_site_type_symbol
 _atom_site_label
 _atom_site_symmetry_multiplicity
 _atom_site_fract_x
 _atom_site_fract_y
 _atom_site_fract_z
 _atom_site_occupancy
  Ni  Ni0  1  0.69575946  0.20797859  0.97317157  1
  Ni  Ni1  1  0.87690962  0.29202141  0.52682843  1
  Ni  Ni2  1  0.75969916  0.25000000  0.75000000  1
  Ni  Ni3  1  0.30424054  0.79202141  0.02682843  1
  Ni  Ni4  1  0.22678653  0.10339151  0.87901020  1
  Ni  Ni5  1  0.77321347  0.89660849  0.12098980  1
  Ni  Ni6  1  0.20918824  0.39660849  0.62098980  1
  Ni  Ni7  1  0.79081176  0.60339151  0.37901020  1
  Ni  Ni8  1  0.12309038  0.70797859  0.47317157  1
  Ni  Ni9  1  0.24030084  0.75000000  0.25000000  1
  Te  Te10  1  0.43775559  0.08434542  0.62007759  1
  Te  Te11  1  0.85782139  0.58434542  0.12007759  1
  Te  Te12  1  0.14217861  0.41565458  0.87992241  1
  Te  Te13  1  0.80416122  0.88684148  0.86196462  1
  Te  Te14  1  0.55296732  0.61315852  0.63803538  1
  Te  Te15  1  0.44703268  0.38684148  0.36196462  1
  Te  Te16  1  0.56224441  0.91565458  0.37992241  1
  Te  Te17  1  0.19583878  0.11315852  0.13803538  1
  Cl  Cl18  1  0.07749650  0.87938944  0.59296038  1
  Cl  Cl19  1  0.54984632  0.62061056  0.90703962  1
  Cl  Cl20  1  0.45015368  0.37938944  0.09296038  1
  Cl  Cl21  1  0.92250350  0.12061056  0.40703962  1
  O  O22  1  0.94867524  0.82550367  0.97990830  1
  O  O23  1  0.22001135  0.48258419  0.74992591  1
  O  O24  1  0.44830317  0.92833185  0.93079866  1
  O  O25  1  0.06475585  0.70152755  0.14475381  1
  O  O26  1  0.12534180  0.93749293  0.14333958  1
  O  O27  1  0.30743369  0.57166815  0.56920134  1
  O  O28  1  0.55169683  0.07166815  0.06920134  1
  O  O29  1  0.57347993  0.23969117  0.63127082  1
  O  O30  1  0.44444193  0.26030883  0.86872918  1
  O  O31  1  0.75408720  0.67449633  0.52009170  1
  O  O32  1  0.91103720  0.79847245  0.35524619  1
  O  O33  1  0.08896280  0.20152755  0.64475381  1
  O  O34  1  0.54747855  0.98258419  0.24992591  1
  O  O35  1  0.77998865  0.51741581  0.25007409  1
  O  O36  1  0.87465820  0.06250707  0.85666042  1
  O  O37  1  0.05132476  0.17449633  0.02009170  1
  O  O38  1  0.69256631  0.42833185  0.43079866  1
  O  O39  1  0.93524415  0.29847245  0.85524619  1
  O  O40  1  0.42652007  0.76030883  0.36872918  1
  O  O41  1  0.55555807  0.73969117  0.13127082  1
  O  O42  1  0.24591280  0.32550367  0.47990830  1
  O  O43  1  0.20617331  0.56250707  0.35666042  1
  O  O44  1  0.79382669  0.43749293  0.64333958  1
  O  O45  1  0.45252145  0.01741581  0.75007409  1
