# generated using pymatgen
data_MgV2(CuO4)2
_symmetry_space_group_name_H-M   'P 1'
_cell_length_a   6.51646916
_cell_length_b   8.35940919
_cell_length_c   11.84075154
_cell_angle_alpha   90.00000000
_cell_angle_beta   90.39814327
_cell_angle_gamma   90.00000000
_symmetry_Int_Tables_number   1
_chemical_formula_structural   MgV2(CuO4)2
_chemical_formula_sum   'Mg4 V8 Cu8 O32'
_cell_volume   644.99553944
_cell_formula_units_Z   4
loop_
 _symmetry_equiv_pos_site_id
 _symmetry_equiv_pos_as_xyz
  1  'x, y, z'
loop_
 _atom_site_type_symbol
 _atom_site_label
 _atom_site_symmetry_multiplicity
 _atom_site_fract_x
 _atom_site_fract_y
 _atom_site_fract_z
 _atom_site_occupancy
  Mg  Mg0  1  0.11248856  0.16231163  0.05001256  1
  Mg  Mg1  1  0.88751144  0.83768837  0.94998744  1
  Mg  Mg2  1  0.88751144  0.66231163  0.44998744  1
  Mg  Mg3  1  0.11248856  0.33768837  0.55001256  1
  V  V4  1  0.10311043  0.46037053  0.84553002  1
  V  V5  1  0.10311043  0.03962947  0.34553002  1
  V  V6  1  0.60900763  0.08658170  0.13344550  1
  V  V7  1  0.89688957  0.96037053  0.65446998  1
  V  V8  1  0.39099237  0.91341830  0.86655450  1
  V  V9  1  0.39099237  0.58658170  0.36655450  1
  V  V10  1  0.60900763  0.41341830  0.63344550  1
  V  V11  1  0.89688957  0.53962947  0.15446998  1
  Cu  Cu12  1  0.76446115  0.18486607  0.87275287  1
  Cu  Cu13  1  0.37706333  0.05702543  0.62726169  1
  Cu  Cu14  1  0.62293667  0.94297457  0.37273831  1
  Cu  Cu15  1  0.23553885  0.81513393  0.12724713  1
  Cu  Cu16  1  0.76446115  0.31513393  0.37275287  1
  Cu  Cu17  1  0.37706333  0.44297457  0.12726169  1
  Cu  Cu18  1  0.23553885  0.68486607  0.62724713  1
  Cu  Cu19  1  0.62293667  0.55702543  0.87273831  1
  O  O20  1  0.03667588  0.23310744  0.39573575  1
  O  O21  1  0.66160250  0.01203683  0.59725170  1
  O  O22  1  0.18948916  0.57549420  0.47010677  1
  O  O23  1  0.81051084  0.07549420  0.02989323  1
  O  O24  1  0.03667588  0.26689256  0.89573575  1
  O  O25  1  0.96332412  0.76689256  0.60426425  1
  O  O26  1  0.08420710  0.10556587  0.61513386  1
  O  O27  1  0.50646701  0.90033046  0.13926619  1
  O  O28  1  0.50646701  0.59966954  0.63926619  1
  O  O29  1  0.31340063  0.86927818  0.72467472  1
  O  O30  1  0.68659937  0.36927818  0.77532528  1
  O  O31  1  0.49353299  0.09966954  0.86073381  1
  O  O32  1  0.91579290  0.89443413  0.38486614  1
  O  O33  1  0.87752199  0.53894295  0.29907057  1
  O  O34  1  0.41988440  0.28172324  0.58587454  1
  O  O35  1  0.41988440  0.21827676  0.08587454  1
  O  O36  1  0.12247801  0.03894295  0.20092943  1
  O  O37  1  0.49353299  0.40033046  0.36073381  1
  O  O38  1  0.12247801  0.46105705  0.70092943  1
  O  O39  1  0.81051084  0.42450580  0.52989323  1
  O  O40  1  0.66160250  0.48796317  0.09725170  1
  O  O41  1  0.68659937  0.13072182  0.27532528  1
  O  O42  1  0.96332412  0.73310744  0.10426425  1
  O  O43  1  0.08420710  0.39443413  0.11513386  1
  O  O44  1  0.18948916  0.92450580  0.97010677  1
  O  O45  1  0.58011560  0.78172324  0.91412546  1
  O  O46  1  0.33839750  0.98796317  0.40274830  1
  O  O47  1  0.33839750  0.51203683  0.90274830  1
  O  O48  1  0.91579290  0.60556587  0.88486614  1
  O  O49  1  0.58011560  0.71827676  0.41412546  1
  O  O50  1  0.31340063  0.63072182  0.22467472  1
  O  O51  1  0.87752199  0.96105705  0.79907057  1
