# generated using pymatgen
data_Na3W2(ClO)4
_symmetry_space_group_name_H-M   'P 1'
_cell_length_a   5.69625785
_cell_length_b   5.61394207
_cell_length_c   8.03693390
_cell_angle_alpha   90.00000000
_cell_angle_beta   69.24454706
_cell_angle_gamma   90.00000000
_symmetry_Int_Tables_number   1
_chemical_formula_structural   Na3W2(ClO)4
_chemical_formula_sum   'Na3 W2 Cl4 O4'
_cell_volume   240.32929419
_cell_formula_units_Z   1
loop_
 _symmetry_equiv_pos_site_id
 _symmetry_equiv_pos_as_xyz
  1  'x, y, z'
loop_
 _atom_site_type_symbol
 _atom_site_label
 _atom_site_symmetry_multiplicity
 _atom_site_fract_x
 _atom_site_fract_y
 _atom_site_fract_z
 _atom_site_occupancy
  Na  Na0  1  0.13161380  0.50000000  0.73677239  1
  Na  Na1  1  0.87006591  0.50000000  0.25986817  1
  Na  Na2  1  0.37206915  -0.00000000  0.25586171  1
  W  W3  1  0.50356457  0.50000000  0.99287086  1
  W  W4  1  0.00280644  0.00000000  0.99438712  1
  Cl  Cl5  1  0.33357050  0.50000000  0.33285900  1
  Cl  Cl6  1  0.83557973  -0.00000000  0.32884053  1
  Cl  Cl7  1  0.16480024  0.00000000  0.67039951  1
  Cl  Cl8  1  0.66688401  0.50000000  0.66623197  1
  O  O9  1  0.75218993  0.24631602  0.00552718  1
  O  O10  1  0.24228288  0.75368398  0.00552718  1
  O  O11  1  0.24228288  0.24631602  0.00552718  1
  O  O12  1  0.75218993  0.75368398  0.00552718  1
