# generated using pymatgen
data_Sr5Nb4O15
_symmetry_space_group_name_H-M   'P 1'
_cell_length_a   5.73599197
_cell_length_b   9.95780366
_cell_length_c   11.67169651
_cell_angle_alpha   89.24656616
_cell_angle_beta   90.00000000
_cell_angle_gamma   90.00000000
_symmetry_Int_Tables_number   1
_chemical_formula_structural   Sr5Nb4O15
_chemical_formula_sum   'Sr10 Nb8 O30'
_cell_volume   666.60494301
_cell_formula_units_Z   2
loop_
 _symmetry_equiv_pos_site_id
 _symmetry_equiv_pos_as_xyz
  1  'x, y, z'
loop_
 _atom_site_type_symbol
 _atom_site_label
 _atom_site_symmetry_multiplicity
 _atom_site_fract_x
 _atom_site_fract_y
 _atom_site_fract_z
 _atom_site_occupancy
  Sr  Sr0  1  0.50000000  0.83279646  0.22032318  1
  Sr  Sr1  1  0.00000000  0.33335064  0.21905663  1
  Sr  Sr2  1  0.50000000  0.16720354  0.77967682  1
  Sr  Sr3  1  0.50000000  0.83113782  0.56214301  1
  Sr  Sr4  1  0.50000000  0.16886218  0.43785699  1
  Sr  Sr5  1  0.00000000  0.00000000  0.00000000  1
  Sr  Sr6  1  0.00000000  0.67090886  0.43979248  1
  Sr  Sr7  1  0.00000000  0.66664936  0.78094337  1
  Sr  Sr8  1  0.00000000  0.32909114  0.56020752  1
  Sr  Sr9  1  0.50000000  0.50000000  0.00000000  1
  Nb  Nb10  1  0.50000000  0.50238214  0.67960334  1
  Nb  Nb11  1  0.50000000  0.49761786  0.32039666  1
  Nb  Nb12  1  0.50000000  0.83544158  0.89474660  1
  Nb  Nb13  1  0.50000000  0.16455842  0.10525340  1
  Nb  Nb14  1  0.00000000  0.99757779  0.32042885  1
  Nb  Nb15  1  0.00000000  0.00242221  0.67957115  1
  Nb  Nb16  1  0.00000000  0.66480113  0.10619896  1
  Nb  Nb17  1  0.00000000  0.33519887  0.89380104  1
  O  O18  1  0.25323908  0.91151018  0.39326891  1
  O  O19  1  0.74695507  0.42319858  0.80744430  1
  O  O20  1  0.75272652  0.41021025  0.39229879  1
  O  O21  1  0.75272652  0.58978975  0.60770121  1
  O  O22  1  0.00000000  0.16629430  0.39003581  1
  O  O23  1  0.75264687  0.92312628  0.80760356  1
  O  O24  1  0.74676092  0.08848982  0.60673109  1
  O  O25  1  0.75028632  0.75104966  0.00099685  1
  O  O26  1  0.25304493  0.42319858  0.80744430  1
  O  O27  1  0.00000000  0.83370570  0.60996419  1
  O  O28  1  0.00000000  0.82760258  0.19811151  1
  O  O29  1  0.24971368  0.75104966  0.00099685  1
  O  O30  1  0.24727348  0.58978975  0.60770121  1
  O  O31  1  0.74695507  0.57680142  0.19255570  1
  O  O32  1  0.50000000  0.67105080  0.80494413  1
  O  O33  1  0.00000000  0.17239742  0.80188849  1
  O  O34  1  0.25304493  0.57680142  0.19255570  1
  O  O35  1  0.50000000  0.32894920  0.19505587  1
  O  O36  1  0.75028632  0.24895034  0.99900315  1
  O  O37  1  0.25323908  0.08848982  0.60673109  1
  O  O38  1  0.24735313  0.07687372  0.19239644  1
  O  O39  1  0.50000000  0.33407903  0.60912389  1
  O  O40  1  0.24735313  0.92312628  0.80760356  1
  O  O41  1  0.74676092  0.91151018  0.39326891  1
  O  O42  1  0.75264687  0.07687372  0.19239644  1
  O  O43  1  0.24971368  0.24895034  0.99900315  1
  O  O44  1  0.50000000  0.66592097  0.39087611  1
  O  O45  1  0.24727348  0.41021025  0.39229879  1
  O  O46  1  0.50000000  0.00000000  0.00000000  1
  O  O47  1  0.00000000  0.50000000  0.00000000  1
