# generated using pymatgen
data_KV2CrO7
_symmetry_space_group_name_H-M   'P 1'
_cell_length_a   4.93412929
_cell_length_b   6.97864560
_cell_length_c   8.36943479
_cell_angle_alpha   101.71905639
_cell_angle_beta   90.00000000
_cell_angle_gamma   90.00000000
_symmetry_Int_Tables_number   1
_chemical_formula_structural   KV2CrO7
_chemical_formula_sum   'K2 V4 Cr2 O14'
_cell_volume   282.18204890
_cell_formula_units_Z   2
loop_
 _symmetry_equiv_pos_site_id
 _symmetry_equiv_pos_as_xyz
  1  'x, y, z'
loop_
 _atom_site_type_symbol
 _atom_site_label
 _atom_site_symmetry_multiplicity
 _atom_site_fract_x
 _atom_site_fract_y
 _atom_site_fract_z
 _atom_site_occupancy
  K  K0  1  0.60150078  0.75000000  0.50000000  1
  K  K1  1  0.39849922  0.25000000  0.50000000  1
  V  V2  1  0.99749559  0.87662354  0.17327442  1
  V  V3  1  0.00250441  0.12337646  0.82672558  1
  V  V4  1  0.00250441  0.37662354  0.17327442  1
  V  V5  1  0.99749559  0.62337646  0.82672558  1
  Cr  Cr6  1  0.50000000  0.50000000  0.00000000  1
  Cr  Cr7  1  0.50000000  0.00000000  0.00000000  1
  O  O8  1  0.67763045  0.98096663  0.20960439  1
  O  O9  1  0.87067749  0.11732107  0.64574767  1
  O  O10  1  0.84141195  0.88715427  0.88485783  1
  O  O11  1  0.87067749  0.38267893  0.35425233  1
  O  O12  1  0.12932251  0.88267893  0.35425233  1
  O  O13  1  0.32236955  0.48096663  0.20960439  1
  O  O14  1  0.15858805  0.11284573  0.11514217  1
  O  O15  1  0.84141195  0.61284573  0.11514217  1
  O  O16  1  0.71628839  0.25000000  0.00000000  1
  O  O17  1  0.28371161  0.75000000  0.00000000  1
  O  O18  1  0.67763045  0.51903337  0.79039561  1
  O  O19  1  0.32236955  0.01903337  0.79039561  1
  O  O20  1  0.12932251  0.61732107  0.64574767  1
  O  O21  1  0.15858805  0.38715427  0.88485783  1
