# generated using pymatgen
data_V4O7
_symmetry_space_group_name_H-M   'P 1'
_cell_length_a   5.67480446
_cell_length_b   6.93168259
_cell_length_c   7.11037012
_cell_angle_alpha   64.44786214
_cell_angle_beta   69.99595655
_cell_angle_gamma   75.06235221
_symmetry_Int_Tables_number   1
_chemical_formula_structural   V4O7
_chemical_formula_sum   'V8 O14'
_cell_volume   235.10097417
_cell_formula_units_Z   2
loop_
 _symmetry_equiv_pos_site_id
 _symmetry_equiv_pos_as_xyz
  1  'x, y, z'
loop_
 _atom_site_type_symbol
 _atom_site_label
 _atom_site_symmetry_multiplicity
 _atom_site_fract_x
 _atom_site_fract_y
 _atom_site_fract_z
 _atom_site_occupancy
  V  V0  1  0.18994089  0.09524143  0.25509721  1
  V  V1  1  0.71476630  0.37311117  0.41632196  1
  V  V2  1  0.28523370  0.62688883  0.58367804  1
  V  V3  1  0.28520882  0.62058703  0.08528459  1
  V  V4  1  0.71479118  0.37941297  0.91471541  1
  V  V5  1  0.18380560  0.09249916  0.75964140  1
  V  V6  1  0.81619440  0.90750084  0.24035860  1
  V  V7  1  0.81005911  0.90475857  0.74490279  1
  O  O8  1  0.80016135  0.05554996  0.43600351  1
  O  O9  1  0.82213751  0.22243376  0.70477909  1
  O  O10  1  0.98169418  0.82857201  0.97591388  1
  O  O11  1  0.08295868  0.38460218  0.26010481  1
  O  O12  1  0.48278702  0.88896147  0.86369564  1
  O  O13  1  0.01830582  0.17142799  0.02408612  1
  O  O14  1  0.40052053  0.53198356  0.83912854  1
  O  O15  1  0.17786249  0.77756624  0.29522091  1
  O  O16  1  0.35844093  0.33371249  0.58962915  1
  O  O17  1  0.91704132  0.61539782  0.73989519  1
  O  O18  1  0.64155907  0.66628751  0.41037085  1
  O  O19  1  0.19983865  0.94445004  0.56399649  1
  O  O20  1  0.51721298  0.11103853  0.13630436  1
  O  O21  1  0.59947947  0.46801644  0.16087146  1
