# generated using pymatgen
data_Ga
_symmetry_space_group_name_H-M   'P 1'
_cell_length_a   7.85517943
_cell_length_b   7.85517911
_cell_length_c   7.85517865
_cell_angle_alpha   71.17506374
_cell_angle_beta   71.17506448
_cell_angle_gamma   71.17506164
_symmetry_Int_Tables_number   1
_chemical_formula_structural   Ga
_chemical_formula_sum   Ga22
_cell_volume   421.10802139
_cell_formula_units_Z   22
loop_
 _symmetry_equiv_pos_site_id
 _symmetry_equiv_pos_as_xyz
  1  'x, y, z'
loop_
 _atom_site_type_symbol
 _atom_site_label
 _atom_site_symmetry_multiplicity
 _atom_site_fract_x
 _atom_site_fract_y
 _atom_site_fract_z
 _atom_site_occupancy
  Ga  Ga0  1  0.62578189  0.32009491  0.32009491  1
  Ga  Ga1  1  0.37421811  0.67990509  0.67990509  1
  Ga  Ga2  1  0.97792128  0.28054877  0.28054877  1
  Ga  Ga3  1  0.61519735  0.09654599  0.09654599  1
  Ga  Ga4  1  0.02207872  0.71945123  0.71945123  1
  Ga  Ga5  1  0.38480265  0.90345401  0.90345401  1
  Ga  Ga6  1  0.32009491  0.32009491  0.62578189  1
  Ga  Ga7  1  0.67990509  0.37421811  0.67990509  1
  Ga  Ga8  1  0.71945123  0.02207872  0.71945123  1
  Ga  Ga9  1  0.09654599  0.61519735  0.09654599  1
  Ga  Ga10  1  0.90345401  0.90345401  0.38480265  1
  Ga  Ga11  1  0.67990509  0.67990509  0.37421811  1
  Ga  Ga12  1  0.00000000  0.50000000  0.50000000  1
  Ga  Ga13  1  0.32009491  0.62578189  0.32009491  1
  Ga  Ga14  1  0.28054877  0.97792128  0.28054877  1
  Ga  Ga15  1  0.71945123  0.71945123  0.02207872  1
  Ga  Ga16  1  0.50000000  0.50000000  0.00000000  1
  Ga  Ga17  1  0.09654599  0.09654599  0.61519735  1
  Ga  Ga18  1  0.90345401  0.38480265  0.90345401  1
  Ga  Ga19  1  0.00000000  0.00000000  0.00000000  1
  Ga  Ga20  1  0.28054877  0.28054877  0.97792128  1
  Ga  Ga21  1  0.50000000  0.00000000  0.50000000  1
