# generated using pymatgen
data_UAg2(WO5)2
_symmetry_space_group_name_H-M   'P 1'
_cell_length_a   7.67611786
_cell_length_b   8.78683347
_cell_length_c   12.78211555
_cell_angle_alpha   90.00000000
_cell_angle_beta   90.00000000
_cell_angle_gamma   90.00000000
_symmetry_Int_Tables_number   1
_chemical_formula_structural   UAg2(WO5)2
_chemical_formula_sum   'U4 Ag8 W8 O40'
_cell_volume   862.13796331
_cell_formula_units_Z   4
loop_
 _symmetry_equiv_pos_site_id
 _symmetry_equiv_pos_as_xyz
  1  'x, y, z'
loop_
 _atom_site_type_symbol
 _atom_site_label
 _atom_site_symmetry_multiplicity
 _atom_site_fract_x
 _atom_site_fract_y
 _atom_site_fract_z
 _atom_site_occupancy
  U  U0  1  0.75000000  0.52468924  0.49991618  1
  U  U1  1  0.25000000  0.47531076  0.50008382  1
  U  U2  1  0.75000000  0.02468924  1.00008382  1
  U  U3  1  0.25000000  0.97531076  -0.00008382  1
  Ag  Ag4  1  0.75000000  0.32801576  0.79485797  1
  Ag  Ag5  1  0.75000000  0.68991639  0.19132272  1
  Ag  Ag6  1  0.25000000  0.81008361  0.69132272  1
  Ag  Ag7  1  0.25000000  0.31008361  0.80867728  1
  Ag  Ag8  1  0.75000000  0.18991639  0.30867728  1
  Ag  Ag9  1  0.75000000  0.82801576  0.70514203  1
  Ag  Ag10  1  0.25000000  0.67198424  0.20514203  1
  Ag  Ag11  1  0.25000000  0.17198424  0.29485797  1
  W  W12  1  0.49983824  0.35014430  0.07635430  1
  W  W13  1  0.50016176  0.14985570  0.57635430  1
  W  W14  1  0.49983824  0.85014430  0.42364570  1
  W  W15  1  0.99983824  0.14985570  0.57635430  1
  W  W16  1  0.50016176  0.64985570  0.92364570  1
  W  W17  1  0.00016176  0.85014430  0.42364570  1
  W  W18  1  0.00016176  0.35014430  0.07635430  1
  W  W19  1  0.99983824  0.64985570  0.92364570  1
  O  O20  1  0.25000000  0.49712301  0.64240641  1
  O  O21  1  0.25000000  0.86273096  0.42401004  1
  O  O22  1  0.75000000  0.54392686  0.64373871  1
  O  O23  1  0.25000000  0.99712301  0.85759359  1
  O  O24  1  0.75000000  0.50287699  0.35759359  1
  O  O25  1  0.48704969  0.20957807  0.71026532  1
  O  O26  1  0.75000000  0.04392686  0.85626129  1
  O  O27  1  0.51295031  0.79042193  0.28973468  1
  O  O28  1  0.98704969  0.79042193  0.28973468  1
  O  O29  1  0.52474535  0.35174386  0.50953887  1
  O  O30  1  0.25000000  0.95607314  0.14373871  1
  O  O31  1  0.48704969  0.70957807  0.78973468  1
  O  O32  1  0.02474535  0.64825614  0.49046113  1
  O  O33  1  0.01295031  0.20957807  0.71026532  1
  O  O34  1  0.02474535  0.14825614  0.00953887  1
  O  O35  1  0.47525465  0.14825614  0.00953887  1
  O  O36  1  0.01295031  0.70957807  0.78973468  1
  O  O37  1  0.47674653  0.93451987  0.58874148  1
  O  O38  1  0.75000000  0.63726904  0.92401004  1
  O  O39  1  0.25000000  0.36273096  0.07598996  1
  O  O40  1  0.02325347  0.43451987  0.91125852  1
  O  O41  1  0.02325347  0.93451987  0.58874148  1
  O  O42  1  0.75000000  0.81332045  0.45605398  1
  O  O43  1  0.97525465  0.35174386  0.50953887  1
  O  O44  1  0.97674653  0.06548013  0.41125852  1
  O  O45  1  0.75000000  0.31332045  0.04394602  1
  O  O46  1  0.25000000  0.68667955  0.95605398  1
  O  O47  1  0.52474535  0.85174386  0.99046113  1
  O  O48  1  0.25000000  0.45607314  0.35626129  1
  O  O49  1  0.75000000  0.13726904  0.57598996  1
  O  O50  1  0.52325347  0.56548013  0.08874148  1
  O  O51  1  0.75000000  0.00287699  0.14240641  1
  O  O52  1  0.52325347  0.06548013  0.41125852  1
  O  O53  1  0.97674653  0.56548013  0.08874148  1
  O  O54  1  0.98704969  0.29042193  0.21026532  1
  O  O55  1  0.51295031  0.29042193  0.21026532  1
  O  O56  1  0.47674653  0.43451987  0.91125852  1
  O  O57  1  0.97525465  0.85174386  0.99046113  1
  O  O58  1  0.47525465  0.64825614  0.49046113  1
  O  O59  1  0.25000000  0.18667955  0.54394602  1
