# generated using pymatgen
data_CsReBrCl3
_symmetry_space_group_name_H-M   'P 1'
_cell_length_a   10.29389713
_cell_length_b   10.29389723
_cell_length_c   11.09723222
_cell_angle_alpha   90.00000000
_cell_angle_beta   90.00000000
_cell_angle_gamma   90.43995597
_symmetry_Int_Tables_number   1
_chemical_formula_structural   CsReBrCl3
_chemical_formula_sum   'Cs6 Re6 Br6 Cl18'
_cell_volume   1175.87598956
_cell_formula_units_Z   6
loop_
 _symmetry_equiv_pos_site_id
 _symmetry_equiv_pos_as_xyz
  1  'x, y, z'
loop_
 _atom_site_type_symbol
 _atom_site_label
 _atom_site_symmetry_multiplicity
 _atom_site_fract_x
 _atom_site_fract_y
 _atom_site_fract_z
 _atom_site_occupancy
  Cs  Cs0  1  0.79637633  0.43279302  0.75000000  1
  Cs  Cs1  1  0.00435620  0.00435620  0.50000000  1
  Cs  Cs2  1  0.29558548  0.48775301  0.75000000  1
  Cs  Cs3  1  0.43279302  0.79637633  0.25000000  1
  Cs  Cs4  1  0.00435620  0.00435620  0.00000000  1
  Cs  Cs5  1  0.48775301  0.29558548  0.25000000  1
  Re  Re6  1  0.63424903  0.91806680  0.75000000  1
  Re  Re7  1  0.44910657  0.01179663  0.63808474  1
  Re  Re8  1  0.44910657  0.01179663  0.86191526  1
  Re  Re9  1  0.01179663  0.44910657  0.13808474  1
  Re  Re10  1  0.91806680  0.63424903  0.25000000  1
  Re  Re11  1  0.01179663  0.44910657  0.36191526  1
  Br  Br12  1  0.11166077  0.25421240  0.25000000  1
  Br  Br13  1  0.91647169  0.63968762  0.48219952  1
  Br  Br14  1  0.63968762  0.91647169  0.98219952  1
  Br  Br15  1  0.91647169  0.63968762  0.01780048  1
  Br  Br16  1  0.63968762  0.91647169  0.51780048  1
  Br  Br17  1  0.25421240  0.11166077  0.75000000  1
  Cl  Cl18  1  0.22240043  0.52819838  0.10266583  1
  Cl  Cl19  1  0.32868776  0.82293368  0.89595048  1
  Cl  Cl20  1  0.82293368  0.32868776  0.39595048  1
  Cl  Cl21  1  0.33936736  0.06316377  0.07010278  1
  Cl  Cl22  1  0.06316377  0.33936736  0.57010278  1
  Cl  Cl23  1  0.52819838  0.22240043  0.60266583  1
  Cl  Cl24  1  0.86334579  0.80751850  0.75000000  1
  Cl  Cl25  1  0.52819838  0.22240043  0.89733417  1
  Cl  Cl26  1  0.33936736  0.06316377  0.42989722  1
  Cl  Cl27  1  0.82293368  0.32868776  0.10404952  1
  Cl  Cl28  1  0.80751850  0.86334579  0.25000000  1
  Cl  Cl29  1  0.77401068  0.09804536  0.75000000  1
  Cl  Cl30  1  0.22240043  0.52819838  0.39733417  1
  Cl  Cl31  1  0.57204358  0.69941907  0.75000000  1
  Cl  Cl32  1  0.09804536  0.77401068  0.25000000  1
  Cl  Cl33  1  0.06316377  0.33936736  0.92989722  1
  Cl  Cl34  1  0.69941907  0.57204358  0.25000000  1
  Cl  Cl35  1  0.32868776  0.82293368  0.60404952  1
