# generated using pymatgen
data_CoBH18Br2(N3F2)2
_symmetry_space_group_name_H-M   'P 1'
_cell_length_a   7.68383415
_cell_length_b   12.43968024
_cell_length_c   13.97418608
_cell_angle_alpha   109.49640497
_cell_angle_beta   90.00000000
_cell_angle_gamma   90.00000000
_symmetry_Int_Tables_number   1
_chemical_formula_structural   CoBH18Br2(N3F2)2
_chemical_formula_sum   'Co4 B4 H72 Br8 N24 F16'
_cell_volume   1259.12811611
_cell_formula_units_Z   4
loop_
 _symmetry_equiv_pos_site_id
 _symmetry_equiv_pos_as_xyz
  1  'x, y, z'
loop_
 _atom_site_type_symbol
 _atom_site_label
 _atom_site_symmetry_multiplicity
 _atom_site_fract_x
 _atom_site_fract_y
 _atom_site_fract_z
 _atom_site_occupancy
  Co  Co0  1  0.00000000  0.00000000  0.00000000  1
  Co  Co1  1  0.00000000  0.50000000  0.50000000  1
  Co  Co2  1  0.50000000  0.50000000  0.00000000  1
  Co  Co3  1  0.50000000  0.00000000  0.50000000  1
  B  B4  1  0.04309385  0.77348736  0.30460033  1
  B  B5  1  0.45690615  0.27348736  0.30460033  1
  B  B6  1  0.54309385  0.72651264  0.69539967  1
  B  B7  1  0.95690615  0.22651264  0.69539967  1
  H  H8  1  0.37588399  0.15734836  0.65550491  1
  H  H9  1  0.84856148  0.89492359  0.83302253  1
  H  H10  1  0.22086749  0.97438274  0.39669366  1
  H  H11  1  0.84558843  0.18388304  0.09487172  1
  H  H12  1  0.52990885  0.31958515  0.04757006  1
  H  H13  1  0.06932836  0.28577521  0.43696607  1
  H  H14  1  0.42614209  0.56832936  0.84991380  1
  H  H15  1  0.91422235  0.66204344  0.43773763  1
  H  H16  1  0.47009115  0.68041485  0.95242994  1
  H  H17  1  0.20259921  0.58023644  0.07440887  1
  H  H18  1  0.34381391  0.68624762  0.09518228  1
  H  H19  1  0.69710805  0.41187687  0.50207982  1
  H  H20  1  0.20024386  0.53222382  0.65420226  1
  H  H21  1  0.79975614  0.46777618  0.34579774  1
  H  H22  1  0.15143852  0.10507641  0.16697747  1
  H  H23  1  0.30428885  0.91244461  0.95449471  1
  H  H24  1  0.29975614  0.03222382  0.65420226  1
  H  H25  1  0.57385791  0.43167064  0.15008620  1
  H  H26  1  0.75522986  0.64095851  0.50683752  1
  H  H27  1  0.77913251  0.02561726  0.60330634  1
  H  H28  1  0.70143571  0.59208304  0.15238864  1
  H  H29  1  0.84381391  0.81375238  0.90481772  1
  H  H30  1  0.18867698  0.59405541  0.39954144  1
  H  H31  1  0.80289195  0.91187687  0.50207982  1
  H  H32  1  0.43067164  0.78577521  0.43696607  1
  H  H33  1  0.34558843  0.31611696  0.90512828  1
  H  H34  1  0.62860225  0.60139211  0.88653177  1
  H  H35  1  0.37139775  0.39860789  0.11346823  1
  H  H36  1  0.34856148  0.60507641  0.16697747  1
  H  H37  1  0.56932836  0.21422479  0.56303393  1
  H  H38  1  0.99594413  0.42628817  0.30281256  1
  H  H39  1  0.24477014  0.35904149  0.49316248  1
  H  H40  1  0.69571115  0.08755539  0.04550529  1
  H  H41  1  0.20143571  0.90791696  0.84761136  1
  H  H42  1  0.49594413  0.07371183  0.69718744  1
  H  H43  1  0.12411601  0.65734836  0.65550491  1
  H  H44  1  0.80428885  0.58755539  0.04550529  1
  H  H45  1  0.00405587  0.57371183  0.69718744  1
  H  H46  1  0.29740079  0.08023644  0.07440887  1
  H  H47  1  0.50405587  0.92628817  0.30281256  1
  H  H48  1  0.07385791  0.06832936  0.84991380  1
  H  H49  1  0.58577765  0.16204344  0.43773763  1
  H  H50  1  0.97009115  0.81958515  0.04757006  1
  H  H51  1  0.25522986  0.85904149  0.49316248  1
  H  H52  1  0.27913251  0.47438274  0.39669366  1
  H  H53  1  0.12860225  0.89860789  0.11346823  1
  H  H54  1  0.29856429  0.40791696  0.84761136  1
  H  H55  1  0.15441157  0.81611696  0.90512828  1
  H  H56  1  0.72086749  0.52561726  0.60330634  1
  H  H57  1  0.65618609  0.31375238  0.90481772  1
  H  H58  1  0.19710805  0.08812313  0.49792018  1
  H  H59  1  0.70024386  0.96777618  0.34579774  1
  H  H60  1  0.65143852  0.39492359  0.83302253  1
  H  H61  1  0.93067164  0.71422479  0.56303393  1
  H  H62  1  0.81132302  0.40594459  0.60045856  1
  H  H63  1  0.30289195  0.58812313  0.49792018  1
  H  H64  1  0.15618609  0.18624762  0.09518228  1
  H  H65  1  0.08577765  0.33795656  0.56226237  1
  H  H66  1  0.65441157  0.68388304  0.09487172  1
  H  H67  1  0.87588399  0.34265164  0.34449509  1
  H  H68  1  0.74477014  0.14095851  0.50683752  1
  H  H69  1  0.62411601  0.84265164  0.34449509  1
  H  H70  1  0.68867698  0.90594459  0.60045856  1
  H  H71  1  0.31132302  0.09405541  0.39954144  1
  H  H72  1  0.79740079  0.41976356  0.92559113  1
  H  H73  1  0.02990885  0.18041485  0.95242994  1
  H  H74  1  0.87139775  0.10139211  0.88653177  1
  H  H75  1  0.70259921  0.91976356  0.92559113  1
  H  H76  1  0.41422235  0.83795656  0.56226237  1
  H  H77  1  0.92614209  0.93167064  0.15008620  1
  H  H78  1  0.19571115  0.41244461  0.95449471  1
  H  H79  1  0.79856429  0.09208304  0.15238864  1
  Br  Br80  1  0.49072008  0.87025445  0.08862979  1
  Br  Br81  1  0.07221925  0.88222586  0.67685563  1
  Br  Br82  1  0.99072008  0.62974555  0.91137021  1
  Br  Br83  1  0.42778075  0.38222586  0.67685563  1
  Br  Br84  1  0.92778075  0.11777414  0.32314437  1
  Br  Br85  1  0.50927992  0.12974555  0.91137021  1
  Br  Br86  1  0.57221925  0.61777414  0.32314437  1
  Br  Br87  1  0.00927992  0.37025445  0.08862979  1
  N  N88  1  0.49548232  0.40291283  0.08713308  1
  N  N89  1  0.31465695  0.40052677  0.91841569  1
  N  N90  1  0.71438463  0.95560155  0.55624564  1
  N  N91  1  0.40937669  0.07310160  0.64081286  1
  N  N92  1  0.61155384  0.14451873  0.50309497  1
  N  N93  1  0.90937669  0.42689840  0.35918714  1
  N  N94  1  0.17038806  0.10308668  0.09342889  1
  N  N95  1  0.18534305  0.90052677  0.91841569  1
  N  N96  1  0.11155384  0.35548127  0.49690503  1
  N  N97  1  0.50451768  0.59708717  0.91286692  1
  N  N98  1  0.99548232  0.09708717  0.91286692  1
  N  N99  1  0.82961194  0.89691332  0.90657111  1
  N  N100  1  0.81465695  0.09947323  0.08158431  1
  N  N101  1  0.59062331  0.92689840  0.35918714  1
  N  N102  1  0.67038806  0.39691332  0.90657111  1
  N  N103  1  0.68534305  0.59947323  0.08158431  1
  N  N104  1  0.21438463  0.54439845  0.44375436  1
  N  N105  1  0.09062331  0.57310160  0.64081286  1
  N  N106  1  0.28561537  0.04439845  0.44375436  1
  N  N107  1  0.32961194  0.60308668  0.09342889  1
  N  N108  1  0.78561537  0.45560155  0.55624564  1
  N  N109  1  0.38844616  0.85548127  0.49690503  1
  N  N110  1  0.88844616  0.64451873  0.50309497  1
  N  N111  1  0.00451768  0.90291283  0.08713308  1
  F  F112  1  0.20215229  0.81850314  0.28285305  1
  F  F113  1  0.42921034  0.16063541  0.30588214  1
  F  F114  1  0.98943859  0.84263833  0.40493755  1
  F  F115  1  0.58428092  0.27435407  0.23348012  1
  F  F116  1  0.48943859  0.65736167  0.59506245  1
  F  F117  1  0.41571908  0.72564593  0.76651988  1
  F  F118  1  0.08428092  0.22564593  0.76651988  1
  F  F119  1  0.79784771  0.18149686  0.71714695  1
  F  F120  1  0.91571908  0.77435407  0.23348012  1
  F  F121  1  0.29784771  0.31850314  0.28285305  1
  F  F122  1  0.57078966  0.83936459  0.69411786  1
  F  F123  1  0.51056141  0.34263833  0.40493755  1
  F  F124  1  0.92921034  0.33936459  0.69411786  1
  F  F125  1  0.70215229  0.68149686  0.71714695  1
  F  F126  1  0.01056141  0.15736167  0.59506245  1
  F  F127  1  0.07078966  0.66063541  0.30588214  1
