# generated using pymatgen
data_NaV6O11
_symmetry_space_group_name_H-M   'P 1'
_cell_length_a   5.84258401
_cell_length_b   5.91421482
_cell_length_c   13.28001585
_cell_angle_alpha   90.00000000
_cell_angle_beta   90.00000000
_cell_angle_gamma   119.60014659
_symmetry_Int_Tables_number   1
_chemical_formula_structural   NaV6O11
_chemical_formula_sum   'Na2 V12 O22'
_cell_volume   398.99465382
_cell_formula_units_Z   2
loop_
 _symmetry_equiv_pos_site_id
 _symmetry_equiv_pos_as_xyz
  1  'x, y, z'
loop_
 _atom_site_type_symbol
 _atom_site_label
 _atom_site_symmetry_multiplicity
 _atom_site_fract_x
 _atom_site_fract_y
 _atom_site_fract_z
 _atom_site_occupancy
  Na  Na0  1  0.33628085  0.67256171  0.23459439  1
  Na  Na1  1  0.66371915  0.32743829  0.73459439  1
  V  V2  1  0.99928209  0.50036078  0.00009413  1
  V  V3  1  0.33076344  0.66152688  0.75252384  1
  V  V4  1  0.50107869  0.50036078  0.00009413  1
  V  V5  1  0.00186565  0.00373130  0.85380014  1
  V  V6  1  -0.00067804  -0.00135508  0.14554256  1
  V  V7  1  1.00067804  1.00135508  0.64554256  1
  V  V8  1  0.50114421  0.00228742  0.00007899  1
  V  V9  1  0.66923656  0.33847312  0.25252384  1
  V  V10  1  0.00071791  0.49963922  0.50009413  1
  V  V11  1  0.49885579  0.99771258  0.50007899  1
  V  V12  1  0.99813435  0.99626870  0.35380014  1
  V  V13  1  0.49892131  0.49963922  0.50009413  1
  O  O14  1  0.82575908  0.65151816  0.92417247  1
  O  O15  1  0.15737176  0.85535710  0.75078541  1
  O  O16  1  0.32767590  0.65535181  0.58812200  1
  O  O17  1  0.16302321  0.81774975  0.42307373  1
  O  O18  1  0.34527346  0.18225025  0.92307373  1
  O  O19  1  0.67120727  0.34241555  0.41222200  1
  O  O20  1  0.82316434  0.64632968  0.57830010  1
  O  O21  1  0.34772488  0.18047874  0.57837103  1
  O  O22  1  0.32879273  0.65758445  0.91222200  1
  O  O23  1  0.16724614  0.81952126  0.07837103  1
  O  O24  1  0.15987099  0.31974097  0.74999490  1
  O  O25  1  0.65472654  0.81774975  0.42307373  1
  O  O26  1  0.17683566  0.35367032  0.07830010  1
  O  O27  1  0.17424092  0.34848184  0.42417247  1
  O  O28  1  0.67232410  0.34464819  0.08812200  1
  O  O29  1  0.84262824  0.14464290  0.25078541  1
  O  O30  1  0.65227512  0.81952126  0.07837103  1
  O  O31  1  0.69798534  0.85535710  0.75078541  1
  O  O32  1  0.84012901  0.68025903  0.24999490  1
  O  O33  1  0.30201466  0.14464290  0.25078541  1
  O  O34  1  0.83697679  0.18225025  0.92307373  1
  O  O35  1  0.83275386  0.18047874  0.57837103  1
