# generated using pymatgen
data_CsReCl4
_symmetry_space_group_name_H-M   'P 1'
_cell_length_a   10.19301818
_cell_length_b   10.19301787
_cell_length_c   10.96821318
_cell_angle_alpha   90.00000000
_cell_angle_beta   90.00000000
_cell_angle_gamma   89.65230570
_symmetry_Int_Tables_number   1
_chemical_formula_structural   CsReCl4
_chemical_formula_sum   'Cs6 Re6 Cl24'
_cell_volume   1139.55022409
_cell_formula_units_Z   6
loop_
 _symmetry_equiv_pos_site_id
 _symmetry_equiv_pos_as_xyz
  1  'x, y, z'
loop_
 _atom_site_type_symbol
 _atom_site_label
 _atom_site_symmetry_multiplicity
 _atom_site_fract_x
 _atom_site_fract_y
 _atom_site_fract_z
 _atom_site_occupancy
  Cs  Cs0  1  0.80307545  0.55792552  0.75000000  1
  Cs  Cs1  1  0.48344539  0.70098378  0.25000000  1
  Cs  Cs2  1  0.29901622  0.51655461  0.75000000  1
  Cs  Cs3  1  0.00089430  0.99910570  0.00000000  1
  Cs  Cs4  1  0.44207448  0.19692455  0.25000000  1
  Cs  Cs5  1  0.00089430  0.99910570  0.50000000  1
  Re  Re6  1  0.01365062  0.55179224  0.36287381  1
  Re  Re7  1  0.44820776  0.98634938  0.63712619  1
  Re  Re8  1  0.63581878  0.07926393  0.75000000  1
  Re  Re9  1  0.44820776  0.98634938  0.86287381  1
  Re  Re10  1  0.92073607  0.36418122  0.25000000  1
  Re  Re11  1  0.01365062  0.55179224  0.13712619  1
  Cl  Cl12  1  0.52660221  0.77308548  0.89839564  1
  Cl  Cl13  1  0.69999697  0.42636095  0.25000000  1
  Cl  Cl14  1  0.32927870  0.17845006  0.60238859  1
  Cl  Cl15  1  0.06561427  0.66408596  0.92913677  1
  Cl  Cl16  1  0.63439545  0.07702011  0.97178448  1
  Cl  Cl17  1  0.77526944  0.89679230  0.75000000  1
  Cl  Cl18  1  0.22691452  0.47339779  0.39839564  1
  Cl  Cl19  1  0.33591404  0.93438573  0.42913677  1
  Cl  Cl20  1  0.82154994  0.67072130  0.39761141  1
  Cl  Cl21  1  0.57363905  0.30000303  0.75000000  1
  Cl  Cl22  1  0.92297989  0.36560455  0.47178448  1
  Cl  Cl23  1  0.26423416  0.89579397  0.75000000  1
  Cl  Cl24  1  0.92297989  0.36560455  0.02821552  1
  Cl  Cl25  1  0.22691452  0.47339779  0.10160436  1
  Cl  Cl26  1  0.63439545  0.07702011  0.52821552  1
  Cl  Cl27  1  0.86592790  0.19125105  0.75000000  1
  Cl  Cl28  1  0.06561427  0.66408596  0.57086323  1
  Cl  Cl29  1  0.32927870  0.17845006  0.89761141  1
  Cl  Cl30  1  0.10320770  0.22473056  0.25000000  1
  Cl  Cl31  1  0.82154994  0.67072130  0.10238859  1
  Cl  Cl32  1  0.52660221  0.77308548  0.60160436  1
  Cl  Cl33  1  0.33591404  0.93438573  0.07086323  1
  Cl  Cl34  1  0.10420603  0.73576584  0.25000000  1
  Cl  Cl35  1  0.80874895  0.13407210  0.25000000  1
