# generated using pymatgen
data_Na2MgSi5O12
_symmetry_space_group_name_H-M   'P 1'
_cell_length_a   9.98520883
_cell_length_b   9.98520883
_cell_length_c   9.98520883
_cell_angle_alpha   70.66814217
_cell_angle_beta   70.34555148
_cell_angle_gamma   109.42752512
_symmetry_Int_Tables_number   1
_chemical_formula_structural   Na2MgSi5O12
_chemical_formula_sum   'Na8 Mg4 Si20 O48'
_cell_volume   766.38312244
_cell_formula_units_Z   4
loop_
 _symmetry_equiv_pos_site_id
 _symmetry_equiv_pos_as_xyz
  1  'x, y, z'
loop_
 _atom_site_type_symbol
 _atom_site_label
 _atom_site_symmetry_multiplicity
 _atom_site_fract_x
 _atom_site_fract_y
 _atom_site_fract_z
 _atom_site_occupancy
  Na  Na0  1  0.12396731  0.87396731  0.75000000  1
  Na  Na1  1  0.62396731  0.37396731  0.75000000  1
  Na  Na2  1  0.87603269  0.12603269  0.25000000  1
  Na  Na3  1  0.37603269  0.62603269  0.25000000  1
  Na  Na4  1  0.75000000  0.37363378  0.37636622  1
  Na  Na5  1  0.25000000  0.62636622  0.62363378  1
  Na  Na6  1  0.75000000  0.87363378  0.87636622  1
  Na  Na7  1  0.25000000  0.12636622  0.12363378  1
  Mg  Mg8  1  0.37480484  0.75000000  0.87519516  1
  Mg  Mg9  1  0.87480484  0.75000000  0.37519516  1
  Mg  Mg10  1  0.62519516  0.25000000  0.12480484  1
  Mg  Mg11  1  0.12519516  0.25000000  0.62480484  1
  Si  Si12  1  0.62480503  0.75000000  0.62519497  1
  Si  Si13  1  0.12480503  0.75000000  0.12519497  1
  Si  Si14  1  0.75000000  0.62554378  0.12445622  1
  Si  Si15  1  0.25000000  0.37445622  0.87554378  1
  Si  Si16  1  0.37519497  0.25000000  0.37480503  1
  Si  Si17  1  0.87519497  0.25000000  0.87480503  1
  Si  Si18  1  0.75000000  0.12554378  0.62445622  1
  Si  Si19  1  0.25000000  0.87445622  0.37554378  1
  Si  Si20  1  0.37600167  0.12600167  0.75000000  1
  Si  Si21  1  0.87600167  0.62600167  0.75000000  1
  Si  Si22  1  0.12399833  0.37399833  0.25000000  1
  Si  Si23  1  0.62399833  0.87399833  0.25000000  1
  Si  Si24  1  0.00000000  0.50000000  0.00000000  1
  Si  Si25  1  0.50000000  0.50000000  0.50000000  1
  Si  Si26  1  0.50000000  0.00000000  0.50000000  1
  Si  Si27  1  0.00000000  0.50000000  0.50000000  1
  Si  Si28  1  0.50000000  0.00000000  0.00000000  1
  Si  Si29  1  0.00000000  0.00000000  0.50000000  1
  Si  Si30  1  0.50000000  0.50000000  0.00000000  1
  Si  Si31  1  0.00000000  0.00000000  0.00000000  1
  O  O32  1  0.12015490  0.69062496  0.98953091  1
  O  O33  1  0.62015490  0.60968582  0.57047005  1
  O  O34  1  0.68782623  0.10742100  0.49500229  1
  O  O35  1  0.18782623  0.68282852  0.41959477  1
  O  O36  1  0.87984510  0.30937504  0.01046909  1
  O  O37  1  0.37984510  0.39031418  0.42952995  1
  O  O38  1  0.31217377  0.89257900  0.50499771  1
  O  O39  1  0.81217377  0.31717148  0.58040523  1
  O  O40  1  0.68015587  0.19062496  0.92952995  1
  O  O41  1  0.18015587  0.10968582  0.51046909  1
  O  O42  1  0.60242329  0.60742100  0.08040523  1
  O  O43  1  0.10242329  0.18282852  0.00499771  1
  O  O44  1  0.31984413  0.80937504  0.07047005  1
  O  O45  1  0.81984413  0.89031418  0.48953091  1
  O  O46  1  0.39757671  0.39257900  0.91959477  1
  O  O47  1  0.89757671  0.81717148  0.99500229  1
  O  O48  1  0.00493783  0.60776790  0.81268531  1
  O  O49  1  0.50493783  0.31762315  0.60283007  1
  O  O50  1  0.60992527  0.00795094  0.30998156  1
  O  O51  1  0.10992527  0.41990683  0.39802567  1
  O  O52  1  0.99506217  0.39223210  0.18731469  1
  O  O53  1  0.49506217  0.68237685  0.39716993  1
  O  O54  1  0.39007473  0.99204906  0.69001844  1
  O  O55  1  0.89007473  0.58009317  0.60197433  1
  O  O56  1  0.42045321  0.10776790  0.89716993  1
  O  O57  1  0.92045321  0.81762315  0.68731469  1
  O  O58  1  0.31793250  0.50795094  0.10197433  1
  O  O59  1  0.81793250  0.91990683  0.19001844  1
  O  O60  1  0.57954679  0.89223210  0.10283007  1
  O  O61  1  0.07954679  0.18237685  0.31268531  1
  O  O62  1  0.68206750  0.49204906  0.89802567  1
  O  O63  1  0.18206750  0.08009317  0.80998156  1
  O  O64  1  0.19109346  0.50914576  0.88961660  1
  O  O65  1  0.69109346  0.58071006  0.31805230  1
  O  O66  1  0.51134495  0.19076898  0.37913898  1
  O  O67  1  0.01134495  0.39048393  0.67942403  1
  O  O68  1  0.80890654  0.49085424  0.11038340  1
  O  O69  1  0.30890654  0.41928994  0.68194770  1
  O  O70  1  0.48865505  0.80923102  0.62086102  1
  O  O71  1  0.98865505  0.60951607  0.32057597  1
  O  O72  1  0.39876236  0.00914576  0.18194770  1
  O  O73  1  0.89876236  0.08071006  0.61038340  1
  O  O74  1  0.56990796  0.69076898  0.82057597  1
  O  O75  1  0.06990796  0.89048393  0.12086102  1
  O  O76  1  0.60123764  0.99085424  0.81805230  1
  O  O77  1  0.10123764  0.91928994  0.38961660  1
  O  O78  1  0.43009204  0.30923102  0.17942403  1
  O  O79  1  0.93009204  0.10951607  0.87913898  1
