# generated using pymatgen
data_Ca2Sb4Pd3
_symmetry_space_group_name_H-M   'P 1'
_cell_length_a   4.51526075
_cell_length_b   4.51526078
_cell_length_c   21.38813431
_cell_angle_alpha   96.05916271
_cell_angle_beta   96.05916275
_cell_angle_gamma   89.99999501
_symmetry_Int_Tables_number   1
_chemical_formula_structural   Ca2Sb4Pd3
_chemical_formula_sum   'Ca4 Sb8 Pd6'
_cell_volume   431.16645899
_cell_formula_units_Z   2
loop_
 _symmetry_equiv_pos_site_id
 _symmetry_equiv_pos_as_xyz
  1  'x, y, z'
loop_
 _atom_site_type_symbol
 _atom_site_label
 _atom_site_symmetry_multiplicity
 _atom_site_fract_x
 _atom_site_fract_y
 _atom_site_fract_z
 _atom_site_occupancy
  Ca  Ca0  1  0.81252414  0.81252414  0.62504828  1
  Ca  Ca1  1  0.18747586  0.18747586  0.37495172  1
  Ca  Ca2  1  0.94451474  0.94451474  0.88902947  1
  Ca  Ca3  1  0.05548526  0.05548526  0.11097053  1
  Sb  Sb4  1  0.11822177  0.61822177  0.23644355  1
  Sb  Sb5  1  0.71558106  0.71558106  0.43116213  1
  Sb  Sb6  1  0.38177823  0.88177823  0.76355645  1
  Sb  Sb7  1  0.53724216  0.53724216  0.07448431  1
  Sb  Sb8  1  0.88177823  0.38177823  0.76355645  1
  Sb  Sb9  1  0.46275784  0.46275784  0.92551569  1
  Sb  Sb10  1  0.61822177  0.11822177  0.23644355  1
  Sb  Sb11  1  0.28441894  0.28441894  0.56883787  1
  Pd  Pd12  1  0.65391669  0.65391669  0.30783339  1
  Pd  Pd13  1  0.25000000  0.75000000  0.50000000  1
  Pd  Pd14  1  0.75000000  0.25000000  0.50000000  1
  Pd  Pd15  1  0.34608331  0.34608331  0.69216661  1
  Pd  Pd16  1  0.00000000  0.50000000  0.00000000  1
  Pd  Pd17  1  0.50000000  0.00000000  0.00000000  1
