# generated using pymatgen
data_Sr8Mn2FeN8
_symmetry_space_group_name_H-M   'P 1'
_cell_length_a   5.33747153
_cell_length_b   7.56478003
_cell_length_c   9.80521997
_cell_angle_alpha   105.54859016
_cell_angle_beta   105.79373126
_cell_angle_gamma   89.99999977
_symmetry_Int_Tables_number   1
_chemical_formula_structural   Sr8Mn2FeN8
_chemical_formula_sum   'Sr8 Mn2 Fe1 N8'
_cell_volume   365.87707409
_cell_formula_units_Z   1
loop_
 _symmetry_equiv_pos_site_id
 _symmetry_equiv_pos_as_xyz
  1  'x, y, z'
loop_
 _atom_site_type_symbol
 _atom_site_label
 _atom_site_symmetry_multiplicity
 _atom_site_fract_x
 _atom_site_fract_y
 _atom_site_fract_z
 _atom_site_occupancy
  Sr  Sr0  1  0.40383030  0.03427991  0.80766060  1
  Sr  Sr1  1  0.33285826  0.53344761  0.66571652  1
  Sr  Sr2  1  0.97094073  0.74141103  0.94188147  1
  Sr  Sr3  1  0.19930605  0.80650838  0.39861211  1
  Sr  Sr4  1  0.80069395  0.19349162  0.60138789  1
  Sr  Sr5  1  0.02905927  0.25858897  0.05811853  1
  Sr  Sr6  1  0.66714174  0.46655239  0.33428348  1
  Sr  Sr7  1  0.59616970  0.96572009  0.19233940  1
  Mn  Mn8  1  0.81221094  0.79366267  0.62442189  1
  Mn  Mn9  1  0.18778906  0.20633733  0.37557811  1
  Fe  Fe10  1  0.50000000  0.50000000  0.00000000  1
  N  N11  1  0.27569082  0.17203642  0.55138164  1
  N  N12  1  0.82223682  0.57357645  0.64447364  1
  N  N13  1  0.10775315  0.01495568  0.21550630  1
  N  N14  1  0.89224685  0.98504432  0.78449370  1
  N  N15  1  0.17776318  0.42642355  0.35552636  1
  N  N16  1  0.47464295  0.71750816  0.94928591  1
  N  N17  1  0.72430918  0.82796358  0.44861836  1
  N  N18  1  0.52535705  0.28249184  0.05071409  1
