# generated using pymatgen
data_CuHg3As2Br3
_symmetry_space_group_name_H-M   'P 1'
_cell_length_a   9.52823925
_cell_length_b   13.56855385
_cell_length_c   14.15100517
_cell_angle_alpha   67.39114370
_cell_angle_beta   70.32630590
_cell_angle_gamma   69.44448664
_symmetry_Int_Tables_number   1
_chemical_formula_structural   CuHg3As2Br3
_chemical_formula_sum   'Cu6 Hg18 As12 Br18'
_cell_volume   1537.73172571
_cell_formula_units_Z   6
loop_
 _symmetry_equiv_pos_site_id
 _symmetry_equiv_pos_as_xyz
  1  'x, y, z'
loop_
 _atom_site_type_symbol
 _atom_site_label
 _atom_site_symmetry_multiplicity
 _atom_site_fract_x
 _atom_site_fract_y
 _atom_site_fract_z
 _atom_site_occupancy
  Cu  Cu0  1  0.38656386  0.25000000  0.75000000  1
  Cu  Cu1  1  0.61343614  0.75000000  0.25000000  1
  Cu  Cu2  1  0.59628615  0.54963150  0.78991452  1
  Cu  Cu3  1  0.40371385  0.45036850  0.21008548  1
  Cu  Cu4  1  0.06416783  0.04963150  0.28991452  1
  Cu  Cu5  1  0.93583217  0.95036850  0.71008548  1
  Hg  Hg6  1  0.46544362  0.91237845  0.75079185  1
  Hg  Hg7  1  0.82120112  0.25000000  0.75000000  1
  Hg  Hg8  1  0.33141032  0.32877593  0.00121865  1
  Hg  Hg9  1  0.17295096  0.16473825  0.49771080  1
  Hg  Hg10  1  0.66858968  0.67122407  0.99878135  1
  Hg  Hg11  1  0.12861392  0.58762155  0.74920815  1
  Hg  Hg12  1  0.53455638  0.08762155  0.24920815  1
  Hg  Hg13  1  0.16459999  0.66473825  0.99771080  1
  Hg  Hg14  1  0.33859510  0.82877593  0.50121865  1
  Hg  Hg15  1  0.87138608  0.41237845  0.25079185  1
  Hg  Hg16  1  0.50000000  0.50000000  0.50000000  1
  Hg  Hg17  1  0.66140490  0.17122407  0.49878135  1
  Hg  Hg18  1  0.83540001  0.33526175  0.00228920  1
  Hg  Hg19  1  0.17879888  0.75000000  0.25000000  1
  Hg  Hg20  1  0.82704904  0.83526175  0.50228920  1
  Hg  Hg21  1  0.00000000  0.00000000  0.00000000  1
  Hg  Hg22  1  0.00000000  0.50000000  0.50000000  1
  Hg  Hg23  1  0.50000000  0.00000000  0.00000000  1
  As  As24  1  0.20044002  0.81596399  0.04878161  1
  As  As25  1  0.06518561  0.68403601  0.45121839  1
  As  As26  1  0.41175515  0.01336244  0.44811553  1
  As  As27  1  0.58824485  0.98663756  0.55188447  1
  As  As28  1  0.45492680  0.85044108  0.94989163  1
  As  As29  1  0.87323313  0.48663756  0.05188447  1
  As  As30  1  0.54507320  0.14955892  0.05010837  1
  As  As31  1  0.25525951  0.64955892  0.55010837  1
  As  As32  1  0.74474049  0.35044108  0.44989163  1
  As  As33  1  0.79955998  0.18403601  0.95121839  1
  As  As34  1  0.12676687  0.51336244  0.94811553  1
  As  As35  1  0.93481439  0.31596399  0.54878161  1
  Br  Br36  1  0.59360272  0.28594284  0.26139039  1
  Br  Br37  1  0.68033175  0.69301726  0.41519486  1
  Br  Br38  1  0.10918998  0.01296996  0.74592564  1
  Br  Br39  1  0.50000000  0.50000000  0.00000000  1
  Br  Br40  1  0.78854387  0.80698274  0.08480514  1
  Br  Br41  1  0.85906405  0.78594284  0.76139039  1
  Br  Br42  1  0.34522582  0.90343099  0.25101554  1
  Br  Br43  1  0.65477418  0.09656901  0.74898446  1
  Br  Br44  1  0.40639728  0.71405716  0.73860961  1
  Br  Br45  1  0.14093595  0.21405716  0.23860961  1
  Br  Br46  1  0.49967234  0.59656901  0.24898446  1
  Br  Br47  1  0.86808559  0.48703004  0.75407436  1
  Br  Br48  1  0.89081002  0.98703004  0.25407436  1
  Br  Br49  1  0.31966825  0.30698274  0.58480514  1
  Br  Br50  1  0.00000000  0.00000000  0.50000000  1
  Br  Br51  1  0.13191441  0.51296996  0.24592564  1
  Br  Br52  1  0.50032766  0.40343099  0.75101554  1
  Br  Br53  1  0.21145613  0.19301726  0.91519486  1
