# generated using pymatgen
data_Dy3Al2
_symmetry_space_group_name_H-M   'P 1'
_cell_length_a   7.61136817
_cell_length_b   8.20269232
_cell_length_c   8.20269232
_cell_angle_alpha   90.00000000
_cell_angle_beta   90.00000000
_cell_angle_gamma   90.00000000
_symmetry_Int_Tables_number   1
_chemical_formula_structural   Dy3Al2
_chemical_formula_sum   'Dy12 Al8'
_cell_volume   512.12452364
_cell_formula_units_Z   4
loop_
 _symmetry_equiv_pos_site_id
 _symmetry_equiv_pos_as_xyz
  1  'x, y, z'
loop_
 _atom_site_type_symbol
 _atom_site_label
 _atom_site_symmetry_multiplicity
 _atom_site_fract_x
 _atom_site_fract_y
 _atom_site_fract_z
 _atom_site_occupancy
  Dy  Dy0  1  0.50643532  0.00000000  0.50000000  1
  Dy  Dy1  1  0.75754295  0.35232386  0.64767614  1
  Dy  Dy2  1  0.50643532  0.50000000  -0.00000000  1
  Dy  Dy3  1  0.25480738  0.70358966  0.29641034  1
  Dy  Dy4  1  0.75480738  0.20358966  0.20358966  1
  Dy  Dy5  1  0.00643532  0.00000000  0.50000000  1
  Dy  Dy6  1  0.25754295  0.14767614  0.14767614  1
  Dy  Dy7  1  0.25480738  0.29641034  0.70358966  1
  Dy  Dy8  1  0.00643532  0.50000000  -0.00000000  1
  Dy  Dy9  1  0.25754295  0.85232386  0.85232386  1
  Dy  Dy10  1  0.75480738  0.79641034  0.79641034  1
  Dy  Dy11  1  0.75754295  0.64767614  0.35232386  1
  Al  Al12  1  0.06406710  0.62000442  0.62000442  1
  Al  Al13  1  0.44814725  0.61901027  0.61901027  1
  Al  Al14  1  0.56406710  0.87999558  0.12000442  1
  Al  Al15  1  0.94814725  0.88098973  0.11901027  1
  Al  Al16  1  0.06406710  0.37999558  0.37999558  1
  Al  Al17  1  0.94814725  0.11901027  0.88098973  1
  Al  Al18  1  0.56406710  0.12000442  0.87999558  1
  Al  Al19  1  0.44814725  0.38098973  0.38098973  1
