# generated using pymatgen
data_UAl2Pd5
_symmetry_space_group_name_H-M   'P 1'
_cell_length_a   4.19317728
_cell_length_b   4.19317695
_cell_length_c   8.01108577
_cell_angle_alpha   105.17160968
_cell_angle_beta   105.17160830
_cell_angle_gamma   90.00000312
_symmetry_Int_Tables_number   1
_chemical_formula_structural   UAl2Pd5
_chemical_formula_sum   'U1 Al2 Pd5'
_cell_volume   130.85396914
_cell_formula_units_Z   1
loop_
 _symmetry_equiv_pos_site_id
 _symmetry_equiv_pos_as_xyz
  1  'x, y, z'
loop_
 _atom_site_type_symbol
 _atom_site_label
 _atom_site_symmetry_multiplicity
 _atom_site_fract_x
 _atom_site_fract_y
 _atom_site_fract_z
 _atom_site_occupancy
  U  U0  1  0.00000000  0.00000000  0.00000000  1
  Al  Al1  1  0.25441732  0.25441732  0.50883465  1
  Al  Al2  1  0.74558268  0.74558268  0.49116535  1
  Pd  Pd3  1  0.85622410  0.35622410  0.71244821  1
  Pd  Pd4  1  0.64377590  0.14377590  0.28755179  1
  Pd  Pd5  1  0.35622410  0.85622410  0.71244821  1
  Pd  Pd6  1  0.14377590  0.64377590  0.28755179  1
  Pd  Pd7  1  0.50000000  0.50000000  0.00000000  1
