# generated using pymatgen
data_Mn2As
_symmetry_space_group_name_H-M   'P 1'
_cell_length_a   3.61500250
_cell_length_b   3.61502650
_cell_length_c   6.33491704
_cell_angle_alpha   90.00014722
_cell_angle_beta   90.00001593
_cell_angle_gamma   90.00008353
_symmetry_Int_Tables_number   1
_chemical_formula_structural   Mn2As
_chemical_formula_sum   'Mn4 As2'
_cell_volume   82.78678536
_cell_formula_units_Z   2
loop_
 _symmetry_equiv_pos_site_id
 _symmetry_equiv_pos_as_xyz
  1  'x, y, z'
loop_
 _atom_site_type_symbol
 _atom_site_label
 _atom_site_symmetry_multiplicity
 _atom_site_fract_x
 _atom_site_fract_y
 _atom_site_fract_z
 _atom_site_occupancy
  Mn  Mn0  1  0.25000044  0.24999875  0.35281832  1
  Mn  Mn1  1  0.25000637  0.74999640  0.00002496  1
  Mn  Mn2  1  0.74999391  0.25000275  0.00002358  1
  Mn  Mn3  1  0.74999917  0.75000002  0.64716328  1
  As  As4  1  0.25000017  0.25000136  0.73832560  1
  As  As5  1  0.74999993  0.75000072  0.26164426  1
