# generated using pymatgen
data_Li2NiP2O7
_symmetry_space_group_name_H-M   'P 1'
_cell_length_a   9.28232360
_cell_length_b   8.12952138
_cell_length_c   9.28249069
_cell_angle_alpha   70.73447565
_cell_angle_beta   148.66911168
_cell_angle_gamma   119.76395738
_symmetry_Int_Tables_number   1
_chemical_formula_structural   Li2NiP2O7
_chemical_formula_sum   'Li4 Ni2 P4 O14'
_cell_volume   309.23211677
_cell_formula_units_Z   2
loop_
 _symmetry_equiv_pos_site_id
 _symmetry_equiv_pos_as_xyz
  1  'x, y, z'
loop_
 _atom_site_type_symbol
 _atom_site_label
 _atom_site_symmetry_multiplicity
 _atom_site_fract_x
 _atom_site_fract_y
 _atom_site_fract_z
 _atom_site_occupancy
  Li  Li0  1  0.71980468  0.17406986  0.66711448  1
  Li  Li1  1  0.49300989  0.32591371  0.04569859  1
  Li  Li2  1  0.28019532  0.82593014  0.33288552  1
  Li  Li3  1  0.50699011  0.67408629  0.95430141  1
  Ni  Ni4  1  0.00000000  0.50000000  0.00000000  1
  Ni  Ni5  1  0.50000000  0.00000000  0.00000000  1
  P  P6  1  0.92394366  0.88786584  0.74080413  1
  P  P7  1  0.14707515  0.38791473  0.46393025  1
  P  P8  1  0.85292485  0.61208527  0.53606975  1
  P  P9  1  0.07605634  0.11213416  0.25919587  1
  O  O10  1  0.80845599  0.25460471  0.25295971  1
  O  O11  1  0.64359387  0.53522547  0.25121586  1
  O  O12  1  0.35640613  0.46477453  0.74878414  1
  O  O13  1  0.83381930  0.45245118  0.67115979  1
  O  O14  1  0.27085747  0.25001673  0.52084056  1
  O  O15  1  0.16617970  0.54754882  0.32884021  1
  O  O16  1  0.71590367  0.96474232  0.60832330  1
  O  O17  1  0.99836808  0.24540906  0.05385322  1
  O  O18  1  0.72914253  0.74998327  0.47915944  1
  O  O19  1  0.19154501  0.74539529  0.74704129  1
  O  O20  1  0.28409533  0.03525768  0.39167670  1
  O  O21  1  0.00163192  0.75459094  0.94614678  1
  O  O22  1  0.78136178  0.95250269  0.11865995  1
  O  O23  1  0.21863822  0.04749831  0.88134005  1
