# generated using pymatgen
data_Mg5Mn3Zn4(SiO6)4
_symmetry_space_group_name_H-M   'P 1'
_cell_length_a   5.16252297
_cell_length_b   5.16252297
_cell_length_c   18.23781443
_cell_angle_alpha   89.77026908
_cell_angle_beta   90.22973092
_cell_angle_gamma   108.25807511
_symmetry_Int_Tables_number   1
_chemical_formula_structural   Mg5Mn3Zn4(SiO6)4
_chemical_formula_sum   'Mg5 Mn3 Zn4 Si4 O24'
_cell_volume   461.59098636
_cell_formula_units_Z   1
loop_
 _symmetry_equiv_pos_site_id
 _symmetry_equiv_pos_as_xyz
  1  'x, y, z'
loop_
 _atom_site_type_symbol
 _atom_site_label
 _atom_site_symmetry_multiplicity
 _atom_site_fract_x
 _atom_site_fract_y
 _atom_site_fract_z
 _atom_site_occupancy
  Mg  Mg0  1  0.99501534  0.49229038  0.99839705  1
  Mg  Mg1  1  0.50770962  0.00498466  0.99839705  1
  Mg  Mg2  1  0.00026683  0.49954194  0.49999458  1
  Mg  Mg3  1  0.50045806  0.99973317  0.49999458  1
  Mg  Mg4  1  0.00268052  0.99731948  0.10287055  1
  Mn  Mn5  1  0.98378284  0.01621716  0.91112332  1
  Mn  Mn6  1  0.48318473  0.51681527  0.58347043  1
  Mn  Mn7  1  0.51727444  0.48272556  0.41671302  1
  Zn  Zn8  1  0.15471890  0.35274549  0.25224842  1
  Zn  Zn9  1  0.34963572  0.15115285  0.74924519  1
  Zn  Zn10  1  0.84884715  0.65036428  0.74924519  1
  Zn  Zn11  1  0.64725451  0.84528110  0.25224842  1
  Si  Si12  1  0.64209369  0.35790631  0.15407608  1
  Si  Si13  1  0.35748071  0.64251929  0.84681398  1
  Si  Si14  1  0.85623085  0.14376915  0.65258264  1
  Si  Si15  1  0.14277243  0.85722757  0.34840383  1
  O  O16  1  0.81258491  0.80282236  0.99272289  1
  O  O17  1  0.29579687  0.29576750  0.50021183  1
  O  O18  1  0.19717764  0.18741509  0.99272289  1
  O  O19  1  0.70423250  0.70420313  0.50021183  1
  O  O20  1  0.23089032  0.76910968  0.06738749  1
  O  O21  1  0.77124938  0.22875062  0.92266447  1
  O  O22  1  0.27131928  0.72868072  0.57365360  1
  O  O23  1  0.72917765  0.27082235  0.42677470  1
  O  O24  1  0.75047076  0.24952924  0.07857293  1
  O  O25  1  0.24345055  0.75654945  0.91960402  1
  O  O26  1  0.73936924  0.26063076  0.57932359  1
  O  O27  1  0.26081392  0.73918608  0.42131839  1
  O  O28  1  0.74844089  0.69240057  0.16131619  1
  O  O29  1  0.69833039  0.75674911  0.84225565  1
  O  O30  1  0.19712347  0.25749726  0.65625136  1
  O  O31  1  0.25898020  0.19832104  0.34539774  1
  O  O32  1  0.24325089  0.30166961  0.84225565  1
  O  O33  1  0.30759943  0.25155911  0.16131619  1
  O  O34  1  0.80167896  0.74101980  0.34539774  1
  O  O35  1  0.74250274  0.80287653  0.65625136  1
  O  O36  1  0.77153926  0.22846074  0.22330374  1
  O  O37  1  0.23763732  0.76236268  0.77441144  1
  O  O38  1  0.73842457  0.26157543  0.72507714  1
  O  O39  1  0.25855254  0.74144746  0.27577285  1
