# generated using pymatgen
data_Ce4(GeS4)3
_symmetry_space_group_name_H-M   'P 1'
_cell_length_a   11.55547482
_cell_length_b   11.55402765
_cell_length_c   11.55438591
_cell_angle_alpha   114.77517580
_cell_angle_beta   114.78482390
_cell_angle_gamma   114.78256514
_symmetry_Int_Tables_number   1
_chemical_formula_structural   Ce4(GeS4)3
_chemical_formula_sum   'Ce8 Ge6 S24'
_cell_volume   880.34802992
_cell_formula_units_Z   2
loop_
 _symmetry_equiv_pos_site_id
 _symmetry_equiv_pos_as_xyz
  1  'x, y, z'
loop_
 _atom_site_type_symbol
 _atom_site_label
 _atom_site_symmetry_multiplicity
 _atom_site_fract_x
 _atom_site_fract_y
 _atom_site_fract_z
 _atom_site_occupancy
  Ce  Ce0  1  0.47215714  0.93186807  0.70770553  1
  Ce  Ce1  1  0.93185054  0.70764804  0.47210925  1
  Ce  Ce2  1  0.97209841  0.20762587  0.43182824  1
  Ce  Ce3  1  0.70764571  0.47212313  0.93184108  1
  Ce  Ce4  1  0.43182653  0.97209029  0.20764841  1
  Ce  Ce5  1  0.99978162  0.99979309  0.99979567  1
  Ce  Ce6  1  0.20765513  0.43182428  0.97211854  1
  Ce  Ce7  1  0.49981556  0.49981861  0.49983398  1
  Ge  Ge8  1  0.85432429  0.46698578  0.64157965  1
  Ge  Ge9  1  0.35432988  0.14158624  0.96698709  1
  Ge  Ge10  1  0.14157066  0.96699167  0.35434198  1
  Ge  Ge11  1  0.64160261  0.85435696  0.46700290  1
  Ge  Ge12  1  0.46698393  0.64156553  0.85431943  1
  Ge  Ge13  1  0.96697061  0.35432190  0.14157717  1
  S  S14  1  0.87339214  0.68890888  0.68851995  1
  S  S15  1  0.18887426  0.37337207  0.18848574  1
  S  S16  1  0.60947631  0.29546679  0.58325173  1
  S  S17  1  0.29544421  0.58324327  0.60945619  1
  S  S18  1  0.38354668  0.78159994  0.31318934  1
  S  S19  1  0.68889287  0.68851661  0.87336597  1
  S  S20  1  0.58320703  0.60942145  0.29539240  1
  S  S21  1  0.88353481  0.81320307  0.28161832  1
  S  S22  1  0.85210047  0.12957113  0.58275638  1
  S  S23  1  0.62954822  0.35207848  0.08274016  1
  S  S24  1  0.12953548  0.58269125  0.85205280  1
  S  S25  1  0.10944396  0.08323355  0.79541409  1
  S  S26  1  0.79540910  0.10944928  0.08323765  1
  S  S27  1  0.18845926  0.18885831  0.37333982  1
  S  S28  1  0.37336651  0.18852029  0.18886875  1
  S  S29  1  0.08274366  0.62953082  0.35206717  1
  S  S30  1  0.31321356  0.38356833  0.78163234  1
  S  S31  1  0.35206185  0.08270664  0.62953110  1
  S  S32  1  0.81322971  0.28164332  0.88359080  1
  S  S33  1  0.28161214  0.88355860  0.81319181  1
  S  S34  1  0.78165218  0.31324675  0.38357198  1
  S  S35  1  0.58274984  0.85206163  0.12953606  1
  S  S36  1  0.68853192  0.87338654  0.68890031  1
  S  S37  1  0.08318123  0.79538356  0.10942026  1
