# generated using pymatgen
data_UAl4
_symmetry_space_group_name_H-M   'P 1'
_cell_length_a   4.35002354
_cell_length_b   6.24157610
_cell_length_c   7.88678244
_cell_angle_alpha   113.30954376
_cell_angle_beta   106.00845993
_cell_angle_gamma   90.00000220
_symmetry_Int_Tables_number   1
_chemical_formula_structural   UAl4
_chemical_formula_sum   'U2 Al8'
_cell_volume   187.58051247
_cell_formula_units_Z   2
loop_
 _symmetry_equiv_pos_site_id
 _symmetry_equiv_pos_as_xyz
  1  'x, y, z'
loop_
 _atom_site_type_symbol
 _atom_site_label
 _atom_site_symmetry_multiplicity
 _atom_site_fract_x
 _atom_site_fract_y
 _atom_site_fract_z
 _atom_site_occupancy
  U  U0  1  0.11367231  0.36367231  0.22734462  1
  U  U1  1  0.88632769  0.63632769  0.77265538  1
  Al  Al2  1  0.30213507  0.27443376  0.60427015  1
  Al  Al3  1  0.69786493  0.17016361  0.39572985  1
  Al  Al4  1  0.30213507  0.82983639  0.60427015  1
  Al  Al5  1  0.50000000  0.50000000  0.00000000  1
  Al  Al6  1  0.69786493  0.72556624  0.39572985  1
  Al  Al7  1  0.10919856  0.85919856  0.21839713  1
  Al  Al8  1  0.89080144  0.14080144  0.78160287  1
  Al  Al9  1  0.50000000  0.00000000  0.00000000  1
