# generated using pymatgen
data_Cr4P7O24
_symmetry_space_group_name_H-M   'P 1'
_cell_length_a   10.12129106
_cell_length_b   10.25432260
_cell_length_c   10.91193410
_cell_angle_alpha   112.88405854
_cell_angle_beta   109.13299477
_cell_angle_gamma   104.83893694
_symmetry_Int_Tables_number   1
_chemical_formula_structural   Cr4P7O24
_chemical_formula_sum   'Cr8 P14 O48'
_cell_volume   884.87304255
_cell_formula_units_Z   2
loop_
 _symmetry_equiv_pos_site_id
 _symmetry_equiv_pos_as_xyz
  1  'x, y, z'
loop_
 _atom_site_type_symbol
 _atom_site_label
 _atom_site_symmetry_multiplicity
 _atom_site_fract_x
 _atom_site_fract_y
 _atom_site_fract_z
 _atom_site_occupancy
  Cr  Cr0  1  0.07374742  0.68925964  0.07582862  1
  Cr  Cr1  1  0.57370818  0.41753568  0.58687238  1
  Cr  Cr2  1  0.62662446  0.77863258  0.11474798  1
  Cr  Cr3  1  0.42629182  0.58246432  0.41312762  1
  Cr  Cr4  1  0.37337554  0.22136742  0.88525202  1
  Cr  Cr5  1  0.92625258  0.31074036  0.92417138  1
  Cr  Cr6  1  0.24246593  0.84715410  0.74252780  1
  Cr  Cr7  1  0.75753407  0.15284590  0.25747220  1
  P  P8  1  0.27412363  0.13213168  0.52402339  1
  P  P9  1  0.50483280  0.27777103  0.24199831  1
  P  P10  1  0.38309426  0.93810978  0.11649061  1
  P  P11  1  0.23996328  0.80796488  0.43356972  1
  P  P12  1  0.72587637  0.86786832  0.47597661  1
  P  P13  1  0.61690574  0.06189022  0.88350939  1
  P  P14  1  0.69829883  0.48951114  0.94829442  1
  P  P15  1  0.93818468  0.67925921  0.73889188  1
  P  P16  1  0.99908721  0.00585076  0.22665180  1
  P  P17  1  0.30170117  0.51048886  0.05170558  1
  P  P18  1  0.76003672  0.19203512  0.56643028  1
  P  P19  1  0.00091279  0.99414924  0.77334820  1
  P  P20  1  0.06181532  0.32074079  0.26110812  1
  P  P21  1  0.49516720  0.72222897  0.75800169  1
  O  O22  1  0.57022330  0.73177469  0.90674094  1
  O  O23  1  0.73051902  0.64655813  0.07977139  1
  O  O24  1  0.90800813  0.93766970  0.59781837  1
  O  O25  1  0.71913236  0.82106555  0.32516217  1
  O  O26  1  0.58634366  0.36021923  0.95402429  1
  O  O27  1  0.49039191  0.39767363  0.37247920  1
  O  O28  1  0.99512012  0.33509015  0.12394575  1
  O  O29  1  0.70942380  0.16221558  0.84168777  1
  O  O30  1  0.82870687  0.18355582  0.46038053  1
  O  O31  1  0.95996503  0.31906093  0.33729677  1
  O  O32  1  0.30941557  0.88875164  0.95178243  1
  O  O33  1  0.37466949  0.76394174  0.46238785  1
  O  O34  1  0.67342306  0.30511844  0.29946004  1
  O  O35  1  0.69058443  0.11124836  0.04821757  1
  O  O36  1  0.17129313  0.81644418  0.53961947  1
  O  O37  1  0.01259981  0.86809448  0.12594907  1
  O  O38  1  0.00487988  0.66490985  0.87605425  1
  O  O39  1  0.88935077  0.29105973  0.73033449  1
  O  O40  1  0.16902804  0.02306165  0.80347471  1
  O  O41  1  0.41365634  0.63978077  0.04597571  1
  O  O42  1  0.29057620  0.83778442  0.15831223  1
  O  O43  1  0.59802109  0.88906009  0.78199002  1
  O  O44  1  0.40197891  0.11093991  0.21800998  1
  O  O45  1  0.22738448  0.44191887  0.37322375  1
  O  O46  1  0.42977670  0.26822531  0.09325906  1
  O  O47  1  0.44412913  0.04293416  0.82397962  1
  O  O48  1  0.09199187  0.06233030  0.40218163  1
  O  O49  1  0.50960809  0.60232637  0.62752080  1
  O  O50  1  0.04003497  0.68093907  0.66270323  1
  O  O51  1  0.55587087  0.95706584  0.17602038  1
  O  O52  1  0.93337930  0.85357467  0.79706375  1
  O  O53  1  0.63936868  0.73937438  0.49317239  1
  O  O54  1  0.83097196  0.97693735  0.19652529  1
  O  O55  1  0.32657694  0.69488156  0.70053996  1
  O  O56  1  0.77261552  0.55808113  0.62677625  1
  O  O57  1  0.98740019  0.13190552  0.87405093  1
  O  O58  1  0.68124259  0.01026506  0.53119323  1
  O  O59  1  0.11064923  0.70894027  0.26966551  1
  O  O60  1  0.36063132  0.26062562  0.50682761  1
  O  O61  1  0.13634928  0.50936066  0.00998843  1
  O  O62  1  0.26948098  0.35344187  0.92022861  1
  O  O63  1  0.28086764  0.17893445  0.67483783  1
  O  O64  1  0.06662070  0.14642533  0.20293625  1
  O  O65  1  0.37067940  0.52824770  0.20647536  1
  O  O66  1  0.62533051  0.23605826  0.53761215  1
  O  O67  1  0.86365072  0.49063934  0.99001157  1
  O  O68  1  0.62932060  0.47175230  0.79352464  1
  O  O69  1  0.31875741  0.98973494  0.46880677  1
