# generated using pymatgen
data_HgH16(Br3N2)2
_symmetry_space_group_name_H-M   'P 1'
_cell_length_a   9.48261435
_cell_length_b   9.12984710
_cell_length_c   9.12397454
_cell_angle_alpha   90.00000000
_cell_angle_beta   90.00000000
_cell_angle_gamma   90.00000000
_symmetry_Int_Tables_number   1
_chemical_formula_structural   HgH16(Br3N2)2
_chemical_formula_sum   'Hg2 H32 Br12 N8'
_cell_volume   789.90644549
_cell_formula_units_Z   2
loop_
 _symmetry_equiv_pos_site_id
 _symmetry_equiv_pos_as_xyz
  1  'x, y, z'
loop_
 _atom_site_type_symbol
 _atom_site_label
 _atom_site_symmetry_multiplicity
 _atom_site_fract_x
 _atom_site_fract_y
 _atom_site_fract_z
 _atom_site_occupancy
  Hg  Hg0  1  0.50000000  0.50000000  0.50000000  1
  Hg  Hg1  1  0.00000000  0.00000000  0.00000000  1
  H  H2  1  0.40999712  0.77833902  0.18941993  1
  H  H3  1  0.72158359  0.20839747  0.31217976  1
  H  H4  1  0.77841641  0.70839747  0.18782024  1
  H  H5  1  0.27841641  0.79160253  0.68782024  1
  H  H6  1  0.09000288  0.27833902  0.68941993  1
  H  H7  1  0.22158359  0.29160253  0.18782024  1
  H  H8  1  0.69768081  0.07339895  0.81578820  1
  H  H9  1  0.59000288  0.22166098  0.18941993  1
  H  H10  1  0.41888561  0.90280866  0.32396646  1
  H  H11  1  0.80231919  0.57339895  0.68421180  1
  H  H12  1  0.69768081  0.07339895  0.18421180  1
  H  H13  1  0.30231919  0.92660105  0.18421180  1
  H  H14  1  0.08111439  0.40280866  0.82396646  1
  H  H15  1  0.08111439  0.40280866  0.17603354  1
  H  H16  1  0.72158359  0.20839747  0.68782024  1
  H  H17  1  0.91888561  0.59719134  0.82396646  1
  H  H18  1  0.19768081  0.42660105  0.68421180  1
  H  H19  1  0.91888561  0.59719134  0.17603354  1
  H  H20  1  0.27841641  0.79160253  0.31217976  1
  H  H21  1  0.59000288  0.22166098  0.81058007  1
  H  H22  1  0.09000288  0.27833902  0.31058007  1
  H  H23  1  0.41888561  0.90280866  0.67603354  1
  H  H24  1  0.19768081  0.42660105  0.31578820  1
  H  H25  1  0.22158359  0.29160253  0.81217976  1
  H  H26  1  0.58111439  0.09719134  0.67603354  1
  H  H27  1  0.80231919  0.57339895  0.31578820  1
  H  H28  1  0.30231919  0.92660105  0.81578820  1
  H  H29  1  0.40999712  0.77833902  0.81058007  1
  H  H30  1  0.77841641  0.70839747  0.81217976  1
  H  H31  1  0.90999712  0.72166098  0.68941993  1
  H  H32  1  0.90999712  0.72166098  0.31058007  1
  H  H33  1  0.58111439  0.09719134  0.32396646  1
  Br  Br34  1  0.17957823  0.63791687  0.50000000  1
  Br  Br35  1  0.62230456  0.82546851  0.50000000  1
  Br  Br36  1  0.50000000  0.50000000  0.78260632  1
  Br  Br37  1  0.87769544  0.32546851  0.00000000  1
  Br  Br38  1  0.50000000  0.50000000  0.21739368  1
  Br  Br39  1  0.32042177  0.13791687  0.00000000  1
  Br  Br40  1  0.12230456  0.67453149  0.00000000  1
  Br  Br41  1  0.82042177  0.36208313  0.50000000  1
  Br  Br42  1  0.00000000  0.00000000  0.28260632  1
  Br  Br43  1  0.00000000  0.00000000  0.71739368  1
  Br  Br44  1  0.37769544  0.17453149  0.50000000  1
  Br  Br45  1  0.67957823  0.86208313  0.00000000  1
  N  N46  1  0.35192626  0.85100932  0.74878500  1
  N  N47  1  0.14807374  0.35100932  0.75121500  1
  N  N48  1  0.14807374  0.35100932  0.24878500  1
  N  N49  1  0.64807374  0.14899068  0.74878500  1
  N  N50  1  0.35192626  0.85100932  0.25121500  1
  N  N51  1  0.85192626  0.64899068  0.24878500  1
  N  N52  1  0.85192626  0.64899068  0.75121500  1
  N  N53  1  0.64807374  0.14899068  0.25121500  1
