# generated using pymatgen
data_V2P2O9
_symmetry_space_group_name_H-M   'P 1'
_cell_length_a   7.63172044
_cell_length_b   9.74528177
_cell_length_c   16.98002198
_cell_angle_alpha   90.00000000
_cell_angle_beta   90.00000000
_cell_angle_gamma   90.00000000
_symmetry_Int_Tables_number   1
_chemical_formula_structural   V2P2O9
_chemical_formula_sum   'V16 P16 O72'
_cell_volume   1262.85969272
_cell_formula_units_Z   8
loop_
 _symmetry_equiv_pos_site_id
 _symmetry_equiv_pos_as_xyz
  1  'x, y, z'
loop_
 _atom_site_type_symbol
 _atom_site_label
 _atom_site_symmetry_multiplicity
 _atom_site_fract_x
 _atom_site_fract_y
 _atom_site_fract_z
 _atom_site_occupancy
  V  V0  1  0.71441357  0.49915682  0.42860592  1
  V  V1  1  0.71242819  0.99374436  0.67819979  1
  V  V2  1  0.21592546  0.50105046  0.11993280  1
  V  V3  1  0.21534132  0.99895426  0.37034228  1
  V  V4  1  0.71592546  0.49894954  0.11993280  1
  V  V5  1  0.28465868  0.99895426  0.87034228  1
  V  V6  1  0.28407454  0.50105046  0.61993280  1
  V  V7  1  0.78558643  0.49915682  0.92860592  1
  V  V8  1  0.78465868  0.00104574  0.87034228  1
  V  V9  1  0.21441357  0.50084318  0.42860592  1
  V  V10  1  0.78757181  0.99374436  0.17819979  1
  V  V11  1  0.28558643  0.50084318  0.92860592  1
  V  V12  1  0.71534132  0.00104574  0.37034228  1
  V  V13  1  0.21242819  0.00625564  0.67819979  1
  V  V14  1  0.78407454  0.49894954  0.61993280  1
  V  V15  1  0.28757181  0.00625564  0.17819979  1
  P  P16  1  0.30477227  0.79371108  0.01973146  1
  P  P17  1  0.29240831  0.70724190  0.27470200  1
  P  P18  1  0.20054680  0.29833178  0.27409300  1
  P  P19  1  0.20759169  0.70724190  0.77470200  1
  P  P20  1  0.20425955  0.20994608  0.01889681  1
  P  P21  1  0.80477227  0.20628892  0.01973146  1
  P  P22  1  0.70425955  0.79005392  0.01889681  1
  P  P23  1  0.29945320  0.29833178  0.77409300  1
  P  P24  1  0.79574045  0.79005392  0.51889681  1
  P  P25  1  0.29574045  0.20994608  0.51889681  1
  P  P26  1  0.79240831  0.29275810  0.27470200  1
  P  P27  1  0.79945320  0.70166822  0.77409300  1
  P  P28  1  0.19522773  0.79371108  0.51973146  1
  P  P29  1  0.70759169  0.29275810  0.77470200  1
  P  P30  1  0.69522773  0.20628892  0.51973146  1
  P  P31  1  0.70054680  0.70166822  0.27409300  1
  O  O32  1  0.00213326  0.51542174  0.61549839  1
  O  O33  1  0.99573087  0.78979650  0.49253223  1
  O  O34  1  0.28905156  0.85711664  0.10026297  1
  O  O35  1  0.00370019  0.51226306  0.93239880  1
  O  O36  1  0.28913237  0.86837883  0.45363892  1
  O  O37  1  0.22493277  0.86762879  0.77402113  1
  O  O38  1  0.72668782  0.63949027  0.84894380  1
  O  O39  1  0.49573087  0.21020350  0.49253223  1
  O  O40  1  0.72754108  0.86116578  0.27408020  1
  O  O41  1  0.25188009  0.63897863  0.52343596  1
  O  O42  1  0.49646607  0.97119169  0.68275856  1
  O  O43  1  0.78275421  0.35340573  0.70033255  1
  O  O44  1  0.21840879  0.65163999  0.35072509  1
  O  O45  1  0.77317705  0.64050856  0.19894414  1
  O  O46  1  0.49597060  0.67272856  0.27433384  1
  O  O47  1  0.71724579  0.35340573  0.20033255  1
  O  O48  1  0.28198933  0.14185190  0.59837128  1
  O  O49  1  0.49786674  0.51542174  0.11549839  1
  O  O50  1  0.78905156  0.14288336  0.10026297  1
  O  O51  1  0.22754108  0.13883422  0.27408020  1
  O  O52  1  0.21086763  0.86837883  0.95363892  1
  O  O53  1  0.21724579  0.64659427  0.20033255  1
  O  O54  1  0.30272186  0.14377307  0.95168743  1
  O  O55  1  0.28275421  0.64659427  0.70033255  1
  O  O56  1  0.21801067  0.14185190  0.09837128  1
  O  O57  1  0.71094844  0.14288336  0.60026297  1
  O  O58  1  0.49980028  0.02816089  0.36458887  1
  O  O59  1  0.00426913  0.21020350  0.99253223  1
  O  O60  1  0.77245892  0.86116578  0.77408020  1
  O  O61  1  0.50370019  0.48773694  0.93239880  1
  O  O62  1  -0.00019972  0.97183911  0.36458887  1
  O  O63  1  0.25534668  0.36535873  0.02476078  1
  O  O64  1  0.99646607  0.02880831  0.68275856  1
  O  O65  1  0.78913237  0.13162117  0.45363892  1
  O  O66  1  0.72493277  0.13237121  0.77402113  1
  O  O67  1  0.28159121  0.65163999  0.85072509  1
  O  O68  1  0.49629981  0.51226306  0.43239880  1
  O  O69  1  0.74465332  0.63464127  0.52476078  1
  O  O70  1  0.80272186  0.85622693  0.95168743  1
  O  O71  1  0.00353393  0.97119169  0.18275856  1
  O  O72  1  0.27331218  0.36050973  0.34894380  1
  O  O73  1  0.50402940  0.32727144  0.77433384  1
  O  O74  1  0.19727814  0.14377307  0.45168743  1
  O  O75  1  0.50353393  0.02880831  0.18275856  1
  O  O76  1  0.50426913  0.78979650  0.99253223  1
  O  O77  1  0.24465332  0.36535873  0.52476078  1
  O  O78  1  0.71086763  0.13162117  0.95363892  1
  O  O79  1  0.50213326  0.48457826  0.61549839  1
  O  O80  1  0.78198933  0.85814810  0.59837128  1
  O  O81  1  0.77331218  0.63949027  0.34894380  1
  O  O82  1  0.27506723  0.86762879  0.27402113  1
  O  O83  1  0.22668782  0.36050973  0.84894380  1
  O  O84  1  0.27245892  0.13883422  0.77408020  1
  O  O85  1  0.22682295  0.35949144  0.69894414  1
  O  O86  1  0.27317705  0.35949144  0.19894414  1
  O  O87  1  0.99597060  0.32727144  0.27433384  1
  O  O88  1  0.00402940  0.67272856  0.77433384  1
  O  O89  1  0.71801067  0.85814810  0.09837128  1
  O  O90  1  0.71840879  0.34836001  0.35072509  1
  O  O91  1  0.99786674  0.48457826  0.11549839  1
  O  O92  1  0.72682295  0.64050856  0.69894414  1
  O  O93  1  0.75188009  0.36102137  0.52343596  1
  O  O94  1  0.78159121  0.34836001  0.85072509  1
  O  O95  1  0.50019972  0.97183911  0.86458887  1
  O  O96  1  0.69727814  0.85622693  0.45168743  1
  O  O97  1  0.74811991  0.36102137  0.02343596  1
  O  O98  1  0.99629981  0.48773694  0.43239880  1
  O  O99  1  0.24811991  0.63897863  0.02343596  1
  O  O100  1  0.77506723  0.13237121  0.27402113  1
  O  O101  1  0.75534668  0.63464127  0.02476078  1
  O  O102  1  0.21094844  0.85711664  0.60026297  1
  O  O103  1  1.00019972  0.02816089  0.86458887  1
