# generated using pymatgen
data_SiO2
_symmetry_space_group_name_H-M   'P 1'
_cell_length_a   6.98600018
_cell_length_b   15.04707004
_cell_length_c   17.38161115
_cell_angle_alpha   90.00000000
_cell_angle_beta   90.00000000
_cell_angle_gamma   90.00000000
_symmetry_Int_Tables_number   1
_chemical_formula_structural   SiO2
_chemical_formula_sum   'Si32 O64'
_cell_volume   1827.13469727
_cell_formula_units_Z   32
loop_
 _symmetry_equiv_pos_site_id
 _symmetry_equiv_pos_as_xyz
  1  'x, y, z'
loop_
 _atom_site_type_symbol
 _atom_site_label
 _atom_site_symmetry_multiplicity
 _atom_site_fract_x
 _atom_site_fract_y
 _atom_site_fract_z
 _atom_site_occupancy
  Si  Si0  1  0.11499614  0.72615599  0.34118700  1
  Si  Si1  1  0.11499614  0.77384401  0.65881300  1
  Si  Si2  1  0.88500386  0.22615599  0.15881300  1
  Si  Si3  1  0.88500386  0.27384401  0.84118700  1
  Si  Si4  1  0.88500386  0.27384401  0.65881300  1
  Si  Si5  1  0.88500386  0.22615599  0.34118700  1
  Si  Si6  1  0.11499614  0.77384401  0.84118700  1
  Si  Si7  1  0.11499614  0.72615599  0.15881300  1
  Si  Si8  1  0.10699505  0.90369648  0.42934796  1
  Si  Si9  1  0.10699505  0.59630352  0.57065204  1
  Si  Si10  1  0.89300495  0.40369648  0.07065204  1
  Si  Si11  1  0.89300495  0.09630352  0.92934796  1
  Si  Si12  1  0.89300495  0.09630352  0.57065204  1
  Si  Si13  1  0.89300495  0.40369648  0.42934796  1
  Si  Si14  1  0.10699505  0.59630352  0.92934796  1
  Si  Si15  1  0.10699505  0.90369648  0.07065204  1
  Si  Si16  1  0.84359386  0.60086853  0.42664888  1
  Si  Si17  1  0.84359386  0.89913147  0.57335112  1
  Si  Si18  1  0.15640614  0.10086853  0.07335112  1
  Si  Si19  1  0.15640614  0.39913147  0.92664888  1
  Si  Si20  1  0.15640614  0.39913147  0.57335112  1
  Si  Si21  1  0.15640614  0.10086853  0.42664888  1
  Si  Si22  1  0.84359386  0.89913147  0.92664888  1
  Si  Si23  1  0.84359386  0.60086853  0.07335112  1
  Si  Si24  1  0.42993135  0.84138025  0.53979739  1
  Si  Si25  1  0.42993135  0.65861975  0.46020261  1
  Si  Si26  1  0.57006865  0.34138025  0.96020261  1
  Si  Si27  1  0.57006865  0.15861975  0.03979739  1
  Si  Si28  1  0.57006865  0.15861975  0.46020261  1
  Si  Si29  1  0.57006865  0.34138025  0.53979739  1
  Si  Si30  1  0.42993135  0.65861975  0.03979739  1
  Si  Si31  1  0.42993135  0.84138025  0.96020261  1
  O  O32  1  0.91583564  0.67890687  0.36890739  1
  O  O33  1  0.91583564  0.82109313  0.63109261  1
  O  O34  1  0.08416436  0.17890687  0.13109261  1
  O  O35  1  0.08416436  0.32109313  0.86890739  1
  O  O36  1  0.08416436  0.32109313  0.63109261  1
  O  O37  1  0.08416436  0.17890687  0.36890739  1
  O  O38  1  0.91583564  0.82109313  0.86890739  1
  O  O39  1  0.91583564  0.67890687  0.13109261  1
  O  O40  1  0.29425504  0.68178004  0.38710537  1
  O  O41  1  0.29425504  0.81821996  0.61289463  1
  O  O42  1  0.70574496  0.18178004  0.11289463  1
  O  O43  1  0.70574496  0.31821996  0.88710537  1
  O  O44  1  0.70574496  0.31821996  0.61289463  1
  O  O45  1  0.70574496  0.18178004  0.38710537  1
  O  O46  1  0.29425504  0.81821996  0.88710537  1
  O  O47  1  0.29425504  0.68178004  0.11289463  1
  O  O48  1  0.10542463  0.83275315  0.35911993  1
  O  O49  1  0.10542463  0.66724685  0.64088007  1
  O  O50  1  0.89457537  0.33275315  0.14088007  1
  O  O51  1  0.89457537  0.16724685  0.85911993  1
  O  O52  1  0.89457537  0.16724685  0.64088007  1
  O  O53  1  0.89457537  0.33275315  0.35911993  1
  O  O54  1  0.10542463  0.66724685  0.85911993  1
  O  O55  1  0.10542463  0.83275315  0.14088007  1
  O  O56  1  0.14406109  0.71076747  0.25000000  1
  O  O57  1  0.14406109  0.78923253  0.75000000  1
  O  O58  1  0.85593891  0.21076747  0.25000000  1
  O  O59  1  0.85593891  0.28923253  0.75000000  1
  O  O60  1  0.08277652  0.00408168  0.39503609  1
  O  O61  1  0.08277652  0.49591832  0.60496391  1
  O  O62  1  0.91722348  0.50408168  0.10496391  1
  O  O63  1  0.91722348  0.99591832  0.89503609  1
  O  O64  1  0.91722348  0.99591832  0.60496391  1
  O  O65  1  0.91722348  0.50408168  0.39503609  1
  O  O66  1  0.08277652  0.49591832  0.89503609  1
  O  O67  1  0.08277652  0.00408168  0.10496391  1
  O  O68  1  0.30901021  0.89854392  0.47662446  1
  O  O69  1  0.30901021  0.60145608  0.52337554  1
  O  O70  1  0.69098979  0.39854392  0.02337554  1
  O  O71  1  0.69098979  0.10145608  0.97662446  1
  O  O72  1  0.69098979  0.10145608  0.52337554  1
  O  O73  1  0.69098979  0.39854392  0.47662446  1
  O  O74  1  0.30901021  0.60145608  0.97662446  1
  O  O75  1  0.30901021  0.89854392  0.02337554  1
  O  O76  1  0.92952395  0.88145690  0.48722490  1
  O  O77  1  0.92952395  0.61854310  0.51277510  1
  O  O78  1  0.07047605  0.38145690  0.01277510  1
  O  O79  1  0.07047605  0.11854310  0.98722490  1
  O  O80  1  0.07047605  0.11854310  0.51277510  1
  O  O81  1  0.07047605  0.38145690  0.48722490  1
  O  O82  1  0.92952395  0.61854310  0.98722490  1
  O  O83  1  0.92952395  0.88145690  0.01277510  1
  O  O84  1  0.61114861  0.60054111  0.43088979  1
  O  O85  1  0.61114861  0.89945889  0.56911021  1
  O  O86  1  0.38885139  0.10054111  0.06911021  1
  O  O87  1  0.38885139  0.39945889  0.93088979  1
  O  O88  1  0.38885139  0.39945889  0.56911021  1
  O  O89  1  0.38885139  0.10054111  0.43088979  1
  O  O90  1  0.61114861  0.89945889  0.93088979  1
  O  O91  1  0.61114861  0.60054111  0.06911021  1
  O  O92  1  0.50767042  0.75000000  0.50000000  1
  O  O93  1  0.49232958  0.25000000  0.00000000  1
  O  O94  1  0.49232958  0.25000000  0.50000000  1
  O  O95  1  0.50767042  0.75000000  0.00000000  1
