# generated using pymatgen
data_Cs11Rb7O3
_symmetry_space_group_name_H-M   'P 1'
_cell_length_a   9.11531064
_cell_length_b   22.15874068
_cell_length_c   32.59372440
_cell_angle_alpha   90.00000000
_cell_angle_beta   90.00000000
_cell_angle_gamma   90.00000000
_symmetry_Int_Tables_number   1
_chemical_formula_structural   Cs11Rb7O3
_chemical_formula_sum   'Cs44 Rb28 O12'
_cell_volume   6583.40446331
_cell_formula_units_Z   4
loop_
 _symmetry_equiv_pos_site_id
 _symmetry_equiv_pos_as_xyz
  1  'x, y, z'
loop_
 _atom_site_type_symbol
 _atom_site_label
 _atom_site_symmetry_multiplicity
 _atom_site_fract_x
 _atom_site_fract_y
 _atom_site_fract_z
 _atom_site_occupancy
  Cs  Cs0  1  0.78747543  0.50583974  0.08306722  1
  Cs  Cs1  1  0.71072528  0.30219938  0.41223611  1
  Cs  Cs2  1  0.26965725  0.20518935  0.52085721  1
  Cs  Cs3  1  0.23381222  0.50849301  0.08266812  1
  Cs  Cs4  1  0.76618778  0.99150699  0.58266812  1
  Cs  Cs5  1  0.71252457  0.00583974  0.91693278  1
  Cs  Cs6  1  0.77179215  0.71279787  0.70227726  1
  Cs  Cs7  1  0.27179215  0.28720213  0.79772274  1
  Cs  Cs8  1  0.50295632  0.38132944  0.32642972  1
  Cs  Cs9  1  0.49887447  0.34687535  0.90840511  1
  Cs  Cs10  1  0.78927472  0.80219938  0.58776389  1
  Cs  Cs11  1  0.99704368  0.88132944  0.67357028  1
  Cs  Cs12  1  0.78172395  0.70276702  0.47847869  1
  Cs  Cs13  1  0.49590709  0.12597806  0.00231057  1
  Cs  Cs14  1  0.79455005  0.69631695  0.08743924  1
  Cs  Cs15  1  0.49704368  0.11867056  0.82642972  1
  Cs  Cs16  1  0.28747543  0.49416026  0.41693278  1
  Cs  Cs17  1  0.21072528  0.69780062  0.08776389  1
  Cs  Cs18  1  0.28927472  0.19780062  0.91223611  1
  Cs  Cs19  1  0.29455005  0.30368305  0.41256076  1
  Cs  Cs20  1  0.99590709  0.87402194  0.49768943  1
  Cs  Cs21  1  0.27765961  0.21160569  0.29938874  1
  Cs  Cs22  1  0.22820785  0.78720213  0.20227726  1
  Cs  Cs23  1  0.71827605  0.20276702  0.52152131  1
  Cs  Cs24  1  0.77765961  0.78839431  0.20061126  1
  Cs  Cs25  1  0.00112553  0.84687535  0.09159489  1
  Cs  Cs26  1  0.99887447  0.65312465  0.59159489  1
  Cs  Cs27  1  0.20544995  0.80368305  0.58743924  1
  Cs  Cs28  1  0.73034275  0.29481065  0.02085721  1
  Cs  Cs29  1  0.00295632  0.61867056  0.17357028  1
  Cs  Cs30  1  0.70544995  0.19631695  0.91256076  1
  Cs  Cs31  1  0.76965725  0.79481065  0.97914279  1
  Cs  Cs32  1  0.72234039  0.28839431  0.79938874  1
  Cs  Cs33  1  0.23034275  0.70518935  0.47914279  1
  Cs  Cs34  1  0.72820785  0.21279787  0.29772274  1
  Cs  Cs35  1  0.50112553  0.15312465  0.40840511  1
  Cs  Cs36  1  0.50409291  0.37402194  0.50231057  1
  Cs  Cs37  1  0.26618778  0.00849301  0.91733188  1
  Cs  Cs38  1  0.22234039  0.71160569  0.70061126  1
  Cs  Cs39  1  0.00409291  0.62597806  0.99768943  1
  Cs  Cs40  1  0.21827605  0.79723298  0.97847869  1
  Cs  Cs41  1  0.28172395  0.29723298  0.02152131  1
  Cs  Cs42  1  0.21252457  0.99416026  0.58306722  1
  Cs  Cs43  1  0.73381222  0.49150699  0.41733188  1
  Rb  Rb44  1  0.99902058  0.63598443  0.84049500  1
  Rb  Rb45  1  0.49776223  0.75971696  0.84291949  1
  Rb  Rb46  1  1.00026611  0.42986764  0.25867016  1
  Rb  Rb47  1  0.00539203  0.63977466  0.32595206  1
  Rb  Rb48  1  -0.00026611  0.07013236  0.75867016  1
  Rb  Rb49  1  0.99460797  0.86022534  0.82595206  1
  Rb  Rb50  1  0.49730976  0.94166500  0.09712665  1
  Rb  Rb51  1  0.00579319  0.42753971  0.56320492  1
  Rb  Rb52  1  0.99886700  0.02726948  0.21612438  1
  Rb  Rb53  1  0.00269024  0.44166500  0.90287335  1
  Rb  Rb54  1  0.49886700  0.97273052  0.28387562  1
  Rb  Rb55  1  0.49902058  0.36401557  0.65950500  1
  Rb  Rb56  1  0.99420681  0.07246029  0.06320492  1
  Rb  Rb57  1  0.49973389  0.92986764  0.74132984  1
  Rb  Rb58  1  0.50539203  0.36022534  0.17404794  1
  Rb  Rb59  1  0.50097942  0.13598443  0.15950500  1
  Rb  Rb60  1  0.00113300  0.47273052  0.71612438  1
  Rb  Rb61  1  0.00223777  0.25971696  0.15708051  1
  Rb  Rb62  1  0.50223777  0.74028304  0.34291949  1
  Rb  Rb63  1  0.49420681  0.92753971  0.43679508  1
  Rb  Rb64  1  0.50026611  0.57013236  0.24132984  1
  Rb  Rb65  1  0.50269024  0.55833500  0.59712665  1
  Rb  Rb66  1  0.50579319  0.57246029  0.93679508  1
  Rb  Rb67  1  0.00097942  0.86401557  0.34049500  1
  Rb  Rb68  1  0.49460797  0.13977466  0.67404794  1
  Rb  Rb69  1  0.99730976  0.05833500  0.40287335  1
  Rb  Rb70  1  0.50113300  0.52726948  0.78387562  1
  Rb  Rb71  1  0.99776223  0.24028304  0.65708051  1
  O  O72  1  0.49675405  0.24695558  0.47267421  1
  O  O73  1  0.99575597  0.75344697  0.65149141  1
  O  O74  1  0.50740226  0.40912166  0.41569143  1
  O  O75  1  0.00424403  0.74655303  0.15149141  1
  O  O76  1  0.99259774  0.90912166  0.58430857  1
  O  O77  1  0.49259774  0.09087834  0.91569143  1
  O  O78  1  0.00740226  0.59087834  0.08430857  1
  O  O79  1  0.50324595  0.25304442  0.97267421  1
  O  O80  1  0.99675405  0.75304442  0.02732579  1
  O  O81  1  0.00324595  0.74695558  0.52732579  1
  O  O82  1  0.50424403  0.25344697  0.34850859  1
  O  O83  1  0.49575597  0.24655303  0.84850859  1
