# generated using pymatgen
data_GeS2
_symmetry_space_group_name_H-M   'P 1'
_cell_length_a   11.27541779
_cell_length_b   11.27541811
_cell_length_c   12.47799256
_cell_angle_alpha   116.86000930
_cell_angle_beta   116.86001012
_cell_angle_gamma   90.00000003
_symmetry_Int_Tables_number   1
_chemical_formula_structural   GeS2
_chemical_formula_sum   'Ge16 S32'
_cell_volume   1220.31621511
_cell_formula_units_Z   16
loop_
 _symmetry_equiv_pos_site_id
 _symmetry_equiv_pos_as_xyz
  1  'x, y, z'
loop_
 _atom_site_type_symbol
 _atom_site_label
 _atom_site_symmetry_multiplicity
 _atom_site_fract_x
 _atom_site_fract_y
 _atom_site_fract_z
 _atom_site_occupancy
  Ge  Ge0  1  0.18628113  0.90340932  0.12215141  1
  Ge  Ge1  1  0.56412973  0.59659068  0.87784859  1
  Ge  Ge2  1  0.21874209  0.43587027  0.62215141  1
  Ge  Ge3  1  0.09659068  0.06412973  0.37784859  1
  Ge  Ge4  1  0.90340932  0.93587027  0.62215141  1
  Ge  Ge5  1  0.59659068  0.31371887  0.37784859  1
  Ge  Ge6  1  0.71874209  0.18628113  0.62215141  1
  Ge  Ge7  1  0.43587027  0.40340932  0.12215141  1
  Ge  Ge8  1  0.93587027  0.71874209  0.12215141  1
  Ge  Ge9  1  0.68628113  0.21874209  0.12215141  1
  Ge  Ge10  1  0.31371887  0.78125791  0.87784859  1
  Ge  Ge11  1  0.81371887  0.09659068  0.87784859  1
  Ge  Ge12  1  0.28125791  0.81371887  0.37784859  1
  Ge  Ge13  1  0.78125791  0.56412973  0.37784859  1
  Ge  Ge14  1  0.40340932  0.68628113  0.62215141  1
  Ge  Ge15  1  0.06412973  0.28125791  0.87784859  1
  S  S16  1  0.14076056  0.59101812  0.74894288  1
  S  S17  1  0.54208575  0.25000000  0.50000000  1
  S  S18  1  0.98723918  0.73723918  0.97447835  1
  S  S19  1  0.95791425  0.75000000  0.50000000  1
  S  S20  1  0.09101812  0.64076056  0.24894288  1
  S  S21  1  0.84207524  0.89181768  0.75105712  1
  S  S22  1  0.04208575  0.25000000  0.50000000  1
  S  S23  1  0.75000000  0.04208575  1.00000000  1
  S  S24  1  0.65792476  0.14076056  0.24894288  1
  S  S25  1  0.45791425  0.75000000  0.50000000  1
  S  S26  1  0.01276082  0.26276082  0.02552165  1
  S  S27  1  0.85923944  0.40898188  0.25105712  1
  S  S28  1  0.73723918  0.98723918  0.47447835  1
  S  S29  1  0.60818232  0.65792476  0.74894288  1
  S  S30  1  0.48723918  0.23723918  0.97447835  1
  S  S31  1  0.51276082  0.76276082  0.02552165  1
  S  S32  1  0.26276082  0.01276082  0.52552165  1
  S  S33  1  0.89181768  0.90898188  0.25105712  1
  S  S34  1  0.59101812  0.60818232  0.24894288  1
  S  S35  1  0.40898188  0.39181768  0.75105712  1
  S  S36  1  0.75000000  0.54208575  1.00000000  1
  S  S37  1  0.76276082  0.51276082  0.52552165  1
  S  S38  1  0.10818232  0.09101812  0.74894288  1
  S  S39  1  0.15792476  0.10818232  0.24894288  1
  S  S40  1  0.34207524  0.85923944  0.75105712  1
  S  S41  1  0.64076056  0.15792476  0.74894288  1
  S  S42  1  0.25000000  0.95791425  0.00000000  1
  S  S43  1  0.23723918  0.48723918  0.47447835  1
  S  S44  1  0.39181768  0.34207524  0.25105712  1
  S  S45  1  0.35923944  0.84207524  0.25105712  1
  S  S46  1  0.90898188  0.35923944  0.75105712  1
  S  S47  1  0.25000000  0.45791425  0.00000000  1
