# generated using pymatgen
data_AgPb2Br5
_symmetry_space_group_name_H-M   'P 1'
_cell_length_a   7.18466993
_cell_length_b   8.09200736
_cell_length_c   9.16663856
_cell_angle_alpha   95.41513779
_cell_angle_beta   113.07229591
_cell_angle_gamma   90.00000231
_symmetry_Int_Tables_number   1
_chemical_formula_structural   AgPb2Br5
_chemical_formula_sum   'Ag2 Pb4 Br10'
_cell_volume   487.71864190
_cell_formula_units_Z   2
loop_
 _symmetry_equiv_pos_site_id
 _symmetry_equiv_pos_as_xyz
  1  'x, y, z'
loop_
 _atom_site_type_symbol
 _atom_site_label
 _atom_site_symmetry_multiplicity
 _atom_site_fract_x
 _atom_site_fract_y
 _atom_site_fract_z
 _atom_site_occupancy
  Ag  Ag0  1  0.50000000  0.00000000  0.50000000  1
  Ag  Ag1  1  0.00000000  0.50000000  0.50000000  1
  Pb  Pb2  1  0.87116627  0.06374197  0.20734411  1
  Pb  Pb3  1  0.12883373  0.93625803  0.79265589  1
  Pb  Pb4  1  0.33617784  0.56374197  0.20734411  1
  Pb  Pb5  1  0.66382216  0.43625803  0.79265589  1
  Br  Br6  1  0.13580518  0.81974865  0.44149910  1
  Br  Br7  1  0.92596390  0.75000000  0.00000000  1
  Br  Br8  1  0.86419482  0.18025135  0.55850090  1
  Br  Br9  1  0.29595836  0.57942485  0.82456202  1
  Br  Br10  1  0.52860366  0.07942485  0.82456202  1
  Br  Br11  1  0.70404164  0.42057515  0.17543798  1
  Br  Br12  1  0.47139634  0.92057515  0.17543798  1
  Br  Br13  1  0.69430608  0.68025135  0.55850090  1
  Br  Br14  1  0.30569392  0.31974865  0.44149910  1
  Br  Br15  1  0.07403610  0.25000000  0.00000000  1
