# generated using pymatgen
data_Rb2CoH12(SeO7)2
_symmetry_space_group_name_H-M   'P 1'
_cell_length_a   6.45632183
_cell_length_b   9.37618057
_cell_length_c   12.73180713
_cell_angle_alpha   90.00000000
_cell_angle_beta   90.00000000
_cell_angle_gamma   104.38553542
_symmetry_Int_Tables_number   1
_chemical_formula_structural   Rb2CoH12(SeO7)2
_chemical_formula_sum   'Rb4 Co2 H24 Se4 O28'
_cell_volume   746.56260872
_cell_formula_units_Z   2
loop_
 _symmetry_equiv_pos_site_id
 _symmetry_equiv_pos_as_xyz
  1  'x, y, z'
loop_
 _atom_site_type_symbol
 _atom_site_label
 _atom_site_symmetry_multiplicity
 _atom_site_fract_x
 _atom_site_fract_y
 _atom_site_fract_z
 _atom_site_occupancy
  Co  Co0  1  0.00000000  0.00000000  0.00000000  1
  Co  Co1  1  0.00000000  0.50000000  0.50000000  1
  Se  Se2  1  0.73223767  0.40085359  0.14063403  1
  Se  Se3  1  0.26776233  0.09914641  0.64063403  1
  Se  Se4  1  0.26776233  0.59914641  0.85936597  1
  Se  Se5  1  0.73223767  0.90085359  0.35936597  1
  O  O6  1  0.58322165  0.41295461  0.24665900  1
  O  O7  1  0.41677835  0.08704539  0.74665900  1
  O  O8  1  0.41677835  0.58704539  0.75334100  1
  O  O9  1  0.58322165  0.91295461  0.25334100  1
  O  O10  1  0.76996970  0.55476286  0.06942632  1
  O  O11  1  0.23003030  0.94523714  0.56942632  1
  O  O12  1  0.23003030  0.44523714  0.93057368  1
  O  O13  1  0.76996970  0.05476286  0.43057368  1
  O  O14  1  0.59612894  0.26013441  0.06617183  1
  O  O15  1  0.40387106  0.23986559  0.56617183  1
  O  O16  1  0.40387106  0.73986559  0.93382817  1
  O  O17  1  0.59612894  0.76013441  0.43382817  1
  O  O18  1  0.96763764  0.37040830  0.17903199  1
  O  O19  1  0.03236236  0.12959170  0.67903199  1
  O  O20  1  0.03236236  0.62959170  0.82096801  1
  O  O21  1  0.96763764  0.87040830  0.32096801  1
  O  O22  1  0.16012589  0.15474199  0.10882683  1
  O  O23  1  0.83987411  0.34525801  0.60882683  1
  O  O24  1  0.83987411  0.84525801  0.89117317  1
  O  O25  1  0.16012589  0.65474199  0.39117317  1
  O  O26  1  0.02798178  0.82631198  0.11021922  1
  O  O27  1  0.97201822  0.67368802  0.61021922  1
  O  O28  1  0.97201822  0.17368802  0.88978078  1
  O  O29  1  0.02798178  0.32631198  0.38978078  1
  O  O30  1  0.28261295  0.99552802  0.93979408  1
  O  O31  1  0.71738705  0.50447198  0.43979408  1
  O  O32  1  0.71738705  0.00447198  0.06020592  1
  O  O33  1  0.28261295  0.49552802  0.56020592  1
  Rb  Rb34  1  0.34357186  0.13143076  0.34605053  1
  Rb  Rb35  1  0.65642814  0.36856924  0.84605053  1
  Rb  Rb36  1  0.65642814  0.86856924  0.65394947  1
  Rb  Rb37  1  0.34357186  0.63143076  0.15394947  1
  H  H38  1  0.31071012  0.19943463  0.08767661  1
  H  H39  1  0.68928988  0.30056537  0.58767661  1
  H  H40  1  0.68928988  0.80056537  0.91232339  1
  H  H41  1  0.31071012  0.69943463  0.41232339  1
  H  H42  1  0.08969961  0.23550010  0.12417727  1
  H  H43  1  0.91030039  0.26449990  0.62417727  1
  H  H44  1  0.91030039  0.76449990  0.87582273  1
  H  H45  1  0.08969961  0.73550010  0.37582273  1
  H  H46  1  0.92710751  0.72884099  0.09632943  1
  H  H47  1  0.07289249  0.77115901  0.59632943  1
  H  H48  1  0.07289249  0.27115901  0.90367057  1
  H  H49  1  0.92710751  0.22884099  0.40367057  1
  H  H50  1  0.00100692  0.85025337  0.18437175  1
  H  H51  1  0.99899308  0.64974663  0.68437175  1
  H  H52  1  0.99899308  0.14974663  0.81562825  1
  H  H53  1  0.00100692  0.35025337  0.31562825  1
  H  H54  1  0.32208142  0.89939625  0.94491374  1
  H  H55  1  0.67791858  0.60060375  0.44491374  1
  H  H56  1  0.67791858  0.10060375  0.05508626  1
  H  H57  1  0.32208142  0.39939625  0.55508626  1
  H  H58  1  0.31182932  0.02751042  0.86525238  1
  H  H59  1  0.68817068  0.47248958  0.36525238  1
  H  H60  1  0.68817068  0.97248958  0.13474762  1
  H  H61  1  0.31182932  0.52751042  0.63474762  1
