# generated using pymatgen
data_Mn2HO4
_symmetry_space_group_name_H-M   'P 1'
_cell_length_a   9.90909562
_cell_length_b   2.96128855
_cell_length_c   4.74871858
_cell_angle_alpha   90.00000000
_cell_angle_beta   90.00000000
_cell_angle_gamma   90.00000000
_symmetry_Int_Tables_number   1
_chemical_formula_structural   Mn2HO4
_chemical_formula_sum   'Mn4 H2 O8'
_cell_volume   139.34493256
_cell_formula_units_Z   2
loop_
 _symmetry_equiv_pos_site_id
 _symmetry_equiv_pos_as_xyz
  1  'x, y, z'
loop_
 _atom_site_type_symbol
 _atom_site_label
 _atom_site_symmetry_multiplicity
 _atom_site_fract_x
 _atom_site_fract_y
 _atom_site_fract_z
 _atom_site_occupancy
  Mn  Mn0  1  0.63815207  0.25000000  0.47216094  1
  Mn  Mn1  1  0.13815207  0.25000000  0.02783906  1
  Mn  Mn2  1  0.35998361  0.75000000  0.54381567  1
  Mn  Mn3  1  0.85998361  0.75000000  0.95618433  1
  H  H4  1  0.46003867  0.25000000  0.95220495  1
  H  H5  1  0.96003867  0.25000000  0.54779505  1
  O  O6  1  0.45795703  0.25000000  0.74331880  1
  O  O7  1  0.95795703  0.25000000  0.75668120  1
  O  O8  1  0.52659806  0.75000000  0.30982908  1
  O  O9  1  0.02659806  0.75000000  0.19017092  1
  O  O10  1  0.78316641  0.25000000  0.15661429  1
  O  O11  1  0.28316641  0.25000000  0.34338571  1
  O  O12  1  0.22392414  0.75000000  0.83475929  1
  O  O13  1  0.72392414  0.75000000  0.66524071  1
