# generated using pymatgen
data_Na2VCuF7
_symmetry_space_group_name_H-M   'P 1'
_cell_length_a   7.29970065
_cell_length_b   7.63846895
_cell_length_c   10.51504603
_cell_angle_alpha   90.00000000
_cell_angle_beta   90.00000000
_cell_angle_gamma   90.00000000
_symmetry_Int_Tables_number   1
_chemical_formula_structural   Na2VCuF7
_chemical_formula_sum   'Na8 V4 Cu4 F28'
_cell_volume   586.30358059
_cell_formula_units_Z   4
loop_
 _symmetry_equiv_pos_site_id
 _symmetry_equiv_pos_as_xyz
  1  'x, y, z'
loop_
 _atom_site_type_symbol
 _atom_site_label
 _atom_site_symmetry_multiplicity
 _atom_site_fract_x
 _atom_site_fract_y
 _atom_site_fract_z
 _atom_site_occupancy
  Cu  Cu0  1  0.00000000  0.00000000  0.00000000  1
  Cu  Cu1  1  0.50000000  0.00000000  0.00000000  1
  Cu  Cu2  1  0.00000000  0.50000000  0.50000000  1
  Cu  Cu3  1  0.50000000  0.50000000  0.50000000  1
  V  V4  1  0.25000000  0.72630756  0.76164028  1
  V  V5  1  0.75000000  0.27369244  0.23835972  1
  V  V6  1  0.75000000  0.22630756  0.73835972  1
  V  V7  1  0.25000000  0.77369244  0.26164028  1
  F  F8  1  0.25000000  0.08518937  0.99027309  1
  F  F9  1  0.75000000  0.91481063  0.00972691  1
  F  F10  1  0.75000000  0.58518937  0.50972691  1
  F  F11  1  0.25000000  0.41481063  0.49027309  1
  F  F12  1  0.25000000  0.95448327  0.67041856  1
  F  F13  1  0.75000000  0.04551673  0.32958144  1
  F  F14  1  0.75000000  0.45448327  0.82958144  1
  F  F15  1  0.25000000  0.54551673  0.17041856  1
  F  F16  1  0.25000000  0.49286780  0.84741631  1
  F  F17  1  0.75000000  0.50713220  0.15258369  1
  F  F18  1  0.75000000  0.99286780  0.65258369  1
  F  F19  1  0.25000000  0.00713220  0.34741631  1
  F  F20  1  0.95204076  0.16451186  0.85257386  1
  F  F21  1  0.45204076  0.83548814  0.14742614  1
  F  F22  1  0.04795924  0.66451186  0.64742614  1
  F  F23  1  0.54795924  0.33548814  0.35257386  1
  F  F24  1  0.04795924  0.83548814  0.14742614  1
  F  F25  1  0.54795924  0.16451186  0.85257386  1
  F  F26  1  0.95204076  0.33548814  0.35257386  1
  F  F27  1  0.45204076  0.66451186  0.64742614  1
  F  F28  1  0.05030823  0.77923059  0.88109835  1
  F  F29  1  0.55030823  0.22076941  0.11890165  1
  F  F30  1  0.94969177  0.27923059  0.61890165  1
  F  F31  1  0.44969177  0.72076941  0.38109835  1
  F  F32  1  0.94969177  0.22076941  0.11890165  1
  F  F33  1  0.44969177  0.77923059  0.88109835  1
  F  F34  1  0.05030823  0.72076941  0.38109835  1
  F  F35  1  0.55030823  0.27923059  0.61890165  1
  Na  Na36  1  0.00000000  0.50000000  0.00000000  1
  Na  Na37  1  0.50000000  0.50000000  0.00000000  1
  Na  Na38  1  0.00000000  0.00000000  0.50000000  1
  Na  Na39  1  0.50000000  0.00000000  0.50000000  1
  Na  Na40  1  0.25000000  0.22292536  0.76066351  1
  Na  Na41  1  0.75000000  0.77707464  0.23933649  1
  Na  Na42  1  0.75000000  0.72292536  0.73933649  1
  Na  Na43  1  0.25000000  0.27707464  0.26066351  1
