# generated using pymatgen
data_Gd2MnGa6
_symmetry_space_group_name_H-M   'P 1'
_cell_length_a   6.17538623
_cell_length_b   6.18775441
_cell_length_c   6.17952446
_cell_angle_alpha   59.93662956
_cell_angle_beta   59.91604080
_cell_angle_gamma   59.98105296
_symmetry_Int_Tables_number   1
_chemical_formula_structural   Gd2MnGa6
_chemical_formula_sum   'Gd2 Mn1 Ga6'
_cell_volume   166.75953475
_cell_formula_units_Z   1
loop_
 _symmetry_equiv_pos_site_id
 _symmetry_equiv_pos_as_xyz
  1  'x, y, z'
loop_
 _atom_site_type_symbol
 _atom_site_label
 _atom_site_symmetry_multiplicity
 _atom_site_fract_x
 _atom_site_fract_y
 _atom_site_fract_z
 _atom_site_occupancy
  Gd  Gd0  1  0.25006135  0.24951104  0.25008793  1
  Gd  Gd1  1  0.74996479  0.75037761  0.74974707  1
  Mn  Mn2  1  0.50019098  0.49995671  0.49999764  1
  Ga  Ga3  1  0.77831412  0.22149893  0.77848727  1
  Ga  Ga4  1  0.22157741  0.77838831  0.77815558  1
  Ga  Ga5  1  0.22181939  0.22186210  0.77818420  1
  Ga  Ga6  1  0.77812859  0.22167142  0.22178206  1
  Ga  Ga7  1  0.77835367  0.77839191  0.22154384  1
  Ga  Ga8  1  0.22158970  0.77834198  0.22201440  1
