# generated using pymatgen
data_Nd4V5(Si2O11)2
_symmetry_space_group_name_H-M   'P 1'
_cell_length_a   5.71156107
_cell_length_b   7.32860098
_cell_length_c   11.14146208
_cell_angle_alpha   99.72358344
_cell_angle_beta   90.00000000
_cell_angle_gamma   112.93434591
_symmetry_Int_Tables_number   1
_chemical_formula_structural   Nd4V5(Si2O11)2
_chemical_formula_sum   'Nd4 V5 Si4 O22'
_cell_volume   422.20776387
_cell_formula_units_Z   1
loop_
 _symmetry_equiv_pos_site_id
 _symmetry_equiv_pos_as_xyz
  1  'x, y, z'
loop_
 _atom_site_type_symbol
 _atom_site_label
 _atom_site_symmetry_multiplicity
 _atom_site_fract_x
 _atom_site_fract_y
 _atom_site_fract_z
 _atom_site_occupancy
  O  O0  1  0.77459354  0.54918708  0.12615258  1
  O  O1  1  0.22540646  0.45081292  0.87384742  1
  O  O2  1  0.30579633  0.14111671  0.91121860  1
  O  O3  1  0.16467962  0.85888329  0.08878140  1
  O  O4  1  0.69420367  0.85888329  0.08878140  1
  O  O5  1  0.83532038  0.14111671  0.91121860  1
  O  O6  1  0.81498028  0.62996056  0.89828545  1
  O  O7  1  0.18501972  0.37003944  0.10171455  1
  O  O8  1  0.58578477  0.17156954  0.16399761  1
  O  O9  1  0.41421523  0.82843046  0.83600239  1
  O  O10  1  0.51078294  0.54524246  0.68964514  1
  O  O11  1  0.96554048  0.45475754  0.31035486  1
  O  O12  1  0.48921706  0.45475754  0.31035486  1
  O  O13  1  0.34981291  0.69962581  0.48520395  1
  O  O14  1  0.65018709  0.30037419  0.51479605  1
  O  O15  1  0.14212257  0.28424515  0.47263448  1
  O  O16  1  0.85787743  0.71575485  0.52736552  1
  O  O17  1  0.78284633  0.04722142  0.63116349  1
  O  O18  1  0.73562491  0.95277858  0.36883651  1
  O  O19  1  0.21715367  0.95277858  0.36883651  1
  O  O20  1  0.26437509  0.04722142  0.63116349  1
  O  O21  1  0.03445952  0.54524246  0.68964514  1
  Si  Si22  1  0.86128447  0.72256893  0.04163187  1
  Si  Si23  1  0.13871553  0.27743107  0.95836813  1
  Si  Si24  1  0.70310775  0.40621549  0.22810111  1
  Si  Si25  1  0.29689225  0.59378451  0.77189889  1
  V  V26  1  0.50000000  0.00000000  0.00000000  1
  V  V27  1  0.50000000  0.50000000  0.50000000  1
  V  V28  1  0.00000000  0.50000000  0.50000000  1
  V  V29  1  0.00000000  0.00000000  0.50000000  1
  V  V30  1  0.50000000  0.00000000  0.50000000  1
  Nd  Nd31  1  0.92709584  0.85419167  0.75092393  1
  Nd  Nd32  1  0.07290416  0.14580833  0.24907607  1
  Nd  Nd33  1  0.64343009  0.28686018  0.75658751  1
  Nd  Nd34  1  0.35656991  0.71313982  0.24341249  1
