# generated using pymatgen
data_MgAl8Fe3(PO5)8
_symmetry_space_group_name_H-M   'P 1'
_cell_length_a   7.19291203
_cell_length_b   12.46477607
_cell_length_c   7.42005681
_cell_angle_alpha   90.00866634
_cell_angle_beta   89.74890155
_cell_angle_gamma   91.54898972
_symmetry_Int_Tables_number   1
_chemical_formula_structural   MgAl8Fe3(PO5)8
_chemical_formula_sum   'Mg1 Al8 Fe3 P8 O40'
_cell_volume   665.01824348
_cell_formula_units_Z   1
loop_
 _symmetry_equiv_pos_site_id
 _symmetry_equiv_pos_as_xyz
  1  'x, y, z'
loop_
 _atom_site_type_symbol
 _atom_site_label
 _atom_site_symmetry_multiplicity
 _atom_site_fract_x
 _atom_site_fract_y
 _atom_site_fract_z
 _atom_site_occupancy
  Mg  Mg0  1  0.25000000  0.25000000  0.50000000  1
  Al  Al1  1  0.37454129  0.11167208  0.77046409  1
  Al  Al2  1  0.87640755  0.61363472  0.77299185  1
  Al  Al3  1  0.86319578  0.13319365  0.26763101  1
  Al  Al4  1  0.37293892  0.63531994  0.27250974  1
  Al  Al5  1  0.12545871  0.38832792  0.22953591  1
  Al  Al6  1  0.62359245  0.88636528  0.22700815  1
  Al  Al7  1  0.63680422  0.36680635  0.73236899  1
  Al  Al8  1  0.12706108  0.86468006  0.72749026  1
  Fe  Fe9  1  0.75000000  0.75000000  0.50000000  1
  Fe  Fe10  1  0.00147588  0.99992643  0.00218694  1
  Fe  Fe11  1  0.49852412  0.50007357  0.99781306  1
  P  P12  1  0.74765281  0.00314975  0.62030194  1
  P  P13  1  0.24630027  0.50142256  0.61638787  1
  P  P14  1  0.49540681  0.24574810  0.11843561  1
  P  P15  1  0.00153635  0.74610971  0.11995163  1
  P  P16  1  0.75234719  0.49685025  0.37969806  1
  P  P17  1  0.25369973  0.99857744  0.38361213  1
  P  P18  1  0.00459319  0.25425190  0.88156439  1
  P  P19  1  0.49846365  0.75389029  0.88004837  1
  O  O20  1  0.47877771  0.24794640  0.67373319  1
  O  O21  1  0.96989148  0.74795704  0.66406172  1
  O  O22  1  0.78034518  0.00118897  0.16136687  1
  O  O23  1  0.28083244  0.50357751  0.16143816  1
  O  O24  1  0.02122229  0.25205360  0.32626681  1
  O  O25  1  0.53010852  0.75204296  0.33593828  1
  O  O26  1  0.71965482  0.49881103  0.83863313  1
  O  O27  1  0.21916756  0.99642249  0.83856184  1
  O  O28  1  0.15801322  0.20998116  0.75348479  1
  O  O29  1  0.64724008  0.70750765  0.74832930  1
  O  O30  1  0.10628326  0.04572396  0.25167228  1
  O  O31  1  0.60193999  0.54284697  0.25022562  1
  O  O32  1  0.34198678  0.29001884  0.24651521  1
  O  O33  1  0.85275992  0.79249235  0.25167070  1
  O  O34  1  0.39371674  0.45427604  0.74832772  1
  O  O35  1  0.89806001  0.95715303  0.74977438  1
  O  O36  1  0.18746117  0.40720614  0.49044227  1
  O  O37  1  0.69230341  0.90612968  0.49533541  1
  O  O38  1  0.55692207  0.34318044  0.99569508  1
  O  O39  1  0.05671807  0.84327816  0.99510232  1
  O  O40  1  0.31253883  0.09279386  0.50955773  1
  O  O41  1  0.80769659  0.59387032  0.50466459  1
  O  O42  1  0.94307793  0.15681956  0.00430492  1
  O  O43  1  0.44328193  0.65672184  0.00489768  1
  O  O44  1  0.84400327  0.28834887  0.76296412  1
  O  O45  1  0.33561789  0.78816884  0.76559088  1
  O  O46  1  0.91388488  0.46331057  0.26248039  1
  O  O47  1  0.41451294  0.96149904  0.26657034  1
  O  O48  1  0.65599673  0.21165113  0.23703588  1
  O  O49  1  0.16438211  0.71183116  0.23440912  1
  O  O50  1  0.58611512  0.03668943  0.73751961  1
  O  O51  1  0.08548706  0.53850096  0.73342966  1
  O  O52  1  0.82513947  0.09460543  0.50339912  1
  O  O53  1  0.32972297  0.59381608  0.50523299  1
  O  O54  1  0.42025664  0.15408353  0.00380710  1
  O  O55  1  0.92086307  0.65560977  0.00549682  1
  O  O56  1  0.67486053  0.40539457  0.49660088  1
  O  O57  1  0.17027703  0.90618392  0.49476701  1
  O  O58  1  0.07974336  0.34591647  0.99619290  1
  O  O59  1  0.57913693  0.84439023  0.99450318  1
