# generated using pymatgen
data_V2Te2O9
_symmetry_space_group_name_H-M   'P 1'
_cell_length_a   5.04011460
_cell_length_b   5.04025191
_cell_length_c   14.79597685
_cell_angle_alpha   99.35318462
_cell_angle_beta   99.35648287
_cell_angle_gamma   92.59839857
_symmetry_Int_Tables_number   1
_chemical_formula_structural   V2Te2O9
_chemical_formula_sum   'V4 Te4 O18'
_cell_volume   364.94234060
_cell_formula_units_Z   2
loop_
 _symmetry_equiv_pos_site_id
 _symmetry_equiv_pos_as_xyz
  1  'x, y, z'
loop_
 _atom_site_type_symbol
 _atom_site_label
 _atom_site_symmetry_multiplicity
 _atom_site_fract_x
 _atom_site_fract_y
 _atom_site_fract_z
 _atom_site_occupancy
  V  V0  1  0.41125262  0.00950047  0.31767717  1
  V  V1  1  0.34352204  0.44183191  0.18228588  1
  V  V2  1  0.55814760  0.65658017  0.81771292  1
  V  V3  1  0.99047918  0.58872981  0.68230499  1
  Te  Te4  1  0.12784198  0.13500891  0.90367917  1
  Te  Te5  1  0.01877201  0.52569363  0.40366779  1
  Te  Te6  1  0.86500110  0.87212754  0.09633410  1
  Te  Te7  1  0.47428402  0.98120449  0.59632399  1
  O  O8  1  0.02631744  0.54641893  0.11138469  1
  O  O9  1  0.16496103  0.18493055  0.38860541  1
  O  O10  1  0.81511020  0.83505657  0.61139740  1
  O  O11  1  0.32749036  0.67252045  0.50000399  1
  O  O12  1  0.33312489  0.84510465  0.69253187  1
  O  O13  1  0.45357161  0.97370034  0.88861780  1
  O  O14  1  0.03239354  0.35349190  0.59609860  1
  O  O15  1  0.22960173  0.48114265  0.78456456  1
  O  O16  1  0.49249151  0.31369278  0.09610007  1
  O  O17  1  0.09729832  0.10942117  0.19252733  1
  O  O18  1  0.55339340  0.30487301  0.28452032  1
  O  O19  1  0.15488323  0.66686896  0.30746747  1
  O  O20  1  0.07738497  0.92263688  0.00000690  1
  O  O21  1  0.68631663  0.50754041  0.90391460  1
  O  O22  1  0.89052608  0.90273984  0.80747952  1
  O  O23  1  0.64646145  0.96758528  0.40387949  1
  O  O24  1  0.51889287  0.77034989  0.21544112  1
  O  O25  1  0.69508019  0.44664882  0.71547282  1
