# generated using pymatgen
data_BaHo2ZnO5
_symmetry_space_group_name_H-M   'P 1'
_cell_length_a   5.74187297
_cell_length_b   7.12283818
_cell_length_c   12.40011577
_cell_angle_alpha   90.00000000
_cell_angle_beta   90.00000000
_cell_angle_gamma   90.00000000
_symmetry_Int_Tables_number   1
_chemical_formula_structural   BaHo2ZnO5
_chemical_formula_sum   'Ba4 Ho8 Zn4 O20'
_cell_volume   507.14529180
_cell_formula_units_Z   4
loop_
 _symmetry_equiv_pos_site_id
 _symmetry_equiv_pos_as_xyz
  1  'x, y, z'
loop_
 _atom_site_type_symbol
 _atom_site_label
 _atom_site_symmetry_multiplicity
 _atom_site_fract_x
 _atom_site_fract_y
 _atom_site_fract_z
 _atom_site_occupancy
  O  O0  1  0.25000000  0.42375796  0.60069939  1
  O  O1  1  0.75000000  0.57624204  0.39930061  1
  O  O2  1  0.75000000  0.92375796  0.89930061  1
  O  O3  1  0.25000000  0.07624204  0.10069939  1
  O  O4  1  0.99989859  0.85887091  0.27538502  1
  O  O5  1  0.49989859  0.14112909  0.72461498  1
  O  O6  1  0.00010141  0.35887091  0.22461498  1
  O  O7  1  0.50010141  0.64112909  0.77538502  1
  O  O8  1  0.00010141  0.14112909  0.72461498  1
  O  O9  1  0.50010141  0.85887091  0.27538502  1
  O  O10  1  0.99989859  0.64112909  0.77538502  1
  O  O11  1  0.49989859  0.35887091  0.22461498  1
  O  O12  1  0.49909945  0.66233061  0.06621362  1
  O  O13  1  0.99909945  0.33766939  0.93378638  1
  O  O14  1  0.50090055  0.16233061  0.43378638  1
  O  O15  1  0.00090055  0.83766939  0.56621362  1
  O  O16  1  0.99909945  0.16233061  0.43378638  1
  O  O17  1  0.49909945  0.83766939  0.56621362  1
  O  O18  1  0.00090055  0.66233061  0.06621362  1
  O  O19  1  0.50090055  0.33766939  0.93378638  1
  Zn  Zn20  1  0.25000000  0.80828204  0.15001773  1
  Zn  Zn21  1  0.75000000  0.19171796  0.84998227  1
  Zn  Zn22  1  0.75000000  0.30828204  0.34998227  1
  Zn  Zn23  1  0.25000000  0.69171796  0.65001773  1
  Ba  Ba24  1  0.75000000  0.07724081  0.10169174  1
  Ba  Ba25  1  0.75000000  0.42275919  0.60169174  1
  Ba  Ba26  1  0.25000000  0.57724081  0.39830826  1
  Ba  Ba27  1  0.25000000  0.92275919  0.89830826  1
  Ho  Ho28  1  0.25000000  0.39981398  0.07438606  1
  Ho  Ho29  1  0.75000000  0.61848669  0.20809441  1
  Ho  Ho30  1  0.75000000  0.88151331  0.70809441  1
  Ho  Ho31  1  0.25000000  0.11848669  0.29190559  1
  Ho  Ho32  1  0.75000000  0.60018602  0.92561394  1
  Ho  Ho33  1  0.75000000  0.89981398  0.42561394  1
  Ho  Ho34  1  0.25000000  0.10018602  0.57438606  1
  Ho  Ho35  1  0.25000000  0.38151331  0.79190559  1
