# generated using pymatgen
data_SiO2
_symmetry_space_group_name_H-M   'P 1'
_cell_length_a   21.42290617
_cell_length_b   13.44907985
_cell_length_c   12.76841221
_cell_angle_alpha   90.00000000
_cell_angle_beta   90.00000000
_cell_angle_gamma   90.00000000
_symmetry_Int_Tables_number   1
_chemical_formula_structural   SiO2
_chemical_formula_sum   'Si56 O112'
_cell_volume   3678.81418621
_cell_formula_units_Z   56
loop_
 _symmetry_equiv_pos_site_id
 _symmetry_equiv_pos_as_xyz
  1  'x, y, z'
loop_
 _atom_site_type_symbol
 _atom_site_label
 _atom_site_symmetry_multiplicity
 _atom_site_fract_x
 _atom_site_fract_y
 _atom_site_fract_z
 _atom_site_occupancy
  Si  Si0  1  0.07231438  0.11607106  0.37751770  1
  Si  Si1  1  0.07231438  0.88392894  0.62248230  1
  Si  Si2  1  0.92768562  0.11607106  0.62248230  1
  Si  Si3  1  0.92768562  0.88392894  0.37751770  1
  Si  Si4  1  0.92768562  0.88392894  0.62248230  1
  Si  Si5  1  0.92768562  0.11607106  0.37751770  1
  Si  Si6  1  0.07231438  0.88392894  0.37751770  1
  Si  Si7  1  0.07231438  0.11607106  0.62248230  1
  Si  Si8  1  0.57231438  0.61607106  0.37751770  1
  Si  Si9  1  0.57231438  0.38392894  0.62248230  1
  Si  Si10  1  0.42768562  0.61607106  0.62248230  1
  Si  Si11  1  0.42768562  0.38392894  0.37751770  1
  Si  Si12  1  0.42768562  0.38392894  0.62248230  1
  Si  Si13  1  0.42768562  0.61607106  0.37751770  1
  Si  Si14  1  0.57231438  0.38392894  0.37751770  1
  Si  Si15  1  0.57231438  0.61607106  0.62248230  1
  Si  Si16  1  0.14972185  0.19938180  0.19299587  1
  Si  Si17  1  0.14972185  0.80061820  0.80700413  1
  Si  Si18  1  0.85027815  0.19938180  0.80700413  1
  Si  Si19  1  0.85027815  0.80061820  0.19299587  1
  Si  Si20  1  0.85027815  0.80061820  0.80700413  1
  Si  Si21  1  0.85027815  0.19938180  0.19299587  1
  Si  Si22  1  0.14972185  0.80061820  0.19299587  1
  Si  Si23  1  0.14972185  0.19938180  0.80700413  1
  Si  Si24  1  0.64972185  0.69938180  0.19299587  1
  Si  Si25  1  0.64972185  0.30061820  0.80700413  1
  Si  Si26  1  0.35027815  0.69938180  0.80700413  1
  Si  Si27  1  0.35027815  0.30061820  0.19299587  1
  Si  Si28  1  0.35027815  0.30061820  0.80700413  1
  Si  Si29  1  0.35027815  0.69938180  0.19299587  1
  Si  Si30  1  0.64972185  0.30061820  0.19299587  1
  Si  Si31  1  0.64972185  0.69938180  0.80700413  1
  Si  Si32  1  0.27681886  0.11488375  0.12216036  1
  Si  Si33  1  0.27681886  0.88511625  0.87783964  1
  Si  Si34  1  0.72318114  0.11488375  0.87783964  1
  Si  Si35  1  0.72318114  0.88511625  0.12216036  1
  Si  Si36  1  0.72318114  0.88511625  0.87783964  1
  Si  Si37  1  0.72318114  0.11488375  0.12216036  1
  Si  Si38  1  0.27681886  0.88511625  0.12216036  1
  Si  Si39  1  0.27681886  0.11488375  0.87783964  1
  Si  Si40  1  0.77681886  0.61488375  0.12216036  1
  Si  Si41  1  0.77681886  0.38511625  0.87783964  1
  Si  Si42  1  0.22318114  0.61488375  0.87783964  1
  Si  Si43  1  0.22318114  0.38511625  0.12216036  1
  Si  Si44  1  0.22318114  0.38511625  0.87783964  1
  Si  Si45  1  0.22318114  0.61488375  0.12216036  1
  Si  Si46  1  0.77681886  0.38511625  0.12216036  1
  Si  Si47  1  0.77681886  0.61488375  0.87783964  1
  Si  Si48  1  0.07524783  0.11384143  0.00000000  1
  Si  Si49  1  0.07524783  0.88615857  0.00000000  1
  Si  Si50  1  0.92475217  0.11384143  0.00000000  1
  Si  Si51  1  0.92475217  0.88615857  0.00000000  1
  Si  Si52  1  0.57524783  0.61384143  0.00000000  1
  Si  Si53  1  0.57524783  0.38615857  0.00000000  1
  Si  Si54  1  0.42475217  0.61384143  0.00000000  1
  Si  Si55  1  0.42475217  0.38615857  0.00000000  1
  O  O56  1  0.09862375  0.17239885  0.10372100  1
  O  O57  1  0.09862375  0.82760115  0.89627900  1
  O  O58  1  0.90137625  0.17239885  0.89627900  1
  O  O59  1  0.90137625  0.82760115  0.10372100  1
  O  O60  1  0.90137625  0.82760115  0.89627900  1
  O  O61  1  0.90137625  0.17239885  0.10372100  1
  O  O62  1  0.09862375  0.82760115  0.10372100  1
  O  O63  1  0.09862375  0.17239885  0.89627900  1
  O  O64  1  0.59862375  0.67239885  0.10372100  1
  O  O65  1  0.59862375  0.32760115  0.89627900  1
  O  O66  1  0.40137625  0.67239885  0.89627900  1
  O  O67  1  0.40137625  0.32760115  0.10372100  1
  O  O68  1  0.40137625  0.32760115  0.89627900  1
  O  O69  1  0.40137625  0.67239885  0.10372100  1
  O  O70  1  0.59862375  0.32760115  0.10372100  1
  O  O71  1  0.59862375  0.67239885  0.89627900  1
  O  O72  1  0.00000000  0.11072805  0.00000000  1
  O  O73  1  0.00000000  0.88927195  0.00000000  1
  O  O74  1  0.50000000  0.61072805  0.00000000  1
  O  O75  1  0.50000000  0.38927195  0.00000000  1
  O  O76  1  0.10255922  0.00000000  0.00000000  1
  O  O77  1  0.89744078  0.00000000  0.00000000  1
  O  O78  1  0.60255922  0.50000000  0.00000000  1
  O  O79  1  0.39744078  0.50000000  0.00000000  1
  O  O80  1  0.09180726  0.12751477  0.50000000  1
  O  O81  1  0.09180726  0.87248523  0.50000000  1
  O  O82  1  0.90819274  0.12751477  0.50000000  1
  O  O83  1  0.90819274  0.87248523  0.50000000  1
  O  O84  1  0.59180726  0.62751477  0.50000000  1
  O  O85  1  0.59180726  0.37248523  0.50000000  1
  O  O86  1  0.40819274  0.62751477  0.50000000  1
  O  O87  1  0.40819274  0.37248523  0.50000000  1
  O  O88  1  0.07972035  0.00000000  0.34139958  1
  O  O89  1  0.07972035  0.00000000  0.65860042  1
  O  O90  1  0.92027965  0.00000000  0.65860042  1
  O  O91  1  0.92027965  0.00000000  0.34139958  1
  O  O92  1  0.57972035  0.50000000  0.34139958  1
  O  O93  1  0.57972035  0.50000000  0.65860042  1
  O  O94  1  0.42027965  0.50000000  0.65860042  1
  O  O95  1  0.42027965  0.50000000  0.34139958  1
  O  O96  1  0.11823657  0.18524451  0.30776770  1
  O  O97  1  0.11823657  0.81475549  0.69223230  1
  O  O98  1  0.88176343  0.18524451  0.69223230  1
  O  O99  1  0.88176343  0.81475549  0.30776770  1
  O  O100  1  0.88176343  0.81475549  0.69223230  1
  O  O101  1  0.88176343  0.18524451  0.30776770  1
  O  O102  1  0.11823657  0.81475549  0.30776770  1
  O  O103  1  0.11823657  0.18524451  0.69223230  1
  O  O104  1  0.61823657  0.68524451  0.30776770  1
  O  O105  1  0.61823657  0.31475549  0.69223230  1
  O  O106  1  0.38176343  0.68524451  0.69223230  1
  O  O107  1  0.38176343  0.31475549  0.30776770  1
  O  O108  1  0.38176343  0.31475549  0.69223230  1
  O  O109  1  0.38176343  0.68524451  0.30776770  1
  O  O110  1  0.61823657  0.31475549  0.30776770  1
  O  O111  1  0.61823657  0.68524451  0.69223230  1
  O  O112  1  0.00000000  0.15116392  0.36122121  1
  O  O113  1  0.00000000  0.84883608  0.63877879  1
  O  O114  1  0.00000000  0.15116392  0.63877879  1
  O  O115  1  0.00000000  0.84883608  0.36122121  1
  O  O116  1  0.50000000  0.65116392  0.36122121  1
  O  O117  1  0.50000000  0.34883608  0.63877879  1
  O  O118  1  0.50000000  0.65116392  0.63877879  1
  O  O119  1  0.50000000  0.34883608  0.36122121  1
  O  O120  1  0.21004188  0.12573111  0.18172248  1
  O  O121  1  0.21004188  0.87426889  0.81827752  1
  O  O122  1  0.78995812  0.12573111  0.81827752  1
  O  O123  1  0.78995812  0.87426889  0.18172248  1
  O  O124  1  0.78995812  0.87426889  0.81827752  1
  O  O125  1  0.78995812  0.12573111  0.18172248  1
  O  O126  1  0.21004188  0.87426889  0.18172248  1
  O  O127  1  0.21004188  0.12573111  0.81827752  1
  O  O128  1  0.71004188  0.62573111  0.18172248  1
  O  O129  1  0.71004188  0.37426889  0.81827752  1
  O  O130  1  0.28995812  0.62573111  0.81827752  1
  O  O131  1  0.28995812  0.37426889  0.18172248  1
  O  O132  1  0.28995812  0.37426889  0.81827752  1
  O  O133  1  0.28995812  0.62573111  0.18172248  1
  O  O134  1  0.71004188  0.37426889  0.18172248  1
  O  O135  1  0.71004188  0.62573111  0.81827752  1
  O  O136  1  0.17170757  0.31495078  0.17932921  1
  O  O137  1  0.17170757  0.68504922  0.82067079  1
  O  O138  1  0.82829243  0.31495078  0.82067079  1
  O  O139  1  0.82829243  0.68504922  0.17932921  1
  O  O140  1  0.82829243  0.68504922  0.82067079  1
  O  O141  1  0.82829243  0.31495078  0.17932921  1
  O  O142  1  0.17170757  0.68504922  0.17932921  1
  O  O143  1  0.17170757  0.31495078  0.82067079  1
  O  O144  1  0.67170757  0.81495078  0.17932921  1
  O  O145  1  0.67170757  0.18504922  0.82067079  1
  O  O146  1  0.32829243  0.81495078  0.82067079  1
  O  O147  1  0.32829243  0.18504922  0.17932921  1
  O  O148  1  0.32829243  0.18504922  0.82067079  1
  O  O149  1  0.32829243  0.81495078  0.17932921  1
  O  O150  1  0.67170757  0.18504922  0.17932921  1
  O  O151  1  0.67170757  0.81495078  0.82067079  1
  O  O152  1  0.29990765  0.00000000  0.12731362  1
  O  O153  1  0.29990765  0.00000000  0.87268638  1
  O  O154  1  0.70009235  0.00000000  0.87268638  1
  O  O155  1  0.70009235  0.00000000  0.12731362  1
  O  O156  1  0.79990765  0.50000000  0.12731362  1
  O  O157  1  0.79990765  0.50000000  0.87268638  1
  O  O158  1  0.20009235  0.50000000  0.87268638  1
  O  O159  1  0.20009235  0.50000000  0.12731362  1
  O  O160  1  0.26895264  0.14871081  0.00000000  1
  O  O161  1  0.26895264  0.85128919  0.00000000  1
  O  O162  1  0.73104736  0.14871081  0.00000000  1
  O  O163  1  0.73104736  0.85128919  0.00000000  1
  O  O164  1  0.76895264  0.64871081  0.00000000  1
  O  O165  1  0.76895264  0.35128919  0.00000000  1
  O  O166  1  0.23104736  0.64871081  0.00000000  1
  O  O167  1  0.23104736  0.35128919  0.00000000  1
