# generated using pymatgen
data_BaV13O18
_symmetry_space_group_name_H-M   'P 1'
_cell_length_a   7.98197956
_cell_length_b   7.90108348
_cell_length_c   8.08203691
_cell_angle_alpha   112.08051323
_cell_angle_beta   111.38002520
_cell_angle_gamma   109.98549622
_symmetry_Int_Tables_number   1
_chemical_formula_structural   BaV13O18
_chemical_formula_sum   'Ba1 V13 O18'
_cell_volume   365.88951862
_cell_formula_units_Z   1
loop_
 _symmetry_equiv_pos_site_id
 _symmetry_equiv_pos_as_xyz
  1  'x, y, z'
loop_
 _atom_site_type_symbol
 _atom_site_label
 _atom_site_symmetry_multiplicity
 _atom_site_fract_x
 _atom_site_fract_y
 _atom_site_fract_z
 _atom_site_occupancy
  O  O0  1  0.06555430  0.60772212  0.38864624  1
  O  O1  1  0.59989952  0.38397165  0.04828900  1
  O  O2  1  0.38274183  0.06534475  0.60599427  1
  O  O3  1  0.93436210  0.39223529  0.61143200  1
  O  O4  1  0.40006952  0.61605088  0.95172670  1
  O  O5  1  0.61733316  0.93477920  0.39403221  1
  O  O6  1  0.16353964  0.73743980  0.10441682  1
  O  O7  1  0.71711691  0.08586565  0.15804719  1
  O  O8  1  0.10138766  0.16183533  0.71672183  1
  O  O9  1  0.83648729  0.26246324  0.89546348  1
  O  O10  1  0.28289538  0.91417863  0.84195278  1
  O  O11  1  0.89864238  0.83824884  0.28333100  1
  O  O12  1  0.79047135  0.69007544  0.52014152  1
  O  O13  1  0.68036083  0.51164130  0.78508191  1
  O  O14  1  0.47830354  0.20203723  0.31320506  1
  O  O15  1  0.31968158  0.48825699  0.21482482  1
  O  O16  1  0.20954377  0.30998995  0.47989329  1
  O  O17  1  0.52167213  0.79793908  0.68686097  1
  V  V18  1  0.34823687  0.77292480  0.39996566  1
  V  V19  1  0.75802326  0.39553346  0.33595645  1
  V  V20  1  0.39485902  0.35088488  0.75703874  1
  V  V21  1  0.65174680  0.22705617  0.60003439  1
  V  V22  1  0.24194053  0.60447586  0.66407937  1
  V  V23  1  0.60516008  0.64917171  0.24298292  1
  V  V24  1  0.11277484  0.43257695  0.91878048  1
  V  V25  1  0.42893111  0.91809371  0.12140708  1
  V  V26  1  0.91428919  0.11871828  0.42698943  1
  V  V27  1  0.88725842  0.56738652  0.08128246  1
  V  V28  1  0.57110910  0.08196742  0.87861775  1
  V  V29  1  0.08574092  0.88133156  0.57299472  1
  V  V30  1  0.49996319  0.49997724  0.49996278  1
  Ba  Ba31  1  0.99990378  0.99982606  0.99984667  1
