# generated using pymatgen
data_Al3Bi5Br12
_symmetry_space_group_name_H-M   'P 1'
_cell_length_a   12.87009688
_cell_length_b   12.87009682
_cell_length_c   12.87009640
_cell_angle_alpha   58.53725235
_cell_angle_beta   58.53725254
_cell_angle_gamma   58.53725517
_symmetry_Int_Tables_number   1
_chemical_formula_structural   Al3Bi5Br12
_chemical_formula_sum   'Al6 Bi10 Br24'
_cell_volume   1456.97701132
_cell_formula_units_Z   2
loop_
 _symmetry_equiv_pos_site_id
 _symmetry_equiv_pos_as_xyz
  1  'x, y, z'
loop_
 _atom_site_type_symbol
 _atom_site_label
 _atom_site_symmetry_multiplicity
 _atom_site_fract_x
 _atom_site_fract_y
 _atom_site_fract_z
 _atom_site_occupancy
  Al  Al0  1  0.76414981  0.73585019  0.25000000  1
  Al  Al1  1  0.25000000  0.76414981  0.73585019  1
  Al  Al2  1  0.23585019  0.26414981  0.75000000  1
  Al  Al3  1  0.26414981  0.75000000  0.23585019  1
  Al  Al4  1  0.73585019  0.25000000  0.76414981  1
  Al  Al5  1  0.75000000  0.23585019  0.26414981  1
  Bi  Bi6  1  0.17293079  0.17293079  0.17293079  1
  Bi  Bi7  1  0.67293079  0.67293079  0.67293079  1
  Bi  Bi8  1  0.82706921  0.82706921  0.82706921  1
  Bi  Bi9  1  0.60118341  0.89881659  0.75000000  1
  Bi  Bi10  1  0.89881659  0.75000000  0.60118341  1
  Bi  Bi11  1  0.75000000  0.60118341  0.89881659  1
  Bi  Bi12  1  0.39881659  0.10118341  0.25000000  1
  Bi  Bi13  1  0.32706921  0.32706921  0.32706921  1
  Bi  Bi14  1  0.10118341  0.25000000  0.39881659  1
  Bi  Bi15  1  0.25000000  0.39881659  0.10118341  1
  Br  Br16  1  0.20140466  0.59314517  0.77825185  1
  Br  Br17  1  0.07082670  0.95055378  0.69764827  1
  Br  Br18  1  0.40685483  0.22174815  0.79859534  1
  Br  Br19  1  0.80235173  0.54944622  0.42917330  1
  Br  Br20  1  0.22174815  0.79859534  0.40685483  1
  Br  Br21  1  0.54944622  0.42917330  0.80235173  1
  Br  Br22  1  0.45055378  0.57082670  0.19764827  1
  Br  Br23  1  0.70140466  0.27825185  0.09314517  1
  Br  Br24  1  0.77825185  0.20140466  0.59314517  1
  Br  Br25  1  0.57082670  0.19764827  0.45055378  1
  Br  Br26  1  0.09314517  0.70140466  0.27825185  1
  Br  Br27  1  0.72174815  0.90685483  0.29859534  1
  Br  Br28  1  0.30235173  0.92917330  0.04944622  1
  Br  Br29  1  0.95055378  0.69764827  0.07082670  1
  Br  Br30  1  0.90685483  0.29859534  0.72174815  1
  Br  Br31  1  0.92917330  0.04944622  0.30235173  1
  Br  Br32  1  0.19764827  0.45055378  0.57082670  1
  Br  Br33  1  0.29859534  0.72174815  0.90685483  1
  Br  Br34  1  0.69764827  0.07082670  0.95055378  1
  Br  Br35  1  0.04944622  0.30235173  0.92917330  1
  Br  Br36  1  0.79859534  0.40685483  0.22174815  1
  Br  Br37  1  0.59314517  0.77825185  0.20140466  1
  Br  Br38  1  0.42917330  0.80235173  0.54944622  1
  Br  Br39  1  0.27825185  0.09314517  0.70140466  1
