# generated using pymatgen
data_Fe3(PO4)2
_symmetry_space_group_name_H-M   'P 1'
_cell_length_a   6.26676332
_cell_length_b   9.00772529
_cell_length_c   11.34747153
_cell_angle_alpha   90.00000000
_cell_angle_beta   90.00000000
_cell_angle_gamma   99.80941313
_symmetry_Int_Tables_number   1
_chemical_formula_structural   Fe3(PO4)2
_chemical_formula_sum   'Fe12 P8 O32'
_cell_volume   631.19163687
_cell_formula_units_Z   4
loop_
 _symmetry_equiv_pos_site_id
 _symmetry_equiv_pos_as_xyz
  1  'x, y, z'
loop_
 _atom_site_type_symbol
 _atom_site_label
 _atom_site_symmetry_multiplicity
 _atom_site_fract_x
 _atom_site_fract_y
 _atom_site_fract_z
 _atom_site_occupancy
  Fe  Fe0  1  0.33498701  0.72538832  0.08247118  1
  Fe  Fe1  1  0.66501299  0.27461168  0.91752882  1
  Fe  Fe2  1  0.88221522  0.63678480  0.80603018  1
  Fe  Fe3  1  0.11778478  0.36321520  0.19396982  1
  Fe  Fe4  1  0.38221522  0.63678480  0.69396982  1
  Fe  Fe5  1  0.87609780  0.92550461  0.11652291  1
  Fe  Fe6  1  0.83498701  0.72538832  0.41752882  1
  Fe  Fe7  1  0.61778478  0.36321520  0.30603018  1
  Fe  Fe8  1  0.16501299  0.27461168  0.58247118  1
  Fe  Fe9  1  0.62390220  0.07449539  0.61652291  1
  Fe  Fe10  1  0.12390220  0.07449539  0.88347709  1
  Fe  Fe11  1  0.37609780  0.92550461  0.38347709  1
  P  P12  1  0.30750508  0.60344245  0.41284292  1
  P  P13  1  0.19249492  0.39655755  0.91284292  1
  P  P14  1  0.80750508  0.60344245  0.08715708  1
  P  P15  1  0.38862279  0.09505255  0.13512044  1
  P  P16  1  0.11137721  0.90494745  0.63512044  1
  P  P17  1  0.88862279  0.09505255  0.36487956  1
  P  P18  1  0.61137721  0.90494745  0.86487956  1
  P  P19  1  0.69249492  0.39655755  0.58715708  1
  O  O20  1  0.23536385  0.46736878  0.03779413  1
  O  O21  1  0.09429495  0.13264429  0.43885009  1
  O  O22  1  0.32628048  0.48039899  0.32090539  1
  O  O23  1  0.98154358  0.27556777  0.91254810  1
  O  O24  1  0.17297643  0.07368280  0.06251125  1
  O  O25  1  0.26463615  0.53263122  0.53779413  1
  O  O26  1  0.86698363  0.30175859  0.62404448  1
  O  O27  1  0.48154358  0.27556777  0.58745190  1
  O  O28  1  0.62807847  0.77204288  0.77844316  1
  O  O29  1  0.67297643  0.07368280  0.43748875  1
  O  O30  1  0.10871893  0.05346067  0.70622414  1
  O  O31  1  0.39128107  0.94653933  0.20622414  1
  O  O32  1  0.73536385  0.46736878  0.46220587  1
  O  O33  1  0.59429495  0.13264429  0.06114991  1
  O  O34  1  0.60871893  0.05346067  0.79377586  1
  O  O35  1  0.89128107  0.94653933  0.29377586  1
  O  O36  1  0.67371952  0.51960101  0.67909461  1
  O  O37  1  0.37192153  0.22795712  0.22155684  1
  O  O38  1  0.76463615  0.53263122  0.96220587  1
  O  O39  1  0.87192153  0.22795712  0.27844316  1
  O  O40  1  0.17371952  0.51960101  0.82090539  1
  O  O41  1  0.36698363  0.30175859  0.87595552  1
  O  O42  1  0.82628048  0.48039899  0.17909461  1
  O  O43  1  0.82702357  0.92631720  0.93748875  1
  O  O44  1  0.01845642  0.72443223  0.08745190  1
  O  O45  1  0.32702357  0.92631720  0.56251125  1
  O  O46  1  0.12807847  0.77204288  0.72155684  1
  O  O47  1  0.13301637  0.69824141  0.37595552  1
  O  O48  1  0.63301637  0.69824141  0.12404448  1
  O  O49  1  0.90570505  0.86735571  0.56114991  1
  O  O50  1  0.51845642  0.72443223  0.41254810  1
  O  O51  1  0.40570505  0.86735571  0.93885009  1
