# generated using pymatgen
data_Li7P3S11
_symmetry_space_group_name_H-M   'P 1'
_cell_length_a   6.18883806
_cell_length_b   12.62787541
_cell_length_c   12.67313231
_cell_angle_alpha   107.48331524
_cell_angle_beta   103.55244011
_cell_angle_gamma   101.86041345
_symmetry_Int_Tables_number   1
_chemical_formula_structural   Li7P3S11
_chemical_formula_sum   'Li14 P6 S22'
_cell_volume   876.76721355
_cell_formula_units_Z   2
loop_
 _symmetry_equiv_pos_site_id
 _symmetry_equiv_pos_as_xyz
  1  'x, y, z'
loop_
 _atom_site_type_symbol
 _atom_site_label
 _atom_site_symmetry_multiplicity
 _atom_site_fract_x
 _atom_site_fract_y
 _atom_site_fract_z
 _atom_site_occupancy
  Li  Li0  1  0.73546785  0.66833124  0.10393171  1
  Li  Li1  1  0.21349678  0.03562704  0.75422187  1
  Li  Li2  1  0.62351824  0.34317424  0.50770225  1
  Li  Li3  1  0.57664779  0.86468179  0.87873089  1
  Li  Li4  1  0.69638771  0.17869952  0.70547180  1
  Li  Li5  1  0.30361229  0.82130048  0.29452820  1
  Li  Li6  1  0.78650322  0.96437296  0.24577813  1
  Li  Li7  1  0.86272147  0.38272471  0.11284124  1
  Li  Li8  1  0.98591133  0.68099712  0.67998543  1
  Li  Li9  1  0.13727853  0.61727529  0.88715876  1
  Li  Li10  1  0.26453215  0.33166876  0.89606829  1
  Li  Li11  1  0.42335221  0.13531821  0.12126911  1
  Li  Li12  1  0.37648176  0.65682576  0.49229775  1
  Li  Li13  1  0.01408867  0.31900288  0.32001457  1
  P  P14  1  0.51184937  0.47554771  0.27763978  1
  P  P15  1  0.83047075  0.78848991  0.45442956  1
  P  P16  1  0.87665594  0.16711389  0.94396722  1
  P  P17  1  0.12334406  0.83288611  0.05603278  1
  P  P18  1  0.48815063  0.52445229  0.72236022  1
  P  P19  1  0.16952925  0.21151009  0.54557044  1
  S  S20  1  0.90784999  0.81641328  0.31716490  1
  S  S21  1  0.20378207  0.50207853  0.29503126  1
  S  S22  1  0.78096240  0.60430921  0.43124335  1
  S  S23  1  0.44399794  0.15975345  0.51698703  1
  S  S24  1  0.56179776  0.48163212  0.12777007  1
  S  S25  1  0.43820224  0.51836788  0.87222993  1
  S  S26  1  0.55600206  0.84024655  0.48301297  1
  S  S27  1  0.10539553  0.83675222  0.60133556  1
  S  S28  1  0.36384385  0.97120819  0.19644995  1
  S  S29  1  0.20547222  0.15431571  0.94867219  1
  S  S30  1  0.57051942  0.33136765  0.30712961  1
  S  S31  1  0.89460447  0.16324778  0.39866444  1
  S  S32  1  0.21903760  0.39569079  0.56875665  1
  S  S33  1  0.82768748  0.17665685  0.10104764  1
  S  S34  1  0.63615615  0.02879181  0.80355005  1
  S  S35  1  0.79452778  0.84568429  0.05132781  1
  S  S36  1  0.09215001  0.18358672  0.68283510  1
  S  S37  1  0.85534371  0.31711356  0.91260449  1
  S  S38  1  0.79621793  0.49792147  0.70496874  1
  S  S39  1  0.42948058  0.66863235  0.69287039  1
  S  S40  1  0.17231252  0.82334315  0.89895236  1
  S  S41  1  0.14465629  0.68288644  0.08739551  1
