# generated using pymatgen
data_Ca3SiO5
_symmetry_space_group_name_H-M   'P 1'
_cell_length_a   11.74047450
_cell_length_b   13.76901658
_cell_length_c   14.32939132
_cell_angle_alpha   104.86428925
_cell_angle_beta   90.12681002
_cell_angle_gamma   94.38732814
_symmetry_Int_Tables_number   1
_chemical_formula_structural   Ca3SiO5
_chemical_formula_sum   'Ca54 Si18 O90'
_cell_volume   2231.76472278
_cell_formula_units_Z   18
loop_
 _symmetry_equiv_pos_site_id
 _symmetry_equiv_pos_as_xyz
  1  'x, y, z'
loop_
 _atom_site_type_symbol
 _atom_site_label
 _atom_site_symmetry_multiplicity
 _atom_site_fract_x
 _atom_site_fract_y
 _atom_site_fract_z
 _atom_site_occupancy
  Ca  Ca0  1  0.63974305  0.71067392  0.94560898  1
  Ca  Ca1  1  0.71056128  0.97360145  0.00384681  1
  Ca  Ca2  1  0.64417674  0.72241347  0.18011091  1
  Ca  Ca3  1  0.12726754  0.18369643  0.91912144  1
  Ca  Ca4  1  0.62205845  0.71129161  0.41405256  1
  Ca  Ca5  1  0.13845249  0.18526435  0.42667894  1
  Ca  Ca6  1  0.53489733  0.14898715  0.90819686  1
  Ca  Ca7  1  0.94632939  0.38202078  0.83403533  1
  Ca  Ca8  1  0.37794155  0.28870839  0.58594744  1
  Ca  Ca9  1  0.19304921  0.48345743  0.75305036  1
  Ca  Ca10  1  0.36025695  0.28932608  0.05439102  1
  Ca  Ca11  1  0.61787678  0.69607052  0.65260907  1
  Ca  Ca12  1  0.64568817  0.34742211  0.84727674  1
  Ca  Ca13  1  0.87273246  0.81630357  0.08087856  1
  Ca  Ca14  1  0.02010480  0.99036845  0.26065472  1
  Ca  Ca15  1  0.86154751  0.81473565  0.57332106  1
  Ca  Ca16  1  0.38212322  0.30392948  0.34739093  1
  Ca  Ca17  1  0.80695079  0.51654257  0.24694964  1
  Ca  Ca18  1  0.67779403  0.33342948  0.32172479  1
  Ca  Ca19  1  0.70123722  0.95927025  0.48750810  1
  Ca  Ca20  1  0.05367061  0.61797922  0.16596467  1
  Ca  Ca21  1  0.81012753  0.18460232  0.67220830  1
  Ca  Ca22  1  0.00000000  0.00000000  0.00000000  1
  Ca  Ca23  1  0.97989520  0.00963155  0.73934528  1
  Ca  Ca24  1  0.64948247  0.33437130  0.08190572  1
  Ca  Ca25  1  0.21408464  0.46541486  0.24129774  1
  Ca  Ca26  1  0.29876278  0.04072975  0.51249190  1
  Ca  Ca27  1  0.84587379  0.16940471  0.16562874  1
  Ca  Ca28  1  0.18987247  0.81539768  0.32779170  1
  Ca  Ca29  1  0.96641599  0.36778534  0.33433400  1
  Ca  Ca30  1  0.46249027  0.84918870  0.58458144  1
  Ca  Ca31  1  0.32220597  0.66657052  0.67827521  1
  Ca  Ca32  1  0.35582326  0.27758653  0.81988909  1
  Ca  Ca33  1  0.30343471  0.02344335  0.27681213  1
  Ca  Ca34  1  0.03358401  0.63221466  0.66566600  1
  Ca  Ca35  1  0.46510267  0.85101285  0.09180314  1
  Ca  Ca36  1  0.28943872  0.02639855  0.99615319  1
  Ca  Ca37  1  0.00000000  0.00000000  0.50000000  1
  Ca  Ca38  1  0.50000000  0.50000000  0.00000000  1
  Ca  Ca39  1  0.66751416  0.35078767  0.58940096  1
  Ca  Ca40  1  0.96843176  0.37570328  0.10400648  1
  Ca  Ca41  1  0.95106331  0.37576226  0.60312190  1
  Ca  Ca42  1  0.69656529  0.97655665  0.72318787  1
  Ca  Ca43  1  0.27553484  0.03089754  0.76321142  1
  Ca  Ca44  1  0.33248584  0.64921233  0.41059904  1
  Ca  Ca45  1  0.72446516  0.96910246  0.23678858  1
  Ca  Ca46  1  0.78591536  0.53458514  0.75870226  1
  Ca  Ca47  1  0.35431183  0.65257789  0.15272326  1
  Ca  Ca48  1  0.53750973  0.15081130  0.41541856  1
  Ca  Ca49  1  0.50000000  0.50000000  0.50000000  1
  Ca  Ca50  1  0.03156824  0.62429672  0.89599352  1
  Ca  Ca51  1  0.04893669  0.62423774  0.39687810  1
  Ca  Ca52  1  0.15412621  0.83059529  0.83437126  1
  Ca  Ca53  1  0.35051753  0.66562870  0.91809428  1
  Si  Si54  1  0.50646897  0.49563631  0.75269791  1
  Si  Si55  1  0.12605015  0.21687742  0.67843103  1
  Si  Si56  1  0.19136602  0.44906865  0.49747107  1
  Si  Si57  1  0.87394985  0.78312258  0.32156897  1
  Si  Si58  1  0.80011909  0.54633583  0.01845611  1
  Si  Si59  1  0.16021411  0.81815219  0.07900177  1
  Si  Si60  1  0.82980173  0.16598565  0.41651599  1
  Si  Si61  1  0.47386629  0.87164274  0.34390918  1
  Si  Si62  1  0.15274026  0.20455416  0.18145969  1
  Si  Si63  1  0.49353103  0.50436369  0.24730209  1
  Si  Si64  1  0.47590700  0.87804268  0.84407141  1
  Si  Si65  1  0.19988091  0.45366417  0.98154389  1
  Si  Si66  1  0.52409300  0.12195732  0.15592859  1
  Si  Si67  1  0.83978589  0.18184781  0.92099823  1
  Si  Si68  1  0.52613371  0.12835726  0.65609082  1
  Si  Si69  1  0.80863398  0.55093135  0.50252893  1
  Si  Si70  1  0.84725974  0.79544584  0.81854031  1
  Si  Si71  1  0.17019827  0.83401435  0.58348401  1
  O  O72  1  0.89588822  0.99995503  0.14030280  1
  O  O73  1  0.58189683  0.51602609  0.66076692  1
  O  O74  1  0.17982825  0.75891522  0.47397374  1
  O  O75  1  0.49554443  0.32426691  0.94482471  1
  O  O76  1  0.16080977  0.88646745  0.19229879  1
  O  O77  1  0.89054921  0.52622260  0.09776368  1
  O  O78  1  0.04860463  0.73218344  0.05892023  1
  O  O79  1  0.10945079  0.47377740  0.90223632  1
  O  O80  1  0.28181909  0.91889225  0.60538197  1
  O  O81  1  0.14496962  0.47298163  0.08972384  1
  O  O82  1  0.94830236  0.10573080  0.40255033  1
  O  O83  1  0.55804949  0.33804058  0.45123619  1
  O  O84  1  0.96718144  0.73815010  0.80535252  1
  O  O85  1  0.82017175  0.24108478  0.52602626  1
  O  O86  1  0.34706928  0.92009212  0.85196488  1
  O  O87  1  0.83919023  0.11353255  0.80770121  1
  O  O88  1  0.61175459  0.44606208  0.23908711  1
  O  O89  1  0.48840532  0.80751461  0.73300070  1
  O  O90  1  0.50445557  0.67573309  0.05517529  1
  O  O91  1  0.17439120  0.52653784  0.60441651  1
  O  O92  1  0.85978165  0.85244728  0.24480324  1
  O  O93  1  0.22232500  0.64305745  0.26900694  1
  O  O94  1  0.51185201  0.19169722  0.07842893  1
  O  O95  1  0.58511730  0.53571811  0.85348550  1
  O  O96  1  0.38755992  0.13704589  0.67525452  1
  O  O97  1  0.82735358  0.23251371  0.33575852  1
  O  O98  1  0.38824541  0.55393792  0.76091289  1
  O  O99  1  0.86282389  0.85869544  0.43026133  1
  O  O100  1  0.14720175  0.89322125  0.00657913  1
  O  O101  1  0.77272456  0.68875454  0.30213375  1
  O  O102  1  0.39690811  0.83199170  0.24318607  1
  O  O103  1  0.80245030  0.33441846  0.18174188  1
  O  O104  1  0.85503038  0.52701837  0.91027616  1
  O  O105  1  0.44347037  0.98956853  0.39005966  1
  O  O106  1  0.31311547  0.53139376  0.98264672  1
  O  O107  1  0.68688453  0.46860624  0.01735328  1
  O  O108  1  0.84007758  0.01461060  0.60807674  1
  O  O109  1  0.95139537  0.26781656  0.94107977  1
  O  O110  1  0.82560880  0.47346216  0.39558349  1
  O  O111  1  0.77767500  0.35694255  0.73099306  1
  O  O112  1  0.19754970  0.66558154  0.81825812  1
  O  O113  1  0.68401346  0.59873192  0.50156806  1
  O  O114  1  0.66309240  0.82341231  0.56672974  1
  O  O115  1  0.41488270  0.46428189  0.14651450  1
  O  O116  1  0.65293072  0.07990788  0.14803512  1
  O  O117  1  0.99972080  0.73588922  0.30745260  1
  O  O118  1  0.99103465  0.50542707  0.74101069  1
  O  O119  1  0.71818091  0.08110775  0.39461803  1
  O  O120  1  0.14021835  0.14755272  0.75519676  1
  O  O121  1  0.60309189  0.16800830  0.75681393  1
  O  O122  1  0.48028373  0.37220412  0.73392880  1
  O  O123  1  0.23306624  0.33574646  0.94872070  1
  O  O124  1  0.57850972  0.97337833  0.86953524  1
  O  O125  1  0.84242735  0.86014637  0.93355225  1
  O  O126  1  0.33337660  0.14510159  0.90645927  1
  O  O127  1  0.85279825  0.10677875  0.99342087  1
  O  O128  1  0.72081325  0.23854737  0.94203593  1
  O  O129  1  0.00027920  0.26411078  0.69254740  1
  O  O130  1  0.15757265  0.13985363  0.06644775  1
  O  O131  1  0.08548340  0.35614006  0.47241443  1
  O  O132  1  0.76693376  0.66425354  0.05127930  1
  O  O133  1  0.18267826  0.51130255  0.41371464  1
  O  O134  1  0.41810317  0.48397391  0.33923308  1
  O  O135  1  0.10411178  0.00004497  0.85969720  1
  O  O136  1  0.15843863  0.12999667  0.25497791  1
  O  O137  1  0.42149028  0.02662167  0.13046476  1
  O  O138  1  0.48814799  0.80830278  0.92157107  1
  O  O139  1  0.00896535  0.49457293  0.25898931  1
  O  O140  1  0.81732174  0.48869745  0.58628536  1
  O  O141  1  0.51971627  0.62779588  0.26607120  1
  O  O142  1  0.55652963  0.01043147  0.60994034  1
  O  O143  1  0.05169764  0.89426920  0.59744967  1
  O  O144  1  0.51159468  0.19248539  0.26699930  1
  O  O145  1  0.15992242  0.98538940  0.39192326  1
  O  O146  1  0.22727544  0.31124546  0.69786625  1
  O  O147  1  0.17264642  0.76748629  0.66424148  1
  O  O148  1  0.44195051  0.66195942  0.54876381  1
  O  O149  1  0.26189528  0.29172372  0.20739142  1
  O  O150  1  0.13717611  0.14130456  0.56973867  1
  O  O151  1  0.03281856  0.26184990  0.19464748  1
  O  O152  1  0.84156137  0.87000333  0.74502209  1
  O  O153  1  0.43995750  0.80294924  0.41995093  1
  O  O154  1  0.61244008  0.86295411  0.32474548  1
  O  O155  1  0.73810472  0.70827628  0.79260858  1
  O  O156  1  0.91451660  0.64385994  0.52758557  1
  O  O157  1  0.31598654  0.40126808  0.49843194  1
  O  O158  1  0.27918675  0.76145263  0.05796407  1
  O  O159  1  0.66662340  0.85489841  0.09354073  1
  O  O160  1  0.33690760  0.17658769  0.43327026  1
  O  O161  1  0.56004250  0.19705076  0.58004907  1
