# generated using pymatgen
data_Sr2DyGaCu2O7
_symmetry_space_group_name_H-M   'P 1'
_cell_length_a   5.41494657
_cell_length_b   5.51836178
_cell_length_c   12.21255970
_cell_angle_alpha   103.05798072
_cell_angle_beta   102.80827555
_cell_angle_gamma   90.00417309
_symmetry_Int_Tables_number   1
_chemical_formula_structural   Sr2DyGaCu2O7
_chemical_formula_sum   'Sr4 Dy2 Ga2 Cu4 O14'
_cell_volume   346.16551680
_cell_formula_units_Z   2
loop_
 _symmetry_equiv_pos_site_id
 _symmetry_equiv_pos_as_xyz
  1  'x, y, z'
loop_
 _atom_site_type_symbol
 _atom_site_label
 _atom_site_symmetry_multiplicity
 _atom_site_fract_x
 _atom_site_fract_y
 _atom_site_fract_z
 _atom_site_occupancy
  Sr  Sr0  1  0.14892324  0.16641021  0.30233480  1
  Sr  Sr1  1  0.64894545  0.63586969  0.30234589  1
  Sr  Sr2  1  0.34661029  0.36412061  0.69767381  1
  Sr  Sr3  1  0.84662863  0.83355005  0.69766977  1
  Dy  Dy4  1  0.50026909  0.49997112  -0.00000310  1
  Dy  Dy5  1  0.00028731  0.99999503  0.99998831  1
  Ga  Ga6  1  0.20889370  0.81831324  0.50000131  1
  Ga  Ga7  1  0.70897832  0.18175369  0.50001464  1
  Cu  Cu8  1  0.92888473  0.42790266  0.85696034  1
  Cu  Cu9  1  0.57174514  0.07088924  0.14292782  1
  Cu  Cu10  1  0.07206404  0.57235365  0.14357809  1
  Cu  Cu11  1  0.42869264  0.92881572  0.85656059  1
  O  O12  1  0.68864327  0.68775750  0.87786737  1
  O  O13  1  0.19972100  0.63152236  0.35238368  1
  O  O14  1  0.68537993  0.18557192  0.87015562  1
  O  O15  1  0.85697798  0.86654356  0.50001295  1
  O  O16  1  0.81509072  0.81470394  0.12992383  1
  O  O17  1  0.31065641  0.31001967  0.12210903  1
  O  O18  1  0.18842303  0.68978709  0.87788614  1
  O  O19  1  0.35696956  0.13340543  0.50001028  1
  O  O20  1  0.31506795  0.81534587  0.12982915  1
  O  O21  1  0.34732746  0.77909524  0.64759924  1
  O  O22  1  0.69977024  0.22102519  0.35246826  1
  O  O23  1  0.18509524  0.18480614  0.87006588  1
  O  O24  1  0.84733963  0.36851935  0.64754444  1
  O  O25  1  0.81061600  0.31195282  0.12209184  1
