# generated using pymatgen
data_MoSe2Cl4O
_symmetry_space_group_name_H-M   'P 1'
_cell_length_a   7.93481842
_cell_length_b   14.51094469
_cell_length_c   16.22736391
_cell_angle_alpha   110.97080375
_cell_angle_beta   90.00000000
_cell_angle_gamma   90.00000000
_symmetry_Int_Tables_number   1
_chemical_formula_structural   MoSe2Cl4O
_chemical_formula_sum   'Mo8 Se16 Cl32 O8'
_cell_volume   1744.68601078
_cell_formula_units_Z   8
loop_
 _symmetry_equiv_pos_site_id
 _symmetry_equiv_pos_as_xyz
  1  'x, y, z'
loop_
 _atom_site_type_symbol
 _atom_site_label
 _atom_site_symmetry_multiplicity
 _atom_site_fract_x
 _atom_site_fract_y
 _atom_site_fract_z
 _atom_site_occupancy
  Mo  Mo0  1  0.28511250  0.54222751  0.09055756  1
  Mo  Mo1  1  0.89468102  0.11661220  0.96356810  1
  Mo  Mo2  1  0.71488750  0.45777249  0.90944244  1
  Mo  Mo3  1  0.39468102  0.88338780  0.53643190  1
  Mo  Mo4  1  0.21488750  0.54222751  0.59055756  1
  Mo  Mo5  1  0.10531898  0.88338780  0.03643190  1
  Mo  Mo6  1  0.60531898  0.11661220  0.46356810  1
  Mo  Mo7  1  0.78511250  0.45777249  0.40944244  1
  Se  Se8  1  0.22619235  0.31691037  0.23583486  1
  Se  Se9  1  0.96229988  0.15836435  0.71443782  1
  Se  Se10  1  0.72619235  0.68308963  0.26416514  1
  Se  Se11  1  0.22005249  0.19184906  0.78971858  1
  Se  Se12  1  0.98208793  0.71778347  0.34217300  1
  Se  Se13  1  0.77994751  0.80815094  0.21028142  1
  Se  Se14  1  0.72005249  0.80815094  0.71028142  1
  Se  Se15  1  0.01791207  0.28221653  0.65782700  1
  Se  Se16  1  0.27994751  0.19184906  0.28971858  1
  Se  Se17  1  0.46229988  0.84163565  0.78556218  1
  Se  Se18  1  0.27380765  0.31691037  0.73583486  1
  Se  Se19  1  0.77380765  0.68308963  0.76416514  1
  Se  Se20  1  0.53770012  0.15836435  0.21443782  1
  Se  Se21  1  0.51791207  0.71778347  0.84217300  1
  Se  Se22  1  0.03770012  0.84163565  0.28556218  1
  Se  Se23  1  0.48208793  0.28221653  0.15782700  1
  Cl  Cl24  1  0.65616203  0.47193253  0.05929874  1
  Cl  Cl25  1  0.83352286  0.92689045  0.99369142  1
  Cl  Cl26  1  0.34383797  0.52806747  0.94070126  1
  Cl  Cl27  1  0.46633288  0.98960199  0.68661335  1
  Cl  Cl28  1  0.83905812  0.18968433  0.12091860  1
  Cl  Cl29  1  0.15616203  0.52806747  0.44070126  1
  Cl  Cl30  1  0.53366712  0.01039801  0.31338665  1
  Cl  Cl31  1  0.25234990  0.36772570  0.53955035  1
  Cl  Cl32  1  0.96633288  0.01039801  0.81338665  1
  Cl  Cl33  1  0.89448738  0.09075456  0.43599876  1
  Cl  Cl34  1  0.39448738  0.90924544  0.06400124  1
  Cl  Cl35  1  0.84383797  0.47193253  0.55929874  1
  Cl  Cl36  1  0.33352286  0.07310955  0.50630858  1
  Cl  Cl37  1  0.16094188  0.81031567  0.87908140  1
  Cl  Cl38  1  0.57290051  0.29954852  0.86002419  1
  Cl  Cl39  1  0.66094188  0.18968433  0.62091860  1
  Cl  Cl40  1  0.10551262  0.90924544  0.56400124  1
  Cl  Cl41  1  0.16647714  0.07310955  0.00630858  1
  Cl  Cl42  1  0.74765010  0.63227430  0.46044965  1
  Cl  Cl43  1  0.35247163  0.53369411  0.23105045  1
  Cl  Cl44  1  0.03366712  0.98960199  0.18661335  1
  Cl  Cl45  1  0.60551262  0.09075456  0.93599876  1
  Cl  Cl46  1  0.42709949  0.70045148  0.13997581  1
  Cl  Cl47  1  0.92709949  0.29954852  0.36002419  1
  Cl  Cl48  1  0.33905812  0.81031567  0.37908140  1
  Cl  Cl49  1  0.07290051  0.70045148  0.63997581  1
  Cl  Cl50  1  0.66647714  0.92689045  0.49369142  1
  Cl  Cl51  1  0.24765010  0.36772570  0.03955035  1
  Cl  Cl52  1  0.64752837  0.46630589  0.76894955  1
  Cl  Cl53  1  0.75234990  0.63227430  0.96044965  1
  Cl  Cl54  1  0.14752837  0.53369411  0.73105045  1
  Cl  Cl55  1  0.85247163  0.46630589  0.26894955  1
  O  O56  1  0.91713446  0.41821332  0.89495179  1
  O  O57  1  0.08286554  0.58178668  0.10504821  1
  O  O58  1  0.06950029  0.77603470  0.05291649  1
  O  O59  1  0.56950029  0.22396530  0.44708351  1
  O  O60  1  0.41713446  0.58178668  0.60504821  1
  O  O61  1  0.93049971  0.22396530  0.94708351  1
  O  O62  1  0.58286554  0.41821332  0.39495179  1
  O  O63  1  0.43049971  0.77603470  0.55291649  1
