# generated using pymatgen
data_Fe(NiS2)2
_symmetry_space_group_name_H-M   'P 1'
_cell_length_a   6.62958051
_cell_length_b   6.62958022
_cell_length_c   6.59587441
_cell_angle_alpha   60.16804040
_cell_angle_beta   60.16804181
_cell_angle_gamma   60.24318082
_symmetry_Int_Tables_number   1
_chemical_formula_structural   Fe(NiS2)2
_chemical_formula_sum   'Fe2 Ni4 S8'
_cell_volume   205.88454273
_cell_formula_units_Z   2
loop_
 _symmetry_equiv_pos_site_id
 _symmetry_equiv_pos_as_xyz
  1  'x, y, z'
loop_
 _atom_site_type_symbol
 _atom_site_label
 _atom_site_symmetry_multiplicity
 _atom_site_fract_x
 _atom_site_fract_y
 _atom_site_fract_z
 _atom_site_occupancy
  Fe  Fe0  1  0.50000000  0.50000000  0.50000000  1
  Fe  Fe1  1  0.50000000  0.50000000  0.00000000  1
  Ni  Ni2  1  0.12362721  0.12362721  0.12637279  1
  Ni  Ni3  1  0.00000000  0.50000000  0.50000000  1
  Ni  Ni4  1  0.50000000  0.00000000  0.50000000  1
  Ni  Ni5  1  0.87637279  0.87637279  0.87362721  1
  S  S6  1  0.26078402  0.26078402  0.25255952  1
  S  S7  1  0.26078402  0.26078402  0.72587243  1
  S  S8  1  0.26568753  0.72346566  0.25542340  1
  S  S9  1  0.72346566  0.26568753  0.25542340  1
  S  S10  1  0.27653434  0.73431247  0.74457660  1
  S  S11  1  0.73431247  0.27653434  0.74457660  1
  S  S12  1  0.73921598  0.73921598  0.27412757  1
  S  S13  1  0.73921598  0.73921598  0.74744048  1
