# generated using pymatgen
data_Bi4Cl2O5
_symmetry_space_group_name_H-M   'P 1'
_cell_length_a   3.86079924
_cell_length_b   15.48087328
_cell_length_c   41.30677748
_cell_angle_alpha   90.00000000
_cell_angle_beta   90.00000000
_cell_angle_gamma   90.00000000
_symmetry_Int_Tables_number   1
_chemical_formula_structural   Bi4Cl2O5
_chemical_formula_sum   'Bi48 Cl24 O60'
_cell_volume   2468.84593880
_cell_formula_units_Z   12
loop_
 _symmetry_equiv_pos_site_id
 _symmetry_equiv_pos_as_xyz
  1  'x, y, z'
loop_
 _atom_site_type_symbol
 _atom_site_label
 _atom_site_symmetry_multiplicity
 _atom_site_fract_x
 _atom_site_fract_y
 _atom_site_fract_z
 _atom_site_occupancy
  Bi  Bi0  1  0.75000000  0.88607664  0.84167847  1
  Bi  Bi1  1  0.25000000  0.51623100  0.26833633  1
  Bi  Bi2  1  0.75000000  0.25768743  0.59695533  1
  Bi  Bi3  1  0.75000000  0.23830287  0.40798894  1
  Bi  Bi4  1  0.25000000  0.63448260  0.17550441  1
  Bi  Bi5  1  0.75000000  0.78754407  0.74693352  1
  Bi  Bi6  1  0.25000000  0.46650566  0.91129545  1
  Bi  Bi7  1  0.25000000  0.21245593  0.25306648  1
  Bi  Bi8  1  0.25000000  0.38607664  0.65832153  1
  Bi  Bi9  1  0.25000000  0.10979201  0.64969228  1
  Bi  Bi10  1  0.75000000  0.60979201  0.85030772  1
  Bi  Bi11  1  0.25000000  0.34185272  0.33821220  1
  Bi  Bi12  1  0.25000000  0.03349434  0.41129545  1
  Bi  Bi13  1  0.75000000  0.10099712  0.99253423  1
  Bi  Bi14  1  0.75000000  0.36551740  0.82449559  1
  Bi  Bi15  1  0.75000000  0.26169713  0.90798894  1
  Bi  Bi16  1  0.75000000  0.48376900  0.73166367  1
  Bi  Bi17  1  0.75000000  0.13448260  0.32449559  1
  Bi  Bi18  1  0.75000000  0.71245593  0.24693352  1
  Bi  Bi19  1  0.75000000  0.09622211  0.49086847  1
  Bi  Bi20  1  0.75000000  0.96650566  0.58870455  1
  Bi  Bi21  1  0.75000000  0.52637454  0.57806912  1
  Bi  Bi22  1  0.25000000  0.75768743  0.90304467  1
  Bi  Bi23  1  0.25000000  0.90377789  0.50913153  1
  Bi  Bi24  1  0.75000000  0.89020799  0.35030772  1
  Bi  Bi25  1  0.75000000  0.84185272  0.16178780  1
  Bi  Bi26  1  0.25000000  0.89900288  0.00746577  1
  Bi  Bi27  1  0.25000000  0.76169713  0.59201106  1
  Bi  Bi28  1  0.75000000  0.40377789  0.99086847  1
  Bi  Bi29  1  0.25000000  0.15814728  0.83821220  1
  Bi  Bi30  1  0.25000000  0.74231257  0.40304467  1
  Bi  Bi31  1  0.25000000  0.11392336  0.15832153  1
  Bi  Bi32  1  0.25000000  0.47362546  0.42193088  1
  Bi  Bi33  1  0.75000000  0.97362546  0.07806912  1
  Bi  Bi34  1  0.25000000  0.28754407  0.75306648  1
  Bi  Bi35  1  0.75000000  0.01623100  0.23166367  1
  Bi  Bi36  1  0.25000000  0.98376900  0.76833633  1
  Bi  Bi37  1  0.25000000  0.39020799  0.14969228  1
  Bi  Bi38  1  0.75000000  0.39900288  0.49253423  1
  Bi  Bi39  1  0.25000000  0.73830287  0.09201106  1
  Bi  Bi40  1  0.25000000  0.60099712  0.50746577  1
  Bi  Bi41  1  0.25000000  0.59622211  0.00913153  1
  Bi  Bi42  1  0.75000000  0.61392336  0.34167847  1
  Bi  Bi43  1  0.75000000  0.65814728  0.66178780  1
  Bi  Bi44  1  0.75000000  0.53349434  0.08870455  1
  Bi  Bi45  1  0.75000000  0.24231257  0.09695533  1
  Bi  Bi46  1  0.25000000  0.02637454  0.92193088  1
  Bi  Bi47  1  0.25000000  0.86551740  0.67550441  1
  Cl  Cl48  1  0.25000000  0.63635619  0.72408493  1
  Cl  Cl49  1  0.75000000  0.49102228  0.19777522  1
  Cl  Cl50  1  0.75000000  0.00897772  0.69777522  1
  Cl  Cl51  1  0.75000000  0.62536562  0.44641925  1
  Cl  Cl52  1  0.25000000  0.99102228  0.30222478  1
  Cl  Cl53  1  0.25000000  0.36167129  0.05490601  1
  Cl  Cl54  1  0.25000000  0.13832871  0.55490601  1
  Cl  Cl55  1  0.75000000  0.24244941  0.19441699  1
  Cl  Cl56  1  0.25000000  0.25542799  0.47018299  1
  Cl  Cl57  1  0.75000000  0.13635619  0.77591507  1
  Cl  Cl58  1  0.25000000  0.75755059  0.80558301  1
  Cl  Cl59  1  0.75000000  0.87463438  0.94641925  1
  Cl  Cl60  1  0.75000000  0.86167129  0.44509399  1
  Cl  Cl61  1  0.25000000  0.50897772  0.80222478  1
  Cl  Cl62  1  0.25000000  0.74244941  0.30558301  1
  Cl  Cl63  1  0.25000000  0.12536562  0.05358075  1
  Cl  Cl64  1  0.25000000  0.24457201  0.97018299  1
  Cl  Cl65  1  0.75000000  0.75542799  0.02981701  1
  Cl  Cl66  1  0.75000000  0.36364381  0.27591507  1
  Cl  Cl67  1  0.75000000  0.25755059  0.69441699  1
  Cl  Cl68  1  0.75000000  0.74457201  0.52981701  1
  Cl  Cl69  1  0.25000000  0.37463438  0.55358075  1
  Cl  Cl70  1  0.75000000  0.63832871  0.94509399  1
  Cl  Cl71  1  0.25000000  0.86364381  0.22408493  1
  O  O72  1  0.25000000  0.25596957  0.62693280  1
  O  O73  1  0.75000000  0.38996002  0.62453719  1
  O  O74  1  0.25000000  0.98276986  0.62630017  1
  O  O75  1  0.25000000  0.03026634  0.97995707  1
  O  O76  1  0.25000000  0.09075100  0.22393102  1
  O  O77  1  0.25000000  0.51191942  0.32065684  1
  O  O78  1  0.25000000  0.73116825  0.64867594  1
  O  O79  1  0.75000000  0.79525790  0.69054438  1
  O  O80  1  0.75000000  0.26883175  0.35132406  1
  O  O81  1  0.25000000  0.29525790  0.80945562  1
  O  O82  1  0.75000000  0.70474210  0.19054438  1
  O  O83  1  0.25000000  0.46973366  0.47995707  1
  O  O84  1  0.25000000  0.89629106  0.56456229  1
  O  O85  1  0.25000000  0.13974074  0.88997114  1
  O  O86  1  0.75000000  0.66731163  0.10999437  1
  O  O87  1  0.75000000  0.37285994  0.12249781  1
  O  O88  1  0.75000000  0.59075100  0.27606898  1
  O  O89  1  0.75000000  0.75596957  0.87306720  1
  O  O90  1  0.25000000  0.98808058  0.82065684  1
  O  O91  1  0.75000000  0.97205488  0.52110472  1
  O  O92  1  0.25000000  0.20474210  0.30945562  1
  O  O93  1  0.75000000  0.11003998  0.12453719  1
  O  O94  1  0.25000000  0.88996002  0.87546281  1
  O  O95  1  0.25000000  0.36025926  0.38997114  1
  O  O96  1  0.25000000  0.60370894  0.06456229  1
  O  O97  1  0.75000000  0.23116825  0.85132406  1
  O  O98  1  0.25000000  0.62714006  0.87750219  1
  O  O99  1  0.75000000  0.83268837  0.60999437  1
  O  O100  1  0.25000000  0.91001968  0.06154468  1
  O  O101  1  0.25000000  0.85461134  0.73232640  1
  O  O102  1  0.75000000  0.10370894  0.43543771  1
  O  O103  1  0.75000000  0.08998032  0.93845532  1
  O  O104  1  0.75000000  0.63974074  0.61002886  1
  O  O105  1  0.25000000  0.40924900  0.72393102  1
  O  O106  1  0.75000000  0.35461134  0.76767360  1
  O  O107  1  0.25000000  0.24403043  0.12693280  1
  O  O108  1  0.75000000  0.86025926  0.11002886  1
  O  O109  1  0.75000000  0.39629106  0.93543771  1
  O  O110  1  0.25000000  0.16731163  0.39000563  1
  O  O111  1  0.25000000  0.33268837  0.89000563  1
  O  O112  1  0.75000000  0.48276986  0.87369983  1
  O  O113  1  0.25000000  0.58998032  0.56154468  1
  O  O114  1  0.75000000  0.12714006  0.62249781  1
  O  O115  1  0.75000000  0.96973366  0.02004293  1
  O  O116  1  0.75000000  0.74403043  0.37306720  1
  O  O117  1  0.75000000  0.53026634  0.52004293  1
  O  O118  1  0.25000000  0.02794512  0.47889528  1
  O  O119  1  0.75000000  0.48808058  0.67934316  1
  O  O120  1  0.25000000  0.76883175  0.14867594  1
  O  O121  1  0.25000000  0.64538866  0.23232640  1
  O  O122  1  0.75000000  0.52794512  0.02110472  1
  O  O123  1  0.25000000  0.61003998  0.37546281  1
  O  O124  1  0.75000000  0.90924900  0.77606898  1
  O  O125  1  0.75000000  0.01723014  0.37369983  1
  O  O126  1  0.25000000  0.47205488  0.97889528  1
  O  O127  1  0.75000000  0.14538866  0.26767360  1
  O  O128  1  0.75000000  0.41001968  0.43845532  1
  O  O129  1  0.25000000  0.51723014  0.12630017  1
  O  O130  1  0.25000000  0.87285994  0.37750219  1
  O  O131  1  0.75000000  0.01191942  0.17934316  1
