# generated using pymatgen
data_K3Ce2(NO3)9
_symmetry_space_group_name_H-M   'P 1'
_cell_length_a   13.67257622
_cell_length_b   13.67257622
_cell_length_c   13.67257622
_cell_angle_alpha   90.00000000
_cell_angle_beta   90.00000000
_cell_angle_gamma   90.00000000
_symmetry_Int_Tables_number   1
_chemical_formula_structural   K3Ce2(NO3)9
_chemical_formula_sum   'K12 Ce8 N36 O108'
_cell_volume   2555.94238139
_cell_formula_units_Z   4
loop_
 _symmetry_equiv_pos_site_id
 _symmetry_equiv_pos_as_xyz
  1  'x, y, z'
loop_
 _atom_site_type_symbol
 _atom_site_label
 _atom_site_symmetry_multiplicity
 _atom_site_fract_x
 _atom_site_fract_y
 _atom_site_fract_z
 _atom_site_occupancy
  K  K0  1  0.18746994  0.56253006  0.37500000  1
  K  K1  1  0.56253006  0.37500000  0.18746994  1
  K  K2  1  0.93746994  0.62500000  0.68746994  1
  K  K3  1  0.37500000  0.18746994  0.56253006  1
  K  K4  1  0.81253006  0.06253006  0.12500000  1
  K  K5  1  0.68746994  0.93746994  0.62500000  1
  K  K6  1  0.12500000  0.81253006  0.06253006  1
  K  K7  1  0.43746994  0.87500000  0.31253006  1
  K  K8  1  0.62500000  0.68746994  0.93746994  1
  K  K9  1  0.87500000  0.31253006  0.43746994  1
  K  K10  1  0.06253006  0.12500000  0.81253006  1
  K  K11  1  0.31253006  0.43746994  0.87500000  1
  Ce  Ce12  1  0.54912973  0.54912973  0.54912973  1
  Ce  Ce13  1  0.95087027  0.45087027  0.04912973  1
  Ce  Ce14  1  0.04912973  0.95087027  0.45087027  1
  Ce  Ce15  1  0.45087027  0.04912973  0.95087027  1
  Ce  Ce16  1  0.29912973  0.79912973  0.70087027  1
  Ce  Ce17  1  0.79912973  0.70087027  0.29912973  1
  Ce  Ce18  1  0.70087027  0.29912973  0.79912973  1
  Ce  Ce19  1  0.20087027  0.20087027  0.20087027  1
  N  N20  1  0.61080610  0.16249940  0.64941916  1
  N  N21  1  0.87500000  0.48725550  0.26274450  1
  N  N22  1  0.76274450  0.62500000  0.51274450  1
  N  N23  1  0.10058084  0.58750060  0.13919390  1
  N  N24  1  0.33750060  0.35058084  0.11080610  1
  N  N25  1  0.88919390  0.83750060  0.14941916  1
  N  N26  1  0.62500000  0.51274450  0.76274450  1
  N  N27  1  0.58750060  0.13919390  0.10058084  1
  N  N28  1  0.12500000  0.98725550  0.23725550  1
  N  N29  1  0.91249940  0.86080610  0.60058084  1
  N  N30  1  0.73725550  0.37500000  0.01274450  1
  N  N31  1  0.13919390  0.10058084  0.58750060  1
  N  N32  1  0.11080610  0.33750060  0.35058084  1
  N  N33  1  0.37500000  0.01274450  0.73725550  1
  N  N34  1  0.08750060  0.36080610  0.89941916  1
  N  N35  1  0.89941916  0.08750060  0.36080610  1
  N  N36  1  0.41249940  0.63919390  0.39941916  1
  N  N37  1  0.48725550  0.26274450  0.87500000  1
  N  N38  1  0.38919390  0.66249940  0.85058084  1
  N  N39  1  0.64941916  0.61080610  0.16249940  1
  N  N40  1  0.83750060  0.14941916  0.88919390  1
  N  N41  1  0.23725550  0.12500000  0.98725550  1
  N  N42  1  0.16249940  0.64941916  0.61080610  1
  N  N43  1  0.51274450  0.76274450  0.62500000  1
  N  N44  1  0.60058084  0.91249940  0.86080610  1
  N  N45  1  0.66249940  0.85058084  0.38919390  1
  N  N46  1  0.01274450  0.73725550  0.37500000  1
  N  N47  1  0.14941916  0.88919390  0.83750060  1
  N  N48  1  0.36080610  0.89941916  0.08750060  1
  N  N49  1  0.86080610  0.60058084  0.91249940  1
  N  N50  1  0.39941916  0.41249940  0.63919390  1
  N  N51  1  0.85058084  0.38919390  0.66249940  1
  N  N52  1  0.98725550  0.23725550  0.12500000  1
  N  N53  1  0.63919390  0.39941916  0.41249940  1
  N  N54  1  0.35058084  0.11080610  0.33750060  1
  N  N55  1  0.26274450  0.87500000  0.48725550  1
  O  O56  1  0.14505138  0.32142242  0.84104831  1
  O  O57  1  0.33275619  0.07446696  0.25305534  1
  O  O58  1  0.83275619  0.42553304  0.74694466  1
  O  O59  1  0.32142242  0.84104831  0.14505138  1
  O  O60  1  0.57142242  0.10494862  0.59104831  1
  O  O61  1  0.90895169  0.42857758  0.60494862  1
  O  O62  1  0.11003716  0.43982856  0.94468812  1
  O  O63  1  0.05418437  0.30418437  0.12500000  1
  O  O64  1  0.99694466  0.82446696  0.58275619  1
  O  O65  1  0.65895169  0.85494862  0.82142242  1
  O  O66  1  0.74141039  0.59291949  0.59595905  1
  O  O67  1  0.57446696  0.24694466  0.66724381  1
  O  O68  1  0.13996284  0.69468812  0.68982856  1
  O  O69  1  0.09291949  0.90404095  0.25858961  1
  O  O70  1  0.36003716  0.30531188  0.18982856  1
  O  O71  1  0.99141039  0.65404095  0.34291949  1
  O  O72  1  0.65708051  0.49141039  0.84595905  1
  O  O73  1  0.07446696  0.25305534  0.33275619  1
  O  O74  1  0.25305534  0.33275619  0.07446696  1
  O  O75  1  0.64505138  0.17857758  0.15895169  1
  O  O76  1  0.15895169  0.64505138  0.17857758  1
  O  O77  1  0.35494862  0.67857758  0.34104831  1
  O  O78  1  0.42857758  0.60494862  0.90895169  1
  O  O79  1  0.82446696  0.58275619  0.99694466  1
  O  O80  1  0.56017144  0.44468812  0.38996284  1
  O  O81  1  0.55531188  0.88996284  0.93982856  1
  O  O82  1  0.90708051  0.40404095  0.24141039  1
  O  O83  1  0.94468812  0.11003716  0.43982856  1
  O  O84  1  0.62500000  0.44581563  0.69581563  1
  O  O85  1  0.92857758  0.89505138  0.09104831  1
  O  O86  1  0.67553304  0.41724381  0.49694466  1
  O  O87  1  0.89505138  0.09104831  0.92857758  1
  O  O88  1  0.93982856  0.55531188  0.88996284  1
  O  O89  1  0.30531188  0.18982856  0.36003716  1
  O  O90  1  0.84595905  0.65708051  0.49141039  1
  O  O91  1  0.09595905  0.75858961  0.40708051  1
  O  O92  1  0.69581563  0.62500000  0.44581563  1
  O  O93  1  0.15404095  0.15708051  0.00858961  1
  O  O94  1  0.25858961  0.09291949  0.90404095  1
  O  O95  1  0.81017144  0.86003716  0.19468812  1
  O  O96  1  0.12500000  0.05418437  0.30418437  1
  O  O97  1  0.59595905  0.74141039  0.59291949  1
  O  O98  1  0.60494862  0.90895169  0.42857758  1
  O  O99  1  0.19468812  0.81017144  0.86003716  1
  O  O100  1  0.40708051  0.09595905  0.75858961  1
  O  O101  1  0.85494862  0.82142242  0.65895169  1
  O  O102  1  0.32446696  0.91724381  0.00305534  1
  O  O103  1  0.49141039  0.84595905  0.65708051  1
  O  O104  1  0.24694466  0.66724381  0.57446696  1
  O  O105  1  0.10494862  0.59104831  0.57142242  1
  O  O106  1  0.84104831  0.14505138  0.32142242  1
  O  O107  1  0.84291949  0.50858961  0.34595905  1
  O  O108  1  0.41724381  0.49694466  0.67553304  1
  O  O109  1  0.61003716  0.06017144  0.05531188  1
  O  O110  1  0.80418437  0.37500000  0.94581563  1
  O  O111  1  0.94581563  0.80418437  0.37500000  1
  O  O112  1  0.06017144  0.05531188  0.61003716  1
  O  O113  1  0.17857758  0.15895169  0.64505138  1
  O  O114  1  0.34291949  0.99141039  0.65404095  1
  O  O115  1  0.05531188  0.61003716  0.06017144  1
  O  O116  1  0.66724381  0.57446696  0.24694466  1
  O  O117  1  0.44581563  0.69581563  0.62500000  1
  O  O118  1  0.34595905  0.84291949  0.50858961  1
  O  O119  1  0.75858961  0.40708051  0.09595905  1
  O  O120  1  0.34104831  0.35494862  0.67857758  1
  O  O121  1  0.82142242  0.65895169  0.85494862  1
  O  O122  1  0.16724381  0.92553304  0.75305534  1
  O  O123  1  0.37500000  0.94581563  0.80418437  1
  O  O124  1  0.55418437  0.19581563  0.87500000  1
  O  O125  1  0.42553304  0.74694466  0.83275619  1
  O  O126  1  0.30418437  0.12500000  0.05418437  1
  O  O127  1  0.87500000  0.55418437  0.19581563  1
  O  O128  1  0.88996284  0.93982856  0.55531188  1
  O  O129  1  0.59104831  0.57142242  0.10494862  1
  O  O130  1  0.17553304  0.08275619  0.50305534  1
  O  O131  1  0.38996284  0.56017144  0.44468812  1
  O  O132  1  0.50305534  0.17553304  0.08275619  1
  O  O133  1  0.19581563  0.87500000  0.55418437  1
  O  O134  1  0.40404095  0.24141039  0.90708051  1
  O  O135  1  0.18982856  0.36003716  0.30531188  1
  O  O136  1  0.58275619  0.99694466  0.82446696  1
  O  O137  1  0.90404095  0.25858961  0.09291949  1
  O  O138  1  0.08275619  0.50305534  0.17553304  1
  O  O139  1  0.75305534  0.16724381  0.92553304  1
  O  O140  1  0.39505138  0.40895169  0.07142242  1
  O  O141  1  0.92553304  0.75305534  0.16724381  1
  O  O142  1  0.80531188  0.31017144  0.63996284  1
  O  O143  1  0.74694466  0.83275619  0.42553304  1
  O  O144  1  0.65404095  0.34291949  0.99141039  1
  O  O145  1  0.63996284  0.80531188  0.31017144  1
  O  O146  1  0.07142242  0.39505138  0.40895169  1
  O  O147  1  0.09104831  0.92857758  0.89505138  1
  O  O148  1  0.50858961  0.34595905  0.84291949  1
  O  O149  1  0.00305534  0.32446696  0.91724381  1
  O  O150  1  0.68982856  0.13996284  0.69468812  1
  O  O151  1  0.44468812  0.38996284  0.56017144  1
  O  O152  1  0.91724381  0.00305534  0.32446696  1
  O  O153  1  0.43982856  0.94468812  0.11003716  1
  O  O154  1  0.24141039  0.90708051  0.40404095  1
  O  O155  1  0.00858961  0.15404095  0.15708051  1
  O  O156  1  0.31017144  0.63996284  0.80531188  1
  O  O157  1  0.15708051  0.00858961  0.15404095  1
  O  O158  1  0.67857758  0.34104831  0.35494862  1
  O  O159  1  0.86003716  0.19468812  0.81017144  1
  O  O160  1  0.59291949  0.59595905  0.74141039  1
  O  O161  1  0.69468812  0.68982856  0.13996284  1
  O  O162  1  0.49694466  0.67553304  0.41724381  1
  O  O163  1  0.40895169  0.07142242  0.39505138  1
