# generated using pymatgen
data_Rb2V(PO4)2
_symmetry_space_group_name_H-M   'P 1'
_cell_length_a   7.38377525
_cell_length_b   9.25889278
_cell_length_c   14.19278683
_cell_angle_alpha   89.99905777
_cell_angle_beta   90.00001054
_cell_angle_gamma   90.00003519
_symmetry_Int_Tables_number   1
_chemical_formula_structural   Rb2V(PO4)2
_chemical_formula_sum   'Rb8 V4 P8 O32'
_cell_volume   970.29815095
_cell_formula_units_Z   4
loop_
 _symmetry_equiv_pos_site_id
 _symmetry_equiv_pos_as_xyz
  1  'x, y, z'
loop_
 _atom_site_type_symbol
 _atom_site_label
 _atom_site_symmetry_multiplicity
 _atom_site_fract_x
 _atom_site_fract_y
 _atom_site_fract_z
 _atom_site_occupancy
  Rb  Rb0  1  0.75000045  0.07903464  0.59490163  1
  Rb  Rb1  1  0.75000254  0.63315617  0.45427704  1
  Rb  Rb2  1  0.74999976  0.42097451  0.09490188  1
  Rb  Rb3  1  0.24999549  0.36684691  0.54572189  1
  Rb  Rb4  1  0.24999949  0.57902523  0.90510099  1
  Rb  Rb5  1  0.24999721  0.13313987  0.04571759  1
  Rb  Rb6  1  0.75000317  0.86685866  0.95427433  1
  Rb  Rb7  1  0.24999940  0.92097880  0.40509832  1
  V  V8  1  0.74999816  0.49944972  0.70429886  1
  V  V9  1  0.25000146  0.99943194  0.79570095  1
  V  V10  1  0.25000154  0.50054550  0.29569285  1
  V  V11  1  0.74999924  0.00053706  0.20431279  1
  P  P12  1  0.44991619  0.72798673  0.15113401  1
  P  P13  1  0.55009301  0.27203904  0.84887238  1
  P  P14  1  0.05008384  0.72798682  0.15113400  1
  P  P15  1  0.55009274  0.22796373  0.34887012  1
  P  P16  1  0.94990804  0.27203938  0.84887230  1
  P  P17  1  0.44991449  0.77200927  0.65112773  1
  P  P18  1  0.94990788  0.22796318  0.34887048  1
  P  P19  1  0.05008596  0.77200939  0.65112800  1
  O  O20  1  0.99889006  0.81529275  0.55241622  1
  O  O21  1  0.75000024  0.41467587  0.60115805  1
  O  O22  1  0.56270730  0.09660006  0.28153086  1
  O  O23  1  0.56754518  0.65515669  0.69640625  1
  O  O24  1  0.93245553  0.84484271  0.19641489  1
  O  O25  1  0.06756305  0.15513700  0.80359037  1
  O  O26  1  0.50111010  0.68471756  0.05241972  1
  O  O27  1  0.06271076  0.59659404  0.21847448  1
  O  O28  1  0.56271346  0.40340111  0.78153110  1
  O  O29  1  0.74999924  0.30561008  0.34852059  1
  O  O30  1  0.99889016  0.68471828  0.05241784  1
  O  O31  1  0.74999972  0.19439135  0.84852293  1
  O  O32  1  0.43730034  0.90340143  0.71847118  1
  O  O33  1  0.50111011  0.81529252  0.55241698  1
  O  O34  1  0.93728770  0.40340157  0.78153170  1
  O  O35  1  0.24999961  0.80561181  0.15148350  1
  O  O36  1  0.24999967  0.58533041  0.39883462  1
  O  O37  1  0.06755684  0.34485825  0.30359281  1
  O  O38  1  0.93729148  0.09659980  0.28153036  1
  O  O39  1  0.43243700  0.15513753  0.80359007  1
  O  O40  1  0.06269979  0.90340165  0.71847130  1
  O  O41  1  0.49889300  0.18471175  0.44758332  1
  O  O42  1  0.25000032  0.91467845  0.89881602  1
  O  O43  1  0.93245546  0.65515735  0.69640561  1
  O  O44  1  0.43728925  0.59659495  0.21847498  1
  O  O45  1  0.25000074  0.69439780  0.65148233  1
  O  O46  1  0.00110695  0.31528626  0.94758001  1
  O  O47  1  0.00110679  0.18471199  0.44758344  1
  O  O48  1  0.56754385  0.84484207  0.19641417  1
  O  O49  1  0.49889168  0.31528591  0.94758058  1
  O  O50  1  0.43244370  0.34485746  0.30359296  1
  O  O51  1  0.75000083  0.08532698  0.10115262  1
