# generated using pymatgen
data_BaCu4S3
_symmetry_space_group_name_H-M   'P 1'
_cell_length_a   3.98503347
_cell_length_b   10.83591638
_cell_length_c   13.41404155
_cell_angle_alpha   90.00000000
_cell_angle_beta   90.00000000
_cell_angle_gamma   90.00000000
_symmetry_Int_Tables_number   1
_chemical_formula_structural   BaCu4S3
_chemical_formula_sum   'Ba4 Cu16 S12'
_cell_volume   579.23829371
_cell_formula_units_Z   4
loop_
 _symmetry_equiv_pos_site_id
 _symmetry_equiv_pos_as_xyz
  1  'x, y, z'
loop_
 _atom_site_type_symbol
 _atom_site_label
 _atom_site_symmetry_multiplicity
 _atom_site_fract_x
 _atom_site_fract_y
 _atom_site_fract_z
 _atom_site_occupancy
  Ba  Ba0  1  0.25000000  0.22398654  0.01952661  1
  Ba  Ba1  1  0.75000000  0.27601346  0.51952661  1
  Ba  Ba2  1  0.25000000  0.72398654  0.48047339  1
  Ba  Ba3  1  0.75000000  0.77601346  0.98047339  1
  Cu  Cu4  1  0.75000000  0.82109542  0.24757105  1
  Cu  Cu5  1  0.75000000  0.08325189  0.27571922  1
  Cu  Cu6  1  0.25000000  0.67890458  0.74757105  1
  Cu  Cu7  1  0.75000000  0.32109542  0.25242895  1
  Cu  Cu8  1  0.25000000  0.53486821  0.10151140  1
  Cu  Cu9  1  0.75000000  0.58325189  0.22428078  1
  Cu  Cu10  1  0.25000000  0.94953934  0.15456879  1
  Cu  Cu11  1  0.75000000  0.55046066  0.65456879  1
  Cu  Cu12  1  0.75000000  0.05046066  0.84543121  1
  Cu  Cu13  1  0.75000000  0.46513179  0.89848860  1
  Cu  Cu14  1  0.25000000  0.17890458  0.75242895  1
  Cu  Cu15  1  0.25000000  0.41674811  0.77571922  1
  Cu  Cu16  1  0.75000000  0.96513179  0.60151140  1
  Cu  Cu17  1  0.25000000  0.44953934  0.34543121  1
  Cu  Cu18  1  0.25000000  0.91674811  0.72428078  1
  Cu  Cu19  1  0.25000000  0.03486821  0.39848860  1
  S  S20  1  0.25000000  0.73440981  0.17734174  1
  S  S21  1  0.75000000  0.76559019  0.67734174  1
  S  S22  1  0.25000000  0.46580764  0.61024175  1
  S  S23  1  0.25000000  0.96580764  0.88975825  1
  S  S24  1  0.25000000  0.23440981  0.32265826  1
  S  S25  1  0.75000000  0.03419236  0.11024175  1
  S  S26  1  0.75000000  0.92854876  0.39903451  1
  S  S27  1  0.75000000  0.53419236  0.38975825  1
  S  S28  1  0.75000000  0.42854876  0.10096549  1
  S  S29  1  0.25000000  0.57145124  0.89903451  1
  S  S30  1  0.25000000  0.07145124  0.60096549  1
  S  S31  1  0.75000000  0.26559019  0.82265826  1
