# generated using pymatgen
data_LiBiP2O7
_symmetry_space_group_name_H-M   'P 1'
_cell_length_a   9.13475971
_cell_length_b   5.22485003
_cell_length_c   13.28120669
_cell_angle_alpha   90.00000000
_cell_angle_beta   102.57019776
_cell_angle_gamma   90.00000000
_symmetry_Int_Tables_number   1
_chemical_formula_structural   LiBiP2O7
_chemical_formula_sum   'Li4 Bi4 P8 O28'
_cell_volume   618.68801381
_cell_formula_units_Z   4
loop_
 _symmetry_equiv_pos_site_id
 _symmetry_equiv_pos_as_xyz
  1  'x, y, z'
loop_
 _atom_site_type_symbol
 _atom_site_label
 _atom_site_symmetry_multiplicity
 _atom_site_fract_x
 _atom_site_fract_y
 _atom_site_fract_z
 _atom_site_occupancy
  Li  Li0  1  0.63080434  0.22338549  0.20391021  1
  Li  Li1  1  0.36919566  0.77661451  0.79608979  1
  Li  Li2  1  0.86919566  0.72338549  0.29608979  1
  Li  Li3  1  0.13080434  0.27661451  0.70391021  1
  Bi  Bi4  1  0.73345084  0.26078054  0.47737790  1
  Bi  Bi5  1  0.23345084  0.23921946  0.97737790  1
  Bi  Bi6  1  0.26654916  0.73921946  0.52262210  1
  Bi  Bi7  1  0.76654916  0.76078054  0.02262210  1
  P  P8  1  0.46438576  0.25010403  0.66084135  1
  P  P9  1  0.06153401  0.21565308  0.37987990  1
  P  P10  1  0.96438576  0.24989597  0.16084135  1
  P  P11  1  0.53561424  0.74989597  0.33915865  1
  P  P12  1  0.93846599  0.78434692  0.62012010  1
  P  P13  1  0.56153401  0.28434692  0.87987990  1
  P  P14  1  0.43846599  0.71565308  0.12012010  1
  P  P15  1  0.03561424  0.75010403  0.83915865  1
  O  O16  1  0.11308729  0.01053849  0.83129683  1
  O  O17  1  0.45693229  0.76701777  0.42736926  1
  O  O18  1  0.54306771  0.23298223  0.57263074  1
  O  O19  1  0.69193796  0.16591688  0.95754518  1
  O  O20  1  0.84959539  0.46693666  0.16324403  1
  O  O21  1  0.40643053  0.77722009  0.23355270  1
  O  O22  1  0.88691271  0.98946151  0.16870317  1
  O  O23  1  0.38691271  0.51053849  0.66870317  1
  O  O24  1  0.61308729  0.48946151  0.33129683  1
  O  O25  1  0.90643053  0.72277991  0.73355270  1
  O  O26  1  0.44366843  0.42297469  0.10771817  1
  O  O27  1  0.59143661  0.84259316  0.12241984  1
  O  O28  1  0.09143661  0.65740684  0.62241984  1
  O  O29  1  0.09356947  0.27722009  0.26644730  1
  O  O30  1  0.59356947  0.22277991  0.76644730  1
  O  O31  1  0.04306771  0.26701777  0.07263074  1
  O  O32  1  0.34959539  0.03306334  0.66324403  1
  O  O33  1  0.05633157  0.92297469  0.39228183  1
  O  O34  1  0.94366843  0.07702531  0.60771817  1
  O  O35  1  0.80806204  0.66591688  0.54245482  1
  O  O36  1  0.19193796  0.33408312  0.45754518  1
  O  O37  1  0.95693229  0.73298223  0.92736926  1
  O  O38  1  0.55633157  0.57702531  0.89228183  1
  O  O39  1  0.90856339  0.34259316  0.37758016  1
  O  O40  1  0.30806204  0.83408312  0.04245482  1
  O  O41  1  0.40856339  0.15740684  0.87758016  1
  O  O42  1  0.65040461  0.96693666  0.33675597  1
  O  O43  1  0.15040461  0.53306334  0.83675597  1
