# generated using pymatgen
data_Ba8Bi4O17
_symmetry_space_group_name_H-M   'P 1'
_cell_length_a   6.42507412
_cell_length_b   19.35732188
_cell_length_c   17.07802078
_cell_angle_alpha   19.01210103
_cell_angle_beta   55.87348489
_cell_angle_gamma   60.28914815
_symmetry_Int_Tables_number   1
_chemical_formula_structural   Ba8Bi4O17
_chemical_formula_sum   'Ba8 Bi4 O17'
_cell_volume   568.00146802
_cell_formula_units_Z   1
loop_
 _symmetry_equiv_pos_site_id
 _symmetry_equiv_pos_as_xyz
  1  'x, y, z'
loop_
 _atom_site_type_symbol
 _atom_site_label
 _atom_site_symmetry_multiplicity
 _atom_site_fract_x
 _atom_site_fract_y
 _atom_site_fract_z
 _atom_site_occupancy
  Ba  Ba0  1  0.21989177  0.24428969  0.26563935  1
  Ba  Ba1  1  0.48741640  0.17160018  0.49974213  1
  Ba  Ba2  1  0.17129278  0.56434697  0.31671657  1
  Ba  Ba3  1  0.68279356  0.05993978  0.82113282  1
  Ba  Ba4  1  0.20244612  0.89877462  0.29609369  1
  Ba  Ba5  1  0.71268267  0.38947875  0.80514484  1
  Ba  Ba6  1  0.46203725  0.81583374  0.54160771  1
  Ba  Ba7  1  0.73174726  0.76157281  0.74860838  1
  Bi  Bi8  1  0.98122189  0.99454309  0.01758938  1
  Bi  Bi9  1  0.99725894  0.32775194  0.00843834  1
  Bi  Bi10  1  0.99762800  0.66622624  0.00153032  1
  Bi  Bi11  1  0.47024708  0.49026131  0.52738286  1
  O  O12  1  0.25233137  0.09936492  0.21714663  1
  O  O13  1  0.29748800  0.47445530  0.13675992  1
  O  O14  1  0.76765613  0.10503058  0.22413309  1
  O  O15  1  0.19630487  0.06544771  0.79111264  1
  O  O16  1  0.79753207  0.23340407  0.25352627  1
  O  O17  1  0.24559680  0.75875416  0.23863125  1
  O  O18  1  0.24998152  0.24572136  0.74858842  1
  O  O19  1  0.84179221  0.47532217  0.14433593  1
  O  O20  1  0.77816756  0.58074755  0.23913504  1
  O  O21  1  0.21808331  0.40953302  0.76074639  1
  O  O22  1  0.25995834  0.56222412  0.75696491  1
  O  O23  1  0.75351194  0.24431051  0.75779689  1
  O  O24  1  0.74535262  0.75509973  0.25062658  1
  O  O25  1  0.76882901  0.93104954  0.23233818  1
  O  O26  1  0.28723420  0.91195181  0.71106463  1
  O  O27  1  0.78184393  0.57114906  0.75820915  1
  O  O28  1  0.84187539  0.91493228  0.70978269  1
