# generated using pymatgen
data_Sm2Te3
_symmetry_space_group_name_H-M   'P 1'
_cell_length_a   24.57517802
_cell_length_b   9.45335679
_cell_length_c   9.45335718
_cell_angle_alpha   90.00000000
_cell_angle_beta   54.75973472
_cell_angle_gamma   54.75973445
_symmetry_Int_Tables_number   1
_chemical_formula_structural   Sm2Te3
_chemical_formula_sum   'Sm16 Te24'
_cell_volume   1269.47652016
_cell_formula_units_Z   8
loop_
 _symmetry_equiv_pos_site_id
 _symmetry_equiv_pos_as_xyz
  1  'x, y, z'
loop_
 _atom_site_type_symbol
 _atom_site_label
 _atom_site_symmetry_multiplicity
 _atom_site_fract_x
 _atom_site_fract_y
 _atom_site_fract_z
 _atom_site_occupancy
  Sm  Sm0  1  0.08064814  0.62902729  0.37902729  1
  Sm  Sm1  1  0.16666700  0.25000000  0.63106448  1
  Sm  Sm2  1  0.33494447  0.37728932  0.25388118  1
  Sm  Sm3  1  0.25268486  0.87097271  0.12097271  1
  Sm  Sm4  1  0.33494447  0.11787628  0.74128442  1
  Sm  Sm5  1  0.16666700  0.75000000  0.86893552  1
  Sm  Sm6  1  0.49838853  0.25871558  0.62271068  1
  Sm  Sm7  1  0.58064814  0.87902729  0.12902729  1
  Sm  Sm8  1  0.66666700  0.36893552  0.25000000  1
  Sm  Sm9  1  0.49838853  0.74611882  0.88212372  1
  Sm  Sm10  1  0.66666700  0.13106448  0.75000000  1
  Sm  Sm11  1  0.75268486  0.62097271  0.37097271  1
  Sm  Sm12  1  0.83494447  0.24128442  0.61787628  1
  Sm  Sm13  1  0.99838853  0.38212372  0.24611882  1
  Sm  Sm14  1  0.83494447  0.75388118  0.87728932  1
  Sm  Sm15  1  0.99838853  0.12271068  0.75871558  1
  Te  Te16  1  0.12122232  0.49467752  0.99630239  1
  Te  Te17  1  0.05061179  0.34826447  0.49725272  1
  Te  Te18  1  0.28272121  0.15173553  0.14908908  1
  Te  Te19  1  0.05061179  0.99989917  0.35091092  1
  Te  Te20  1  0.28272121  0.50010083  0.00274728  1
  Te  Te21  1  0.21211068  0.00532248  0.85997034  1
  Te  Te22  1  0.12122232  0.64165453  0.64002966  1
  Te  Te23  1  0.21211068  0.85834547  0.50369761  1
  Te  Te24  1  0.44907835  0.49562334  0.00084927  1
  Te  Te25  1  0.38425565  0.34808331  0.50437666  1
  Te  Te26  1  0.38425565  0.99915073  0.34285738  1
  Te  Te27  1  0.62122232  0.14002966  0.14165453  1
  Te  Te28  1  0.62122232  0.49630239  0.99467752  1
  Te  Te29  1  0.55061179  0.99725272  0.84826447  1
  Te  Te30  1  0.44907835  0.65714262  0.65191669  1
  Te  Te31  1  0.55061179  0.85091092  0.49989917  1
  Te  Te32  1  0.78272121  0.50274728  0.00010083  1
  Te  Te33  1  0.71211068  0.35997034  0.50532248  1
  Te  Te34  1  0.71211068  0.00369761  0.35834547  1
  Te  Te35  1  0.94907835  0.15191669  0.15714262  1
  Te  Te36  1  0.94907835  0.50084927  0.99562334  1
  Te  Te37  1  0.78272121  0.64908908  0.65173553  1
  Te  Te38  1  0.88425565  0.00437666  0.84808331  1
  Te  Te39  1  0.88425565  0.84285738  0.49915073  1
