# generated using pymatgen
data_FeCu3S8
_symmetry_space_group_name_H-M   'P 1'
_cell_length_a   5.70114925
_cell_length_b   5.69173299
_cell_length_c   11.50276015
_cell_angle_alpha   90.48013866
_cell_angle_beta   90.00000000
_cell_angle_gamma   90.00000000
_symmetry_Int_Tables_number   1
_chemical_formula_structural   FeCu3S8
_chemical_formula_sum   'Fe2 Cu6 S16'
_cell_volume   373.24478111
_cell_formula_units_Z   2
loop_
 _symmetry_equiv_pos_site_id
 _symmetry_equiv_pos_as_xyz
  1  'x, y, z'
loop_
 _atom_site_type_symbol
 _atom_site_label
 _atom_site_symmetry_multiplicity
 _atom_site_fract_x
 _atom_site_fract_y
 _atom_site_fract_z
 _atom_site_occupancy
  Fe  Fe0  1  0.00000000  0.50000000  0.75000000  1
  Fe  Fe1  1  0.50000000  0.00000000  0.25000000  1
  Cu  Cu2  1  0.00317037  0.00189809  0.00086373  1
  Cu  Cu3  1  0.99682963  0.99810191  0.49913627  1
  Cu  Cu4  1  0.00000000  0.50000000  0.25000000  1
  Cu  Cu5  1  0.50317037  0.49810191  0.99913627  1
  Cu  Cu6  1  0.50000000  0.00000000  0.75000000  1
  Cu  Cu7  1  0.49682963  0.50189809  0.50086373  1
  S  S8  1  0.12128404  0.90191029  0.20147363  1
  S  S9  1  0.09724768  0.87902194  0.70138533  1
  S  S10  1  0.10299443  0.60125707  0.45011192  1
  S  S11  1  0.09564184  0.59745541  0.93888919  1
  S  S12  1  0.40275232  0.37902194  0.20138533  1
  S  S13  1  0.40435816  0.09745541  0.43888919  1
  S  S14  1  0.39700557  0.10125707  0.95011192  1
  S  S15  1  0.37871596  0.40191029  0.70147363  1
  S  S16  1  0.59724768  0.62097806  0.29861467  1
  S  S17  1  0.62128404  0.59808971  0.79852637  1
  S  S18  1  0.59564184  0.90254459  0.06111081  1
  S  S19  1  0.60299443  0.89874293  0.54988808  1
  S  S20  1  0.89700557  0.39874293  0.04988808  1
  S  S21  1  0.90435816  0.40254459  0.56111081  1
  S  S22  1  0.87871596  0.09808971  0.29852637  1
  S  S23  1  0.90275232  0.12097806  0.79861467  1
