# generated using pymatgen
data_La15B14C19
_symmetry_space_group_name_H-M   'P 1'
_cell_length_a   8.69489387
_cell_length_b   8.67237992
_cell_length_c   19.57101287
_cell_angle_alpha   92.75275575
_cell_angle_beta   90.00000000
_cell_angle_gamma   90.00000000
_symmetry_Int_Tables_number   1
_chemical_formula_structural   La15B14C19
_chemical_formula_sum   'La30 B28 C38'
_cell_volume   1474.05759155
_cell_formula_units_Z   2
loop_
 _symmetry_equiv_pos_site_id
 _symmetry_equiv_pos_as_xyz
  1  'x, y, z'
loop_
 _atom_site_type_symbol
 _atom_site_label
 _atom_site_symmetry_multiplicity
 _atom_site_fract_x
 _atom_site_fract_y
 _atom_site_fract_z
 _atom_site_occupancy
  La  La0  1  0.20148805  0.63160651  0.63919286  1
  La  La1  1  0.89552204  0.69409807  0.49216241  1
  La  La2  1  0.29851195  0.63160651  0.13919286  1
  La  La3  1  0.39552204  0.30590193  0.00783759  1
  La  La4  1  0.60447796  0.69409807  0.99216241  1
  La  La5  1  0.01691743  0.76444856  0.30588502  1
  La  La6  1  0.58884828  0.43565447  0.67919491  1
  La  La7  1  0.29128491  0.88788501  0.47396317  1
  La  La8  1  0.71530603  0.83320222  0.16896477  1
  La  La9  1  0.08884828  0.56434553  0.82080509  1
  La  La10  1  0.79128491  0.11211499  0.02603683  1
  La  La11  1  0.20871509  0.88788501  0.97396317  1
  La  La12  1  0.00000000  0.50000000  0.00000000  1
  La  La13  1  0.70871509  0.11211499  0.52603683  1
  La  La14  1  0.28469397  0.16679778  0.83103523  1
  La  La15  1  0.48308257  0.76444856  0.80588502  1
  La  La16  1  0.09914800  0.02921993  0.15435610  1
  La  La17  1  0.51691743  0.23555144  0.19411498  1
  La  La18  1  0.40085200  0.02921993  0.65435610  1
  La  La19  1  0.50000000  0.50000000  0.50000000  1
  La  La20  1  0.79851195  0.36839349  0.36080714  1
  La  La21  1  0.70148805  0.36839349  0.86080714  1
  La  La22  1  0.91115172  0.43565447  0.17919491  1
  La  La23  1  0.78469397  0.83320222  0.66896477  1
  La  La24  1  0.98308257  0.23555144  0.69411498  1
  La  La25  1  0.59914800  0.97078007  0.34564390  1
  La  La26  1  0.90085200  0.97078007  0.84564390  1
  La  La27  1  0.21530603  0.16679778  0.33103523  1
  La  La28  1  0.10447796  0.30590193  0.50783759  1
  La  La29  1  0.41115172  0.56434553  0.32080509  1
  B  B30  1  0.01544689  0.25576443  0.89592074  1
  B  B31  1  0.89672184  0.07307310  0.28826614  1
  B  B32  1  0.11009505  0.45105425  0.29210515  1
  B  B33  1  0.02874198  0.97660706  0.57174629  1
  B  B34  1  0.39672184  0.92692690  0.21173386  1
  B  B35  1  0.88990495  0.54894575  0.70789485  1
  B  B36  1  0.38990495  0.45105425  0.79210515  1
  B  B37  1  0.10219165  0.19690378  0.03411180  1
  B  B38  1  0.52874198  0.02339294  0.92825371  1
  B  B39  1  0.83198027  0.43870246  0.56848767  1
  B  B40  1  0.60327816  0.07307310  0.78826614  1
  B  B41  1  0.10327816  0.92692690  0.71173386  1
  B  B42  1  0.20637642  0.33178114  0.16046629  1
  B  B43  1  0.70637642  0.66821886  0.33953371  1
  B  B44  1  0.48455311  0.25576443  0.39592074  1
  B  B45  1  0.29362358  0.33178114  0.66046629  1
  B  B46  1  0.98455311  0.74423557  0.10407926  1
  B  B47  1  0.66801973  0.43870246  0.06848767  1
  B  B48  1  0.61009505  0.54894575  0.20789485  1
  B  B49  1  0.60219165  0.80309622  0.46588820  1
  B  B50  1  0.33198027  0.56129754  0.93151233  1
  B  B51  1  0.79362358  0.66821886  0.83953371  1
  B  B52  1  0.16801973  0.56129754  0.43151233  1
  B  B53  1  0.39780835  0.19690378  0.53411180  1
  B  B54  1  0.47125802  0.97660706  0.07174629  1
  B  B55  1  0.97125802  0.02339294  0.42825371  1
  B  B56  1  0.89780835  0.80309622  0.96588820  1
  B  B57  1  0.51544689  0.74423557  0.60407926  1
  C  C58  1  0.90746932  0.06632309  0.36309777  1
  C  C59  1  0.01153162  0.73569184  0.17689046  1
  C  C60  1  0.82705151  0.12146166  0.22478935  1
  C  C61  1  0.19678255  0.87039607  0.84318614  1
  C  C62  1  0.31080874  0.60222962  0.00421197  1
  C  C63  1  0.64236810  0.69195465  0.40796327  1
  C  C64  1  0.09253068  0.93367691  0.63690223  1
  C  C65  1  0.18919126  0.60222962  0.50421197  1
  C  C66  1  0.08122162  0.20036486  0.95888295  1
  C  C67  1  0.48846838  0.73569184  0.67689046  1
  C  C68  1  0.91877838  0.79963514  0.04111705  1
  C  C69  1  0.79771621  0.61033499  0.76851362  1
  C  C70  1  0.20228379  0.38966501  0.23148638  1
  C  C71  1  0.37482626  0.48218474  0.86676030  1
  C  C72  1  0.14236810  0.30804535  0.09203673  1
  C  C73  1  0.29771621  0.38966501  0.73148638  1
  C  C74  1  0.32705151  0.87853834  0.27521065  1
  C  C75  1  0.58122162  0.79963514  0.54111705  1
  C  C76  1  0.81080874  0.39777038  0.49578803  1
  C  C77  1  0.59253068  0.06632309  0.86309777  1
  C  C78  1  0.35763190  0.30804535  0.59203673  1
  C  C79  1  0.98846838  0.26430816  0.82310954  1
  C  C80  1  0.62517374  0.51781526  0.13323970  1
  C  C81  1  0.69678255  0.12960393  0.65681386  1
  C  C82  1  0.87482626  0.51781526  0.63323970  1
  C  C83  1  0.51153162  0.26430816  0.32310954  1
  C  C84  1  0.85763190  0.69195465  0.90796327  1
  C  C85  1  0.30321745  0.87039607  0.34318614  1
  C  C86  1  0.40746932  0.93367691  0.13690223  1
  C  C87  1  0.50000000  0.00000000  0.00000000  1
  C  C88  1  0.68919126  0.39777038  0.99578803  1
  C  C89  1  0.41877838  0.20036486  0.45888295  1
  C  C90  1  0.80321745  0.12960393  0.15681386  1
  C  C91  1  0.70228379  0.61033499  0.26851362  1
  C  C92  1  0.12517374  0.48218474  0.36676030  1
  C  C93  1  0.00000000  0.00000000  0.50000000  1
  C  C94  1  0.67294849  0.12146166  0.72478935  1
  C  C95  1  0.17294849  0.87853834  0.77521065  1
