# generated using pymatgen
data_Na4Al3Si9ClO24
_symmetry_space_group_name_H-M   'P 1'
_cell_length_a   7.65535684
_cell_length_b   9.39186240
_cell_length_c   9.36228796
_cell_angle_alpha   80.48286100
_cell_angle_beta   66.46582482
_cell_angle_gamma   66.24780894
_symmetry_Int_Tables_number   1
_chemical_formula_structural   Na4Al3Si9ClO24
_chemical_formula_sum   'Na4 Al3 Si9 Cl1 O24'
_cell_volume   564.85832434
_cell_formula_units_Z   1
loop_
 _symmetry_equiv_pos_site_id
 _symmetry_equiv_pos_as_xyz
  1  'x, y, z'
loop_
 _atom_site_type_symbol
 _atom_site_label
 _atom_site_symmetry_multiplicity
 _atom_site_fract_x
 _atom_site_fract_y
 _atom_site_fract_z
 _atom_site_occupancy
  Na  Na0  1  0.12604884  0.08007143  0.66864846  1
  Na  Na1  1  0.22679832  0.66584322  0.90731846  1
  Na  Na2  1  0.77816885  0.31745941  0.07657981  1
  Na  Na3  1  0.86932881  0.93118343  0.33267738  1
  Al  Al4  1  0.13447119  0.74955725  0.57448233  1
  Al  Al5  1  0.44856359  0.25785830  0.42791984  1
  Al  Al6  1  0.71398785  0.42327348  0.74775293  1
  Si  Si7  1  0.34044674  0.07074368  0.25311358  1
  Si  Si8  1  0.11992011  0.42539067  0.75565615  1
  Si  Si9  1  0.28078455  0.58168370  0.25023039  1
  Si  Si10  1  0.41184430  0.24916139  0.92788716  1
  Si  Si11  1  0.57977224  0.74818377  0.07527755  1
  Si  Si12  1  0.54967672  0.74886799  0.57323372  1
  Si  Si13  1  0.87584440  0.25028096  0.42380096  1
  Si  Si14  1  0.87520400  0.57582862  0.25381633  1
  Si  Si15  1  0.66801292  0.92601664  0.74917583  1
  Cl  Cl16  1  0.00139629  0.99108608  0.00042059  1
  O  O17  1  0.09540677  0.10239747  0.35308041  1
  O  O18  1  0.10873940  0.57844428  0.18417523  1
  O  O19  1  0.35146867  0.18858522  0.10576837  1
  O  O20  1  0.15346702  0.70496816  0.39225748  1
  O  O21  1  0.44430592  0.09664478  0.36097286  1
  O  O22  1  0.26025906  0.30079455  0.61369810  1
  O  O23  1  0.14035113  0.59414886  0.70726526  1
  O  O24  1  0.19612336  0.36117867  0.90541745  1
  O  O25  1  0.42109584  0.41092301  0.29072586  1
  O  O26  1  0.43560023  0.64866222  0.09946545  1
  O  O27  1  0.32458678  0.81576456  0.56317503  1
  O  O28  1  0.45363030  0.89113373  0.19547857  1
  O  O29  1  0.52780784  0.10254795  0.80876998  1
  O  O30  1  0.70285006  0.19603373  0.41841813  1
  O  O31  1  0.54892634  0.35099843  0.90080362  1
  O  O32  1  0.56877656  0.60638144  0.69606618  1
  O  O33  1  0.78423393  0.63303835  0.11440155  1
  O  O34  1  0.87878220  0.40066968  0.30242577  1
  O  O35  1  0.73629589  0.69801355  0.39901133  1
  O  O36  1  0.57696420  0.89230494  0.63078251  1
  O  O37  1  0.85238086  0.29175904  0.59185355  1
  O  O38  1  0.64795492  0.80443375  0.89580916  1
  O  O39  1  0.88625722  0.43013016  0.82312507  1
  O  O40  1  0.90346576  0.90755347  0.64906160  1
