# generated using pymatgen
data_Ho(FeSn)6
_symmetry_space_group_name_H-M   'P 1'
_cell_length_a   5.43484695
_cell_length_b   8.96173173
_cell_length_c   15.01041659
_cell_angle_alpha   107.36855942
_cell_angle_beta   100.43009981
_cell_angle_gamma   90.00000059
_symmetry_Int_Tables_number   1
_chemical_formula_structural   Ho(FeSn)6
_chemical_formula_sum   'Ho3 Fe18 Sn18'
_cell_volume   685.08955295
_cell_formula_units_Z   3
loop_
 _symmetry_equiv_pos_site_id
 _symmetry_equiv_pos_as_xyz
  1  'x, y, z'
loop_
 _atom_site_type_symbol
 _atom_site_label
 _atom_site_symmetry_multiplicity
 _atom_site_fract_x
 _atom_site_fract_y
 _atom_site_fract_z
 _atom_site_occupancy
  Ho  Ho0  1  0.66820822  0.16820822  0.33641644  1
  Ho  Ho1  1  0.33179178  0.83179178  0.66358356  1
  Ho  Ho2  1  -0.00000000  -0.00000000  -0.00000000  1
  Fe  Fe3  1  -0.00000000  -0.00000000  0.50000000  1
  Fe  Fe4  1  0.50000000  0.24659136  0.00000000  1
  Fe  Fe5  1  0.66697401  0.16259759  0.83327021  1
  Fe  Fe6  1  0.16629620  0.16259759  0.83327021  1
  Fe  Fe7  1  0.33302599  0.32932737  0.16672979  1
  Fe  Fe8  1  0.50000000  -0.00000000  0.50000000  1
  Fe  Fe9  1  0.16672593  0.41373176  0.33345187  1
  Fe  Fe10  1  0.83327407  0.08027990  0.66654813  1
  Fe  Fe11  1  0.83327407  0.58626824  0.66654813  1
  Fe  Fe12  1  0.33302599  0.83740241  0.16672979  1
  Fe  Fe13  1  0.16672593  0.91972010  0.33345187  1
  Fe  Fe14  1  0.83370380  0.83740241  0.16672979  1
  Fe  Fe15  1  0.50000000  0.75340864  1.00000000  1
  Fe  Fe16  1  0.16629620  0.67067263  0.83327021  1
  Fe  Fe17  1  -0.00000000  0.50000000  0.50000000  1
  Fe  Fe18  1  0.50000000  0.50000000  0.50000000  1
  Fe  Fe19  1  0.66697401  0.67067263  0.83327021  1
  Fe  Fe20  1  0.83370380  0.32932737  0.16672979  1
  Sn  Sn21  1  0.44431951  0.94431951  0.88863903  1
  Sn  Sn22  1  0.78000488  0.28000488  0.56000976  1
  Sn  Sn23  1  0.11026804  0.61026804  0.22053608  1
  Sn  Sn24  1  0.00000000  0.66298887  0.00000000  1
  Sn  Sn25  1  1.00000000  0.33701113  1.00000000  1
  Sn  Sn26  1  0.33382378  0.17092931  0.66764756  1
  Sn  Sn27  1  0.21999512  0.71999512  0.43999024  1
  Sn  Sn28  1  0.66617622  0.50328175  0.33235244  1
  Sn  Sn29  1  0.55568049  0.05568049  0.11136097  1
  Sn  Sn30  1  0.88973196  0.38973196  0.77946392  1
  Sn  Sn31  1  0.77656147  0.77656147  0.55312294  1
  Sn  Sn32  1  0.88781447  0.88781447  0.77562894  1
  Sn  Sn33  1  0.11218553  0.11218553  0.22437106  1
  Sn  Sn34  1  0.55554165  0.55554165  0.11108329  1
  Sn  Sn35  1  0.22343853  0.22343853  0.44687706  1
  Sn  Sn36  1  0.66617622  0.82907069  0.33235244  1
  Sn  Sn37  1  0.44445835  0.44445835  0.88891671  1
  Sn  Sn38  1  0.33382378  0.49671825  0.66764756  1
