# generated using pymatgen
data_Ce4(SiS4)3
_symmetry_space_group_name_H-M   'P 1'
_cell_length_a   11.45229965
_cell_length_b   11.45331192
_cell_length_c   11.45580976
_cell_angle_alpha   114.76566109
_cell_angle_beta   114.75851050
_cell_angle_gamma   114.74579457
_symmetry_Int_Tables_number   1
_chemical_formula_structural   Ce4(SiS4)3
_chemical_formula_sum   'Ce8 Si6 S24'
_cell_volume   859.30255509
_cell_formula_units_Z   2
loop_
 _symmetry_equiv_pos_site_id
 _symmetry_equiv_pos_as_xyz
  1  'x, y, z'
loop_
 _atom_site_type_symbol
 _atom_site_label
 _atom_site_symmetry_multiplicity
 _atom_site_fract_x
 _atom_site_fract_y
 _atom_site_fract_z
 _atom_site_occupancy
  Ce  Ce0  1  0.43136784  0.97220157  0.20615139  1
  Ce  Ce1  1  0.20612172  0.43137761  0.97221968  1
  Ce  Ce2  1  0.70607291  0.47216209  0.93137340  1
  Ce  Ce3  1  0.99804651  0.99807628  0.99808760  1
  Ce  Ce4  1  0.47221001  0.93134943  0.70611154  1
  Ce  Ce5  1  0.49809966  0.49810287  0.49812898  1
  Ce  Ce6  1  0.93139570  0.70615907  0.47223892  1
  Ce  Ce7  1  0.97218541  0.20608274  0.43136802  1
  Si  Si8  1  0.96680703  0.35303299  0.13940012  1
  Si  Si9  1  0.63947579  0.85312325  0.46692201  1
  Si  Si10  1  0.13944875  0.96689135  0.35309795  1
  Si  Si11  1  0.85309173  0.46689082  0.63943326  1
  Si  Si12  1  0.46683507  0.63940831  0.85304952  1
  Si  Si13  1  0.35307415  0.13940817  0.96686441  1
  S  S14  1  0.62037126  0.30050977  0.58617868  1
  S  S15  1  0.07743012  0.61485311  0.34713555  1
  S  S16  1  0.80052703  0.12039290  0.08619936  1
  S  S17  1  0.28466867  0.89155190  0.81834617  1
  S  S18  1  0.37362109  0.18869155  0.18276376  1
  S  S19  1  0.89153332  0.81837034  0.28465053  1
  S  S20  1  0.78465050  0.31838030  0.39157384  1
  S  S21  1  0.81842155  0.28466606  0.89159735  1
  S  S22  1  0.84715785  0.11484627  0.57741971  1
  S  S23  1  0.68293142  0.68883622  0.87376119  1
  S  S24  1  0.34712474  0.07737536  0.61479699  1
  S  S25  1  0.12038313  0.08623972  0.80054308  1
  S  S26  1  0.68882366  0.87376629  0.68286618  1
  S  S27  1  0.87379104  0.68292750  0.68884261  1
  S  S28  1  0.57740857  0.84714473  0.11482512  1
  S  S29  1  0.61486964  0.34716925  0.07745036  1
  S  S30  1  0.08622925  0.80053923  0.12040482  1
  S  S31  1  0.18867961  0.18278214  0.37361132  1
  S  S32  1  0.18282510  0.37362975  0.18867811  1
  S  S33  1  0.11488017  0.57743824  0.84717703  1
  S  S34  1  0.30052266  0.58621339  0.62041776  1
  S  S35  1  0.31838708  0.39158578  0.78464843  1
  S  S36  1  0.39150633  0.78463308  0.31833778  1
  S  S37  1  0.58622393  0.62039056  0.30052749  1
