# generated using pymatgen
data_Hf3Sc4O12
_symmetry_space_group_name_H-M   'P 1'
_cell_length_a   6.18504417
_cell_length_b   6.16954195
_cell_length_c   30.90239945
_cell_angle_alpha   99.40712552
_cell_angle_beta   99.50780567
_cell_angle_gamma   99.48892769
_symmetry_Int_Tables_number   1
_chemical_formula_structural   Hf3Sc4O12
_chemical_formula_sum   'Hf15 Sc20 O60'
_cell_volume   1124.83669276
_cell_formula_units_Z   5
loop_
 _symmetry_equiv_pos_site_id
 _symmetry_equiv_pos_as_xyz
  1  'x, y, z'
loop_
 _atom_site_type_symbol
 _atom_site_label
 _atom_site_symmetry_multiplicity
 _atom_site_fract_x
 _atom_site_fract_y
 _atom_site_fract_z
 _atom_site_occupancy
  Hf  Hf0  1  0.99846387  0.99806862  0.40124216  1
  Hf  Hf1  1  0.69422937  0.86063199  0.87791819  1
  Hf  Hf2  1  0.99914271  0.99857213  0.20120496  1
  Hf  Hf3  1  0.60394419  0.30242426  0.82563527  1
  Hf  Hf4  1  0.14343889  0.61078201  0.06170466  1
  Hf  Hf5  1  0.69583123  0.86072549  0.67804483  1
  Hf  Hf6  1  0.86958508  0.39370553  0.93880865  1
  Hf  Hf7  1  0.60569478  0.30387966  0.62630020  1
  Hf  Hf8  1  0.86942722  0.39350732  0.73928512  1
  Hf  Hf9  1  0.60852531  0.31485426  0.42841887  1
  Hf  Hf10  1  0.86714414  0.39053886  0.53845882  1
  Hf  Hf11  1  0.60848770  0.31490752  0.22799880  1
  Hf  Hf12  1  0.86449883  0.38820513  0.33776643  1
  Hf  Hf13  1  0.60481635  0.29421356  0.02586076  1
  Hf  Hf14  1  0.86135815  0.38904188  0.13714650  1
  Sc  Sc15  1  0.14331321  0.60784979  0.86168203  1
  Sc  Sc16  1  0.00138508  0.99759210  0.80081314  1
  Sc  Sc17  1  0.39524647  0.69286721  0.97141263  1
  Sc  Sc18  1  0.14202241  0.60689512  0.66149674  1
  Sc  Sc19  1  0.00015748  0.99701624  0.60001082  1
  Sc  Sc20  1  0.30616437  0.13415190  0.92070395  1
  Sc  Sc21  1  0.39069142  0.68972942  0.77056378  1
  Sc  Sc22  1  0.14888659  0.61112627  0.46516870  1
  Sc  Sc23  1  0.30503725  0.13262656  0.72042100  1
  Sc  Sc24  1  0.39069789  0.69069037  0.57161010  1
  Sc  Sc25  1  0.14889370  0.61120665  0.26568089  1
  Sc  Sc26  1  0.30879221  0.13538434  0.52184306  1
  Sc  Sc27  1  0.39360270  0.68753666  0.37243153  1
  Sc  Sc28  1  0.99844933  0.99622486  0.00060827  1
  Sc  Sc29  1  0.31317873  0.13564336  0.32213158  1
  Sc  Sc30  1  0.39348318  0.68934635  0.17214848  1
  Sc  Sc31  1  0.68466314  0.86122853  0.47953947  1
  Sc  Sc32  1  0.31014420  0.13459743  0.12135302  1
  Sc  Sc33  1  0.68142467  0.85788272  0.27909745  1
  Sc  Sc34  1  0.68810272  0.85983651  0.07815015  1
  O  O35  1  0.06567587  0.67374967  0.98436037  1
  O  O36  1  0.07048123  0.92976705  0.86583515  1
  O  O37  1  0.06413746  0.67830691  0.78222085  1
  O  O38  1  0.17851634  0.42195174  0.91569975  1
  O  O39  1  0.07046166  0.92877610  0.66560808  1
  O  O40  1  0.06213942  0.67663053  0.58171502  1
  O  O41  1  0.31746672  0.09244230  0.98679019  1
  O  O42  1  0.17685836  0.41954218  0.71530647  1
  O  O43  1  0.43505576  0.82219037  0.91474602  1
  O  O44  1  0.09432966  0.93880767  0.46349785  1
  O  O45  1  0.05261913  0.68319708  0.37826059  1
  O  O46  1  0.43285671  0.57177785  0.83628202  1
  O  O47  1  0.32032982  0.09534988  0.78763591  1
  O  O48  1  0.17747123  0.41958056  0.51551669  1
  O  O49  1  0.43492994  0.82249597  0.71489530  1
  O  O50  1  0.09545276  0.93986078  0.26351487  1
  O  O51  1  0.58848848  0.42872593  0.96506901  1
  O  O52  1  0.05315047  0.68290678  0.17784261  1
  O  O53  1  0.43310552  0.57258121  0.63652808  1
  O  O54  1  0.32170217  0.09592363  0.58886458  1
  O  O55  1  0.58166616  0.18268632  0.88444618  1
  O  O56  1  0.17671730  0.41597772  0.31568004  1
  O  O57  1  0.42570885  0.82082930  0.51578678  1
  O  O58  1  0.67220692  0.92563072  0.81413269  1
  O  O59  1  0.08728432  0.93081562  0.06463184  1
  O  O60  1  0.58413331  0.42801728  0.76421686  1
  O  O61  1  0.42123981  0.56731782  0.43493119  1
  O  O62  1  0.31924403  0.10100545  0.38959202  1
  O  O63  1  0.58256250  0.18151038  0.68469822  1
  O  O64  1  0.17474488  0.41667616  0.11317117  1
  O  O65  1  0.82028173  0.57602759  0.88705031  1
  O  O66  1  0.42468572  0.81984842  0.31594490  1
  O  O67  1  0.67299536  0.92449734  0.61422908  1
  O  O68  1  0.58310673  0.42520471  0.56417967  1
  O  O69  1  0.42030892  0.56754864  0.23500397  1
  O  O70  1  0.90172845  0.06431077  0.93617111  1
  O  O71  1  0.31974282  0.10016732  0.18921092  1
  O  O72  1  0.58012228  0.18359134  0.48427485  1
  O  O73  1  0.81926219  0.57476114  0.68685574  1
  O  O74  1  0.41911411  0.81641589  0.11453258  1
  O  O75  1  0.67652938  0.91907957  0.41230070  1
  O  O76  1  0.58341860  0.42268966  0.36378339  1
  O  O77  1  0.93032335  0.32665534  0.81624845  1
  O  O78  1  0.42115910  0.55992709  0.03575676  1
  O  O79  1  0.90390430  0.06323337  0.73639557  1
  O  O80  1  0.58186166  0.18206369  0.28406133  1
  O  O81  1  0.82008949  0.57260293  0.48495666  1
  O  O82  1  0.67608414  0.91801756  0.21184492  1
  O  O83  1  0.58268013  0.42591086  0.16398903  1
  O  O84  1  0.93030251  0.32578455  0.61640051  1
  O  O85  1  0.91045315  0.06515845  0.53565179  1
  O  O86  1  0.57919019  0.18514358  0.08507960  1
  O  O87  1  0.81909476  0.57134385  0.28447634  1
  O  O88  1  0.67075220  0.92997965  0.01380626  1
  O  O89  1  0.93445450  0.32641110  0.41540575  1
  O  O90  1  0.90693796  0.05990681  0.33570888  1
  O  O91  1  0.82251394  0.57117951  0.08397492  1
  O  O92  1  0.93417800  0.32619268  0.21557397  1
  O  O93  1  0.90840796  0.06387469  0.13585728  1
  O  O94  1  0.93665503  0.32395033  0.01713741  1
