# generated using pymatgen
data_NaGa(SiO3)2
_symmetry_space_group_name_H-M   'P 1'
_cell_length_a   5.34421825
_cell_length_b   6.56401637
_cell_length_c   6.56401637
_cell_angle_alpha   84.47386877
_cell_angle_beta   76.81031493
_cell_angle_gamma   76.81031496
_symmetry_Int_Tables_number   1
_chemical_formula_structural   NaGa(SiO3)2
_chemical_formula_sum   'Na2 Ga2 Si4 O12'
_cell_volume   218.03644051
_cell_formula_units_Z   2
loop_
 _symmetry_equiv_pos_site_id
 _symmetry_equiv_pos_as_xyz
  1  'x, y, z'
loop_
 _atom_site_type_symbol
 _atom_site_label
 _atom_site_symmetry_multiplicity
 _atom_site_fract_x
 _atom_site_fract_y
 _atom_site_fract_z
 _atom_site_occupancy
  O  O0  1  0.49227026  0.34289398  0.35994244  1
  O  O1  1  0.00772974  0.64005756  0.65710602  1
  O  O2  1  0.50772974  0.65710602  0.64005756  1
  O  O3  1  0.99227026  0.35994244  0.34289398  1
  O  O4  1  0.19842805  0.10171984  0.61647355  1
  O  O5  1  0.30157195  0.38352645  0.89828016  1
  O  O6  1  0.80157195  0.89828016  0.38352645  1
  O  O7  1  0.69842805  0.61647355  0.10171984  1
  O  O8  1  0.86711868  0.19039470  0.03361090  1
  O  O9  1  0.63288132  0.96638910  0.80960530  1
  O  O10  1  0.13288132  0.80960530  0.96638910  1
  O  O11  1  0.36711868  0.03361090  0.19039470  1
  Na  Na12  1  0.75000000  0.29908936  0.70091064  1
  Na  Na13  1  0.25000000  0.70091064  0.29908936  1
  Si  Si14  1  0.23077633  0.61868354  0.80010398  1
  Si  Si15  1  0.76922367  0.38131646  0.19989602  1
  Si  Si16  1  0.26922367  0.19989602  0.38131646  1
  Si  Si17  1  0.73077633  0.80010398  0.61868354  1
  Ga  Ga18  1  0.75000000  0.90003568  0.09996432  1
  Ga  Ga19  1  0.25000000  0.09996432  0.90003568  1
