# generated using pymatgen
data_Sr3La7Ti3Mn7O30
_symmetry_space_group_name_H-M   'P 1'
_cell_length_a   5.57950841
_cell_length_b   27.86564616
_cell_length_c   9.63640069
_cell_angle_alpha   30.25161594
_cell_angle_beta   55.42037748
_cell_angle_gamma   60.63986958
_symmetry_Int_Tables_number   1
_chemical_formula_structural   Sr3La7Ti3Mn7O30
_chemical_formula_sum   'Sr3 La7 Ti3 Mn7 O30'
_cell_volume   621.46251601
_cell_formula_units_Z   1
loop_
 _symmetry_equiv_pos_site_id
 _symmetry_equiv_pos_as_xyz
  1  'x, y, z'
loop_
 _atom_site_type_symbol
 _atom_site_label
 _atom_site_symmetry_multiplicity
 _atom_site_fract_x
 _atom_site_fract_y
 _atom_site_fract_z
 _atom_site_occupancy
  Sr  Sr0  1  0.24741084  0.20197487  0.24862314  1
  Sr  Sr1  1  0.25265110  0.99946893  0.24850142  1
  Sr  Sr2  1  0.74804390  0.99899839  0.75577661  1
  La  La3  1  0.24968652  0.39870432  0.25205766  1
  La  La4  1  0.24896188  0.59896001  0.25324709  1
  La  La5  1  0.75123896  0.20104740  0.74454074  1
  La  La6  1  0.24762062  0.79994233  0.25308732  1
  La  La7  1  0.74749764  0.39954399  0.75399373  1
  La  La8  1  0.74932074  0.60146141  0.74625058  1
  La  La9  1  0.75136293  0.79979095  0.74816258  1
  Ti  Ti10  1  0.99788228  0.00285131  0.99336374  1
  Ti  Ti11  1  0.00161749  0.19761049  0.00614613  1
  Ti  Ti12  1  0.50283575  0.99826136  0.50434179  1
  Mn  Mn13  1  0.99951134  0.40099328  0.99782175  1
  Mn  Mn14  1  0.99931596  0.59925689  0.00221608  1
  Mn  Mn15  1  0.49591765  0.19931580  0.50220306  1
  Mn  Mn16  1  0.99636053  0.80000765  0.00128933  1
  Mn  Mn17  1  0.49663700  0.40053042  0.50061608  1
  Mn  Mn18  1  0.49812391  0.60033954  0.50009864  1
  Mn  Mn19  1  0.50327849  0.79989295  0.49922512  1
  O  O20  1  0.20612508  0.09110512  0.29563829  1
  O  O21  1  0.74809538  0.02272714  0.19428741  1
  O  O22  1  0.18504957  0.29200563  0.30649717  1
  O  O23  1  0.70406475  0.11157387  0.24094725  1
  O  O24  1  0.28803444  0.08559581  0.76350908  1
  O  O25  1  0.23786028  0.18141501  0.80468905  1
  O  O26  1  0.76158046  0.22696709  0.17248674  1
  O  O27  1  0.18392017  0.48704382  0.31497978  1
  O  O28  1  0.69181422  0.31365684  0.24658283  1
  O  O29  1  0.31744486  0.28809611  0.74053525  1
  O  O30  1  0.80182920  0.10727677  0.71186775  1
  O  O31  1  0.24836742  0.38183553  0.79644480  1
  O  O32  1  0.74933755  0.42721412  0.18147508  1
  O  O33  1  0.18790769  0.68596614  0.31593461  1
  O  O34  1  0.68465887  0.51252582  0.24973802  1
  O  O35  1  0.31770891  0.48728787  0.75006203  1
  O  O36  1  0.82046765  0.31250255  0.68491930  1
  O  O37  1  0.24923309  0.57458385  0.81407540  1
  O  O38  1  0.74927211  0.62578875  0.18541590  1
  O  O39  1  0.18427208  0.88557978  0.31320332  1
  O  O40  1  0.68227718  0.71088832  0.25509238  1
  O  O41  1  0.31466852  0.68729132  0.75065394  1
  O  O42  1  0.81497610  0.51434202  0.68236609  1
  O  O43  1  0.25023075  0.77341681  0.81615273  1
  O  O44  1  0.74958466  0.81807603  0.20512067  1
  O  O45  1  0.70851179  0.90740301  0.25911953  1
  O  O46  1  0.32035691  0.88904211  0.74757460  1
  O  O47  1  0.81340698  0.71159082  0.68972108  1
  O  O48  1  0.25109554  0.97650891  0.80692958  1
  O  O49  1  0.79257223  0.91174072  0.69241774  1
