# generated using pymatgen
data_SrLaTa2(NO)3
_symmetry_space_group_name_H-M   'P 1'
_cell_length_a   5.72373744
_cell_length_b   5.73321336
_cell_length_c   8.23238565
_cell_angle_alpha   90.02327142
_cell_angle_beta   89.95440357
_cell_angle_gamma   91.10249106
_symmetry_Int_Tables_number   1
_chemical_formula_structural   SrLaTa2(NO)3
_chemical_formula_sum   'Sr2 La2 Ta4 N6 O6'
_cell_volume   270.09897650
_cell_formula_units_Z   2
loop_
 _symmetry_equiv_pos_site_id
 _symmetry_equiv_pos_as_xyz
  1  'x, y, z'
loop_
 _atom_site_type_symbol
 _atom_site_label
 _atom_site_symmetry_multiplicity
 _atom_site_fract_x
 _atom_site_fract_y
 _atom_site_fract_z
 _atom_site_occupancy
  Sr  Sr0  1  0.99685759  0.01650541  0.24729040  1
  Sr  Sr1  1  0.49392061  0.48621608  0.74237784  1
  La  La2  1  0.49942688  0.53028321  0.24123696  1
  La  La3  1  0.99398538  0.98049167  0.74602532  1
  Ta  Ta4  1  0.00327047  0.49048728  0.98794092  1
  Ta  Ta5  1  0.99209543  0.51035383  0.48772117  1
  Ta  Ta6  1  0.50383408  0.99453345  0.49053404  1
  Ta  Ta7  1  0.49044709  0.01134085  0.99014497  1
  N  N8  1  0.07323846  0.50668904  0.25584674  1
  N  N9  1  0.22354174  0.21967420  0.98050004  1
  N  N10  1  0.45454568  0.97328754  0.25494152  1
  N  N11  1  0.57116587  0.01880267  0.75537477  1
  N  N12  1  0.76824844  0.76886606  0.48439305  1
  N  N13  1  0.95472478  0.49466219  0.75505885  1
  O  O14  1  0.21234814  0.21093517  0.53520540  1
  O  O15  1  0.28024530  0.72387284  0.97041734  1
  O  O16  1  0.27042157  0.72606630  0.53808586  1
  O  O17  1  0.72298382  0.28175987  0.04358613  1
  O  O18  1  0.71598359  0.28118737  0.46394423  1
  O  O19  1  0.77871407  0.77398695  0.02937443  1
