# generated using pymatgen
data_Co(Bi3O5)4
_symmetry_space_group_name_H-M   'P 1'
_cell_length_a   8.90121563
_cell_length_b   8.90131405
_cell_length_c   8.90126972
_cell_angle_alpha   109.47144195
_cell_angle_beta   109.47073892
_cell_angle_gamma   109.47122473
_symmetry_Int_Tables_number   1
_chemical_formula_structural   Co(Bi3O5)4
_chemical_formula_sum   'Co1 Bi12 O20'
_cell_volume   542.91881123
_cell_formula_units_Z   1
loop_
 _symmetry_equiv_pos_site_id
 _symmetry_equiv_pos_as_xyz
  1  'x, y, z'
loop_
 _atom_site_type_symbol
 _atom_site_label
 _atom_site_symmetry_multiplicity
 _atom_site_fract_x
 _atom_site_fract_y
 _atom_site_fract_z
 _atom_site_occupancy
  Co  Co0  1  0.99999690  -0.00000061  0.99999634  1
  Bi  Bi1  1  0.19282714  0.86091284  0.69694377  1
  Bi  Bi2  1  0.13910185  0.33192256  0.83604253  1
  Bi  Bi3  1  0.16395935  0.49589548  0.30307264  1
  Bi  Bi4  1  0.33192237  0.83603137  0.13909000  1
  Bi  Bi5  1  0.50410338  0.66805371  0.80715985  1
  Bi  Bi6  1  0.30305366  0.16394849  0.49587536  1
  Bi  Bi7  1  0.66806587  0.80718067  0.50411140  1
  Bi  Bi8  1  0.49588039  0.30304957  0.16396221  1
  Bi  Bi9  1  0.69695729  0.19284811  0.86091357  1
  Bi  Bi10  1  0.80717010  0.50412341  0.66807617  1
  Bi  Bi11  1  0.86090193  0.69693797  0.19282972  1
  Bi  Bi12  1  0.83605083  0.13909857  0.33193710  1
  O  O13  1  0.39139880  0.00000067  0.99999970  1
  O  O14  1  0.35782328  0.12306590  0.74181383  1
  O  O15  1  0.23478776  0.61875497  0.87694150  1
  O  O16  1  0.61601545  0.25818168  0.38124506  1
  O  O17  1  0.79577600  0.00000419  0.00000260  1
  O  O18  1  0.61876025  0.87694637  0.23477967  1
  O  O19  1  0.74182453  0.35784194  0.12306643  1
  O  O20  1  0.38396592  0.76520573  0.64215666  1
  O  O21  1  0.00000396  0.00000566  0.79577811  1
  O  O22  1  0.20423166  0.20421543  0.20422530  1
  O  O23  1  0.99998903  0.79577213  0.99998183  1
  O  O24  1  0.00000511  -0.00000284  0.39139546  1
  O  O25  1  0.60859671  0.60859478  0.60858596  1
  O  O26  1  0.00000853  0.39139678  0.00000426  1
  O  O27  1  0.87693960  0.23475062  0.61875830  1
  O  O28  1  0.25817847  0.38123306  0.61599278  1
  O  O29  1  0.64217516  0.38399868  0.76523889  1
  O  O30  1  0.76523504  0.64219223  0.38399485  1
  O  O31  1  0.12305728  0.74181569  0.35783384  1
  O  O32  1  0.38123641  0.61602420  0.25819431  1
