# generated using pymatgen
data_Al8P8H34N7O36F5
_symmetry_space_group_name_H-M   'P 1'
_cell_length_a   9.45672174
_cell_length_b   9.66971284
_cell_length_c   9.95561530
_cell_angle_alpha   89.92501183
_cell_angle_beta   89.95151350
_cell_angle_gamma   89.84933510
_symmetry_Int_Tables_number   1
_chemical_formula_structural   Al8P8H34N7O36F5
_chemical_formula_sum   'Al8 P8 H34 N7 O36 F5'
_cell_volume   910.37488092
_cell_formula_units_Z   1
loop_
 _symmetry_equiv_pos_site_id
 _symmetry_equiv_pos_as_xyz
  1  'x, y, z'
loop_
 _atom_site_type_symbol
 _atom_site_label
 _atom_site_symmetry_multiplicity
 _atom_site_fract_x
 _atom_site_fract_y
 _atom_site_fract_z
 _atom_site_occupancy
  Al  Al0  1  0.10061164  0.25787250  0.35964591  1
  Al  Al1  1  0.15519604  0.47703331  0.82273309  1
  Al  Al2  1  0.34753137  0.52381852  0.32472035  1
  Al  Al3  1  0.39726109  0.73677291  0.85901818  1
  Al  Al4  1  0.60359303  0.23837267  0.63996020  1
  Al  Al5  1  0.65403979  0.02243486  0.17590345  1
  Al  Al6  1  0.84559977  0.97526943  0.67462466  1
  Al  Al7  1  0.89745285  0.76221329  0.13943302  1
  P  P8  1  0.07651888  0.79122380  0.85421462  1
  P  P9  1  0.07961687  0.48510728  0.14077257  1
  P  P10  1  0.41736081  0.51498387  0.63846540  1
  P  P11  1  0.42242801  0.20923028  0.35826900  1
  P  P12  1  0.57763392  0.70865679  0.14257840  1
  P  P13  1  0.57866825  0.01613193  0.86148422  1
  P  P14  1  0.92187742  0.98246813  0.36166611  1
  P  P15  1  0.92362281  0.29352400  0.64232589  1
  H  H16  1  0.01214777  0.09825939  0.06645404  1
  H  H17  1  0.04743452  0.23806803  0.96821082  1
  H  H18  1  0.05071888  0.62960937  0.59768004  1
  H  H19  1  0.11972757  0.70337433  0.45860319  1
  H  H20  1  0.14612063  0.03636956  0.69279633  1
  H  H21  1  0.17762684  0.98022816  0.22413851  1
  H  H22  1  0.23504682  0.89077725  0.08601301  1
  H  H23  1  0.24039913  0.17509014  0.74325789  1
  H  H24  1  0.25808205  0.82546855  0.24254257  1
  H  H25  1  0.26530075  0.10986222  0.58680521  1
  H  H26  1  0.29157926  0.56410822  0.00862319  1
  H  H27  1  0.32198154  0.01992091  0.72475771  1
  H  H28  1  0.35380328  0.96415862  0.19264338  1
  H  H29  1  0.38521161  0.29176404  0.95872296  1
  H  H30  1  0.44251889  0.38719537  0.08935694  1
  H  H31  1  0.45474985  0.76063552  0.47109929  1
  H  H32  1  0.48808626  0.90163411  0.56738509  1
  H  H33  1  0.51221092  0.40157822  0.93264195  1
  H  H34  1  0.54731700  0.26149656  0.03088271  1
  H  H35  1  0.55754502  0.88660726  0.41055578  1
  H  H36  1  0.61659750  0.79265085  0.54249290  1
  H  H37  1  0.64615148  0.46442915  0.30769584  1
  H  H38  1  0.67788853  0.52095246  0.77437373  1
  H  H39  1  0.70782244  0.06309687  0.49293890  1
  H  H40  1  0.73450705  0.60996444  0.91230514  1
  H  H41  1  0.74041431  0.32494727  0.25701823  1
  H  H42  1  0.75931858  0.67584400  0.75514054  1
  H  H43  1  0.76494685  0.39052085  0.41404272  1
  H  H44  1  0.79169608  0.93759696  0.99153553  1
  H  H45  1  0.82137300  0.47993946  0.27562287  1
  H  H46  1  0.85326933  0.53526788  0.80622154  1
  H  H47  1  0.88509806  0.20863419  0.04046383  1
  H  H48  1  0.94288090  0.11309756  0.90959003  1
  H  H49  1  0.99354708  0.59900438  0.43850640  1
  N  N50  1  0.24411853  0.08483098  0.68538705  1
  N  N51  1  0.25590301  0.91544874  0.18482655  1
  N  N52  1  0.47304035  0.33553858  0.00431602  1
  N  N53  1  0.52796875  0.83540811  0.49609725  1
  N  N54  1  0.74383355  0.41515695  0.31516353  1
  N  N55  1  0.75586175  0.58511745  0.81375775  1
  N  N56  1  0.97309127  0.16469856  0.99498927  1
  O  O57  1  0.00268671  0.90672702  0.77551283  1
  O  O58  1  0.01169465  0.77242609  0.99514698  1
  O  O59  1  0.02321597  0.09044097  0.29637386  1
  O  O60  1  0.03095453  0.66626505  0.50317682  1
  O  O61  1  0.04786248  0.34236051  0.20667281  1
  O  O62  1  0.05160875  0.47207345  0.98940896  1
  O  O63  1  0.07174108  0.65439742  0.77285878  1
  O  O64  1  0.23309311  0.83711892  0.87784966  1
  O  O65  1  0.23691320  0.52666110  0.16475442  1
  O  O66  1  0.26257541  0.47671260  0.66606565  1
  O  O67  1  0.26541214  0.16492348  0.38197779  1
  O  O68  1  0.30471114  0.57097674  0.90999957  1
  O  O69  1  0.42696751  0.34858972  0.28299672  1
  O  O70  1  0.44533530  0.52991794  0.48665562  1
  O  O71  1  0.45264954  0.65815787  0.70367730  1
  O  O72  1  0.47701589  0.90854678  0.79820324  1
  O  O73  1  0.48833164  0.22067522  0.49836355  1
  O  O74  1  0.49444826  0.09635621  0.27404255  1
  O  O75  1  0.50224224  0.59749206  0.22670781  1
  O  O76  1  0.51294526  0.72071642  0.00130452  1
  O  O77  1  0.52191117  0.40794170  0.70011391  1
  O  O78  1  0.54701734  0.15878796  0.79514723  1
  O  O79  1  0.54988927  0.03008185  0.01282339  1
  O  O80  1  0.57080439  0.84769495  0.21778848  1
  O  O81  1  0.69428212  0.07064778  0.59139691  1
  O  O82  1  0.73409326  0.66101626  0.12199467  1
  O  O83  1  0.73647987  0.97715029  0.83813805  1
  O  O84  1  0.76430285  0.02292462  0.33625821  1
  O  O85  1  0.76670703  0.33903052  0.61888896  1
  O  O86  1  0.80621998  0.92907674  0.09023702  1
  O  O87  1  0.93006385  0.15362283  0.71557196  1
  O  O88  1  0.95058569  0.97344497  0.51244304  1
  O  O89  1  0.95484679  0.84094064  0.29448335  1
  O  O90  1  0.97825823  0.59166678  0.20736174  1
  O  O91  1  0.99024095  0.28615913  0.50082473  1
  O  O92  1  0.99499233  0.40600129  0.72739792  1
  F  F93  1  0.19561613  0.42760578  0.40085914  1
  F  F94  1  0.21761039  0.29908644  0.86486434  1
  F  F95  1  0.26633783  0.69693083  0.37043316  1
  F  F96  1  0.71780464  0.20010108  0.13747997  1
  F  F97  1  0.77358150  0.80208685  0.64127310  1
