# generated using pymatgen
data_Li7Mn10O24
_symmetry_space_group_name_H-M   'P 1'
_cell_length_a   5.83521775
_cell_length_b   17.52060416
_cell_length_c   15.47403633
_cell_angle_alpha   19.11040765
_cell_angle_beta   55.31645096
_cell_angle_gamma   59.86288239
_symmetry_Int_Tables_number   1
_chemical_formula_structural   Li7Mn10O24
_chemical_formula_sum   'Li7 Mn10 O24'
_cell_volume   422.15840852
_cell_formula_units_Z   1
loop_
 _symmetry_equiv_pos_site_id
 _symmetry_equiv_pos_as_xyz
  1  'x, y, z'
loop_
 _atom_site_type_symbol
 _atom_site_label
 _atom_site_symmetry_multiplicity
 _atom_site_fract_x
 _atom_site_fract_y
 _atom_site_fract_z
 _atom_site_occupancy
  Li  Li0  1  0.12487289  0.29327872  0.11912337  1
  Li  Li1  1  0.12065439  0.61748871  0.13483404  1
  Li  Li2  1  0.50073050  0.83639981  0.99742854  1
  Li  Li3  1  0.87685376  0.05012964  0.86556568  1
  Li  Li4  1  0.50021500  0.83560961  0.49706881  1
  Li  Li5  1  0.87903003  0.37834823  0.87135768  1
  Li  Li6  1  0.87948458  0.71352936  0.86980410  1
  Mn  Mn7  1  0.50029191  0.16498557  0.00171107  1
  Mn  Mn8  1  0.50337530  0.50334258  0.99346723  1
  Mn  Mn9  1  0.50310273  0.99794186  0.49899224  1
  Mn  Mn10  1  0.49946980  0.16442243  0.50405162  1
  Mn  Mn11  1  0.00845184  0.50506120  0.49246292  1
  Mn  Mn12  1  0.49893880  0.33466694  0.49927058  1
  Mn  Mn13  1  0.99389370  0.16408287  0.50454063  1
  Mn  Mn14  1  0.49854595  0.50362644  0.49464023  1
  Mn  Mn15  1  0.00303416  0.83538046  0.49564186  1
  Mn  Mn16  1  0.50026023  0.67342029  0.49366690  1
  O  O17  1  0.25346335  0.07173483  0.24753128  1
  O  O18  1  0.26886096  0.24589886  0.26051259  1
  O  O19  1  0.26670302  0.39375425  0.26206147  1
  O  O20  1  0.74553310  0.05958472  0.28744561  1
  O  O21  1  0.70811522  0.24520442  0.26408614  1
  O  O22  1  0.28962951  0.10835439  0.71066622  1
  O  O23  1  0.25108575  0.56179400  0.28388407  1
  O  O24  1  0.26471910  0.28380101  0.70549806  1
  O  O25  1  0.24929783  0.70963460  0.29078804  1
  O  O26  1  0.73987595  0.38790066  0.28590647  1
  O  O27  1  0.75428867  0.10836752  0.71012870  1
  O  O28  1  0.71217552  0.56086919  0.28489537  1
  O  O29  1  0.29305709  0.42358494  0.73222725  1
  O  O30  1  0.26243966  0.91343602  0.26219128  1
  O  O31  1  0.25325491  0.61061660  0.70829400  1
  O  O32  1  0.73552554  0.27512650  0.73411858  1
  O  O33  1  0.73955504  0.72050020  0.28619143  1
  O  O34  1  0.73409581  0.42328195  0.73469429  1
  O  O35  1  0.71035375  0.91958287  0.24504069  1
  O  O36  1  0.28650617  0.74884305  0.75257761  1
  O  O37  1  0.74569611  0.59672807  0.74951887  1
  O  O38  1  0.26123233  0.94881962  0.71026441  1
  O  O39  1  0.73804488  0.75440690  0.73681542  1
  O  O40  1  0.75272220  0.95639110  0.70840966  1
