# generated using pymatgen
data_TiNiO3
_symmetry_space_group_name_H-M   'P 1'
_cell_length_a   5.50334733
_cell_length_b   10.99838360
_cell_length_c   10.98027018
_cell_angle_alpha   54.97823755
_cell_angle_beta   54.93347121
_cell_angle_gamma   54.79597162
_symmetry_Int_Tables_number   1
_chemical_formula_structural   TiNiO3
_chemical_formula_sum   'Ti8 Ni8 O24'
_cell_volume   414.19021255
_cell_formula_units_Z   8
loop_
 _symmetry_equiv_pos_site_id
 _symmetry_equiv_pos_as_xyz
  1  'x, y, z'
loop_
 _atom_site_type_symbol
 _atom_site_label
 _atom_site_symmetry_multiplicity
 _atom_site_fract_x
 _atom_site_fract_y
 _atom_site_fract_z
 _atom_site_occupancy
  Ti  Ti0  1  0.35333821  0.17927032  0.17182003  1
  Ti  Ti1  1  0.14768921  0.06655722  0.57712722  1
  Ti  Ti2  1  0.14276728  0.58516381  0.06293306  1
  Ti  Ti3  1  0.13758472  0.57018592  0.57262029  1
  Ti  Ti4  1  0.85384642  0.42456873  0.43219046  1
  Ti  Ti5  1  0.85695754  0.42672709  0.92820123  1
  Ti  Ti6  1  0.88084160  0.92654050  0.41318590  1
  Ti  Ti7  1  0.81769848  0.93739831  0.92873129  1
  Ni  Ni8  1  0.14171116  0.07064996  0.07418789  1
  Ni  Ni9  1  0.34353901  0.67562330  0.17632802  1
  Ni  Ni10  1  0.35882104  0.17100115  0.67356337  1
  Ni  Ni11  1  0.64545003  0.32569856  0.32635289  1
  Ni  Ni12  1  0.34800873  0.67390032  0.67522368  1
  Ni  Ni13  1  0.65039799  0.32556208  0.82213199  1
  Ni  Ni14  1  0.65522199  0.81971330  0.32568646  1
  Ni  Ni15  1  0.63907950  0.82591305  0.82130830  1
  O  O16  1  0.07422827  0.37358725  0.21318285  1
  O  O17  1  0.42830756  0.03904381  0.37012305  1
  O  O18  1  0.72365897  0.22144752  0.03516584  1
  O  O19  1  0.23047044  0.28196398  0.47353248  1
  O  O20  1  0.56486188  0.47200617  0.11434642  1
  O  O21  1  0.05299775  0.38089962  0.72184451  1
  O  O22  1  0.04450650  0.87175645  0.23270907  1
  O  O23  1  0.95005554  0.11870832  0.28307738  1
  O  O24  1  0.45921550  0.02131074  0.87382044  1
  O  O25  1  0.43913661  0.52405739  0.38539744  1
  O  O26  1  0.77423027  0.21922422  0.52537229  1
  O  O27  1  0.76234129  0.71750231  0.02710899  1
  O  O28  1  0.22906898  0.28188291  0.97642371  1
  O  O29  1  0.23212251  0.77914004  0.47409764  1
  O  O30  1  0.56282818  0.47297027  0.61558500  1
  O  O31  1  0.56271172  0.97673162  0.11883086  1
  O  O32  1  0.05563862  0.88424642  0.71340172  1
  O  O33  1  0.94664990  0.11390516  0.77967126  1
  O  O34  1  0.94685920  0.61027541  0.28032903  1
  O  O35  1  0.43671909  0.52688821  0.88347865  1
  O  O36  1  0.76596620  0.71521547  0.52951804  1
  O  O37  1  0.22005099  0.77886471  0.97169863  1
  O  O38  1  0.56024259  0.97210209  0.60723980  1
  O  O39  1  0.94467851  0.61204626  0.78270278  1
