# generated using pymatgen
data_LiEr4(HCl)4
_symmetry_space_group_name_H-M   'P 1'
_cell_length_a   3.69573262
_cell_length_b   3.69573262
_cell_length_c   18.84170209
_cell_angle_alpha   95.62822975
_cell_angle_beta   95.62822975
_cell_angle_gamma   59.99999326
_symmetry_Int_Tables_number   1
_chemical_formula_structural   LiEr4(HCl)4
_chemical_formula_sum   'Li1 Er4 H4 Cl4'
_cell_volume   221.43639846
_cell_formula_units_Z   1
loop_
 _symmetry_equiv_pos_site_id
 _symmetry_equiv_pos_as_xyz
  1  'x, y, z'
loop_
 _atom_site_type_symbol
 _atom_site_label
 _atom_site_symmetry_multiplicity
 _atom_site_fract_x
 _atom_site_fract_y
 _atom_site_fract_z
 _atom_site_occupancy
  Li  Li0  1  -0.00000000  -0.00000000  -0.00000000  1
  Er  Er1  1  0.39313342  0.39313342  0.17940027  1
  Er  Er2  1  0.89137647  0.89137647  0.67412942  1
  Er  Er3  1  0.10862353  0.10862353  0.32587058  1
  Er  Er4  1  0.60686658  0.60686658  0.82059973  1
  H  H5  1  0.43178376  0.43178376  0.29535129  1
  H  H6  1  0.93185738  0.93185738  0.79557215  1
  H  H7  1  0.06814262  0.06814262  0.20442785  1
  H  H8  1  0.56821624  0.56821624  0.70464871  1
  Cl  Cl9  1  0.80506616  0.80506616  0.41519849  1
  Cl  Cl10  1  0.30741035  0.30741035  0.92223104  1
  Cl  Cl11  1  0.69258965  0.69258965  0.07776896  1
  Cl  Cl12  1  0.19493384  0.19493384  0.58480151  1
