# generated using pymatgen
data_Na5Zr4Si3(PO8)3
_symmetry_space_group_name_H-M   'P 1'
_cell_length_a   9.32687261
_cell_length_b   9.32687218
_cell_length_c   9.32687265
_cell_angle_alpha   58.53858021
_cell_angle_beta   58.53858181
_cell_angle_gamma   58.53858202
_symmetry_Int_Tables_number   1
_chemical_formula_structural   Na5Zr4Si3(PO8)3
_chemical_formula_sum   'Na5 Zr4 Si3 P3 O24'
_cell_volume   554.53523421
_cell_formula_units_Z   1
loop_
 _symmetry_equiv_pos_site_id
 _symmetry_equiv_pos_as_xyz
  1  'x, y, z'
loop_
 _atom_site_type_symbol
 _atom_site_label
 _atom_site_symmetry_multiplicity
 _atom_site_fract_x
 _atom_site_fract_y
 _atom_site_fract_z
 _atom_site_occupancy
  Na  Na0  1  0.99460330  0.99460330  0.99460330  1
  Na  Na1  1  0.11038687  0.38961313  0.75000000  1
  Na  Na2  1  0.38961313  0.75000000  0.11038687  1
  Na  Na3  1  0.75000000  0.11038687  0.38961313  1
  Na  Na4  1  0.50539670  0.50539670  0.50539670  1
  Zr  Zr5  1  0.14904570  0.14904570  0.14904570  1
  Zr  Zr6  1  0.35095430  0.35095430  0.35095430  1
  Zr  Zr7  1  0.64731892  0.64731892  0.64731892  1
  Zr  Zr8  1  0.85268108  0.85268108  0.85268108  1
  Si  Si9  1  0.03974021  0.75000000  0.46025979  1
  Si  Si10  1  0.46025979  0.03974021  0.75000000  1
  Si  Si11  1  0.75000000  0.46025979  0.03974021  1
  P  P12  1  0.25000000  0.54800220  0.95199780  1
  P  P13  1  0.54800220  0.95199780  0.25000000  1
  P  P14  1  0.95199780  0.25000000  0.54800220  1
  O  O15  1  0.11122802  0.29394445  0.50910202  1
  O  O16  1  0.29394445  0.50910202  0.11122802  1
  O  O17  1  0.07247923  0.92398851  0.27909823  1
  O  O18  1  0.50910202  0.11122802  0.29394445  1
  O  O19  1  0.22090177  0.57601149  0.42752077  1
  O  O20  1  0.01317777  0.76168771  0.64171351  1
  O  O21  1  0.27909823  0.07247923  0.92398851  1
  O  O22  1  0.42752077  0.22090177  0.57601149  1
  O  O23  1  0.57601149  0.42752077  0.22090177  1
  O  O24  1  0.20605555  0.38877198  0.99089798  1
  O  O25  1  0.08610835  0.72156976  0.93668464  1
  O  O26  1  0.38877198  0.99089798  0.20605555  1
  O  O27  1  0.64171351  0.01317777  0.76168771  1
  O  O28  1  0.92398851  0.27909823  0.07247923  1
  O  O29  1  0.76168771  0.64171351  0.01317777  1
  O  O30  1  0.41389165  0.56331536  0.77843024  1
  O  O31  1  0.56331536  0.77843024  0.41389165  1
  O  O32  1  0.72156976  0.93668464  0.08610835  1
  O  O33  1  0.99089798  0.20605555  0.38877198  1
  O  O34  1  0.77843024  0.41389165  0.56331536  1
  O  O35  1  0.48682223  0.85828649  0.73831229  1
  O  O36  1  0.93668464  0.08610835  0.72156976  1
  O  O37  1  0.73831229  0.48682223  0.85828649  1
  O  O38  1  0.85828649  0.73831229  0.48682223  1
