# generated using pymatgen
data_Al4Zn4P8H13N3O32
_symmetry_space_group_name_H-M   'P 1'
_cell_length_a   9.00290906
_cell_length_b   9.49222511
_cell_length_c   9.50089490
_cell_angle_alpha   89.70142001
_cell_angle_beta   82.48669993
_cell_angle_gamma   81.69830128
_symmetry_Int_Tables_number   1
_chemical_formula_structural   Al4Zn4P8H13N3O32
_chemical_formula_sum   'Al4 Zn4 P8 H13 N3 O32'
_cell_volume   796.44129795
_cell_formula_units_Z   1
loop_
 _symmetry_equiv_pos_site_id
 _symmetry_equiv_pos_as_xyz
  1  'x, y, z'
loop_
 _atom_site_type_symbol
 _atom_site_label
 _atom_site_symmetry_multiplicity
 _atom_site_fract_x
 _atom_site_fract_y
 _atom_site_fract_z
 _atom_site_occupancy
  Al  Al0  1  0.06484902  0.79427967  0.04964798  1
  Al  Al1  1  0.38707944  0.43056837  0.31432837  1
  Al  Al2  1  0.61166933  0.56762483  0.68954032  1
  Al  Al3  1  0.88923627  0.30969367  0.42070581  1
  Zn  Zn4  1  0.12650121  0.68294788  0.55417751  1
  Zn  Zn5  1  0.44818278  0.95742299  0.20480990  1
  Zn  Zn6  1  0.55905126  0.04298511  0.79222634  1
  Zn  Zn7  1  0.93596197  0.22064967  0.97235943  1
  P  P8  1  0.09414186  0.08248611  0.21076297  1
  P  P9  1  0.03644577  0.56776606  0.28862397  1
  P  P10  1  0.47254623  0.70688623  0.43736993  1
  P  P11  1  0.58441355  0.21730455  0.08542560  1
  P  P12  1  0.41158243  0.79056352  0.91575583  1
  P  P13  1  0.54704911  0.29310525  0.55499419  1
  P  P14  1  0.95617723  0.44195709  0.70432036  1
  P  P15  1  0.91801428  0.92502885  0.80032303  1
  H  H16  1  0.25546988  0.36355333  0.01638480  1
  H  H17  1  0.17593883  0.40838434  0.86874724  1
  H  H18  1  0.14785471  0.90656841  0.67991693  1
  H  H19  1  0.27085096  0.52463155  0.94257639  1
  H  H20  1  0.36915115  0.37504891  0.86410246  1
  H  H21  1  0.62320981  0.62277526  0.12649369  1
  H  H22  1  0.71955585  0.46198399  0.06226905  1
  H  H23  1  0.77806662  0.02412844  0.37412124  1
  H  H24  1  0.67589342  0.88863908  0.40825229  1
  H  H25  1  0.81366157  0.58849930  0.12041699  1
  H  H26  1  0.73622839  0.61664743  0.97102896  1
  H  H27  1  0.76952479  0.94821923  0.53580625  1
  H  H28  1  0.86922666  0.85792482  0.39434184  1
  N  N29  1  0.26813112  0.41806619  0.92268553  1
  N  N30  1  0.72247733  0.57292778  0.07007127  1
  N  N31  1  0.77360736  0.93050914  0.42799106  1
  O  O32  1  0.10217898  0.18673004  0.08644467  1
  O  O33  1  0.01641394  0.63638616  0.14074274  1
  O  O34  1  0.03666065  0.94268411  0.16412469  1
  O  O35  1  0.00614269  0.68954362  0.39855684  1
  O  O36  1  0.05230599  0.87231189  0.66705605  1
  O  O37  1  0.08927920  0.52462739  0.66604397  1
  O  O38  1  0.19631203  0.48341924  0.28653127  1
  O  O39  1  0.24442917  0.04554251  0.26845488  1
  O  O40  1  0.25032694  0.74517455  0.96196088  1
  O  O41  1  0.32201283  0.73755998  0.53467253  1
  O  O42  1  0.41010681  0.33673540  0.47179118  1
  O  O43  1  0.46196158  0.34002964  0.15641228  1
  O  O44  1  0.46761551  0.58927209  0.32384164  1
  O  O45  1  0.48563969  0.81682959  0.04770664  1
  O  O46  1  0.60024946  0.08713333  0.18215785  1
  O  O47  1  0.54180950  0.14538161  0.61417505  1
  O  O48  1  0.52045524  0.83820627  0.35989556  1
  O  O49  1  0.39938196  0.91815024  0.81589603  1
  O  O50  1  0.53264249  0.18458318  0.94283324  1
  O  O51  1  0.53870159  0.40466325  0.67742904  1
  O  O52  1  0.50520216  0.65466220  0.83968751  1
  O  O53  1  0.60131095  0.65595070  0.52834835  1
  O  O54  1  0.69391000  0.30034667  0.44955741  1
  O  O55  1  0.73345580  0.28421143  0.06568245  1
  O  O56  1  0.76947479  0.92448529  0.74108844  1
  O  O57  1  0.80136942  0.54305628  0.72228938  1
  O  O58  1  0.92030563  0.46171199  0.31489977  1
  O  O59  1  0.97123026  0.14891069  0.33403449  1
  O  O60  1  0.95183394  0.32934773  0.58661137  1
  O  O61  1  0.95827770  0.06648280  0.83961950  1
  O  O62  1  0.98282363  0.37504526  0.84728755  1
  O  O63  1  0.93772927  0.81374784  0.91968922  1
