# generated using pymatgen
data_Ba8Ce7YHO24
_symmetry_space_group_name_H-M   'P 1'
_cell_length_a   6.32794840
_cell_length_b   6.33463882
_cell_length_c   17.57433712
_cell_angle_alpha   90.04792052
_cell_angle_beta   89.87390906
_cell_angle_gamma   89.29023397
_symmetry_Int_Tables_number   1
_chemical_formula_structural   Ba8Ce7YHO24
_chemical_formula_sum   'Ba8 Ce7 Y1 H1 O24'
_cell_volume   704.41598516
_cell_formula_units_Z   1
loop_
 _symmetry_equiv_pos_site_id
 _symmetry_equiv_pos_as_xyz
  1  'x, y, z'
loop_
 _atom_site_type_symbol
 _atom_site_label
 _atom_site_symmetry_multiplicity
 _atom_site_fract_x
 _atom_site_fract_y
 _atom_site_fract_z
 _atom_site_occupancy
  Ba  Ba0  1  0.02156688  0.99155773  0.12561633  1
  Ba  Ba1  1  0.04086893  0.01162964  0.63591471  1
  Ba  Ba2  1  0.47687184  0.48547114  0.87394873  1
  Ba  Ba3  1  0.49886493  0.48862776  0.37576288  1
  Ba  Ba4  1  0.46967214  0.49027544  0.63529896  1
  Ba  Ba5  1  0.51984044  0.50967818  0.12552108  1
  Ba  Ba6  1  0.98845493  0.00857133  0.37365070  1
  Ba  Ba7  1  0.99040126  0.01750029  0.87403107  1
  Ce  Ce8  1  0.00016328  0.50360918  -0.00017728  1
  Ce  Ce9  1  0.00149163  0.49923010  0.25166504  1
  Ce  Ce10  1  0.00649459  0.49083803  0.50284111  1
  Ce  Ce11  1  0.50471350  0.99928038  0.25148528  1
  Ce  Ce12  1  0.50687997  0.99590805  0.75172544  1
  Ce  Ce13  1  0.50465166  0.99909095  0.00100739  1
  Ce  Ce14  1  0.49587411  0.00250531  0.50100564  1
  Y  Y15  1  0.99411042  0.50689889  0.75168491  1
  H  H16  1  0.75267299  0.75723976  0.60767498  1
  O  O17  1  0.97168635  0.57641736  0.37923263  1
  O  O18  1  0.00640953  0.58290020  0.87785301  1
  O  O19  1  0.24237290  0.23929411  0.27744463  1
  O  O20  1  0.23973003  0.23412057  0.47169890  1
  O  O21  1  0.23563178  0.23356980  0.97746511  1
  O  O22  1  0.24548208  0.24076061  0.77123353  1
  O  O23  1  0.26604835  0.73742365  0.23702363  1
  O  O24  1  0.25967566  0.74913381  0.73575531  1
  O  O25  1  0.26973458  0.73577801  0.02422049  1
  O  O26  1  0.26680862  0.73315338  0.51369774  1
  O  O27  1  0.48139771  0.07839741  0.12809854  1
  O  O28  1  0.46506655  0.07140683  0.62260541  1
  O  O29  1  0.53664413  0.91497465  0.87712651  1
  O  O30  1  0.54447687  0.91724153  0.37890141  1
  O  O31  1  0.74079836  0.25618691  0.48354765  1
  O  O32  1  0.73321874  0.26758503  0.98057572  1
  O  O33  1  0.74169041  0.25873973  0.27271424  1
  O  O34  1  0.73929295  0.25649881  0.76738543  1
  O  O35  1  0.75963798  0.75647100  0.54968496  1
  O  O36  1  0.76885038  0.76795380  0.02887118  1
  O  O37  1  0.76641732  0.76236901  0.22696819  1
  O  O38  1  0.75398152  0.75701148  0.71025756  1
  O  O39  1  0.99006882  0.42243162  0.12798982  1
  O  O40  1  0.03848486  0.42756853  0.62309143  1
