# generated using pymatgen
data_CsMg4Al9(SiO4)9
_symmetry_space_group_name_H-M   'P 1'
_cell_length_a   9.88766926
_cell_length_b   9.86174756
_cell_length_c   9.52043273
_cell_angle_alpha   89.97781749
_cell_angle_beta   90.00131730
_cell_angle_gamma   119.65971563
_symmetry_Int_Tables_number   1
_chemical_formula_structural   CsMg4Al9(SiO4)9
_chemical_formula_sum   'Cs1 Mg4 Al9 Si9 O36'
_cell_volume   806.70373599
_cell_formula_units_Z   1
loop_
 _symmetry_equiv_pos_site_id
 _symmetry_equiv_pos_as_xyz
  1  'x, y, z'
loop_
 _atom_site_type_symbol
 _atom_site_label
 _atom_site_symmetry_multiplicity
 _atom_site_fract_x
 _atom_site_fract_y
 _atom_site_fract_z
 _atom_site_occupancy
  Cs  Cs0  1  0.99331239  0.99998539  0.75681820  1
  Mg  Mg1  1  0.33233706  0.66696797  0.24754793  1
  Mg  Mg2  1  0.33235391  0.66707700  0.75243894  1
  Mg  Mg3  1  0.67662065  0.33473844  0.24760542  1
  Mg  Mg4  1  0.67752279  0.33485287  0.75275167  1
  Al  Al5  1  0.99776493  0.49748095  0.24925955  1
  Al  Al6  1  0.99807353  0.49755130  0.75070227  1
  Al  Al7  1  0.50272736  0.50169114  0.24854016  1
  Al  Al8  1  0.50305573  0.50158850  0.75147232  1
  Al  Al9  1  0.50230133  0.00111670  0.25095734  1
  Al  Al10  1  0.50330676  0.00124604  0.74906117  1
  Al  Al11  1  0.89334330  0.63103602  0.00037309  1
  Al  Al12  1  0.73704966  0.11489781  0.00065986  1
  Al  Al13  1  0.89204735  0.25964049  0.49947169  1
  Si  Si14  1  0.10447801  0.73139880  0.49975676  1
  Si  Si15  1  0.27020981  0.89659532  0.99969100  1
  Si  Si16  1  0.11311265  0.37840505  0.99970528  1
  Si  Si17  1  0.26924722  0.37325533  0.50021984  1
  Si  Si18  1  0.62132948  0.88553471  0.50020982  1
  Si  Si19  1  0.37765689  0.26858926  0.00015368  1
  Si  Si20  1  0.62132506  0.73515924  0.99924338  1
  Si  Si21  1  0.36789523  0.10231676  0.49994924  1
  Si  Si22  1  0.73360793  0.62384351  0.49975076  1
  O  O23  1  0.08630953  0.78583555  0.99538282  1
  O  O24  1  0.21931352  0.92186184  0.50248162  1
  O  O25  1  0.13641933  0.65589164  0.35796296  1
  O  O26  1  0.13626819  0.65594492  0.64183499  1
  O  O27  1  0.14318574  0.48738498  0.14176471  1
  O  O28  1  0.14414917  0.48852579  0.85796998  1
  O  O29  1  0.34908277  0.86634812  0.85791742  1
  O  O30  1  0.34818342  0.86582884  0.14180630  1
  O  O31  1  0.08576931  0.30106604  0.50467448  1
  O  O32  1  0.23522337  0.30913702  0.99732033  1
  O  O33  1  0.51132119  0.85633622  0.35942227  1
  O  O34  1  0.51032396  0.85542624  0.64065978  1
  O  O35  1  0.35018212  0.48288664  0.35940623  1
  O  O36  1  0.35099887  0.48312586  0.64063678  1
  O  O37  1  0.30637781  0.22790390  0.50262049  1
  O  O38  1  0.51004329  0.65135175  0.14047834  1
  O  O39  1  0.50845985  0.65036980  0.85901939  1
  O  O40  1  0.68584234  0.91843928  0.99502934  1
  O  O41  1  0.30924849  0.08070613  0.99738877  1
  O  O42  1  0.48174238  0.34456794  0.14315099  1
  O  O43  1  0.48177612  0.34431566  0.85675267  1
  O  O44  1  0.69129118  0.76485845  0.50266362  1
  O  O45  1  0.65567836  0.51811931  0.35817573  1
  O  O46  1  0.65598835  0.51814230  0.64177831  1
  O  O47  1  0.47304557  0.13046694  0.35951566  1
  O  O48  1  0.47267176  0.13003484  0.64088394  1
  O  O49  1  0.76054157  0.69705503  0.99480509  1
  O  O50  1  0.92346405  0.69908189  0.50245348  1
  O  O51  1  0.65032914  0.14217514  0.85048926  1
  O  O52  1  0.64921006  0.14203562  0.14934919  1
  O  O53  1  0.86214268  0.51579683  0.14809792  1
  O  O54  1  0.86274414  0.51714210  0.85116039  1
  O  O55  1  0.86267628  0.34798784  0.35411733  1
  O  O56  1  0.86333117  0.34705965  0.64649501  1
  O  O57  1  0.76625382  0.05836026  0.50496492  1
  O  O58  1  0.93973207  0.23346104  0.99503014  1
