# generated using pymatgen
data_Li10Ge(PS6)2
_symmetry_space_group_name_H-M   'P 1'
_cell_length_a   8.58995053
_cell_length_b   8.87954140
_cell_length_c   12.97496236
_cell_angle_alpha   91.98415436
_cell_angle_beta   90.64261112
_cell_angle_gamma   90.24910777
_symmetry_Int_Tables_number   1
_chemical_formula_structural   Li10Ge(PS6)2
_chemical_formula_sum   'Li20 Ge2 P4 S24'
_cell_volume   988.99626069
_cell_formula_units_Z   2
loop_
 _symmetry_equiv_pos_site_id
 _symmetry_equiv_pos_as_xyz
  1  'x, y, z'
loop_
 _atom_site_type_symbol
 _atom_site_label
 _atom_site_symmetry_multiplicity
 _atom_site_fract_x
 _atom_site_fract_y
 _atom_site_fract_z
 _atom_site_occupancy
  Li  Li0  1  0.98873095  0.51709123  0.95173719  1
  Li  Li1  1  0.96449446  0.51712241  0.42632290  1
  Li  Li2  1  0.51056048  0.96484133  0.54895185  1
  Li  Li3  1  0.49636224  0.99632224  0.05065007  1
  Li  Li4  1  0.25981299  0.28931304  0.15758079  1
  Li  Li5  1  0.74378218  0.74710727  0.28195684  1
  Li  Li6  1  0.21596063  0.81787803  0.75355279  1
  Li  Li7  1  0.22963745  0.75699176  0.25192849  1
  Li  Li8  1  0.75405752  0.22010529  0.35152609  1
  Li  Li9  1  0.46204711  0.51607962  0.75077411  1
  Li  Li10  1  0.22964836  0.22813448  0.36607017  1
  Li  Li11  1  0.73424646  0.25637530  0.85726788  1
  Li  Li12  1  0.24505427  0.76112900  0.00578795  1
  Li  Li13  1  0.74140120  0.26285612  0.13140306  1
  Li  Li14  1  0.76416936  0.72825790  0.68945430  1
  Li  Li15  1  0.22149555  0.25883484  0.91942844  1
  Li  Li16  1  0.74812568  0.76110866  0.00840320  1
  Li  Li17  1  0.24419559  0.71965482  0.48493616  1
  Li  Li18  1  0.78340973  0.21458767  0.62546546  1
  Li  Li19  1  0.24119066  0.21180484  0.64968171  1
  Ge  Ge20  1  0.99686680  0.48797313  0.18311055  1
  Ge  Ge21  1  0.50884039  0.99075022  0.81561958  1
  P  P22  1  0.99263908  0.96501407  0.50184354  1
  P  P23  1  0.49240017  0.51563022  0.99308374  1
  P  P24  1  0.00835933  0.48317634  0.68443611  1
  P  P25  1  0.48781513  0.00918114  0.31050130  1
  S  S26  1  0.98869398  0.17643569  0.44384294  1
  S  S27  1  0.00460197  0.79393131  0.38965502  1
  S  S28  1  0.29566099  0.53085790  0.90125812  1
  S  S29  1  0.68425695  0.53032442  0.89968455  1
  S  S30  1  0.49553132  0.69484350  0.09715613  1
  S  S31  1  0.48693340  0.31015895  0.05939936  1
  S  S32  1  0.19577881  0.94764624  0.58834488  1
  S  S33  1  0.80164294  0.94582644  0.58992065  1
  S  S34  1  0.00688570  0.29568496  0.06545301  1
  S  S35  1  0.00076596  0.70923319  0.10383441  1
  S  S36  1  0.21236186  0.48630005  0.60103909  1
  S  S37  1  0.81504375  0.49101047  0.58955984  1
  S  S38  1  0.48487950  0.80052240  0.37512322  1
  S  S39  1  0.49577427  0.17875882  0.42244526  1
  S  S40  1  0.28488882  0.98907450  0.90546348  1
  S  S41  1  0.71375459  0.99900281  0.92154559  1
  S  S42  1  0.99309521  0.66313623  0.78761928  1
  S  S43  1  0.00308535  0.28150391  0.76047394  1
  S  S44  1  0.77925185  0.46617929  0.27321967  1
  S  S45  1  0.20118948  0.47858479  0.29158330  1
  S  S46  1  0.51746051  0.20098770  0.72147990  1
  S  S47  1  0.49247398  0.79265372  0.70300940  1
  S  S48  1  0.68587600  0.01593603  0.22140377  1
  S  S49  1  0.29220806  0.03118671  0.21921091  1
