# generated using pymatgen
data_LiCa9Co(PO4)7
_symmetry_space_group_name_H-M   'P 1'
_cell_length_a   13.80516422
_cell_length_b   13.80516434
_cell_length_c   13.80516470
_cell_angle_alpha   44.46673467
_cell_angle_beta   44.46673414
_cell_angle_gamma   44.46673489
_symmetry_Int_Tables_number   1
_chemical_formula_structural   LiCa9Co(PO4)7
_chemical_formula_sum   'Li2 Ca18 Co2 P14 O56'
_cell_volume   1173.74549743
_cell_formula_units_Z   2
loop_
 _symmetry_equiv_pos_site_id
 _symmetry_equiv_pos_as_xyz
  1  'x, y, z'
loop_
 _atom_site_type_symbol
 _atom_site_label
 _atom_site_symmetry_multiplicity
 _atom_site_fract_x
 _atom_site_fract_y
 _atom_site_fract_z
 _atom_site_occupancy
  Li  Li0  1  0.17041258  0.17041258  0.17041258  1
  Li  Li1  1  0.67041258  0.67041258  0.67041258  1
  Ca  Ca2  1  0.65963105  0.07463177  0.06548152  1
  Ca  Ca3  1  0.96748362  0.94863650  0.55712869  1
  Ca  Ca4  1  0.55712869  0.96748362  0.94863650  1
  Ca  Ca5  1  0.15963105  0.56548152  0.57463177  1
  Ca  Ca6  1  0.34923341  0.90843769  0.93516808  1
  Ca  Ca7  1  0.56548152  0.57463177  0.15963105  1
  Ca  Ca8  1  0.40843769  0.84923341  0.43516808  1
  Ca  Ca9  1  0.05712869  0.44863650  0.46748362  1
  Ca  Ca10  1  0.44863650  0.46748362  0.05712869  1
  Ca  Ca11  1  0.57463177  0.15963105  0.56548152  1
  Ca  Ca12  1  0.93516808  0.34923341  0.90843769  1
  Ca  Ca13  1  0.46748362  0.05712869  0.44863650  1
  Ca  Ca14  1  0.84923341  0.43516808  0.40843769  1
  Ca  Ca15  1  0.43516808  0.40843769  0.84923341  1
  Ca  Ca16  1  0.90843769  0.93516808  0.34923341  1
  Ca  Ca17  1  0.06548152  0.65963105  0.07463177  1
  Ca  Ca18  1  0.07463177  0.06548152  0.65963105  1
  Ca  Ca19  1  0.94863650  0.55712869  0.96748362  1
  Co  Co20  1  0.50187205  0.50187205  0.50187205  1
  Co  Co21  1  0.00187205  0.00187205  0.00187205  1
  P  P22  1  0.72256191  0.18732297  0.68477700  1
  P  P23  1  0.82754162  0.30600691  0.27263167  1
  P  P24  1  0.18732297  0.68477700  0.72256191  1
  P  P25  1  0.68477700  0.72256191  0.18732297  1
  P  P26  1  0.22256191  0.18477700  0.68732297  1
  P  P27  1  0.32754162  0.77263167  0.80600691  1
  P  P28  1  0.77263167  0.80600691  0.32754162  1
  P  P29  1  0.27059311  0.27059311  0.27059311  1
  P  P30  1  0.27263167  0.82754162  0.30600691  1
  P  P31  1  0.80600691  0.32754162  0.77263167  1
  P  P32  1  0.30600691  0.27263167  0.82754162  1
  P  P33  1  0.18477700  0.68732297  0.22256191  1
  P  P34  1  0.77059311  0.77059311  0.77059311  1
  P  P35  1  0.68732297  0.22256191  0.18477700  1
  O  O36  1  0.37508005  0.37409929  0.65226258  1
  O  O37  1  0.13082037  0.85457877  0.66899476  1
  O  O38  1  0.14491499  0.58952931  0.89605954  1
  O  O39  1  0.61551388  0.18365763  0.17369509  1
  O  O40  1  0.33479092  0.61320276  0.88815638  1
  O  O41  1  0.92951034  0.34103860  0.24962114  1
  O  O42  1  0.63208318  0.38330848  0.84709497  1
  O  O43  1  0.63600671  0.36464930  0.61705133  1
  O  O44  1  0.87508005  0.15226258  0.87409929  1
  O  O45  1  0.83479092  0.38815638  0.11320276  1
  O  O46  1  0.78268322  0.88567812  0.60540207  1
  O  O47  1  0.86464930  0.13600671  0.11705133  1
  O  O48  1  0.15226258  0.87409929  0.87508005  1
  O  O49  1  0.18365763  0.17369509  0.61551388  1
  O  O50  1  0.64491499  0.39605954  0.08952931  1
  O  O51  1  0.24962114  0.92951034  0.34103860  1
  O  O52  1  0.11320276  0.83479092  0.38815638  1
  O  O53  1  0.60540207  0.78268322  0.88567812  1
  O  O54  1  0.17369509  0.61551388  0.18365763  1
  O  O55  1  0.42951034  0.74962114  0.84103860  1
  O  O56  1  0.58952931  0.89605954  0.14491499  1
  O  O57  1  0.85457877  0.66899476  0.13082037  1
  O  O58  1  0.88567812  0.60540207  0.78268322  1
  O  O59  1  0.08952931  0.64491499  0.39605954  1
  O  O60  1  0.74962114  0.84103860  0.42951034  1
  O  O61  1  0.10540207  0.38567812  0.28268322  1
  O  O62  1  0.34709497  0.88330848  0.13208318  1
  O  O63  1  0.63082037  0.16899476  0.35457877  1
  O  O64  1  0.88815638  0.33479092  0.61320276  1
  O  O65  1  0.34103860  0.24962114  0.92951034  1
  O  O66  1  0.87409929  0.87508005  0.15226258  1
  O  O67  1  0.37409929  0.65226258  0.37508005  1
  O  O68  1  0.84709497  0.63208318  0.38330848  1
  O  O69  1  0.61705133  0.63600671  0.36464930  1
  O  O70  1  0.36464930  0.61705133  0.63600671  1
  O  O71  1  0.16899476  0.35457877  0.63082037  1
  O  O72  1  0.39605954  0.08952931  0.64491499  1
  O  O73  1  0.84103860  0.42951034  0.74962114  1
  O  O74  1  0.38567812  0.28268322  0.10540207  1
  O  O75  1  0.81236407  0.81236407  0.81236407  1
  O  O76  1  0.13208318  0.34709497  0.88330848  1
  O  O77  1  0.31236407  0.31236407  0.31236407  1
  O  O78  1  0.28268322  0.10540207  0.38567812  1
  O  O79  1  0.89605954  0.14491499  0.58952931  1
  O  O80  1  0.11551388  0.67369509  0.68365763  1
  O  O81  1  0.38330848  0.84709497  0.63208318  1
  O  O82  1  0.35457877  0.63082037  0.16899476  1
  O  O83  1  0.66899476  0.13082037  0.85457877  1
  O  O84  1  0.13600671  0.11705133  0.86464930  1
  O  O85  1  0.88330848  0.13208318  0.34709497  1
  O  O86  1  0.67369509  0.68365763  0.11551388  1
  O  O87  1  0.65226258  0.37508005  0.37409929  1
  O  O88  1  0.11705133  0.86464930  0.13600671  1
  O  O89  1  0.61320276  0.88815638  0.33479092  1
  O  O90  1  0.68365763  0.11551388  0.67369509  1
  O  O91  1  0.38815638  0.11320276  0.83479092  1
