# generated using pymatgen
data_TiNiO3
_symmetry_space_group_name_H-M   'P 1'
_cell_length_a   5.49700526
_cell_length_b   5.48929752
_cell_length_c   27.45036571
_cell_angle_alpha   55.03869420
_cell_angle_beta   54.90770881
_cell_angle_gamma   54.87876994
_symmetry_Int_Tables_number   1
_chemical_formula_structural   TiNiO3
_chemical_formula_sum   'Ti10 Ni10 O30'
_cell_volume   516.75037868
_cell_formula_units_Z   10
loop_
 _symmetry_equiv_pos_site_id
 _symmetry_equiv_pos_as_xyz
  1  'x, y, z'
loop_
 _atom_site_type_symbol
 _atom_site_label
 _atom_site_symmetry_multiplicity
 _atom_site_fract_x
 _atom_site_fract_y
 _atom_site_fract_z
 _atom_site_occupancy
  Ti  Ti0  1  0.14847258  0.14309426  0.22878577  1
  Ti  Ti1  1  0.14585768  0.14610135  0.42737398  1
  Ti  Ti2  1  0.87122096  0.86084243  0.16789116  1
  Ti  Ti3  1  0.14681219  0.14742510  0.62711734  1
  Ti  Ti4  1  0.85955385  0.85815943  0.37023508  1
  Ti  Ti5  1  0.14508546  0.14780182  0.82889007  1
  Ti  Ti6  1  0.86057387  0.85977067  0.56988373  1
  Ti  Ti7  1  0.86464725  0.85859807  0.76984040  1
  Ti  Ti8  1  0.64238101  0.65858076  0.93549697  1
  Ti  Ti9  1  0.84213642  0.86647425  0.97620407  1
  Ni  Ni10  1  0.15093945  0.14783144  0.03194739  1
  Ni  Ni11  1  0.34125917  0.35589732  0.07444675  1
  Ni  Ni12  1  0.35283971  0.34909410  0.26966356  1
  Ni  Ni13  1  0.65431599  0.64678110  0.13311508  1
  Ni  Ni14  1  0.35193077  0.35178562  0.46902646  1
  Ni  Ni15  1  0.65081872  0.65257979  0.32850791  1
  Ni  Ni16  1  0.35211675  0.35075141  0.66968370  1
  Ni  Ni17  1  0.65092813  0.65176145  0.52907135  1
  Ni  Ni18  1  0.35774576  0.35540504  0.86966311  1
  Ni  Ni19  1  0.65060578  0.65375847  0.72919991  1
  O  O20  1  0.04959816  0.75477918  0.09285771  1
  O  O21  1  0.43950967  0.05290969  0.15447564  1
  O  O22  1  0.76276341  0.47293395  0.00597384  1
  O  O23  1  0.23165250  0.56101540  0.19074851  1
  O  O24  1  0.58107473  0.95145420  0.04724755  1
  O  O25  1  0.04992108  0.76908837  0.28908355  1
  O  O26  1  0.94858088  0.23945866  0.11363944  1
  O  O27  1  0.43638628  0.05018266  0.35435515  1
  O  O28  1  0.76945828  0.43015246  0.21336997  1
  O  O29  1  0.22887046  0.55842239  0.39042242  1
  O  O30  1  0.56051469  0.94660748  0.24609720  1
  O  O31  1  0.04985688  0.76983581  0.48886704  1
  O  O32  1  0.94632553  0.22866390  0.31402343  1
  O  O33  1  0.43676708  0.05145533  0.55402945  1
  O  O34  1  0.76941351  0.43424948  0.41123007  1
  O  O35  1  0.22919319  0.55889597  0.59038889  1
  O  O36  1  0.55940792  0.94714754  0.44637721  1
  O  O37  1  0.04979630  0.77146565  0.68890561  1
  O  O38  1  0.94565331  0.23022381  0.51375143  1
  O  O39  1  0.43778626  0.05300181  0.75537115  1
  O  O40  1  0.76943951  0.43446705  0.61124112  1
  O  O41  1  0.23318759  0.56081581  0.78991850  1
  O  O42  1  0.55993220  0.94787846  0.64624964  1
  O  O43  1  0.06058567  0.77266398  0.88636526  1
  O  O44  1  0.94665340  0.23067995  0.71381359  1
  O  O45  1  0.47264392  0.04859369  0.94858732  1
  O  O46  1  0.77603738  0.43544169  0.81052189  1
  O  O47  1  0.25828058  0.59038367  0.98374192  1
  O  O48  1  0.57116674  0.93533353  0.84926855  1
  O  O49  1  0.93560137  0.25560457  0.91429314  1
