# generated using pymatgen
data_ZrP2(H3O5)2
_symmetry_space_group_name_H-M   'P 1'
_cell_length_a   5.46575794
_cell_length_b   6.69722274
_cell_length_c   12.54046252
_cell_angle_alpha   90.00000000
_cell_angle_beta   99.41248180
_cell_angle_gamma   90.00000000
_symmetry_Int_Tables_number   1
_chemical_formula_structural   ZrP2(H3O5)2
_chemical_formula_sum   'Zr2 P4 H12 O20'
_cell_volume   452.86825185
_cell_formula_units_Z   2
loop_
 _symmetry_equiv_pos_site_id
 _symmetry_equiv_pos_as_xyz
  1  'x, y, z'
loop_
 _atom_site_type_symbol
 _atom_site_label
 _atom_site_symmetry_multiplicity
 _atom_site_fract_x
 _atom_site_fract_y
 _atom_site_fract_z
 _atom_site_occupancy
  Zr  Zr0  1  0.19760852  0.75279332  0.87325642  1
  Zr  Zr1  1  0.80239148  0.25279332  0.12674358  1
  P  P2  1  0.75859778  0.75304994  0.05856290  1
  P  P3  1  0.24140222  0.25304994  0.94143710  1
  P  P4  1  0.64582888  0.67505083  0.69514959  1
  P  P5  1  0.35417112  0.17505083  0.30485041  1
  H  H6  1  0.50202980  0.35976641  0.67546997  1
  H  H7  1  0.49797020  0.85976641  0.32453003  1
  H  H8  1  0.39764167  0.71913997  0.54727098  1
  H  H9  1  0.60235833  0.21913997  0.45272902  1
  H  H10  1  0.84561189  0.69185439  0.29731939  1
  H  H11  1  0.15438811  0.19185439  0.70268061  1
  H  H12  1  0.04791238  0.65444008  0.60060584  1
  H  H13  1  0.95208762  0.15444008  0.39939416  1
  H  H14  1  0.85570085  0.83962752  0.39855450  1
  H  H15  1  0.14429915  0.33962752  0.60144550  1
  H  H16  1  0.00111272  0.09429147  0.52312913  1
  H  H17  1  0.99888728  0.59429147  0.47687087  1
  O  O18  1  0.93282572  0.75081648  0.97308859  1
  O  O19  1  0.06717428  0.25081648  0.02691141  1
  O  O20  1  0.80734505  0.56832039  0.13348498  1
  O  O21  1  0.19265495  0.06832039  0.86651502  1
  O  O22  1  0.80513178  0.94014556  0.12986765  1
  O  O23  1  0.19486822  0.44014556  0.87013235  1
  O  O24  1  0.48743361  0.75102402  -0.00024868  1
  O  O25  1  0.51256639  0.25102402  0.00024868  1
  O  O26  1  0.91407056  0.74415241  0.72924448  1
  O  O27  1  0.08592944  0.24415241  0.27075552  1
  O  O28  1  0.45999638  0.74287458  0.76588324  1
  O  O29  1  0.54000362  0.24287458  0.23411676  1
  O  O30  1  0.65873961  0.43943234  0.69106857  1
  O  O31  1  0.34126039  0.93943234  0.30893143  1
  O  O32  1  0.56864690  0.76507022  0.57819984  1
  O  O33  1  0.43135310  0.26507022  0.42180016  1
  O  O34  1  0.78297744  0.71356748  0.36529356  1
  O  O35  1  0.21702256  0.21356748  0.63470644  1
  O  O36  1  0.87885386  0.08358258  0.45570377  1
  O  O37  1  0.12114614  0.58358258  0.54429623  1
