# generated using pymatgen
data_Na17Zr12Si11P7O72
_symmetry_space_group_name_H-M   'P 1'
_cell_length_a   9.34811496
_cell_length_b   9.38717370
_cell_length_c   28.25025951
_cell_angle_alpha   58.66661412
_cell_angle_beta   58.85185575
_cell_angle_gamma   58.81265527
_symmetry_Int_Tables_number   1
_chemical_formula_structural   Na17Zr12Si11P7O72
_chemical_formula_sum   'Na17 Zr12 Si11 P7 O72'
_cell_volume   1703.96335902
_cell_formula_units_Z   1
loop_
 _symmetry_equiv_pos_site_id
 _symmetry_equiv_pos_as_xyz
  1  'x, y, z'
loop_
 _atom_site_type_symbol
 _atom_site_label
 _atom_site_symmetry_multiplicity
 _atom_site_fract_x
 _atom_site_fract_y
 _atom_site_fract_z
 _atom_site_occupancy
  Na  Na0  1  0.29731631  0.46303889  0.22447864  1
  Na  Na1  1  0.75061761  0.12250311  0.12384035  1
  Na  Na2  1  0.25425331  0.89927964  0.20445492  1
  Na  Na3  1  0.64041589  0.25414239  0.29499928  1
  Na  Na4  1  0.86889868  0.61695822  0.08276108  1
  Na  Na5  1  0.74798739  0.11820576  0.46280574  1
  Na  Na6  1  0.43918164  0.50171832  0.51444742  1
  Na  Na7  1  0.25269509  0.90054224  0.54277756  1
  Na  Na8  1  0.62325435  0.24965055  0.63199963  1
  Na  Na9  1  0.85499699  0.57182713  0.41506471  1
  Na  Na10  1  0.05392013  0.92518622  0.34716096  1
  Na  Na11  1  0.75202870  0.12191821  0.79698370  1
  Na  Na12  1  0.43867188  0.50130626  0.84786107  1
  Na  Na13  1  0.24155714  0.90889351  0.88735103  1
  Na  Na14  1  0.65631679  0.24803691  0.97062988  1
  Na  Na15  1  0.86061128  0.56758499  0.74715473  1
  Na  Na16  1  0.06079163  0.91366200  0.68233087  1
  Zr  Zr17  1  0.14858049  0.13730618  0.04426368  1
  Zr  Zr18  1  0.35577196  0.36101870  0.11702306  1
  Zr  Zr19  1  0.14812305  0.14534042  0.37866248  1
  Zr  Zr20  1  0.34987186  0.36301336  0.45283931  1
  Zr  Zr21  1  0.64255351  0.64753304  0.21858928  1
  Zr  Zr22  1  0.15132569  0.14522385  0.71030079  1
  Zr  Zr23  1  0.85249508  0.84282869  0.28339762  1
  Zr  Zr24  1  0.35057877  0.36488243  0.78404579  1
  Zr  Zr25  1  0.64966097  0.64763615  0.55092358  1
  Zr  Zr26  1  0.84995512  0.84397004  0.61808354  1
  Zr  Zr27  1  0.65413771  0.65180044  0.88229447  1
  Zr  Zr28  1  0.85068812  0.84671428  0.94963272  1
  Si  Si29  1  0.03822974  0.74785668  0.15611080  1
  Si  Si30  1  0.45358172  0.03446889  0.24995490  1
  Si  Si31  1  0.75105375  0.45801062  0.01311795  1
  Si  Si32  1  0.24548292  0.54438650  0.32127985  1
  Si  Si33  1  0.04359695  0.74764659  0.48823069  1
  Si  Si34  1  0.45339714  0.03920642  0.58441802  1
  Si  Si35  1  0.74566842  0.45174973  0.34922180  1
  Si  Si36  1  0.25117589  0.54355461  0.65194099  1
  Si  Si37  1  0.04796572  0.74858409  0.82140337  1
  Si  Si38  1  0.46009749  0.03982276  0.91495008  1
  Si  Si39  1  0.74912261  0.45009429  0.68144645  1
  P  P40  1  0.53999291  0.96224644  0.08374859  1
  P  P41  1  0.96199694  0.24893285  0.17657934  1
  P  P42  1  0.54318087  0.96111193  0.41723200  1
  P  P43  1  0.95629213  0.24670776  0.51321222  1
  P  P44  1  0.25253655  0.53271017  0.98586110  1
  P  P45  1  0.54035614  0.95596695  0.75185504  1
  P  P46  1  0.95404857  0.24946383  0.84533189  1
  O  O47  1  0.14021489  0.25438806  0.16516940  1
  O  O48  1  0.28864447  0.49517568  0.03955324  1
  O  O49  1  0.05475461  0.93123593  0.10171731  1
  O  O50  1  0.53070965  0.11990316  0.09122513  1
  O  O51  1  0.20657102  0.57165441  0.14457812  1
  O  O52  1  0.03222977  0.75356164  0.21491090  1
  O  O53  1  0.28007899  0.06317369  0.30843273  1
  O  O54  1  0.43237773  0.21572141  0.19213366  1
  O  O55  1  0.58106619  0.42021887  0.07250372  1
  O  O56  1  0.20392004  0.37828239  0.33155157  1
  O  O57  1  0.07131879  0.72921091  0.31519682  1
  O  O58  1  0.36187366  0.00381346  0.08055187  1
  O  O59  1  0.63621585  0.99333528  0.25741461  1
  O  O60  1  0.12790164  0.26533845  0.50114396  1
  O  O61  1  0.92304125  0.28016861  0.02344363  1
  O  O62  1  0.77869198  0.63082803  0.00344428  1
  O  O63  1  0.41555864  0.56307551  0.25892029  1
  O  O64  1  0.28517906  0.49878489  0.37823521  1
  O  O65  1  0.57401965  0.78757061  0.13675016  1
  O  O66  1  0.05966368  0.92532767  0.42953347  1
  O  O67  1  0.70050826  0.93707224  0.02659157  1
  O  O68  1  0.52409663  0.10964867  0.43159347  1
  O  O69  1  0.22099397  0.57458792  0.48029521  1
  O  O70  1  0.01399490  0.78372916  0.54419963  1
  O  O71  1  0.97047444  0.23934190  0.12238416  1
  O  O72  1  0.80157621  0.41672720  0.18892174  1
  O  O73  1  0.46695558  0.87090905  0.23956584  1
  O  O74  1  0.27532408  0.05279371  0.64245387  1
  O  O75  1  0.93080464  0.08427263  0.23377266  1
  O  O76  1  0.43685351  0.21934301  0.52656147  1
  O  O77  1  0.70327214  0.48472365  0.29408543  1
  O  O78  1  0.58135437  0.41943734  0.41179565  1
  O  O79  1  0.21594301  0.37002051  0.66589937  1
  O  O80  1  0.07582082  0.72731549  0.64616950  1
  O  O81  1  0.85337639  0.73295711  0.16916994  1
  O  O82  1  0.37062851  0.00734265  0.40908959  1
  O  O83  1  0.62686971  0.00468890  0.59557290  1
  O  O84  1  0.12376839  0.27548208  0.83134730  1
  O  O85  1  0.91665310  0.26952766  0.35937111  1
  O  O86  1  0.78287747  0.62246708  0.33803084  1
  O  O87  1  0.41940205  0.56899446  0.58897422  1
  O  O88  1  0.29305608  0.50637705  0.70751928  1
  O  O89  1  0.57289154  0.77789440  0.46841303  1
  O  O90  1  0.05946817  0.92725584  0.76325808  1
  O  O91  1  0.70765084  0.94568254  0.35969723  1
  O  O92  1  0.51716811  0.10927682  0.76476835  1
  O  O93  1  0.22301510  0.57572502  0.81151901  1
  O  O94  1  0.02580332  0.77688950  0.87764813  1
  O  O95  1  0.97318880  0.22332953  0.45985394  1
  O  O96  1  0.78728537  0.41399949  0.52152907  1
  O  O97  1  0.48585868  0.87422973  0.56930503  1
  O  O98  1  0.29716124  0.05431545  0.97577363  1
  O  O99  1  0.92806145  0.08618139  0.57140457  1
  O  O100  1  0.43395193  0.22115047  0.85821805  1
  O  O101  1  0.70843271  0.48345005  0.62567596  1
  O  O102  1  0.58411148  0.41792534  0.74350522  1
  O  O103  1  0.22925913  0.36866861  0.99470595  1
  O  O104  1  0.08473965  0.70219990  0.98044839  1
  O  O105  1  0.86878823  0.71868626  0.49897773  1
  O  O106  1  0.37451560  0.99926591  0.74084864  1
  O  O107  1  0.64798645  0.00091556  0.91845831  1
  O  O108  1  0.91990685  0.26968594  0.69160824  1
  O  O109  1  0.78507503  0.62164093  0.67018044  1
  O  O110  1  0.41304990  0.56607862  0.92734637  1
  O  O111  1  0.56658952  0.77512569  0.80427446  1
  O  O112  1  0.71174095  0.93431517  0.69625430  1
  O  O113  1  0.96817344  0.22764475  0.79209849  1
  O  O114  1  0.78285516  0.41509639  0.85519979  1
  O  O115  1  0.48345944  0.87520853  0.90186655  1
  O  O116  1  0.93169354  0.08729261  0.90324845  1
  O  O117  1  0.71609603  0.48876845  0.95637497  1
  O  O118  1  0.86965398  0.72253097  0.83261184  1
