# generated using pymatgen
data_LiAg2P3(HO5)2
_symmetry_space_group_name_H-M   'P 1'
_cell_length_a   8.51464545
_cell_length_b   7.73149936
_cell_length_c   7.72753619
_cell_angle_alpha   107.21392016
_cell_angle_beta   106.38939897
_cell_angle_gamma   72.83767444
_symmetry_Int_Tables_number   1
_chemical_formula_structural   LiAg2P3(HO5)2
_chemical_formula_sum   'Li2 Ag4 P6 H4 O20'
_cell_volume   453.58427820
_cell_formula_units_Z   2
loop_
 _symmetry_equiv_pos_site_id
 _symmetry_equiv_pos_as_xyz
  1  'x, y, z'
loop_
 _atom_site_type_symbol
 _atom_site_label
 _atom_site_symmetry_multiplicity
 _atom_site_fract_x
 _atom_site_fract_y
 _atom_site_fract_z
 _atom_site_occupancy
  Li  Li0  1  0.33530154  0.29556532  0.91875010  1
  Li  Li1  1  0.66469846  0.70443468  0.08124990  1
  Ag  Ag2  1  0.40403396  0.56177697  0.66059649  1
  Ag  Ag3  1  0.59596604  0.43822303  0.33940351  1
  Ag  Ag4  1  0.98509455  0.30431758  0.58253898  1
  Ag  Ag5  1  0.01490545  0.69568242  0.41746102  1
  P  P6  1  0.26768660  0.23863422  0.26432651  1
  P  P7  1  0.73231340  0.76136578  0.73567349  1
  P  P8  1  0.09409674  0.71328711  0.90009297  1
  P  P9  1  0.90590326  0.28671289  0.09990703  1
  P  P10  1  0.32642171  0.82455958  0.26133421  1
  P  P11  1  0.67357829  0.17544042  0.73866579  1
  H  H12  1  0.82253063  0.98953056  0.22480282  1
  H  H13  1  0.17746937  0.01046944  0.77519718  1
  H  H14  1  0.29280416  0.00530550  0.65039421  1
  H  H15  1  0.70719584  0.99469450  0.34960579  1
  O  O16  1  0.39530454  0.26063471  0.17576237  1
  O  O17  1  0.60469546  0.73936529  0.82423763  1
  O  O18  1  0.21670260  0.38485646  0.43083065  1
  O  O19  1  0.78329740  0.61514354  0.56916935  1
  O  O20  1  0.33107473  0.04245697  0.32274233  1
  O  O21  1  0.66892527  0.95754303  0.67725767  1
  O  O22  1  0.10492420  0.21488810  0.10045046  1
  O  O23  1  0.89507580  0.78511190  0.89954954  1
  O  O24  1  0.30476170  0.77978469  0.42901545  1
  O  O25  1  0.69523830  0.22021531  0.57098455  1
  O  O26  1  0.47156882  0.71080222  0.17229837  1
  O  O27  1  0.52843118  0.28919778  0.82770163  1
  O  O28  1  0.15096128  0.82746315  0.10971256  1
  O  O29  1  0.84903872  0.17253685  0.89028744  1
  O  O30  1  0.13460465  0.79166006  0.76435898  1
  O  O31  1  0.86539535  0.20833994  0.23564102  1
  O  O32  1  0.14807123  0.50705076  0.88329946  1
  O  O33  1  0.85192877  0.49294924  0.11670054  1
  O  O34  1  0.76995350  0.90777330  0.25661500  1
  O  O35  1  0.23004650  0.09222670  0.74338500  1
