# generated using pymatgen
data_ZnH12C2S2(N3O4)2
_symmetry_space_group_name_H-M   'P 1'
_cell_length_a   9.74205776
_cell_length_b   9.74205776
_cell_length_c   10.05805792
_cell_angle_alpha   118.96604511
_cell_angle_beta   118.96604511
_cell_angle_gamma   90.00000000
_symmetry_Int_Tables_number   1
_chemical_formula_structural   ZnH12C2S2(N3O4)2
_chemical_formula_sum   'Zn2 H24 C4 S4 N12 O16'
_cell_volume   695.55540158
_cell_formula_units_Z   2
loop_
 _symmetry_equiv_pos_site_id
 _symmetry_equiv_pos_as_xyz
  1  'x, y, z'
loop_
 _atom_site_type_symbol
 _atom_site_label
 _atom_site_symmetry_multiplicity
 _atom_site_fract_x
 _atom_site_fract_y
 _atom_site_fract_z
 _atom_site_occupancy
  Zn  Zn0  1  0.00000000  -0.00000000  -0.00000000  1
  Zn  Zn1  1  0.75000000  0.25000000  0.50000000  1
  H  H2  1  0.60798082  0.72596494  0.84779931  1
  H  H3  1  0.14201918  0.12816563  0.65220069  1
  H  H4  1  0.23981848  0.12183437  0.84779931  1
  H  H5  1  0.51018152  0.52403506  0.65220069  1
  H  H6  1  0.87816563  0.39201918  0.15220069  1
  H  H7  1  0.87183437  0.48981848  0.34779931  1
  H  H8  1  0.27403506  0.76018152  0.15220069  1
  H  H9  1  0.47596494  0.85798082  0.34779931  1
  H  H10  1  0.26204531  0.75783643  0.87999419  1
  H  H11  1  0.48795469  0.12784223  0.62000581  1
  H  H12  1  0.61794889  0.12215777  0.87999419  1
  H  H13  1  0.13205111  0.49216357  0.62000581  1
  H  H14  1  0.87784223  0.73795469  0.12000581  1
  H  H15  1  0.87215777  0.86794889  0.37999419  1
  H  H16  1  0.24216357  0.38205111  0.12000581  1
  H  H17  1  0.50783643  0.51204531  0.37999419  1
  H  H18  1  0.47509554  0.84747883  0.99342856  1
  H  H19  1  0.27490446  0.10405027  0.50657144  1
  H  H20  1  0.51833302  0.14594973  0.99342856  1
  H  H21  1  0.23166698  0.40252117  0.50657144  1
  H  H22  1  0.85405027  0.52490446  0.00657144  1
  H  H23  1  0.89594973  0.76833302  0.49342856  1
  H  H24  1  0.15252117  0.48166698  0.00657144  1
  H  H25  1  0.59747883  0.72509554  0.49342856  1
  C  C26  1  0.36943655  0.62500000  0.75000000  1
  C  C27  1  0.38056345  0.12500000  0.75000000  1
  C  C28  1  0.87500000  0.63056345  0.25000000  1
  C  C29  1  0.37500000  0.61943655  0.25000000  1
  S  S30  1  0.87500000  0.08346762  0.25000000  1
  S  S31  1  0.37500000  0.16653238  0.25000000  1
  S  S32  1  0.83346762  0.12500000  0.75000000  1
  S  S33  1  0.91653238  0.62500000  0.75000000  1
  N  N34  1  0.50670614  0.62500000  0.75000000  1
  N  N35  1  0.24329386  0.12500000  0.75000000  1
  N  N36  1  0.87500000  0.49329386  0.25000000  1
  N  N37  1  0.37500000  0.75670614  0.25000000  1
  N  N38  1  0.36813834  0.75508274  0.88419821  1
  N  N39  1  0.38186166  0.12088454  0.61580179  1
  N  N40  1  0.51605987  0.12911546  0.88419821  1
  N  N41  1  0.23394013  0.49491726  0.61580179  1
  N  N42  1  0.87088454  0.63186166  0.11580179  1
  N  N43  1  0.87911546  0.76605987  0.38419821  1
  N  N44  1  0.24491726  0.48394013  0.11580179  1
  N  N45  1  0.50508274  0.61813834  0.38419821  1
  O  O46  1  0.90423538  0.12420967  0.13631946  1
  O  O47  1  0.84576462  0.23789022  0.36368054  1
  O  O48  1  0.23208407  0.01210978  0.13631946  1
  O  O49  1  0.51791593  0.12579033  0.36368054  1
  O  O50  1  0.98789022  0.09576462  0.86368054  1
  O  O51  1  0.76210978  0.48208407  0.63631946  1
  O  O52  1  0.87579033  0.76791593  0.86368054  1
  O  O53  1  0.87420967  0.15423538  0.63631946  1
  O  O54  1  0.02167007  0.05637086  0.36743902  1
  O  O55  1  0.72832993  0.93893184  0.13256098  1
  O  O56  1  0.34576896  0.31106816  0.36743902  1
  O  O57  1  0.40423104  0.19362914  0.13256098  1
  O  O58  1  0.68893184  0.97832993  0.63256098  1
  O  O59  1  0.06106816  0.59576896  0.86743902  1
  O  O60  1  0.94362914  0.65423104  0.63256098  1
  O  O61  1  0.80637086  0.27167007  0.86743902  1
