# generated using pymatgen
data_LaZnFeSnO6
_symmetry_space_group_name_H-M   'P 1'
_cell_length_a   5.65379729
_cell_length_b   5.44502208
_cell_length_c   7.94890735
_cell_angle_alpha   89.42579832
_cell_angle_beta   90.00000000
_cell_angle_gamma   90.00000000
_symmetry_Int_Tables_number   1
_chemical_formula_structural   LaZnFeSnO6
_chemical_formula_sum   'La2 Zn2 Fe2 Sn2 O12'
_cell_volume   244.69523057
_cell_formula_units_Z   2
loop_
 _symmetry_equiv_pos_site_id
 _symmetry_equiv_pos_as_xyz
  1  'x, y, z'
loop_
 _atom_site_type_symbol
 _atom_site_label
 _atom_site_symmetry_multiplicity
 _atom_site_fract_x
 _atom_site_fract_y
 _atom_site_fract_z
 _atom_site_occupancy
  La  La0  1  0.04083159  0.98701704  0.24939477  1
  La  La1  1  0.45916841  0.48701704  0.74939477  1
  Zn  Zn2  1  0.53157084  0.52235497  0.24415775  1
  Zn  Zn3  1  0.96842916  0.02235497  0.74415775  1
  Fe  Fe4  1  0.50509646  0.99960059  0.99798329  1
  Fe  Fe5  1  0.99490354  0.49960059  0.49798329  1
  Sn  Sn6  1  0.50785663  0.00148094  0.49785286  1
  Sn  Sn7  1  0.99214337  0.50148094  0.99785286  1
  O  O8  1  0.02853689  0.64472990  0.74934875  1
  O  O9  1  0.19205426  0.18736710  0.93601388  1
  O  O10  1  0.19762516  0.19320100  0.56183787  1
  O  O11  1  0.30237484  0.69320100  0.06183787  1
  O  O12  1  0.30794574  0.68736710  0.43601388  1
  O  O13  1  0.47146311  0.14472990  0.24934775  1
  O  O14  1  0.54693950  0.90399000  0.75313188  1
  O  O15  1  0.73342565  0.28061394  0.56960465  1
  O  O16  1  0.71175143  0.27964352  0.94067431  1
  O  O17  1  0.78824857  0.77964352  0.44067431  1
  O  O18  1  0.76657435  0.78061394  0.06960465  1
  O  O19  1  0.95306050  0.40399000  0.25313188  1
