# generated using pymatgen
data_K7P6H2NO22
_symmetry_space_group_name_H-M   'P 1'
_cell_length_a   9.85941850
_cell_length_b   9.89909793
_cell_length_c   6.61529037
_cell_angle_alpha   107.13481407
_cell_angle_beta   106.37110359
_cell_angle_gamma   75.86469356
_symmetry_Int_Tables_number   1
_chemical_formula_structural   K7P6H2NO22
_chemical_formula_sum   'K7 P6 H2 N1 O22'
_cell_volume   582.75747706
_cell_formula_units_Z   1
loop_
 _symmetry_equiv_pos_site_id
 _symmetry_equiv_pos_as_xyz
  1  'x, y, z'
loop_
 _atom_site_type_symbol
 _atom_site_label
 _atom_site_symmetry_multiplicity
 _atom_site_fract_x
 _atom_site_fract_y
 _atom_site_fract_z
 _atom_site_occupancy
  K  K0  1  0.45024821  0.83734692  0.71821109  1
  K  K1  1  0.00071542  0.00004689  0.50084483  1
  K  K2  1  0.84853837  0.44549105  0.75529720  1
  K  K3  1  0.71603808  0.72608210  0.32485759  1
  K  K4  1  0.55254453  0.16210787  0.28612506  1
  K  K5  1  0.15549165  0.55408126  0.24985223  1
  K  K6  1  0.27854698  0.26580610  0.66924683  1
  P  P7  1  0.30093441  0.91130928  0.18018001  1
  P  P8  1  0.14236383  0.18249788  0.07324309  1
  P  P9  1  0.86127172  0.29739063  0.18515969  1
  P  P10  1  0.70200283  0.08840452  0.82366345  1
  P  P11  1  0.86208207  0.81635000  0.93091043  1
  P  P12  1  0.14204071  0.70153297  0.81872521  1
  H  H13  1  0.52347917  0.53002294  0.45587480  1
  H  H14  1  0.45852494  0.56705858  0.23218382  1
  N  N15  1  0.50975208  0.47318493  0.82434063  1
  O  O16  1  0.26584423  0.96983336  0.39939602  1
  O  O17  1  0.20244421  0.01119541  0.01284425  1
  O  O18  1  0.45370758  0.88938117  0.16061611  1
  O  O19  1  0.23606507  0.76237679  0.06393577  1
  O  O20  1  0.25570772  0.26002256  0.23894932  1
  O  O21  1  0.08010275  0.22495509  0.86059279  1
  O  O22  1  0.01540159  0.18639312  0.19070948  1
  O  O23  1  0.88319103  0.44415696  0.19364472  1
  O  O24  1  0.79974089  0.27358853  0.35282386  1
  O  O25  1  0.76771186  0.23700817  0.94111603  1
  O  O26  1  0.73784883  0.03261906  0.60408608  1
  O  O27  1  0.54938271  0.11106342  0.84256225  1
  O  O28  1  0.80031177  0.98801304  0.98934820  1
  O  O29  1  0.75088255  0.73800070  0.76421167  1
  O  O30  1  0.92440608  0.77669823  0.14595391  1
  O  O31  1  0.98938006  0.81372354  0.81523105  1
  O  O32  1  0.20409426  0.72411046  0.65154641  1
  O  O33  1  0.11851755  0.55493102  0.80987036  1
  O  O34  1  0.49023288  0.61079497  0.38770833  1
  O  O35  1  0.49481197  0.39889988  0.62785189  1
  O  O36  1  0.44968019  0.44666765  0.95134590  1
  O  O37  1  0.58332920  0.57186297  0.88903964  1
