# generated using pymatgen
data_MgVFeMo3O14
_symmetry_space_group_name_H-M   'P 1'
_cell_length_a   8.42557843
_cell_length_b   8.73589635
_cell_length_c   9.11228754
_cell_angle_alpha   90.00000000
_cell_angle_beta   90.00000000
_cell_angle_gamma   112.53324577
_symmetry_Int_Tables_number   1
_chemical_formula_structural   MgVFeMo3O14
_chemical_formula_sum   'Mg2 V2 Fe2 Mo6 O28'
_cell_volume   619.50596498
_cell_formula_units_Z   2
loop_
 _symmetry_equiv_pos_site_id
 _symmetry_equiv_pos_as_xyz
  1  'x, y, z'
loop_
 _atom_site_type_symbol
 _atom_site_label
 _atom_site_symmetry_multiplicity
 _atom_site_fract_x
 _atom_site_fract_y
 _atom_site_fract_z
 _atom_site_occupancy
  Mg  Mg0  1  0.49607990  0.67911723  0.99594689  1
  Mg  Mg1  1  0.00392010  0.82088277  0.49594689  1
  V  V2  1  0.13444350  0.34122883  0.14297954  1
  V  V3  1  0.36555650  0.15877117  0.64297954  1
  Fe  Fe4  1  0.01112729  0.18866253  0.50074273  1
  Fe  Fe5  1  0.48887271  0.31133747  0.00074273  1
  Mo  Mo6  1  0.20491138  0.89287139  0.11814753  1
  Mo  Mo7  1  0.29508862  0.60712861  0.61814753  1
  Mo  Mo8  1  0.63280596  0.84771306  0.35920404  1
  Mo  Mo9  1  0.69985413  0.39000508  0.38275240  1
  Mo  Mo10  1  0.86719404  0.65228694  0.85920404  1
  Mo  Mo11  1  0.80014587  0.10999492  0.88275240  1
  O  O12  1  0.01296195  0.81481812  0.99089165  1
  O  O13  1  0.13689362  0.85730926  0.30124312  1
  O  O14  1  0.05933432  0.48660800  0.16796075  1
  O  O15  1  0.15067103  0.69952560  0.57236736  1
  O  O16  1  0.12321810  0.24051461  0.30887503  1
  O  O17  1  0.34932897  0.80047440  0.07236736  1
  O  O18  1  0.19104321  0.38969188  0.58911809  1
  O  O19  1  0.36310638  0.64269074  0.80124312  1
  O  O20  1  0.15024208  0.06024874  0.57316746  1
  O  O21  1  0.54526835  0.99403658  0.32930985  1
  O  O22  1  0.34975792  0.43975126  0.07316746  1
  O  O23  1  0.48703805  0.68518188  0.49089165  1
  O  O24  1  0.30895679  0.11030812  0.08911809  1
  O  O25  1  0.37678190  0.25948539  0.80887503  1
  O  O26  1  0.63695372  0.75434615  0.18938693  1
  O  O27  1  0.69705083  0.89227758  0.90794704  1
  O  O28  1  0.51521530  0.31364319  0.51142269  1
  O  O29  1  0.64928689  0.54446383  0.92979920  1
  O  O30  1  0.44066568  0.01339200  0.66796075  1
  O  O31  1  0.85071311  0.95553617  0.42979920  1
  O  O32  1  0.62441047  0.35057857  0.19804082  1
  O  O33  1  0.80294917  0.60772242  0.40794704  1
  O  O34  1  0.65281178  0.20375857  0.93069687  1
  O  O35  1  0.86304628  0.74565385  0.68938693  1
  O  O36  1  0.84718822  0.29624143  0.43069687  1
  O  O37  1  0.95473165  0.50596342  0.82930985  1
  O  O38  1  0.87558953  0.14942143  0.69804082  1
  O  O39  1  0.98478470  0.18635681  0.01142269  1
