# generated using pymatgen
data_Nd7V(Se2O)4
_symmetry_space_group_name_H-M   'P 1'
_cell_length_a   4.04792521
_cell_length_b   14.48293329
_cell_length_c   15.84763103
_cell_angle_alpha   90.00000000
_cell_angle_beta   90.00000000
_cell_angle_gamma   90.00000000
_symmetry_Int_Tables_number   1
_chemical_formula_structural   Nd7V(Se2O)4
_chemical_formula_sum   'Nd14 V2 Se16 O8'
_cell_volume   929.08053502
_cell_formula_units_Z   2
loop_
 _symmetry_equiv_pos_site_id
 _symmetry_equiv_pos_as_xyz
  1  'x, y, z'
loop_
 _atom_site_type_symbol
 _atom_site_label
 _atom_site_symmetry_multiplicity
 _atom_site_fract_x
 _atom_site_fract_y
 _atom_site_fract_z
 _atom_site_occupancy
  Nd  Nd0  1  0.00000000  0.79075188  0.88155075  1
  Nd  Nd1  1  0.50000000  0.99322369  0.81103549  1
  Nd  Nd2  1  0.00000000  0.29075188  0.61844925  1
  Nd  Nd3  1  0.00000000  0.00000000  0.50000000  1
  Nd  Nd4  1  0.50000000  0.49322369  0.68896451  1
  Nd  Nd5  1  0.50000000  0.21967786  0.33617140  1
  Nd  Nd6  1  0.50000000  0.50677631  0.31103549  1
  Nd  Nd7  1  0.00000000  0.20924812  0.11844925  1
  Nd  Nd8  1  0.50000000  0.78032214  0.66382860  1
  Nd  Nd9  1  0.50000000  0.00677631  0.18896451  1
  Nd  Nd10  1  0.00000000  0.50000000  0.00000000  1
  Nd  Nd11  1  0.00000000  0.70924812  0.38155075  1
  Nd  Nd12  1  0.50000000  0.71967786  0.16382860  1
  Nd  Nd13  1  0.50000000  0.28032214  0.83617140  1
  V  V14  1  0.00000000  0.50000000  0.50000000  1
  V  V15  1  0.00000000  0.00000000  0.00000000  1
  Se  Se16  1  0.50000000  0.38181015  0.46851373  1
  Se  Se17  1  0.50000000  0.11818985  0.96851373  1
  Se  Se18  1  0.00000000  0.65601377  0.73557858  1
  Se  Se19  1  0.50000000  0.88181015  0.03148627  1
  Se  Se20  1  0.50000000  0.85418903  0.47183566  1
  Se  Se21  1  0.00000000  0.15601377  0.76442142  1
  Se  Se22  1  0.00000000  0.84398623  0.23557858  1
  Se  Se23  1  0.00000000  0.34398623  0.26442142  1
  Se  Se24  1  0.00000000  0.56979651  0.17259721  1
  Se  Se25  1  0.50000000  0.35418903  0.02816434  1
  Se  Se26  1  0.00000000  0.06979651  0.32740279  1
  Se  Se27  1  0.50000000  0.64581097  0.97183566  1
  Se  Se28  1  0.00000000  0.43020349  0.82740279  1
  Se  Se29  1  0.00000000  0.93020349  0.67259721  1
  Se  Se30  1  0.50000000  0.14581097  0.52816434  1
  Se  Se31  1  0.50000000  0.61818985  0.53148627  1
  O  O32  1  0.00000000  0.54473108  0.38205383  1
  O  O33  1  0.00000000  0.45526892  0.61794617  1
  O  O34  1  0.50000000  0.82753217  0.81195069  1
  O  O35  1  0.00000000  0.04473108  0.11794617  1
  O  O36  1  0.00000000  0.95526892  0.88205383  1
  O  O37  1  0.50000000  0.17246783  0.18804931  1
  O  O38  1  0.50000000  0.32753217  0.68804931  1
  O  O39  1  0.50000000  0.67246783  0.31195069  1
