# generated using pymatgen
data_VZn2O4
_symmetry_space_group_name_H-M   'P 1'
_cell_length_a   6.04895749
_cell_length_b   6.04895749
_cell_length_c   6.06189781
_cell_angle_alpha   59.92920258
_cell_angle_beta   59.92920261
_cell_angle_gamma   59.24619805
_symmetry_Int_Tables_number   1
_chemical_formula_structural   VZn2O4
_chemical_formula_sum   'V2 Zn4 O8'
_cell_volume   155.76109894
_cell_formula_units_Z   2
loop_
 _symmetry_equiv_pos_site_id
 _symmetry_equiv_pos_as_xyz
  1  'x, y, z'
loop_
 _atom_site_type_symbol
 _atom_site_label
 _atom_site_symmetry_multiplicity
 _atom_site_fract_x
 _atom_site_fract_y
 _atom_site_fract_z
 _atom_site_occupancy
  V  V0  1  0.62500000  0.62500000  0.12500000  1
  V  V1  1  0.62500000  0.62500000  0.62500000  1
  Zn  Zn2  1  0.98981886  0.98981886  0.01018114  1
  Zn  Zn3  1  0.26018114  0.26018114  0.23981886  1
  Zn  Zn4  1  0.12500000  0.62500000  0.62500000  1
  Zn  Zn5  1  0.62500000  0.12500000  0.62500000  1
  O  O6  1  0.40262514  0.40262514  0.35822826  1
  O  O7  1  0.40464880  0.85185701  0.37174709  1
  O  O8  1  0.40262514  0.40262514  0.83652146  1
  O  O9  1  0.39814299  0.84535120  0.87825291  1
  O  O10  1  0.85185701  0.40464880  0.37174709  1
  O  O11  1  0.84737486  0.84737486  0.41347854  1
  O  O12  1  0.84535120  0.39814299  0.87825291  1
  O  O13  1  0.84737486  0.84737486  0.89177174  1
