# generated using pymatgen
data_Na5P3(H3O4)4
_symmetry_space_group_name_H-M   'P 1'
_cell_length_a   10.45307067
_cell_length_b   9.89439367
_cell_length_c   7.61166510
_cell_angle_alpha   92.13686583
_cell_angle_beta   94.76088770
_cell_angle_gamma   90.73000041
_symmetry_Int_Tables_number   1
_chemical_formula_structural   Na5P3(H3O4)4
_chemical_formula_sum   'Na10 P6 H24 O32'
_cell_volume   783.88924631
_cell_formula_units_Z   2
loop_
 _symmetry_equiv_pos_site_id
 _symmetry_equiv_pos_as_xyz
  1  'x, y, z'
loop_
 _atom_site_type_symbol
 _atom_site_label
 _atom_site_symmetry_multiplicity
 _atom_site_fract_x
 _atom_site_fract_y
 _atom_site_fract_z
 _atom_site_occupancy
  Na  Na0  1  0.88236467  0.93436190  0.09114357  1
  Na  Na1  1  0.11763533  0.06563810  0.90885643  1
  Na  Na2  1  0.86779364  0.58935556  0.04938248  1
  Na  Na3  1  0.13220636  0.41064444  0.95061752  1
  Na  Na4  1  0.13679063  0.93723159  0.41681957  1
  Na  Na5  1  0.86320937  0.06276841  0.58318043  1
  Na  Na6  1  0.66134111  0.75834859  0.77040439  1
  Na  Na7  1  0.33865889  0.24165141  0.22959561  1
  Na  Na8  1  0.14591465  0.55026991  0.42189486  1
  Na  Na9  1  0.85408535  0.44973009  0.57810514  1
  P  P10  1  0.39096981  0.74545378  0.25989624  1
  P  P11  1  0.60903019  0.25454622  0.74010376  1
  P  P12  1  0.14739153  0.73438094  0.04763664  1
  P  P13  1  0.85260847  0.26561906  0.95236336  1
  P  P14  1  0.99486857  0.76331829  0.71772131  1
  P  P15  1  0.00513143  0.23668171  0.28227869  1
  H  H16  1  0.89263444  0.71902162  0.38822706  1
  H  H17  1  0.10736556  0.28097838  0.61177294  1
  H  H18  1  0.75390840  0.76521963  0.32512578  1
  H  H19  1  0.24609160  0.23478037  0.67487422  1
  H  H20  1  0.58800372  0.90958734  0.10714758  1
  H  H21  1  0.41199628  0.09041266  0.89285242  1
  H  H22  1  0.61998427  0.99139323  0.94278837  1
  H  H23  1  0.38001573  0.00860677  0.05721163  1
  H  H24  1  0.58452259  0.60494934  0.08708837  1
  H  H25  1  0.41547741  0.39505066  0.91291163  1
  H  H26  1  0.61189900  0.51068534  0.92493404  1
  H  H27  1  0.38810100  0.48931466  0.07506596  1
  H  H28  1  0.60366127  0.58330758  0.44009135  1
  H  H29  1  0.39633873  0.41669242  0.55990865  1
  H  H30  1  0.60049490  0.51285552  0.61978881  1
  H  H31  1  0.39950510  0.48714448  0.38021119  1
  H  H32  1  0.38154110  0.75758156  0.82901086  1
  H  H33  1  0.61845890  0.24241844  0.17098914  1
  H  H34  1  0.38119419  0.74816716  0.62243373  1
  H  H35  1  0.61880581  0.25183284  0.37756627  1
  H  H36  1  0.40329676  0.08854312  0.55952972  1
  H  H37  1  0.59670324  0.91145688  0.44047028  1
  H  H38  1  0.37785606  0.99698989  0.39088896  1
  H  H39  1  0.62214394  0.00301011  0.60911104  1
  O  O40  1  0.30305848  0.73112106  0.06640552  1
  O  O41  1  0.69694152  0.26887894  0.93359448  1
  O  O42  1  0.12770538  0.71178097  0.83671406  1
  O  O43  1  0.87229462  0.28821903  0.16328594  1
  O  O44  1  0.09349038  0.61033238  0.12887133  1
  O  O45  1  0.90650962  0.38966762  0.87112867  1
  O  O46  1  0.10348281  0.87231837  0.10716795  1
  O  O47  1  0.89651719  0.12768163  0.89283205  1
  O  O48  1  0.47583322  0.61910312  0.25458258  1
  O  O49  1  0.52416678  0.38089688  0.74541742  1
  O  O50  1  0.46678783  0.87938750  0.25202376  1
  O  O51  1  0.53321217  0.12061250  0.74797624  1
  O  O52  1  0.29655730  0.74747972  0.40187410  1
  O  O53  1  0.70344270  0.25252028  0.59812590  1
  O  O54  1  0.98320522  0.65904189  0.56298217  1
  O  O55  1  0.01679478  0.34095811  0.43701783  1
  O  O56  1  0.02855485  0.90633769  0.66625464  1
  O  O57  1  0.97144515  0.09366231  0.33374536  1
  O  O58  1  0.88609637  0.75562164  0.83959308  1
  O  O59  1  0.11390363  0.24437836  0.16040692  1
  O  O60  1  0.83720737  0.74717479  0.28183374  1
  O  O61  1  0.16279263  0.25282521  0.71816626  1
  O  O62  1  0.65692301  0.92740039  0.02802377  1
  O  O63  1  0.34307699  0.07259961  0.97197623  1
  O  O64  1  0.64575047  0.59036496  0.99523670  1
  O  O65  1  0.35424953  0.40963504  0.00476330  1
  O  O66  1  0.65551160  0.57059430  0.55287627  1
  O  O67  1  0.34448840  0.42940570  0.44712373  1
  O  O68  1  0.43770836  0.75497834  0.73359527  1
  O  O69  1  0.56229164  0.24502166  0.26640473  1
  O  O70  1  0.33815312  0.07052012  0.45889243  1
  O  O71  1  0.66184688  0.92947988  0.54110757  1
