# generated using pymatgen
data_Sr3LaMn2(WO6)2
_symmetry_space_group_name_H-M   'P 1'
_cell_length_a   5.83266412
_cell_length_b   5.78584159
_cell_length_c   16.15678378
_cell_angle_alpha   90.12989741
_cell_angle_beta   90.00000000
_cell_angle_gamma   90.00000000
_symmetry_Int_Tables_number   1
_chemical_formula_structural   Sr3LaMn2(WO6)2
_chemical_formula_sum   'Sr6 La2 Mn4 W4 O24'
_cell_volume   545.23949072
_cell_formula_units_Z   2
loop_
 _symmetry_equiv_pos_site_id
 _symmetry_equiv_pos_as_xyz
  1  'x, y, z'
loop_
 _atom_site_type_symbol
 _atom_site_label
 _atom_site_symmetry_multiplicity
 _atom_site_fract_x
 _atom_site_fract_y
 _atom_site_fract_z
 _atom_site_occupancy
  Sr  Sr0  1  0.02945478  0.01446314  0.12444653  1
  Sr  Sr1  1  0.02936403  0.00716456  0.62639498  1
  Sr  Sr2  1  0.46809591  0.50486550  0.87980084  1
  Sr  Sr3  1  0.52945478  0.48553686  0.12555347  1
  Sr  Sr4  1  0.52936403  0.49283544  0.62360502  1
  Sr  Sr5  1  0.96809591  0.99513450  0.37019916  1
  La  La6  1  0.46076774  0.51101961  0.36684165  1
  La  La7  1  0.96076774  0.98898039  0.88315835  1
  Mn  Mn8  1  0.00073452  0.50202929  0.00245452  1
  Mn  Mn9  1  0.99733005  0.49916596  0.49969911  1
  Mn  Mn10  1  0.50073452  0.99797071  0.24754548  1
  Mn  Mn11  1  0.49733005  0.00083404  0.75030089  1
  W  W12  1  0.99949721  0.49846467  0.24990699  1
  W  W13  1  0.99900415  0.49846277  0.74945320  1
  W  W14  1  0.49949721  0.00153533  0.00009301  1
  W  W15  1  0.49900415  0.00153723  0.50054680  1
  O  O16  1  0.02331710  0.42554379  0.37076506  1
  O  O17  1  0.01551869  0.40779510  0.86598188  1
  O  O18  1  0.22068225  0.76585577  0.27670959  1
  O  O19  1  0.19735546  0.76861068  0.77275005  1
  O  O20  1  0.21781010  0.80001462  0.97282490  1
  O  O21  1  0.23887745  0.79349463  0.47711910  1
  O  O22  1  0.28350344  0.29842138  0.23399036  1
  O  O23  1  0.26586261  0.30249646  0.72756698  1
  O  O24  1  0.29332092  0.27811173  0.01734727  1
  O  O25  1  0.29206516  0.26106004  0.52044874  1
  O  O26  1  0.48275332  0.92353732  0.61840150  1
  O  O27  1  0.48468511  0.91814349  0.11552936  1
  O  O28  1  0.52331710  0.07445621  0.87923494  1
  O  O29  1  0.51551869  0.09220490  0.38401812  1
  O  O30  1  0.69735546  0.73138932  0.47724995  1
  O  O31  1  0.72068225  0.73414423  0.97329041  1
  O  O32  1  0.71781010  0.69998538  0.27717510  1
  O  O33  1  0.73887745  0.70650537  0.77288090  1
  O  O34  1  0.76586261  0.19750354  0.52243302  1
  O  O35  1  0.78350344  0.20157862  0.01600964  1
  O  O36  1  0.79332092  0.22188827  0.23265273  1
  O  O37  1  0.79206516  0.23893996  0.72955126  1
  O  O38  1  0.98275332  0.57646268  0.63159850  1
  O  O39  1  0.98468511  0.58185651  0.13447064  1
