# generated using pymatgen
data_NaSr9Fe5(MoO6)5
_symmetry_space_group_name_H-M   'P 1'
_cell_length_a   5.63027624
_cell_length_b   5.63362867
_cell_length_c   28.35676268
_cell_angle_alpha   119.79238551
_cell_angle_beta   119.77718566
_cell_angle_gamma   89.97437874
_symmetry_Int_Tables_number   1
_chemical_formula_structural   NaSr9Fe5(MoO6)5
_chemical_formula_sum   'Na1 Sr9 Fe5 Mo5 O30'
_cell_volume   640.25836585
_cell_formula_units_Z   1
loop_
 _symmetry_equiv_pos_site_id
 _symmetry_equiv_pos_as_xyz
  1  'x, y, z'
loop_
 _atom_site_type_symbol
 _atom_site_label
 _atom_site_symmetry_multiplicity
 _atom_site_fract_x
 _atom_site_fract_y
 _atom_site_fract_z
 _atom_site_occupancy
  Na  Na0  1  0.74616660  0.24616985  0.89846852  1
  Sr  Sr1  1  0.24241825  0.74242803  0.89697311  1
  Sr  Sr2  1  0.25653406  0.75664063  0.70263855  1
  Sr  Sr3  1  0.25194682  0.75187705  0.50075338  1
  Sr  Sr4  1  0.75265826  0.25273421  0.70109545  1
  Sr  Sr5  1  0.25044004  0.75046199  0.30017800  1
  Sr  Sr6  1  0.75222455  0.25211086  0.50085362  1
  Sr  Sr7  1  0.24772638  0.74775105  0.09909486  1
  Sr  Sr8  1  0.75011221  0.25009149  0.30004270  1
  Sr  Sr9  1  0.74819790  0.24819126  0.09927708  1
  Fe  Fe10  1  0.01212793  0.01219055  0.80486897  1
  Fe  Fe11  1  0.49547060  0.49548450  0.99819210  1
  Fe  Fe12  1  0.99872665  0.99863550  0.59947085  1
  Fe  Fe13  1  0.00337400  0.00326308  0.40132727  1
  Fe  Fe14  1  0.99181235  0.99180288  0.19672300  1
  Mo  Mo15  1  0.49511864  0.49517139  0.79806074  1
  Mo  Mo16  1  0.50398131  0.50393346  0.60157856  1
  Mo  Mo17  1  0.49767606  0.49760882  0.39905932  1
  Mo  Mo18  1  0.99436717  0.99438968  0.99775228  1
  Mo  Mo19  1  0.50327070  0.50326619  0.20130482  1
  O  O20  1  0.25554344  0.25555675  0.90221582  1
  O  O21  1  0.21248573  0.71598031  0.79860118  1
  O  O22  1  0.29007155  0.23933923  0.80159562  1
  O  O23  1  0.24971962  0.24987898  0.69991429  1
  O  O24  1  0.75747674  0.75753003  0.90299992  1
  O  O25  1  0.71790129  0.76865220  0.80160441  1
  O  O26  1  0.22909606  0.71337647  0.60008471  1
  O  O27  1  0.78055403  0.27718977  0.79863413  1
  O  O28  1  0.27858216  0.21813737  0.60030093  1
  O  O29  1  0.24995209  0.24959875  0.49989577  1
  O  O30  1  0.75262937  0.75314947  0.70117552  1
  O  O31  1  0.72293304  0.78324376  0.60027822  1
  O  O32  1  0.21575037  0.72038913  0.39925990  1
  O  O33  1  0.77092094  0.28663502  0.59992625  1
  O  O34  1  0.28585086  0.22740649  0.39946285  1
  O  O35  1  0.24686580  0.24685250  0.29874318  1
  O  O36  1  0.74996254  0.74982605  0.49996132  1
  O  O37  1  0.71153324  0.76994422  0.39947936  1
  O  O38  1  0.22713264  0.70895476  0.19847331  1
  O  O39  1  0.78067823  0.27591136  0.39928920  1
  O  O40  1  0.27928117  0.21738911  0.19977931  1
  O  O41  1  0.24472434  0.24470002  0.09788343  1
  O  O42  1  0.74974131  0.74975631  0.29990036  1
  O  O43  1  0.71961003  0.78150942  0.19978006  1
  O  O44  1  0.22088904  0.74040813  0.00204894  1
  O  O45  1  0.76524831  0.28344393  0.19848277  1
  O  O46  1  0.27336095  0.21473827  0.00111146  1
  O  O47  1  0.74559876  0.74560181  0.09824296  1
  O  O48  1  0.73221206  0.79085241  0.00111668  1
  O  O49  1  0.78934378  0.26984552  0.00204498  1
