# generated using pymatgen
data_Na2B4H20O17
_symmetry_space_group_name_H-M   'P 1'
_cell_length_a   8.01163689
_cell_length_b   8.01163689
_cell_length_c   12.24834240
_cell_angle_alpha   77.68762396
_cell_angle_beta   102.31237604
_cell_angle_gamma   96.29007176
_symmetry_Int_Tables_number   1
_chemical_formula_structural   Na2B4H20O17
_chemical_formula_sum   'Na4 B8 H40 O34'
_cell_volume   748.73371107
_cell_formula_units_Z   2
loop_
 _symmetry_equiv_pos_site_id
 _symmetry_equiv_pos_as_xyz
  1  'x, y, z'
loop_
 _atom_site_type_symbol
 _atom_site_label
 _atom_site_symmetry_multiplicity
 _atom_site_fract_x
 _atom_site_fract_y
 _atom_site_fract_z
 _atom_site_occupancy
  Na  Na0  1  0.00000000  0.00000000  0.50000000  1
  Na  Na1  1  0.00000000  0.00000000  0.00000000  1
  Na  Na2  1  0.15299171  0.15299171  0.75000000  1
  Na  Na3  1  0.84700829  0.84700829  0.25000000  1
  B  B4  1  0.74052143  0.56949326  0.71500999  1
  B  B5  1  0.56949326  0.74052143  0.78499001  1
  B  B6  1  0.25947857  0.43050674  0.28499001  1
  B  B7  1  0.43050674  0.25947857  0.21500999  1
  B  B8  1  0.64150966  0.44503751  0.89202198  1
  B  B9  1  0.44503751  0.64150966  0.60797802  1
  B  B10  1  0.35849034  0.55496249  0.10797802  1
  B  B11  1  0.55496249  0.35849034  0.39202198  1
  H  H12  1  0.50111305  0.98055757  0.77994733  1
  H  H13  1  0.98055757  0.50111305  0.72005267  1
  H  H14  1  0.49888695  0.01944243  0.22005267  1
  H  H15  1  0.01944243  0.49888695  0.27994733  1
  H  H16  1  0.65353257  0.42894428  0.53842402  1
  H  H17  1  0.42894428  0.65353257  0.96157598  1
  H  H18  1  0.34646743  0.57105572  0.46157598  1
  H  H19  1  0.57105572  0.34646743  0.03842402  1
  H  H20  1  0.91282855  0.31412377  0.53655636  1
  H  H21  1  0.31412377  0.91282855  0.96344364  1
  H  H22  1  0.08717145  0.68587623  0.46344364  1
  H  H23  1  0.68587623  0.08717145  0.03655636  1
  H  H24  1  0.65461982  0.92226835  0.98646767  1
  H  H25  1  0.92226835  0.65461982  0.51353233  1
  H  H26  1  0.34538018  0.07773165  0.01353233  1
  H  H27  1  0.07773165  0.34538018  0.48646767  1
  H  H28  1  0.82274993  0.22730605  0.80655753  1
  H  H29  1  0.22730605  0.82274993  0.69344247  1
  H  H30  1  0.17725007  0.77269395  0.19344247  1
  H  H31  1  0.77269395  0.17725007  0.30655753  1
  H  H32  1  0.03527600  0.78032003  0.70195818  1
  H  H33  1  0.78032003  0.03527600  0.79804182  1
  H  H34  1  0.96472400  0.21967997  0.29804182  1
  H  H35  1  0.21967997  0.96472400  0.20195818  1
  H  H36  1  0.72043009  0.88719951  0.61675095  1
  H  H37  1  0.88719951  0.72043009  0.88324905  1
  H  H38  1  0.27956991  0.11280049  0.38324905  1
  H  H39  1  0.11280049  0.27956991  0.11675095  1
  H  H40  1  0.67691469  0.06621172  0.53625127  1
  H  H41  1  0.06621172  0.67691469  0.96374873  1
  H  H42  1  0.32308531  0.93378828  0.46374873  1
  H  H43  1  0.93378828  0.32308531  0.03625127  1
  H  H44  1  0.28434831  0.48295118  0.83621452  1
  H  H45  1  0.48295118  0.28434831  0.66378548  1
  H  H46  1  0.71565169  0.51704882  0.16378548  1
  H  H47  1  0.51704882  0.71565169  0.33621452  1
  H  H48  1  0.37873496  0.14806310  0.59590001  1
  H  H49  1  0.14806310  0.37873496  0.90409999  1
  H  H50  1  0.62126504  0.85193690  0.40409999  1
  H  H51  1  0.85193690  0.62126504  0.09590001  1
  O  O52  1  0.73338897  0.73338897  0.75000000  1
  O  O53  1  0.26661103  0.26661103  0.25000000  1
  O  O54  1  0.73541923  0.42528199  0.81465907  1
  O  O55  1  0.42528199  0.73541923  0.68534093  1
  O  O56  1  0.26458077  0.57471801  0.18534093  1
  O  O57  1  0.57471801  0.26458077  0.31465907  1
  O  O58  1  0.58445165  0.54493829  0.62388675  1
  O  O59  1  0.54493829  0.58445165  0.87611325  1
  O  O60  1  0.41554835  0.45506171  0.37611325  1
  O  O61  1  0.45506171  0.41554835  0.12388675  1
  O  O62  1  0.89079739  0.56859724  0.66705753  1
  O  O63  1  0.56859724  0.89079739  0.83294247  1
  O  O64  1  0.10920261  0.43140276  0.33294247  1
  O  O65  1  0.43140276  0.10920261  0.16705753  1
  O  O66  1  0.64645468  0.32045086  0.99001410  1
  O  O67  1  0.32045086  0.64645468  0.50998590  1
  O  O68  1  0.35354532  0.67954914  0.00998590  1
  O  O69  1  0.67954914  0.35354532  0.49001410  1
  O  O70  1  0.27718307  0.03029893  0.94863953  1
  O  O71  1  0.03029893  0.27718307  0.55136047  1
  O  O72  1  0.72281693  0.96970107  0.05136047  1
  O  O73  1  0.96970107  0.72281693  0.44863953  1
  O  O74  1  0.12274876  0.87636310  0.69571120  1
  O  O75  1  0.87636310  0.12274876  0.80428880  1
  O  O76  1  0.87725124  0.12363690  0.30428880  1
  O  O77  1  0.12363690  0.87725124  0.19571120  1
  O  O78  1  0.95384802  0.71566477  0.96232025  1
  O  O79  1  0.71566477  0.95384802  0.53767975  1
  O  O80  1  0.04615198  0.28433523  0.03767975  1
  O  O81  1  0.28433523  0.04615198  0.46232025  1
  O  O82  1  0.41170087  0.17644837  0.67243396  1
  O  O83  1  0.17644837  0.41170087  0.82756604  1
  O  O84  1  0.58829913  0.82355163  0.32756604  1
  O  O85  1  0.82355163  0.58829913  0.17243396  1
