# generated using pymatgen
data_LiV3O6
_symmetry_space_group_name_H-M   'P 1'
_cell_length_a   5.22201187
_cell_length_b   5.25905086
_cell_length_c   5.10929711
_cell_angle_alpha   100.04227634
_cell_angle_beta   120.73250185
_cell_angle_gamma   70.04867475
_symmetry_Int_Tables_number   1
_chemical_formula_structural   LiV3O6
_chemical_formula_sum   'Li1 V3 O6'
_cell_volume   113.37147039
_cell_formula_units_Z   1
loop_
 _symmetry_equiv_pos_site_id
 _symmetry_equiv_pos_as_xyz
  1  'x, y, z'
loop_
 _atom_site_type_symbol
 _atom_site_label
 _atom_site_symmetry_multiplicity
 _atom_site_fract_x
 _atom_site_fract_y
 _atom_site_fract_z
 _atom_site_occupancy
  Li  Li0  1  0.16666700  0.50000000  0.33333300  1
  V  V1  1  0.32792285  1.00000000  0.65584670  1
  V  V2  1  0.66666700  0.00000000  0.33333300  1
  V  V3  1  0.00541015  0.00000000  0.01082030  1
  O  O4  1  0.92864551  0.21673914  0.33333300  1
  O  O5  1  0.26951706  0.20149047  0.01349347  1
  O  O6  1  0.58935658  0.20149047  0.65317353  1
  O  O7  1  0.06381594  0.79850953  0.65317353  1
  O  O8  1  0.40468849  0.78326086  0.33333300  1
  O  O9  1  0.74397642  0.79850953  0.01349347  1
