# generated using pymatgen
data_Li3Mo4P5O24
_symmetry_space_group_name_H-M   'P 1'
_cell_length_a   8.59481780
_cell_length_b   9.39553722
_cell_length_c   14.29633339
_cell_angle_alpha   94.02617265
_cell_angle_beta   107.42978932
_cell_angle_gamma   62.72533451
_symmetry_Int_Tables_number   1
_chemical_formula_structural   Li3Mo4P5O24
_chemical_formula_sum   'Li6 Mo8 P10 O48'
_cell_volume   975.93702165
_cell_formula_units_Z   2
loop_
 _symmetry_equiv_pos_site_id
 _symmetry_equiv_pos_as_xyz
  1  'x, y, z'
loop_
 _atom_site_type_symbol
 _atom_site_label
 _atom_site_symmetry_multiplicity
 _atom_site_fract_x
 _atom_site_fract_y
 _atom_site_fract_z
 _atom_site_occupancy
  Li  Li0  1  0.97795373  0.54766940  0.02944456  1
  Li  Li1  1  0.93776120  0.92168949  0.26335249  1
  Li  Li2  1  0.61162552  0.57562197  0.24846995  1
  Li  Li3  1  0.06152587  0.07809764  0.74848821  1
  Li  Li4  1  0.40613879  0.41968438  0.76316964  1
  Li  Li5  1  0.50623379  0.04835571  0.53067153  1
  Mo  Mo6  1  0.33615379  0.51940532  0.32083509  1
  Mo  Mo7  1  0.67031598  0.48237267  0.68070399  1
  Mo  Mo8  1  0.92868446  0.78087610  0.52176622  1
  Mo  Mo9  1  0.18752297  0.71509670  0.97760813  1
  Mo  Mo10  1  0.52865981  0.98160138  0.18081911  1
  Mo  Mo11  1  0.07477832  0.21493234  0.47729665  1
  Mo  Mo12  1  0.46598007  0.01938312  0.82137997  1
  Mo  Mo13  1  0.81233688  0.28114618  0.02170797  1
  P  P14  1  0.43960332  0.37777102  0.10799120  1
  P  P15  1  0.70657218  0.55797196  0.46076991  1
  P  P16  1  0.29037876  0.87814463  0.60807510  1
  P  P17  1  0.71284602  0.12231543  0.39519889  1
  P  P18  1  0.19706182  0.05751451  0.96127046  1
  P  P19  1  0.14719035  0.25271943  0.24851300  1
  P  P20  1  0.80382489  0.93968890  0.04230732  1
  P  P21  1  0.84839265  0.75343417  0.74900641  1
  P  P22  1  0.29944003  0.43917417  0.54166356  1
  P  P23  1  0.56017681  0.62226570  0.89516588  1
  O  O24  1  0.94410282  0.77698728  0.01660284  1
  O  O25  1  0.59863377  0.37765496  0.07958579  1
  O  O26  1  0.90340171  0.11625923  0.41686195  1
  O  O27  1  0.96928498  0.31282441  0.16130238  1
  O  O28  1  0.04835138  0.24743799  0.59154562  1
  O  O29  1  0.69911622  0.25829032  0.90585126  1
  O  O30  1  0.10309944  0.87767824  0.58044569  1
  O  O31  1  0.71312604  0.02018583  0.47782706  1
  O  O32  1  0.87810904  0.81344629  0.66124667  1
  O  O33  1  0.45062128  0.46121892  0.20728090  1
  O  O34  1  0.59417937  0.79101328  0.22782556  1
  O  O35  1  0.37478648  0.97152089  0.04594084  1
  O  O36  1  0.13274987  0.55240960  0.57724208  1
  O  O37  1  0.52871567  0.60535478  0.37228365  1
  O  O38  1  0.89289390  0.05263489  0.07785772  1
  O  O39  1  0.30604092  0.10338105  0.22610352  1
  O  O40  1  0.47290834  0.39930256  0.63124583  1
  O  O41  1  0.44977178  0.71176615  0.61923242  1
  O  O42  1  0.94863342  0.75694445  0.40569112  1
  O  O43  1  0.74454867  0.52004899  0.97783406  1
  O  O44  1  0.29543871  0.27696940  0.51560453  1
  O  O45  1  0.86582954  0.44222285  0.41994524  1
  O  O46  1  0.81640870  0.60414344  0.72788260  1
  O  O47  1  0.29617613  0.98366238  0.52976010  1
  O  O48  1  0.29512742  0.74750130  0.09192505  1
  O  O49  1  0.40504456  0.20944712  0.77540932  1
  O  O50  1  0.56142640  0.53912614  0.79681606  1
  O  O51  1  0.45771939  0.21144030  0.11923542  1
  O  O52  1  0.11934208  0.20015916  0.33932459  1
  O  O53  1  0.23954170  0.10456236  0.87289555  1
  O  O54  1  0.30162134  0.52456725  0.45502661  1
  O  O55  1  0.11244887  0.94238474  0.92086637  1
  O  O56  1  0.55846293  0.29098464  0.38711765  1
  O  O57  1  0.72226533  0.71257601  0.49072520  1
  O  O58  1  0.19373977  0.39509796  0.26670449  1
  O  O59  1  0.69565633  0.03996164  0.29654162  1
  O  O60  1  0.67858692  0.89661896  0.76753424  1
  O  O61  1  0.75958213  0.89879732  0.13173213  1
  O  O62  1  0.29569922  0.96241902  0.70703885  1
  O  O63  1  0.01972674  0.70103121  0.83964393  1
  O  O64  1  0.84159659  0.29083141  0.72667767  1
  O  O65  1  0.16168948  0.71005635  0.27529956  1
  O  O66  1  0.69934155  0.47216327  0.54540730  1
  O  O67  1  0.39687683  0.61665379  0.91666411  1
  O  O68  1  0.53846287  0.79043813  0.88635101  1
  O  O69  1  0.25024639  0.48373355  0.02987631  1
  O  O70  1  0.05670379  0.21246472  0.99107560  1
  O  O71  1  0.62994718  0.02433614  0.95575072  1
