# generated using pymatgen
data_MgB2H6O7
_symmetry_space_group_name_H-M   'P 1'
_cell_length_a   7.69188569
_cell_length_b   7.69188569
_cell_length_c   8.22368526
_cell_angle_alpha   90.00000000
_cell_angle_beta   90.00000000
_cell_angle_gamma   90.00000000
_symmetry_Int_Tables_number   1
_chemical_formula_structural   MgB2H6O7
_chemical_formula_sum   'Mg4 B8 H24 O28'
_cell_volume   486.55520574
_cell_formula_units_Z   4
loop_
 _symmetry_equiv_pos_site_id
 _symmetry_equiv_pos_as_xyz
  1  'x, y, z'
loop_
 _atom_site_type_symbol
 _atom_site_label
 _atom_site_symmetry_multiplicity
 _atom_site_fract_x
 _atom_site_fract_y
 _atom_site_fract_z
 _atom_site_occupancy
  Mg  Mg0  1  0.24778249  0.25069036  0.22494255  1
  Mg  Mg1  1  0.25069036  0.75221751  0.72494255  1
  Mg  Mg2  1  0.74930964  0.24778249  0.72494255  1
  Mg  Mg3  1  0.75221751  0.74930964  0.22494255  1
  B  B4  1  0.11087388  0.12085460  0.58093439  1
  B  B5  1  0.12085460  0.88912612  0.08093439  1
  B  B6  1  0.38069634  0.61214221  0.36943821  1
  B  B7  1  0.38785779  0.38069634  0.86943821  1
  B  B8  1  0.61214221  0.61930366  0.86943821  1
  B  B9  1  0.61930366  0.38785779  0.36943821  1
  B  B10  1  0.87914540  0.11087388  0.08093439  1
  B  B11  1  0.88912612  0.87914540  0.58093439  1
  H  H12  1  0.03584942  0.13526283  0.82230720  1
  H  H13  1  0.10099163  0.63836642  0.16059532  1
  H  H14  1  0.13751123  0.40370238  0.78950677  1
  H  H15  1  0.13232984  0.69571239  0.43119221  1
  H  H16  1  0.13526283  0.96415058  0.32230720  1
  H  H17  1  0.19026154  0.36972714  0.52081091  1
  H  H18  1  0.30428761  0.13232984  0.93119221  1
  H  H19  1  0.36486718  0.53471796  0.12878353  1
  H  H20  1  0.36163358  0.10099163  0.66059532  1
  H  H21  1  0.36972714  0.80973846  0.02081091  1
  H  H22  1  0.40370238  0.86248877  0.28950677  1
  H  H23  1  0.46528204  0.36486718  0.62878353  1
  H  H24  1  0.53471796  0.63513282  0.62878353  1
  H  H25  1  0.59629762  0.13751123  0.28950677  1
  H  H26  1  0.63027286  0.19026154  0.02081091  1
  H  H27  1  0.63836642  0.89900837  0.66059532  1
  H  H28  1  0.63513282  0.46528204  0.12878353  1
  H  H29  1  0.69571239  0.86767016  0.93119221  1
  H  H30  1  0.80973846  0.63027286  0.52081091  1
  H  H31  1  0.86473717  0.03584942  0.32230720  1
  H  H32  1  0.86767016  0.30428761  0.43119221  1
  H  H33  1  0.86248877  0.59629762  0.78950677  1
  H  H34  1  0.89900837  0.36163358  0.16059532  1
  H  H35  1  0.96415058  0.86473717  0.82230720  1
  O  O36  1  0.00000000  0.00000000  0.49152710  1
  O  O37  1  0.00000000  0.00000000  0.99152710  1
  O  O38  1  0.02170708  0.73676050  0.14129814  1
  O  O39  1  0.01757637  0.20656206  0.72253279  1
  O  O40  1  0.15592343  0.26294990  0.46545533  1
  O  O41  1  0.20656206  0.98242363  0.22253279  1
  O  O42  1  0.23738264  0.48166840  0.80687161  1
  O  O43  1  0.24012372  0.66099976  0.48498532  1
  O  O44  1  0.26294990  0.84407657  0.96545533  1
  O  O45  1  0.26323950  0.02170708  0.64129814  1
  O  O46  1  0.29362540  0.51789562  0.22895207  1
  O  O47  1  0.33900024  0.24012372  0.98498532  1
  O  O48  1  0.48166840  0.76261736  0.30687161  1
  O  O49  1  0.48210438  0.29362540  0.72895207  1
  O  O50  1  0.50000000  0.50000000  0.95928424  1
  O  O51  1  0.50000000  0.50000000  0.45928424  1
  O  O52  1  0.51789562  0.70637460  0.72895207  1
  O  O53  1  0.51833160  0.23738264  0.30687161  1
  O  O54  1  0.66099976  0.75987628  0.98498532  1
  O  O55  1  0.70637460  0.48210438  0.22895207  1
  O  O56  1  0.73676050  0.97829292  0.64129814  1
  O  O57  1  0.73705010  0.15592343  0.96545533  1
  O  O58  1  0.75987628  0.33900024  0.48498532  1
  O  O59  1  0.76261736  0.51833160  0.80687161  1
  O  O60  1  0.79343794  0.01757637  0.22253279  1
  O  O61  1  0.84407657  0.73705010  0.46545533  1
  O  O62  1  0.98242363  0.79343794  0.72253279  1
  O  O63  1  0.97829292  0.26323950  0.14129814  1
