# generated using pymatgen
data_CaH8(ClO2)2
_symmetry_space_group_name_H-M   'P 1'
_cell_length_a   9.03907352
_cell_length_b   10.26638975
_cell_length_c   12.90184192
_cell_angle_alpha   90.00000000
_cell_angle_beta   115.20426670
_cell_angle_gamma   90.00000000
_symmetry_Int_Tables_number   1
_chemical_formula_structural   CaH8(ClO2)2
_chemical_formula_sum   'Ca6 H48 Cl12 O24'
_cell_volume   1083.28751939
_cell_formula_units_Z   6
loop_
 _symmetry_equiv_pos_site_id
 _symmetry_equiv_pos_as_xyz
  1  'x, y, z'
loop_
 _atom_site_type_symbol
 _atom_site_label
 _atom_site_symmetry_multiplicity
 _atom_site_fract_x
 _atom_site_fract_y
 _atom_site_fract_z
 _atom_site_occupancy
  Ca  Ca0  1  0.00000000  0.50000000  0.50000000  1
  Ca  Ca1  1  0.00000000  0.00000000  0.00000000  1
  Ca  Ca2  1  0.73930645  0.45256877  0.86305733  1
  Ca  Ca3  1  0.26069355  0.95256877  0.63694267  1
  Ca  Ca4  1  0.26069355  0.54743123  0.13694267  1
  Ca  Ca5  1  0.73930645  0.04743123  0.36305733  1
  H  H6  1  0.83947907  0.65776154  0.72602753  1
  H  H7  1  0.16052093  0.15776154  0.77397247  1
  H  H8  1  0.16052093  0.34223846  0.27397247  1
  H  H9  1  0.83947907  0.84223846  0.22602753  1
  H  H10  1  0.94564611  0.68514735  0.85705815  1
  H  H11  1  0.05435389  0.18514735  0.64294185  1
  H  H12  1  0.05435389  0.31485265  0.14294185  1
  H  H13  1  0.94564611  0.81485265  0.35705815  1
  H  H14  1  0.45326813  0.47799214  0.61565362  1
  H  H15  1  0.54673187  0.97799214  0.88434638  1
  H  H16  1  0.54673187  0.52200786  0.38434638  1
  H  H17  1  0.45326813  0.02200786  0.11565362  1
  H  H18  1  0.60728511  0.55126407  0.62033216  1
  H  H19  1  0.39271489  0.05126407  0.87966784  1
  H  H20  1  0.39271489  0.44873593  0.37966784  1
  H  H21  1  0.60728511  0.94873593  0.12033216  1
  H  H22  1  0.43787014  0.56644623  0.88454944  1
  H  H23  1  0.56212986  0.06644623  0.61545056  1
  H  H24  1  0.56212986  0.43355377  0.11545056  1
  H  H25  1  0.43787014  0.93355377  0.38454944  1
  H  H26  1  0.57228967  0.67489710  0.93981481  1
  H  H27  1  0.42771033  0.17489710  0.56018519  1
  H  H28  1  0.42771033  0.32510290  0.06018519  1
  H  H29  1  0.57228967  0.82510290  0.43981481  1
  H  H30  1  0.80865676  0.32179256  0.66870568  1
  H  H31  1  0.19134324  0.82179256  0.83129432  1
  H  H32  1  0.19134324  0.67820744  0.33129432  1
  H  H33  1  0.80865676  0.17820744  0.16870568  1
  H  H34  1  0.80854998  0.21124870  0.75110369  1
  H  H35  1  0.19145002  0.71124870  0.74889631  1
  H  H36  1  0.19145002  0.78875130  0.24889631  1
  H  H37  1  0.80854998  0.28875130  0.25110369  1
  H  H38  1  0.38672902  0.35122694  0.78689901  1
  H  H39  1  0.61327098  0.85122694  0.71310099  1
  H  H40  1  0.61327098  0.64877306  0.21310099  1
  H  H41  1  0.38672902  0.14877306  0.28689901  1
  H  H42  1  0.49317004  0.22293201  0.81410129  1
  H  H43  1  0.50682996  0.72293201  0.68589871  1
  H  H44  1  0.50682996  0.77706799  0.18589871  1
  H  H45  1  0.49317004  0.27706799  0.31410129  1
  H  H46  1  0.88856155  0.54229056  0.11858791  1
  H  H47  1  0.11143845  0.04229056  0.38141209  1
  H  H48  1  0.11143845  0.45770944  0.88141209  1
  H  H49  1  0.88856155  0.95770944  0.61858791  1
  H  H50  1  0.88589477  0.65992210  0.04346965  1
  H  H51  1  0.11410523  0.15992210  0.45653035  1
  H  H52  1  0.11410523  0.34007790  0.95653035  1
  H  H53  1  0.88589477  0.84007790  0.54346965  1
  Cl  Cl54  1  0.17547185  0.49742286  0.73749036  1
  Cl  Cl55  1  0.82452815  0.99742286  0.76250964  1
  Cl  Cl56  1  0.82452815  0.50257714  0.26250964  1
  Cl  Cl57  1  0.17547185  0.00257714  0.23749036  1
  Cl  Cl58  1  0.24783523  0.35925604  0.47162333  1
  Cl  Cl59  1  0.75216477  0.85925604  0.02837667  1
  Cl  Cl60  1  0.75216477  0.64074396  0.52837667  1
  Cl  Cl61  1  0.24783523  0.14074396  0.97162333  1
  Cl  Cl62  1  0.84635458  0.27481806  0.51250537  1
  Cl  Cl63  1  0.15364542  0.77481806  0.98749463  1
  Cl  Cl64  1  0.15364542  0.72518194  0.48749463  1
  Cl  Cl65  1  0.84635458  0.22518194  0.01250537  1
  O  O66  1  0.84593238  0.64035596  0.80269665  1
  O  O67  1  0.15406762  0.14035596  0.69730335  1
  O  O68  1  0.15406762  0.35964404  0.19730335  1
  O  O69  1  0.84593238  0.85964404  0.30269665  1
  O  O70  1  0.54561461  0.53276111  0.66568280  1
  O  O71  1  0.45438539  0.03276111  0.83431720  1
  O  O72  1  0.45438539  0.46723889  0.33431720  1
  O  O73  1  0.54561461  0.96723889  0.16568280  1
  O  O74  1  0.55426426  0.58442447  0.91292384  1
  O  O75  1  0.44573574  0.08442447  0.58707616  1
  O  O76  1  0.44573574  0.41557553  0.08707616  1
  O  O77  1  0.55426426  0.91557553  0.41292384  1
  O  O78  1  0.79945115  0.30664096  0.74084604  1
  O  O79  1  0.20054885  0.80664096  0.75915396  1
  O  O80  1  0.20054885  0.69335904  0.25915396  1
  O  O81  1  0.79945115  0.19335904  0.24084604  1
  O  O82  1  0.49913195  0.31866894  0.81650037  1
  O  O83  1  0.50086805  0.81866894  0.68349963  1
  O  O84  1  0.50086805  0.68133106  0.18349963  1
  O  O85  1  0.49913195  0.18133106  0.31650037  1
  O  O86  1  0.91062794  0.56611686  0.05198002  1
  O  O87  1  0.08937206  0.06611686  0.44801998  1
  O  O88  1  0.08937206  0.43388314  0.94801998  1
  O  O89  1  0.91062794  0.93388314  0.55198002  1
