# generated using pymatgen
data_CuH6(SeO4)2
_symmetry_space_group_name_H-M   'P 1'
_cell_length_a   6.40565116
_cell_length_b   6.33373189
_cell_length_c   9.18942320
_cell_angle_alpha   90.00000000
_cell_angle_beta   91.25644702
_cell_angle_gamma   90.00000000
_symmetry_Int_Tables_number   1
_chemical_formula_structural   CuH6(SeO4)2
_chemical_formula_sum   'Cu2 H12 Se4 O16'
_cell_volume   372.74066936
_cell_formula_units_Z   2
loop_
 _symmetry_equiv_pos_site_id
 _symmetry_equiv_pos_as_xyz
  1  'x, y, z'
loop_
 _atom_site_type_symbol
 _atom_site_label
 _atom_site_symmetry_multiplicity
 _atom_site_fract_x
 _atom_site_fract_y
 _atom_site_fract_z
 _atom_site_occupancy
  Cu  Cu0  1  0.00000000  0.50000000  0.50000000  1
  Cu  Cu1  1  0.00000000  0.00000000  0.00000000  1
  H  H2  1  0.57007750  0.28157767  0.66064668  1
  H  H3  1  0.42992250  0.78157767  0.83935332  1
  H  H4  1  0.42992250  0.71842233  0.33935332  1
  H  H5  1  0.57007750  0.21842233  0.16064668  1
  H  H6  1  0.35821037  0.79143965  0.56895077  1
  H  H7  1  0.64178963  0.29143965  0.93104923  1
  H  H8  1  0.64178963  0.20856035  0.43104923  1
  H  H9  1  0.35821037  0.70856035  0.06895077  1
  H  H10  1  0.22646467  0.93235469  0.45862966  1
  H  H11  1  0.77353533  0.43235469  0.04137034  1
  H  H12  1  0.77353533  0.06764531  0.54137034  1
  H  H13  1  0.22646467  0.56764531  0.95862966  1
  Se  Se14  1  0.23213742  0.22694500  0.74308270  1
  Se  Se15  1  0.76786258  0.72694500  0.75691730  1
  Se  Se16  1  0.76786258  0.77305500  0.25691730  1
  Se  Se17  1  0.23213742  0.27305500  0.24308270  1
  O  O18  1  0.28281087  0.78920815  0.47433233  1
  O  O19  1  0.71718913  0.28920815  0.02566767  1
  O  O20  1  0.71718913  0.21079185  0.52566767  1
  O  O21  1  0.28281087  0.71079185  0.97433233  1
  O  O22  1  0.09535471  0.45306152  0.70075399  1
  O  O23  1  0.90464529  0.95306152  0.79924601  1
  O  O24  1  0.90464529  0.54693848  0.29924601  1
  O  O25  1  0.09535471  0.04693848  0.20075399  1
  O  O26  1  0.20131895  0.22101868  0.92821953  1
  O  O27  1  0.79868105  0.72101868  0.57178047  1
  O  O28  1  0.79868105  0.77898132  0.07178047  1
  O  O29  1  0.20131895  0.27898132  0.42821953  1
  O  O30  1  0.49540250  0.33429609  0.75085489  1
  O  O31  1  0.50459750  0.83429609  0.74914511  1
  O  O32  1  0.50459750  0.66570391  0.24914511  1
  O  O33  1  0.49540250  0.16570391  0.25085489  1
