# generated using pymatgen
data_LiCo2O3
_symmetry_space_group_name_H-M   'P 1'
_cell_length_a   2.93597375
_cell_length_b   4.16821922
_cell_length_c   5.11897412
_cell_angle_alpha   65.97507143
_cell_angle_beta   73.33508938
_cell_angle_gamma   90.00000000
_symmetry_Int_Tables_number   1
_chemical_formula_structural   LiCo2O3
_chemical_formula_sum   'Li1 Co2 O3'
_cell_volume   54.32444802
_cell_formula_units_Z   1
loop_
 _symmetry_equiv_pos_site_id
 _symmetry_equiv_pos_as_xyz
  1  'x, y, z'
loop_
 _atom_site_type_symbol
 _atom_site_label
 _atom_site_symmetry_multiplicity
 _atom_site_fract_x
 _atom_site_fract_y
 _atom_site_fract_z
 _atom_site_occupancy
  Li  Li0  1  -0.00000000  -0.00000000  0.00000000  1
  Co  Co1  1  0.33500696  0.33500696  0.32998508  1
  Co  Co2  1  0.66499304  0.66499304  0.67001492  1
  O  O3  1  -0.00000000  0.50000000  0.00000000  1
  O  O4  1  0.32117671  0.82117672  0.35764557  1
  O  O5  1  0.67882329  0.17882328  0.64235443  1
