# generated using pymatgen
data_Li(H3N)4
_symmetry_space_group_name_H-M   'P 1'
_cell_length_a   13.03784301
_cell_length_b   13.03784301
_cell_length_c   13.03784301
_cell_angle_alpha   109.47122063
_cell_angle_beta   109.47122063
_cell_angle_gamma   109.47122063
_symmetry_Int_Tables_number   1
_chemical_formula_structural   Li(H3N)4
_chemical_formula_sum   'Li8 H96 N32'
_cell_volume   1706.06412616
_cell_formula_units_Z   8
loop_
 _symmetry_equiv_pos_site_id
 _symmetry_equiv_pos_as_xyz
  1  'x, y, z'
loop_
 _atom_site_type_symbol
 _atom_site_label
 _atom_site_symmetry_multiplicity
 _atom_site_fract_x
 _atom_site_fract_y
 _atom_site_fract_z
 _atom_site_occupancy
  Li  Li0  1  0.50000000  0.00000000  0.75603300  1
  Li  Li1  1  0.75603300  0.50000000  0.00000000  1
  Li  Li2  1  0.00000000  0.75603300  0.50000000  1
  Li  Li3  1  0.74396700  0.74396700  0.74396700  1
  Li  Li4  1  0.25603300  0.50000000  0.00000000  1
  Li  Li5  1  0.50000000  0.00000000  0.25603300  1
  Li  Li6  1  0.00000000  0.25603300  0.50000000  1
  Li  Li7  1  0.24396700  0.24396700  0.24396700  1
  H  H8  1  0.46048303  0.04888803  0.56396981  1
  H  H9  1  0.51508178  0.45111197  0.91159500  1
  H  H10  1  0.03951697  0.60348677  0.58840500  1
  H  H11  1  0.98491822  0.89651323  0.93603019  1
  H  H12  1  0.06396981  0.54888803  0.96048303  1
  H  H13  1  0.41159500  0.95111197  0.01508178  1
  H  H14  1  0.08840500  0.10348677  0.53951697  1
  H  H15  1  0.43603019  0.39651323  0.48491822  1
  H  H16  1  0.56396981  0.46048303  0.04888803  1
  H  H17  1  0.91159500  0.51508178  0.45111197  1
  H  H18  1  0.58840500  0.03951697  0.60348677  1
  H  H19  1  0.93603019  0.98491822  0.89651323  1
  H  H20  1  0.96048303  0.06396981  0.54888803  1
  H  H21  1  0.01508178  0.41159500  0.95111197  1
  H  H22  1  0.53951697  0.08840500  0.10348677  1
  H  H23  1  0.48491822  0.43603019  0.39651323  1
  H  H24  1  0.04888803  0.56396981  0.46048303  1
  H  H25  1  0.45111197  0.91159500  0.51508178  1
  H  H26  1  0.60348677  0.58840500  0.03951697  1
  H  H27  1  0.89651323  0.93603019  0.98491822  1
  H  H28  1  0.54888803  0.96048303  0.06396981  1
  H  H29  1  0.95111197  0.01508178  0.41159500  1
  H  H30  1  0.10348677  0.53951697  0.08840500  1
  H  H31  1  0.39651323  0.48491822  0.43603019  1
  H  H32  1  0.42479293  0.16874315  0.77765584  1
  H  H33  1  0.60891270  0.33125685  0.75604978  1
  H  H34  1  0.07520707  0.85286291  0.74395022  1
  H  H35  1  0.89108730  0.64713709  0.72234416  1
  H  H36  1  0.27765584  0.66874315  0.92479293  1
  H  H37  1  0.25604978  0.83125685  0.10891270  1
  H  H38  1  0.24395022  0.35286291  0.57520707  1
  H  H39  1  0.22234416  0.14713709  0.39108730  1
  H  H40  1  0.77765584  0.42479293  0.16874315  1
  H  H41  1  0.75604978  0.60891270  0.33125685  1
  H  H42  1  0.74395022  0.07520707  0.85286291  1
  H  H43  1  0.72234416  0.89108730  0.64713709  1
  H  H44  1  0.92479293  0.27765584  0.66874315  1
  H  H45  1  0.10891270  0.25604978  0.83125685  1
  H  H46  1  0.57520707  0.24395022  0.35286291  1
  H  H47  1  0.39108730  0.22234416  0.14713709  1
  H  H48  1  0.16874315  0.77765584  0.42479293  1
  H  H49  1  0.33125685  0.75604978  0.60891270  1
  H  H50  1  0.85286291  0.74395022  0.07520707  1
  H  H51  1  0.64713709  0.72234416  0.89108730  1
  H  H52  1  0.66874315  0.92479293  0.27765584  1
  H  H53  1  0.83125685  0.10891270  0.25604978  1
  H  H54  1  0.35286291  0.57520707  0.24395022  1
  H  H55  1  0.14713709  0.39108730  0.22234416  1
  H  H56  1  0.53540353  0.21916547  0.91846046  1
  H  H57  1  0.69929499  0.28083453  0.81623806  1
  H  H58  1  0.96459647  0.88305693  0.68376194  1
  H  H59  1  0.80070501  0.61694307  0.58153954  1
  H  H60  1  0.41846046  0.71916547  0.03540353  1
  H  H61  1  0.31623806  0.78083453  0.19929499  1
  H  H62  1  0.18376194  0.38305693  0.46459647  1
  H  H63  1  0.08153954  0.11694307  0.30070501  1
  H  H64  1  0.91846046  0.53540353  0.21916547  1
  H  H65  1  0.81623806  0.69929499  0.28083453  1
  H  H66  1  0.68376194  0.96459647  0.88305693  1
  H  H67  1  0.58153954  0.80070501  0.61694307  1
  H  H68  1  0.03540353  0.41846046  0.71916547  1
  H  H69  1  0.19929499  0.31623806  0.78083453  1
  H  H70  1  0.46459647  0.18376194  0.38305693  1
  H  H71  1  0.30070501  0.08153954  0.11694307  1
  H  H72  1  0.21916547  0.91846046  0.53540353  1
  H  H73  1  0.28083453  0.81623806  0.69929499  1
  H  H74  1  0.88305693  0.68376194  0.96459647  1
  H  H75  1  0.61694307  0.58153954  0.80070501  1
  H  H76  1  0.71916547  0.03540353  0.41846046  1
  H  H77  1  0.78083453  0.19929499  0.31623806  1
  H  H78  1  0.38305693  0.46459647  0.18376194  1
  H  H79  1  0.11694307  0.30070501  0.08153954  1
  H  H80  1  0.39308787  0.11260613  0.86569576  1
  H  H81  1  0.75308963  0.38739387  0.78048173  1
  H  H82  1  0.10691213  0.97260789  0.71951827  1
  H  H83  1  0.74691037  0.52739211  0.63430424  1
  H  H84  1  0.36569576  0.61260613  0.89308787  1
  H  H85  1  0.28048173  0.88739387  0.25308963  1
  H  H86  1  0.21951827  0.47260789  0.60691213  1
  H  H87  1  0.13430424  0.02739211  0.24691037  1
  H  H88  1  0.86569576  0.39308787  0.11260613  1
  H  H89  1  0.78048173  0.75308963  0.38739387  1
  H  H90  1  0.71951827  0.10691213  0.97260789  1
  H  H91  1  0.63430424  0.74691037  0.52739211  1
  H  H92  1  0.89308787  0.36569576  0.61260613  1
  H  H93  1  0.25308963  0.28048173  0.88739387  1
  H  H94  1  0.60691213  0.21951827  0.47260789  1
  H  H95  1  0.24691037  0.13430424  0.02739211  1
  H  H96  1  0.11260613  0.86569576  0.39308787  1
  H  H97  1  0.38739387  0.78048173  0.75308963  1
  H  H98  1  0.97260789  0.71951827  0.10691213  1
  H  H99  1  0.52739211  0.63430424  0.74691037  1
  H  H100  1  0.61260613  0.89308787  0.36569576  1
  H  H101  1  0.88739387  0.25308963  0.28048173  1
  H  H102  1  0.47260789  0.60691213  0.21951827  1
  H  H103  1  0.02739211  0.24691037  0.13430424  1
  N  N104  1  0.50000000  0.00000000  0.59252224  1
  N  N105  1  0.59252224  0.50000000  0.00000000  1
  N  N106  1  0.00000000  0.59252224  0.50000000  1
  N  N107  1  0.90747776  0.90747776  0.90747776  1
  N  N108  1  0.09252224  0.50000000  0.00000000  1
  N  N109  1  0.50000000  0.00000000  0.09252224  1
  N  N110  1  0.00000000  0.09252224  0.50000000  1
  N  N111  1  0.40747776  0.40747776  0.40747776  1
  N  N112  1  0.45878680  0.13927771  0.83871919  1
  N  N113  1  0.69944147  0.36072229  0.81950909  1
  N  N114  1  0.04121320  0.87993239  0.68049091  1
  N  N115  1  0.80055853  0.62006761  0.66128081  1
  N  N116  1  0.33871919  0.63927771  0.95878680  1
  N  N117  1  0.31950909  0.86072229  0.19944147  1
  N  N118  1  0.18049091  0.37993239  0.54121320  1
  N  N119  1  0.16128081  0.12006761  0.30055853  1
  N  N120  1  0.83871919  0.45878680  0.13927771  1
  N  N121  1  0.81950909  0.69944147  0.36072229  1
  N  N122  1  0.68049091  0.04121320  0.87993239  1
  N  N123  1  0.66128081  0.80055853  0.62006761  1
  N  N124  1  0.95878680  0.33871919  0.63927771  1
  N  N125  1  0.19944147  0.31950909  0.86072229  1
  N  N126  1  0.54121320  0.18049091  0.37993239  1
  N  N127  1  0.30055853  0.16128081  0.12006761  1
  N  N128  1  0.13927771  0.83871919  0.45878680  1
  N  N129  1  0.36072229  0.81950909  0.69944147  1
  N  N130  1  0.87993239  0.68049091  0.04121320  1
  N  N131  1  0.62006761  0.66128081  0.80055853  1
  N  N132  1  0.63927771  0.95878680  0.33871919  1
  N  N133  1  0.86072229  0.19944147  0.31950909  1
  N  N134  1  0.37993239  0.54121320  0.18049091  1
  N  N135  1  0.12006761  0.30055853  0.16128081  1
