# generated using pymatgen
data_Na2PH15O11
_symmetry_space_group_name_H-M   'P 1'
_cell_length_a   10.51072260
_cell_length_b   11.10670271
_cell_length_c   9.34749192
_cell_angle_alpha   90.00000000
_cell_angle_beta   95.72916382
_cell_angle_gamma   90.00000000
_symmetry_Int_Tables_number   1
_chemical_formula_structural   Na2PH15O11
_chemical_formula_sum   'Na8 P4 H60 O44'
_cell_volume   1085.77048967
_cell_formula_units_Z   4
loop_
 _symmetry_equiv_pos_site_id
 _symmetry_equiv_pos_as_xyz
  1  'x, y, z'
loop_
 _atom_site_type_symbol
 _atom_site_label
 _atom_site_symmetry_multiplicity
 _atom_site_fract_x
 _atom_site_fract_y
 _atom_site_fract_z
 _atom_site_occupancy
  Na  Na0  1  0.52501233  0.89454363  0.35900259  1
  Na  Na1  1  0.02501233  0.60545637  0.85900259  1
  Na  Na2  1  0.47498767  0.10545637  0.64099741  1
  Na  Na3  1  0.97498767  0.39454363  0.14099741  1
  Na  Na4  1  0.52395111  0.60584388  0.36657883  1
  Na  Na5  1  0.02395111  0.89415612  0.86657883  1
  Na  Na6  1  0.47604889  0.39415612  0.63342117  1
  Na  Na7  1  0.97604889  0.10584388  0.13342117  1
  P  P8  1  0.10472622  0.73732091  0.39637700  1
  P  P9  1  0.60472622  0.76267909  0.89637700  1
  P  P10  1  0.89527378  0.26267909  0.60362300  1
  P  P11  1  0.39527378  0.23732091  0.10362300  1
  H  H12  1  0.12980680  0.57056017  0.53509311  1
  H  H13  1  0.62980680  0.92943983  0.03509311  1
  H  H14  1  0.87019320  0.42943983  0.46490689  1
  H  H15  1  0.37019320  0.07056017  0.96490689  1
  H  H16  1  0.66669146  0.91616475  0.65073236  1
  H  H17  1  0.16669146  0.58383525  0.15073236  1
  H  H18  1  0.33330854  0.08383525  0.34926764  1
  H  H19  1  0.83330854  0.41616475  0.84926764  1
  H  H20  1  0.72090866  0.03076475  0.57161011  1
  H  H21  1  0.22090866  0.46923525  0.07161011  1
  H  H22  1  0.27909134  0.96923525  0.42838989  1
  H  H23  1  0.77909134  0.53076475  0.92838989  1
  H  H24  1  0.49589581  0.75574959  0.61289528  1
  H  H25  1  0.99589581  0.74425041  0.11289528  1
  H  H26  1  0.50410419  0.24425041  0.38710472  1
  H  H27  1  0.00410419  0.25574959  0.88710472  1
  H  H28  1  0.35537153  0.77171332  0.52906154  1
  H  H29  1  0.85537153  0.72828668  0.02906154  1
  H  H30  1  0.64462847  0.22828668  0.47093846  1
  H  H31  1  0.14462847  0.27171332  0.97093846  1
  H  H32  1  0.77560139  0.75857771  0.34776943  1
  H  H33  1  0.27560139  0.74142229  0.84776943  1
  H  H34  1  0.22439861  0.24142229  0.65223057  1
  H  H35  1  0.72439861  0.25857771  0.15223057  1
  H  H36  1  0.69047099  0.73389545  0.20250116  1
  H  H37  1  0.19047099  0.76610455  0.70250116  1
  H  H38  1  0.30952901  0.26610455  0.79749884  1
  H  H39  1  0.80952901  0.23389545  0.29749884  1
  H  H40  1  0.60002399  0.09014375  0.16161995  1
  H  H41  1  0.10002399  0.40985625  0.66161995  1
  H  H42  1  0.39997601  0.90985625  0.83838005  1
  H  H43  1  0.89997601  0.59014375  0.33838005  1
  H  H44  1  0.71731596  0.01089834  0.23386948  1
  H  H45  1  0.21731596  0.48910166  0.73386948  1
  H  H46  1  0.28268404  0.98910166  0.76613052  1
  H  H47  1  0.78268404  0.51089834  0.26613052  1
  H  H48  1  0.31676628  0.74875426  0.21024599  1
  H  H49  1  0.81676628  0.75124574  0.71024599  1
  H  H50  1  0.68323372  0.25124574  0.78975401  1
  H  H51  1  0.18323372  0.24875426  0.28975401  1
  H  H52  1  0.41799733  0.75048585  0.09304045  1
  H  H53  1  0.91799733  0.74951415  0.59304045  1
  H  H54  1  0.58200267  0.24951415  0.90695955  1
  H  H55  1  0.08200267  0.25048585  0.40695955  1
  H  H56  1  0.64768404  0.60765649  0.65669117  1
  H  H57  1  0.14768404  0.89234351  0.15669117  1
  H  H58  1  0.35231596  0.39234351  0.34330883  1
  H  H59  1  0.85231596  0.10765649  0.84330883  1
  H  H60  1  0.71499060  0.49276486  0.59249514  1
  H  H61  1  0.21499060  0.00723514  0.09249514  1
  H  H62  1  0.28500940  0.50723514  0.40750486  1
  H  H63  1  0.78500940  0.99276486  0.90750486  1
  H  H64  1  0.58117249  0.41961630  0.14461746  1
  H  H65  1  0.08117249  0.08038370  0.64461746  1
  H  H66  1  0.41882751  0.58038370  0.85538254  1
  H  H67  1  0.91882751  0.91961630  0.35538254  1
  H  H68  1  0.62080516  0.55465221  0.10147805  1
  H  H69  1  0.12080516  0.94534779  0.60147805  1
  H  H70  1  0.37919484  0.44534779  0.89852195  1
  H  H71  1  0.87919484  0.05465221  0.39852195  1
  O  O72  1  0.14564194  0.75100922  0.24302611  1
  O  O73  1  0.64564194  0.74899078  0.74302611  1
  O  O74  1  0.85435806  0.24899078  0.75697389  1
  O  O75  1  0.35435806  0.25100922  0.25697389  1
  O  O76  1  0.95916242  0.75213492  0.40096484  1
  O  O77  1  0.45916242  0.74786508  0.90096484  1
  O  O78  1  0.04083758  0.24786508  0.59903516  1
  O  O79  1  0.54083758  0.25213492  0.09903516  1
  O  O80  1  0.18202614  0.81818560  0.50818067  1
  O  O81  1  0.68202614  0.68181440  0.00818067  1
  O  O82  1  0.81797386  0.18181440  0.49181933  1
  O  O83  1  0.31797386  0.31818560  0.99181933  1
  O  O84  1  0.14111506  0.59831787  0.43457663  1
  O  O85  1  0.64111506  0.90168213  0.93457663  1
  O  O86  1  0.85888494  0.40168213  0.56542337  1
  O  O87  1  0.35888494  0.09831787  0.06542337  1
  O  O88  1  0.64615940  0.97877108  0.57751624  1
  O  O89  1  0.14615940  0.52122892  0.07751624  1
  O  O90  1  0.35384060  0.02122892  0.42248376  1
  O  O91  1  0.85384060  0.47877108  0.92248376  1
  O  O92  1  0.44553979  0.75312516  0.51805474  1
  O  O93  1  0.94553979  0.74687484  0.01805474  1
  O  O94  1  0.55446021  0.24687484  0.48194526  1
  O  O95  1  0.05446021  0.25312516  0.98194526  1
  O  O96  1  0.68659508  0.74922085  0.30632553  1
  O  O97  1  0.18659508  0.75077915  0.80632553  1
  O  O98  1  0.31340492  0.25077915  0.69367447  1
  O  O99  1  0.81340492  0.24922085  0.19367447  1
  O  O100  1  0.62711009  0.00765563  0.19080781  1
  O  O101  1  0.12711009  0.49234437  0.69080781  1
  O  O102  1  0.37288991  0.99234437  0.80919219  1
  O  O103  1  0.87288991  0.50765563  0.30919219  1
  O  O104  1  0.40906496  0.74974144  0.19741650  1
  O  O105  1  0.90906496  0.75025856  0.69741650  1
  O  O106  1  0.59093504  0.25025856  0.80258350  1
  O  O107  1  0.09093504  0.24974144  0.30258350  1
  O  O108  1  0.63340207  0.53698145  0.59251398  1
  O  O109  1  0.13340207  0.96301855  0.09251398  1
  O  O110  1  0.36659793  0.46301855  0.40748602  1
  O  O111  1  0.86659793  0.03698145  0.90748602  1
  O  O112  1  0.61314268  0.49837605  0.18253210  1
  O  O113  1  0.11314268  0.00162395  0.68253210  1
  O  O114  1  0.38685732  0.50162395  0.81746790  1
  O  O115  1  0.88685732  0.99837605  0.31746790  1
