# generated using pymatgen
data_Na2Ni(H7N3)2
_symmetry_space_group_name_H-M   'P 1'
_cell_length_a   8.55839790
_cell_length_b   8.55839790
_cell_length_c   8.55839790
_cell_angle_alpha   116.07414096
_cell_angle_beta   116.07414096
_cell_angle_gamma   96.94591448
_symmetry_Int_Tables_number   1
_chemical_formula_structural   Na2Ni(H7N3)2
_chemical_formula_sum   'Na4 Ni2 H28 N12'
_cell_volume   465.85737768
_cell_formula_units_Z   2
loop_
 _symmetry_equiv_pos_site_id
 _symmetry_equiv_pos_as_xyz
  1  'x, y, z'
loop_
 _atom_site_type_symbol
 _atom_site_label
 _atom_site_symmetry_multiplicity
 _atom_site_fract_x
 _atom_site_fract_y
 _atom_site_fract_z
 _atom_site_occupancy
  Na  Na0  1  0.73517492  0.60038310  0.33555803  1
  Na  Na1  1  0.39961690  0.73517492  0.13479182  1
  Na  Na2  1  0.60038310  0.26482508  0.86520818  1
  Na  Na3  1  0.26482508  0.39961690  0.66444197  1
  Ni  Ni4  1  0.32419910  0.32419910  0.00000000  1
  Ni  Ni5  1  0.67580090  0.67580090  0.00000000  1
  H  H6  1  0.91181498  0.14584991  0.20154819  1
  H  H7  1  0.64368545  0.91422231  0.55790776  1
  H  H8  1  0.90506422  0.52357887  0.03062329  1
  H  H9  1  0.50704443  0.12555908  0.03062329  1
  H  H10  1  0.28973421  0.08818502  0.23403493  1
  H  H11  1  0.54113709  0.26519360  0.25345617  1
  H  H12  1  0.98826257  0.71231909  0.25345617  1
  H  H13  1  0.91422231  0.35631455  0.27053686  1
  H  H14  1  0.85415009  0.05569928  0.76596507  1
  H  H15  1  0.47642113  0.50704443  0.38148535  1
  H  H16  1  0.87444092  0.90506422  0.38148535  1
  H  H17  1  0.05569928  0.28973421  0.20154819  1
  H  H18  1  0.71231909  0.45886291  0.72405652  1
  H  H19  1  0.26519360  0.01173743  0.72405652  1
  H  H20  1  0.28768091  0.54113709  0.27594348  1
  H  H21  1  0.73480640  0.98826257  0.27594348  1
  H  H22  1  0.94430072  0.71026579  0.79845181  1
  H  H23  1  0.12555908  0.09493578  0.61851465  1
  H  H24  1  0.52357887  0.49295557  0.61851465  1
  H  H25  1  0.14584991  0.94430072  0.23403493  1
  H  H26  1  0.08577769  0.64368545  0.72946314  1
  H  H27  1  0.45886291  0.73480640  0.74654383  1
  H  H28  1  0.01173743  0.28768091  0.74654383  1
  H  H29  1  0.71026579  0.91181498  0.76596507  1
  H  H30  1  0.09493578  0.47642113  0.96937671  1
  H  H31  1  0.49295557  0.87444092  0.96937671  1
  H  H32  1  0.35631455  0.08577769  0.44209224  1
  H  H33  1  0.08818502  0.85415009  0.79845181  1
  N  N34  1  0.86555872  0.59644842  0.12994388  1
  N  N35  1  0.53349447  0.26438416  0.12994388  1
  N  N36  1  0.00185587  0.28397521  0.28583107  1
  N  N37  1  0.40355158  0.53349447  0.26911031  1
  N  N38  1  0.73561584  0.86555872  0.26911031  1
  N  N39  1  0.71602479  0.00185587  0.71788066  1
  N  N40  1  0.28397521  0.99814413  0.28211934  1
  N  N41  1  0.59644842  0.46650553  0.73088969  1
  N  N42  1  0.26438416  0.13444128  0.73088969  1
  N  N43  1  0.99814413  0.71602479  0.71416893  1
  N  N44  1  0.13444128  0.40355158  0.87005612  1
  N  N45  1  0.46650553  0.73561584  0.87005612  1
