# generated using pymatgen
data_KUP(H2O3)3
_symmetry_space_group_name_H-M   'P 1'
_cell_length_a   7.12814007
_cell_length_b   7.08863637
_cell_length_c   18.07864727
_cell_angle_alpha   90.00000000
_cell_angle_beta   90.00000000
_cell_angle_gamma   90.00000000
_symmetry_Int_Tables_number   1
_chemical_formula_structural   KUP(H2O3)3
_chemical_formula_sum   'K4 U4 P4 H24 O36'
_cell_volume   913.49222473
_cell_formula_units_Z   4
loop_
 _symmetry_equiv_pos_site_id
 _symmetry_equiv_pos_as_xyz
  1  'x, y, z'
loop_
 _atom_site_type_symbol
 _atom_site_label
 _atom_site_symmetry_multiplicity
 _atom_site_fract_x
 _atom_site_fract_y
 _atom_site_fract_z
 _atom_site_occupancy
  K  K0  1  0.35564476  0.97485197  0.81867199  1
  K  K1  1  0.85564476  0.02514803  0.18132801  1
  K  K2  1  0.85564476  0.47485197  0.68132801  1
  K  K3  1  0.35564476  0.52514803  0.31867199  1
  U  U4  1  0.25532083  0.25121686  0.55015844  1
  U  U5  1  0.75532083  0.74878314  0.44984156  1
  U  U6  1  0.75532083  0.75121686  0.94984156  1
  U  U7  1  0.25532083  0.24878314  0.05015844  1
  P  P8  1  0.75353307  0.25082117  0.49934289  1
  P  P9  1  0.25353307  0.74917883  0.50065711  1
  P  P10  1  0.25353307  0.75082117  0.00065711  1
  P  P11  1  0.75353307  0.24917883  0.99934289  1
  H  H12  1  0.28747587  0.46453926  0.81426621  1
  H  H13  1  0.78747587  0.53546074  0.18573379  1
  H  H14  1  0.78747587  0.96453926  0.68573379  1
  H  H15  1  0.28747587  0.03546074  0.31426621  1
  H  H16  1  0.04521228  0.29175787  0.81792419  1
  H  H17  1  0.54521228  0.70824213  0.18207581  1
  H  H18  1  0.54521228  0.79175787  0.68207581  1
  H  H19  1  0.04521228  0.20824213  0.31792419  1
  H  H20  1  0.14302639  0.57206094  0.86306097  1
  H  H21  1  0.64302639  0.42793906  0.13693903  1
  H  H22  1  0.64302639  0.07206094  0.63693903  1
  H  H23  1  0.14302639  0.92793906  0.36306097  1
  H  H24  1  0.59307612  0.35795119  0.85626079  1
  H  H25  1  0.09307612  0.64204881  0.14373921  1
  H  H26  1  0.09307612  0.85795119  0.64373921  1
  H  H27  1  0.59307612  0.14204881  0.35626079  1
  H  H28  1  0.90546363  0.14162931  0.85036993  1
  H  H29  1  0.40546363  0.85837069  0.14963007  1
  H  H30  1  0.40546363  0.64162931  0.64963007  1
  H  H31  1  0.90546363  0.35837069  0.35036993  1
  H  H32  1  0.55288207  0.36346090  0.77072008  1
  H  H33  1  0.05288207  0.63653910  0.22927992  1
  H  H34  1  0.05288207  0.86346090  0.72927992  1
  H  H35  1  0.55288207  0.13653910  0.27072008  1
  O  O36  1  0.24613784  0.24960922  0.65080529  1
  O  O37  1  0.74613784  0.75039078  0.34919471  1
  O  O38  1  0.74613784  0.74960922  0.84919471  1
  O  O39  1  0.24613784  0.25039078  0.15080529  1
  O  O40  1  0.26296627  0.25804123  0.44969949  1
  O  O41  1  0.76296627  0.74195877  0.55030051  1
  O  O42  1  0.76296627  0.75804123  0.05030051  1
  O  O43  1  0.26296627  0.24195877  0.94969949  1
  O  O44  1  0.58181117  0.25249157  0.55247485  1
  O  O45  1  0.08181117  0.74750843  0.44752515  1
  O  O46  1  0.08181117  0.75249157  0.94752515  1
  O  O47  1  0.58181117  0.24750843  0.05247485  1
  O  O48  1  0.25056729  0.57493627  0.55280392  1
  O  O49  1  0.75056729  0.42506373  0.44719608  1
  O  O50  1  0.75056729  0.07493627  0.94719608  1
  O  O51  1  0.25056729  0.92506373  0.05280392  1
  O  O52  1  0.24884765  0.92657529  0.55105040  1
  O  O53  1  0.74884765  0.07342471  0.44894960  1
  O  O54  1  0.74884765  0.42657529  0.94894960  1
  O  O55  1  0.24884765  0.57342471  0.05105040  1
  O  O56  1  0.93215408  0.25179519  0.54828635  1
  O  O57  1  0.43215408  0.74820481  0.45171365  1
  O  O58  1  0.43215408  0.75179519  0.95171365  1
  O  O59  1  0.93215408  0.24820481  0.04828635  1
  O  O60  1  0.15795795  0.51555821  0.81395141  1
  O  O61  1  0.65795795  0.48444179  0.18604859  1
  O  O62  1  0.65795795  0.01555821  0.68604859  1
  O  O63  1  0.15795795  0.98444179  0.31395141  1
  O  O64  1  0.50051321  0.32546677  0.81798209  1
  O  O65  1  0.00051321  0.67453323  0.18201791  1
  O  O66  1  0.00051321  0.82546677  0.68201791  1
  O  O67  1  0.50051321  0.17453323  0.31798209  1
  O  O68  1  0.98440951  0.16814771  0.80731743  1
  O  O69  1  0.48440951  0.83185229  0.19268257  1
  O  O70  1  0.48440951  0.66814771  0.69268257  1
  O  O71  1  0.98440951  0.33185229  0.30731743  1
