# generated using pymatgen
data_CaU2Si2H12O17
_symmetry_space_group_name_H-M   'P 1'
_cell_length_a   16.04077018
_cell_length_b   7.03793177
_cell_length_c   6.72690972
_cell_angle_alpha   90.00009375
_cell_angle_beta   97.56060567
_cell_angle_gamma   90.00025321
_symmetry_Int_Tables_number   1
_chemical_formula_structural   CaU2Si2H12O17
_chemical_formula_sum   'Ca2 U4 Si4 H24 O34'
_cell_volume   752.82443703
_cell_formula_units_Z   2
loop_
 _symmetry_equiv_pos_site_id
 _symmetry_equiv_pos_as_xyz
  1  'x, y, z'
loop_
 _atom_site_type_symbol
 _atom_site_label
 _atom_site_symmetry_multiplicity
 _atom_site_fract_x
 _atom_site_fract_y
 _atom_site_fract_z
 _atom_site_occupancy
  Ca  Ca0  1  0.23326116  0.18122186  0.73173540  1
  Ca  Ca1  1  0.76673880  0.68122054  0.26826271  1
  U  U2  1  0.99309872  0.28608750  0.86157468  1
  U  U3  1  0.00693443  0.78609116  0.13842316  1
  U  U4  1  0.50408330  0.72131160  0.13600413  1
  U  U5  1  0.49586435  0.22129687  0.86398615  1
  Si  Si6  1  0.96427768  0.78580611  0.65804868  1
  Si  Si7  1  0.03572727  0.28580461  0.34195223  1
  Si  Si8  1  0.53275605  0.22510950  0.34026471  1
  Si  Si9  1  0.46723924  0.72511008  0.65973421  1
  H  H10  1  0.82684847  0.85850228  0.65445616  1
  H  H11  1  0.17315160  0.35850424  0.34554230  1
  H  H12  1  0.34295781  0.86258062  0.53054504  1
  H  H13  1  0.65704354  0.36258112  0.46945648  1
  H  H14  1  0.12970442  0.83756571  0.57960397  1
  H  H15  1  0.87029721  0.33756603  0.42039895  1
  H  H16  1  0.20962765  0.74676259  0.70495061  1
  H  H17  1  0.79037227  0.24676115  0.29504925  1
  H  H18  1  0.73380677  0.03109446  0.03904209  1
  H  H19  1  0.26619368  0.53109235  0.96095943  1
  H  H20  1  0.31201796  0.56954619  0.76841107  1
  H  H21  1  0.68798279  0.06954580  0.23159099  1
  H  H22  1  0.62713412  0.66406700  0.53326630  1
  H  H23  1  0.37286578  0.16406648  0.46673484  1
  H  H24  1  0.70918148  0.60678442  0.68773480  1
  H  H25  1  0.29081934  0.10678509  0.31226566  1
  H  H26  1  0.20592626  0.94338121  0.08284196  1
  H  H27  1  0.79407338  0.44338153  0.91715697  1
  H  H28  1  0.30335723  0.92383672  0.07226670  1
  H  H29  1  0.69664403  0.42383498  0.92773238  1
  H  H30  1  0.19392784  0.62328137  0.19781916  1
  H  H31  1  0.80607167  0.12327843  0.80218051  1
  H  H32  1  0.28361993  0.57843810  0.30867817  1
  H  H33  1  0.71638028  0.07843712  0.69132112  1
  O  O34  1  0.87708817  0.29812170  0.86317468  1
  O  O35  1  0.12288848  0.79811666  0.13682727  1
  O  O36  1  0.61952285  0.69843679  0.14565030  1
  O  O37  1  0.38050602  0.19843979  0.85435010  1
  O  O38  1  0.10827680  0.26681908  0.86696115  1
  O  O39  1  0.89169864  0.76680934  0.13303674  1
  O  O40  1  0.38878629  0.74540926  0.12142512  1
  O  O41  1  0.61124027  0.24541738  0.87858092  1
  O  O42  1  0.98173032  0.96307449  0.81781194  1
  O  O43  1  0.01826793  0.46307642  0.18218868  1
  O  O44  1  0.52004491  0.04224418  0.18795212  1
  O  O45  1  0.47995656  0.54224260  0.81205064  1
  O  O46  1  0.98953199  0.60897688  0.81483603  1
  O  O47  1  0.01046824  0.10897286  0.18516447  1
  O  O48  1  0.50067401  0.39585853  0.18121865  1
  O  O49  1  0.49932987  0.89585912  0.81878307  1
  O  O50  1  0.02106939  0.78778949  0.47475486  1
  O  O51  1  0.97892681  0.28778746  0.52524489  1
  O  O52  1  0.47813309  0.21415697  0.52694690  1
  O  O53  1  0.52187142  0.71415735  0.47305079  1
  O  O54  1  0.86206762  0.78585381  0.56857263  1
  O  O55  1  0.13792914  0.28585470  0.43142523  1
  O  O56  1  0.63542975  0.23741041  0.41864516  1
  O  O57  1  0.36457499  0.73740615  0.58135883  1
  O  O58  1  0.18632673  0.86861349  0.64865896  1
  O  O59  1  0.81367140  0.36861693  0.35133967  1
  O  O60  1  0.25955014  0.52253701  0.81146483  1
  O  O61  1  0.74045007  0.02253905  0.18853308  1
  O  O62  1  0.31371056  0.11611249  0.45675814  1
  O  O63  1  0.68629121  0.61611082  0.54324450  1
  O  O64  1  0.25673208  0.01726550  0.06032318  1
  O  O65  1  0.74326656  0.51725969  0.93967566  1
  O  O66  1  0.23686093  0.52022902  0.22129417  1
  O  O67  1  0.76314027  0.02022975  0.77870566  1
