# generated using pymatgen
data_NaP3H10(NO5)2
_symmetry_space_group_name_H-M   'P 1'
_cell_length_a   13.47897975
_cell_length_b   11.79001628
_cell_length_c   6.89512000
_cell_angle_alpha   90.00000000
_cell_angle_beta   101.89360084
_cell_angle_gamma   90.00000000
_symmetry_Int_Tables_number   1
_chemical_formula_structural   NaP3H10(NO5)2
_chemical_formula_sum   'Na4 P12 H40 N8 O40'
_cell_volume   1072.23083120
_cell_formula_units_Z   4
loop_
 _symmetry_equiv_pos_site_id
 _symmetry_equiv_pos_as_xyz
  1  'x, y, z'
loop_
 _atom_site_type_symbol
 _atom_site_label
 _atom_site_symmetry_multiplicity
 _atom_site_fract_x
 _atom_site_fract_y
 _atom_site_fract_z
 _atom_site_occupancy
  Na  Na0  1  0.28237839  0.70156578  0.42219511  1
  Na  Na1  1  0.78237839  0.79843422  0.92219511  1
  Na  Na2  1  0.71762161  0.29843422  0.57780489  1
  Na  Na3  1  0.21762161  0.20156578  0.07780489  1
  P  P4  1  0.15123036  0.96050505  0.32013060  1
  P  P5  1  0.65123036  0.53949495  0.82013060  1
  P  P6  1  0.84876964  0.03949495  0.67986940  1
  P  P7  1  0.34876964  0.46050505  0.17986940  1
  P  P8  1  0.85695984  0.83172007  0.45003513  1
  P  P9  1  0.35695984  0.66827993  0.95003513  1
  P  P10  1  0.14304016  0.16827993  0.54996487  1
  P  P11  1  0.64304016  0.33172007  0.04996487  1
  P  P12  1  0.01943659  0.75506555  0.24673314  1
  P  P13  1  0.51943659  0.74493445  0.74673314  1
  P  P14  1  0.98056341  0.24493445  0.75326686  1
  P  P15  1  0.48056341  0.25506555  0.25326686  1
  H  H16  1  0.16187123  0.86733784  0.68877164  1
  H  H17  1  0.66187123  0.63266216  0.18877164  1
  H  H18  1  0.83812877  0.13266216  0.31122836  1
  H  H19  1  0.33812877  0.36733784  0.81122836  1
  H  H20  1  0.06568481  0.84096452  0.81023028  1
  H  H21  1  0.56568481  0.65903548  0.31023028  1
  H  H22  1  0.93431519  0.15903548  0.18976972  1
  H  H23  1  0.43431519  0.34096452  0.68976972  1
  H  H24  1  0.18694663  0.80148786  0.91441935  1
  H  H25  1  0.68694663  0.69851214  0.41441935  1
  H  H26  1  0.81305337  0.19851214  0.08558065  1
  H  H27  1  0.31305337  0.30148786  0.58558065  1
  H  H28  1  0.34563763  0.43775100  0.59609284  1
  H  H29  1  0.84563763  0.06224900  0.09609284  1
  H  H30  1  0.65436237  0.56224900  0.40390716  1
  H  H31  1  0.15436237  0.93775100  0.90390716  1
  H  H32  1  0.43404877  0.89312389  0.38639728  1
  H  H33  1  0.93404877  0.60687611  0.88639728  1
  H  H34  1  0.56595123  0.10687611  0.61360272  1
  H  H35  1  0.06595123  0.39312389  0.11360272  1
  H  H36  1  0.00931853  0.45769132  0.28392147  1
  H  H37  1  0.50931853  0.04230868  0.78392147  1
  H  H38  1  0.99068147  0.54230868  0.71607853  1
  H  H39  1  0.49068147  0.95769132  0.21607853  1
  H  H40  1  0.38380551  0.01442578  0.26146637  1
  H  H41  1  0.88380551  0.48557422  0.76146637  1
  H  H42  1  0.61619449  0.98557422  0.73853363  1
  H  H43  1  0.11619449  0.51442578  0.23853363  1
  H  H44  1  0.12316984  0.38750313  0.35118953  1
  H  H45  1  0.62316984  0.11249687  0.85118953  1
  H  H46  1  0.87683016  0.61249687  0.64881047  1
  H  H47  1  0.37683016  0.88750313  0.14881047  1
  H  H48  1  0.32230762  0.05633305  0.78839368  1
  H  H49  1  0.82230762  0.44366695  0.28839368  1
  H  H50  1  0.67769238  0.94366695  0.21160632  1
  H  H51  1  0.17769238  0.55633305  0.71160632  1
  H  H52  1  0.34371376  0.94699134  0.68265850  1
  H  H53  1  0.84371376  0.55300866  0.18265850  1
  H  H54  1  0.65628624  0.05300866  0.31734150  1
  H  H55  1  0.15628624  0.44699134  0.81734150  1
  N  N56  1  0.14080435  0.86128774  0.82706821  1
  N  N57  1  0.64080435  0.63871226  0.32706821  1
  N  N58  1  0.85919565  0.13871226  0.17293179  1
  N  N59  1  0.35919565  0.36128774  0.67293179  1
  N  N60  1  0.07858808  0.43879121  0.24592776  1
  N  N61  1  0.57858808  0.06120879  0.74592776  1
  N  N62  1  0.92141192  0.56120879  0.75407224  1
  N  N63  1  0.42141192  0.93879121  0.25407224  1
  O  O64  1  0.30391862  0.50982877  0.34210805  1
  O  O65  1  0.80391862  0.99017123  0.84210805  1
  O  O66  1  0.69608138  0.49017123  0.65789195  1
  O  O67  1  0.19608138  0.00982877  0.15789195  1
  O  O68  1  0.28214730  0.39369809  0.01609920  1
  O  O69  1  0.78214730  0.10630191  0.51609920  1
  O  O70  1  0.71785270  0.60630191  0.98390080  1
  O  O71  1  0.21785270  0.89369809  0.48390080  1
  O  O72  1  0.09238409  0.05955916  0.41851555  1
  O  O73  1  0.59238409  0.44044084  0.91851555  1
  O  O74  1  0.90761591  0.94044084  0.58148445  1
  O  O75  1  0.40761591  0.55955916  0.08148445  1
  O  O76  1  0.44688584  0.38646180  0.28288637  1
  O  O77  1  0.94688584  0.11353820  0.78288637  1
  O  O78  1  0.55311416  0.61353820  0.71711363  1
  O  O79  1  0.05311416  0.88646180  0.21711363  1
  O  O80  1  0.19505666  0.24332979  0.42433848  1
  O  O81  1  0.69505666  0.25667021  0.92433848  1
  O  O82  1  0.80494334  0.75667021  0.57566152  1
  O  O83  1  0.30494334  0.74332979  0.07566152  1
  O  O84  1  0.20110194  0.13004326  0.74837173  1
  O  O85  1  0.70110194  0.36995674  0.24837173  1
  O  O86  1  0.79889806  0.86995674  0.25162827  1
  O  O87  1  0.29889806  0.63004326  0.75162827  1
  O  O88  1  0.46164831  0.73156509  0.93244012  1
  O  O89  1  0.96164831  0.76843491  0.43244012  1
  O  O90  1  0.53835169  0.26843491  0.06755988  1
  O  O91  1  0.03835169  0.23156509  0.56755988  1
  O  O92  1  0.05418849  0.27457227  0.94120296  1
  O  O93  1  0.55418849  0.22542773  0.44120296  1
  O  O94  1  0.94581151  0.72542773  0.05879704  1
  O  O95  1  0.44581151  0.77457227  0.55879704  1
  O  O96  1  0.10900666  0.68095972  0.31824679  1
  O  O97  1  0.60900666  0.81904028  0.81824679  1
  O  O98  1  0.89099334  0.31904028  0.68175321  1
  O  O99  1  0.39099334  0.18095972  0.18175321  1
  O  O100  1  0.12401821  0.49904910  0.71187718  1
  O  O101  1  0.62401821  0.00095090  0.21187718  1
  O  O102  1  0.87598179  0.50095090  0.28812282  1
  O  O103  1  0.37598179  0.99904910  0.78812282  1
