# generated using pymatgen
data_PrP2(HO)7
_symmetry_space_group_name_H-M   'P 1'
_cell_length_a   6.75427155
_cell_length_b   7.22104665
_cell_length_c   16.95588928
_cell_angle_alpha   90.00000000
_cell_angle_beta   90.00000000
_cell_angle_gamma   90.00000000
_symmetry_Int_Tables_number   1
_chemical_formula_structural   PrP2(HO)7
_chemical_formula_sum   'Pr4 P8 H28 O28'
_cell_volume   826.98806096
_cell_formula_units_Z   4
loop_
 _symmetry_equiv_pos_site_id
 _symmetry_equiv_pos_as_xyz
  1  'x, y, z'
loop_
 _atom_site_type_symbol
 _atom_site_label
 _atom_site_symmetry_multiplicity
 _atom_site_fract_x
 _atom_site_fract_y
 _atom_site_fract_z
 _atom_site_occupancy
  Pr  Pr0  1  0.14679964  0.33826822  0.27432276  1
  Pr  Pr1  1  0.35320036  0.66173178  0.77432276  1
  Pr  Pr2  1  0.64679964  0.16173178  0.72567724  1
  Pr  Pr3  1  0.85320036  0.83826822  0.22567724  1
  P  P4  1  0.15648946  0.10882860  0.07848178  1
  P  P5  1  0.34351054  0.89117140  0.57848178  1
  P  P6  1  0.65648946  0.39117140  0.92151822  1
  P  P7  1  0.84351054  0.60882860  0.42151822  1
  P  P8  1  0.68895556  0.33603058  0.21173818  1
  P  P9  1  0.81104444  0.66396942  0.71173818  1
  P  P10  1  0.18895556  0.16396942  0.78826182  1
  P  P11  1  0.31104444  0.83603058  0.28826182  1
  H  H12  1  0.33616297  0.06784928  0.03898983  1
  H  H13  1  0.16383703  0.93215072  0.53898983  1
  H  H14  1  0.83616297  0.43215072  0.96101017  1
  H  H15  1  0.66383703  0.56784928  0.46101017  1
  H  H16  1  0.02514898  0.15933027  0.01676965  1
  H  H17  1  0.47485102  0.84066973  0.51676965  1
  H  H18  1  0.52514898  0.34066973  0.98323035  1
  H  H19  1  0.97485102  0.65933027  0.48323035  1
  H  H20  1  0.63961488  0.30378849  0.13180494  1
  H  H21  1  0.86038512  0.69621151  0.63180494  1
  H  H22  1  0.13961488  0.19621151  0.86819506  1
  H  H23  1  0.36038512  0.80378849  0.36819506  1
  H  H24  1  0.26149250  0.34243172  0.46045683  1
  H  H25  1  0.23850750  0.65756828  0.96045683  1
  H  H26  1  0.76149250  0.15756828  0.53954317  1
  H  H27  1  0.73850750  0.84243172  0.03954317  1
  H  H28  1  0.44139634  0.25045062  0.41235429  1
  H  H29  1  0.05860366  0.74954938  0.91235429  1
  H  H30  1  0.94139634  0.24954938  0.58764571  1
  H  H31  1  0.55860366  0.75045062  0.08764571  1
  H  H32  1  0.22350385  0.48598363  0.58760046  1
  H  H33  1  0.27649615  0.51401637  0.08760046  1
  H  H34  1  0.72350385  0.01401637  0.41239954  1
  H  H35  1  0.77649615  0.98598363  0.91239954  1
  H  H36  1  0.26278562  0.27145158  0.58507888  1
  H  H37  1  0.23721438  0.72854842  0.08507888  1
  H  H38  1  0.76278562  0.22854842  0.41492112  1
  H  H39  1  0.73721438  0.77145158  0.91492112  1
  O  O40  1  0.18833728  0.27764514  0.13077095  1
  O  O41  1  0.31166272  0.72235486  0.63077095  1
  O  O42  1  0.68833728  0.22235486  0.86922905  1
  O  O43  1  0.81166272  0.77764514  0.36922905  1
  O  O44  1  0.08238075  0.92858121  0.11539580  1
  O  O45  1  0.41761925  0.07141879  0.61539580  1
  O  O46  1  0.58238075  0.57141879  0.88460420  1
  O  O47  1  0.91761925  0.42858121  0.38460420  1
  O  O48  1  0.83008155  0.50501151  0.21310155  1
  O  O49  1  0.66991845  0.49498849  0.71310155  1
  O  O50  1  0.33008155  0.99498849  0.78689845  1
  O  O51  1  0.16991845  0.00501151  0.28689845  1
  O  O52  1  0.81930823  0.17069485  0.23926424  1
  O  O53  1  0.68069177  0.82930515  0.73926424  1
  O  O54  1  0.31930823  0.32930515  0.76073576  1
  O  O55  1  0.18069177  0.67069485  0.26073576  1
  O  O56  1  0.49854026  0.35957001  0.25767586  1
  O  O57  1  0.00145974  0.64042999  0.75767586  1
  O  O58  1  0.99854026  0.14042999  0.74232414  1
  O  O59  1  0.50145974  0.85957001  0.24232414  1
  O  O60  1  0.31374487  0.31647989  0.40700056  1
  O  O61  1  0.18625513  0.68352011  0.90700056  1
  O  O62  1  0.81374487  0.18352011  0.59299944  1
  O  O63  1  0.68625513  0.81647989  0.09299944  1
  O  O64  1  0.17916592  0.37000735  0.56216602  1
  O  O65  1  0.32083408  0.62999265  0.06216602  1
  O  O66  1  0.67916592  0.12999265  0.43783398  1
  O  O67  1  0.82083408  0.87000735  0.93783398  1
