# generated using pymatgen
data_CsNa2H4Cl3O2
_symmetry_space_group_name_H-M   'P 1'
_cell_length_a   9.32758295
_cell_length_b   9.09781246
_cell_length_c   9.31617072
_cell_angle_alpha   83.93087997
_cell_angle_beta   143.15422997
_cell_angle_gamma   108.11390754
_symmetry_Int_Tables_number   1
_chemical_formula_structural   CsNa2H4Cl3O2
_chemical_formula_sum   'Cs2 Na4 H8 Cl6 O4'
_cell_volume   436.15526761
_cell_formula_units_Z   2
loop_
 _symmetry_equiv_pos_site_id
 _symmetry_equiv_pos_as_xyz
  1  'x, y, z'
loop_
 _atom_site_type_symbol
 _atom_site_label
 _atom_site_symmetry_multiplicity
 _atom_site_fract_x
 _atom_site_fract_y
 _atom_site_fract_z
 _atom_site_occupancy
  Cs  Cs0  1  0.49578831  0.00054167  0.99230502  1
  Cs  Cs1  1  0.49560163  0.49760104  0.49346344  1
  Na  Na2  1  0.50194942  0.50518880  0.99924506  1
  Na  Na3  1  0.99965331  0.00149589  0.99656695  1
  Na  Na4  1  0.92090131  0.24891575  0.66761364  1
  Na  Na5  1  0.09260814  0.75048016  0.33946003  1
  H  H6  1  0.16915139  0.59383083  0.92574216  1
  H  H7  1  0.16479998  0.09604807  0.42085779  1
  H  H8  1  0.83315835  0.40630632  0.07213548  1
  H  H9  1  0.83332397  0.90666878  0.57456216  1
  H  H10  1  0.04278252  0.59108796  0.67558633  1
  H  H11  1  0.40927044  0.09474657  0.53873607  1
  H  H12  1  0.94418207  0.40346382  0.31359547  1
  H  H13  1  0.58434466  0.90370279  0.45101649  1
  Cl  Cl14  1  0.18765332  0.75879995  0.11390055  1
  Cl  Cl15  1  0.15039907  0.25988929  0.57354169  1
  Cl  Cl16  1  0.81029081  0.24055725  0.88607686  1
  Cl  Cl17  1  0.85103503  0.74701826  0.42585351  1
  Cl  Cl18  1  0.42770143  0.24659869  0.17998551  1
  Cl  Cl19  1  0.56925868  0.75141868  0.81467943  1
  O  O20  1  0.13488249  0.53576945  0.81156441  1
  O  O21  1  0.21969438  0.03558087  0.39836606  1
  O  O22  1  0.87048024  0.46637156  0.18756617  1
  O  O23  1  0.77422405  0.96269256  0.59621873  1
