# generated using pymatgen
data_Li4MnCo2NiO8
_symmetry_space_group_name_H-M   'P 1'
_cell_length_a   2.92659760
_cell_length_b   2.92659760
_cell_length_c   19.28689963
_cell_angle_alpha   85.64878301
_cell_angle_beta   85.64878301
_cell_angle_gamma   60.00002750
_symmetry_Int_Tables_number   1
_chemical_formula_structural   Li4MnCo2NiO8
_chemical_formula_sum   'Li4 Mn1 Co2 Ni1 O8'
_cell_volume   142.51026831
_cell_formula_units_Z   1
loop_
 _symmetry_equiv_pos_site_id
 _symmetry_equiv_pos_as_xyz
  1  'x, y, z'
loop_
 _atom_site_type_symbol
 _atom_site_label
 _atom_site_symmetry_multiplicity
 _atom_site_fract_x
 _atom_site_fract_y
 _atom_site_fract_z
 _atom_site_occupancy
  Li  Li0  1  0.00031501  0.00031501  0.99905498  1
  Li  Li1  1  0.25249758  0.25249758  0.24250727  1
  Li  Li2  1  0.49859640  0.49859640  0.50421080  1
  Li  Li3  1  0.74860563  0.74860563  0.75418312  1
  Mn  Mn4  1  0.87483350  0.87483350  0.37549951  1
  Co  Co5  1  0.12460562  0.12460562  0.62618313  1
  Co  Co6  1  0.37533041  0.37533041  0.87400878  1
  Ni  Ni7  1  0.62526442  0.62526442  0.12420674  1
  O  O8  1  0.31069633  0.31069633  0.06791102  1
  O  O9  1  0.56042148  0.56042148  0.31873555  1
  O  O10  1  0.81082709  0.81082709  0.56751873  1
  O  O11  1  0.05952844  0.05952844  0.82141468  1
  O  O12  1  0.93912048  0.93912048  0.18263856  1
  O  O13  1  0.18886718  0.18886718  0.43339847  1
  O  O14  1  0.43905048  0.43905048  0.68284857  1
  O  O15  1  0.69143998  0.69143998  0.92568006  1
