# generated using pymatgen
data_LiCu2(CO3)2
_symmetry_space_group_name_H-M   'P 1'
_cell_length_a   5.67406741
_cell_length_b   6.39007982
_cell_length_c   7.64669958
_cell_angle_alpha   92.53064739
_cell_angle_beta   83.11939206
_cell_angle_gamma   88.95923323
_symmetry_Int_Tables_number   1
_chemical_formula_structural   LiCu2(CO3)2
_chemical_formula_sum   'Li2 Cu4 C4 O12'
_cell_volume   274.90995252
_cell_formula_units_Z   2
loop_
 _symmetry_equiv_pos_site_id
 _symmetry_equiv_pos_as_xyz
  1  'x, y, z'
loop_
 _atom_site_type_symbol
 _atom_site_label
 _atom_site_symmetry_multiplicity
 _atom_site_fract_x
 _atom_site_fract_y
 _atom_site_fract_z
 _atom_site_occupancy
  Li  Li0  1  0.05491060  0.24818479  0.79969054  1
  Li  Li1  1  0.94508940  0.75181521  0.20030946  1
  Cu  Cu2  1  0.30765580  0.94458480  0.97979124  1
  Cu  Cu3  1  0.21768347  0.45813765  0.49844308  1
  Cu  Cu4  1  0.78231653  0.54186235  0.50155692  1
  Cu  Cu5  1  0.69234420  0.05541520  0.02020876  1
  C  C6  1  0.02393803  0.33391274  0.19744432  1
  C  C7  1  0.45879789  0.82214853  0.29600667  1
  C  C8  1  0.54120211  0.17785147  0.70399333  1
  C  C9  1  0.97606197  0.66608726  0.80255568  1
  O  O10  1  0.00678400  0.21376968  0.05876750  1
  O  O11  1  0.27473072  0.83248686  0.20988697  1
  O  O12  1  0.21575940  0.32833100  0.27091088  1
  O  O13  1  0.15567895  0.53943862  0.74453775  1
  O  O14  1  0.45601727  0.71745154  0.43452568  1
  O  O15  1  0.34746567  0.08059956  0.76189522  1
  O  O16  1  0.65253433  0.91940044  0.23810478  1
  O  O17  1  0.54398273  0.28254846  0.56547432  1
  O  O18  1  0.84432105  0.46056138  0.25546225  1
  O  O19  1  0.78424060  0.67166900  0.72908912  1
  O  O20  1  0.72526928  0.16751314  0.79011303  1
  O  O21  1  0.99321600  0.78623032  0.94123250  1
