# generated using pymatgen
data_Na2ZnP(H5O4)3
_symmetry_space_group_name_H-M   'P 1'
_cell_length_a   6.46524788
_cell_length_b   21.62433924
_cell_length_c   8.66615436
_cell_angle_alpha   90.00000000
_cell_angle_beta   109.68535796
_cell_angle_gamma   90.00000000
_symmetry_Int_Tables_number   1
_chemical_formula_structural   Na2ZnP(H5O4)3
_chemical_formula_sum   'Na8 Zn4 P4 H60 O48'
_cell_volume   1140.77739381
_cell_formula_units_Z   4
loop_
 _symmetry_equiv_pos_site_id
 _symmetry_equiv_pos_as_xyz
  1  'x, y, z'
loop_
 _atom_site_type_symbol
 _atom_site_label
 _atom_site_symmetry_multiplicity
 _atom_site_fract_x
 _atom_site_fract_y
 _atom_site_fract_z
 _atom_site_occupancy
  Na  Na0  1  0.53068307  0.30795602  0.27060475  1
  Na  Na1  1  0.96931693  0.80795602  0.72939525  1
  Na  Na2  1  0.46931693  0.69204398  0.72939525  1
  Na  Na3  1  0.03068307  0.19204398  0.27060475  1
  Na  Na4  1  0.52237180  0.47108685  0.19275872  1
  Na  Na5  1  0.97762820  0.97108685  0.80724128  1
  Na  Na6  1  0.47762820  0.52891315  0.80724128  1
  Na  Na7  1  0.02237180  0.02891315  0.19275872  1
  Zn  Zn8  1  0.99575731  0.75495052  0.36483586  1
  Zn  Zn9  1  0.50424269  0.25495052  0.63516414  1
  Zn  Zn10  1  0.00424269  0.24504948  0.63516414  1
  Zn  Zn11  1  0.49575731  0.74504948  0.36483586  1
  P  P12  1  0.13693353  0.64341235  0.18698164  1
  P  P13  1  0.36306647  0.14341235  0.81301836  1
  P  P14  1  0.86306647  0.35658765  0.81301836  1
  P  P15  1  0.63693353  0.85658765  0.18698164  1
  H  H16  1  0.80520673  0.29865521  0.07337779  1
  H  H17  1  0.69479327  0.79865521  0.92662221  1
  H  H18  1  0.19479327  0.70134479  0.92662221  1
  H  H19  1  0.30520673  0.20134479  0.07337779  1
  H  H20  1  0.65533722  0.24070552  0.01670083  1
  H  H21  1  0.84466278  0.74070552  0.98329917  1
  H  H22  1  0.34466278  0.75929448  0.98329917  1
  H  H23  1  0.15533722  0.25929448  0.01670083  1
  H  H24  1  0.56986955  0.37300428  0.98976965  1
  H  H25  1  0.93013045  0.87300428  0.01023035  1
  H  H26  1  0.43013045  0.62699572  0.01023035  1
  H  H27  1  0.06986955  0.12699572  0.98976965  1
  H  H28  1  0.32431284  0.35336883  0.95127975  1
  H  H29  1  0.17568716  0.85336883  0.04872025  1
  H  H30  1  0.67568716  0.64663117  0.04872025  1
  H  H31  1  0.82431284  0.14663117  0.95127975  1
  H  H32  1  0.08129283  0.36081988  0.17450966  1
  H  H33  1  0.41870717  0.86081988  0.82549034  1
  H  H34  1  0.91870717  0.63918012  0.82549034  1
  H  H35  1  0.58129283  0.13918012  0.17450966  1
  H  H36  1  0.21902561  0.40443053  0.31705450  1
  H  H37  1  0.28097439  0.90443053  0.68294550  1
  H  H38  1  0.78097439  0.59556947  0.68294550  1
  H  H39  1  0.71902561  0.09556947  0.31705450  1
  H  H40  1  0.31308367  0.47205698  0.47419691  1
  H  H41  1  0.18691633  0.97205698  0.52580309  1
  H  H42  1  0.68691633  0.52794302  0.52580309  1
  H  H43  1  0.81308367  0.02794302  0.47419691  1
  H  H44  1  0.21048694  0.51873853  0.32460012  1
  H  H45  1  0.28951306  0.01873853  0.67539988  1
  H  H46  1  0.78951306  0.48126147  0.67539988  1
  H  H47  1  0.71048694  0.98126147  0.32460012  1
  H  H48  1  0.84200348  0.45007688  0.03336268  1
  H  H49  1  0.65799652  0.95007688  0.96663732  1
  H  H50  1  0.15799652  0.54992312  0.96663732  1
  H  H51  1  0.34200348  0.04992312  0.03336268  1
  H  H52  1  0.88355948  0.51881356  0.10605509  1
  H  H53  1  0.61644052  0.01881356  0.89394491  1
  H  H54  1  0.11644052  0.48118644  0.89394491  1
  H  H55  1  0.38355948  0.98118644  0.10605509  1
  H  H56  1  0.90533002  0.38634206  0.35810851  1
  H  H57  1  0.59466998  0.88634206  0.64189149  1
  H  H58  1  0.09466998  0.61365794  0.64189149  1
  H  H59  1  0.40533002  0.11365794  0.35810851  1
  H  H60  1  0.82062419  0.40037402  0.50409713  1
  H  H61  1  0.67937581  0.90037402  0.49590287  1
  H  H62  1  0.17937581  0.59962598  0.49590287  1
  H  H63  1  0.32062419  0.09962598  0.50409713  1
  H  H64  1  0.42035364  0.39965184  0.68238002  1
  H  H65  1  0.07964636  0.89965184  0.31761998  1
  H  H66  1  0.57964636  0.60034816  0.31761998  1
  H  H67  1  0.92035364  0.10034816  0.68238002  1
  H  H68  1  0.18513603  0.42232354  0.68295273  1
  H  H69  1  0.31486397  0.92232354  0.31704727  1
  H  H70  1  0.81486397  0.57767646  0.31704727  1
  H  H71  1  0.68513603  0.07767646  0.68295273  1
  H  H72  1  0.16827315  0.30056281  0.43612671  1
  H  H73  1  0.33172685  0.80056281  0.56387329  1
  H  H74  1  0.83172685  0.69943719  0.56387329  1
  H  H75  1  0.66827315  0.19943719  0.43612671  1
  O  O76  1  0.80972893  0.73821516  0.49992323  1
  O  O77  1  0.69027107  0.23821516  0.50007677  1
  O  O78  1  0.19027107  0.26178484  0.50007677  1
  O  O79  1  0.30972893  0.76178484  0.49992323  1
  O  O80  1  0.97557534  0.69866524  0.17899116  1
  O  O81  1  0.52442466  0.19866524  0.82100884  1
  O  O82  1  0.02442466  0.30133476  0.82100884  1
  O  O83  1  0.47557534  0.80133476  0.17899116  1
  O  O84  1  0.87942964  0.83798772  0.28387657  1
  O  O85  1  0.62057036  0.33798772  0.71612343  1
  O  O86  1  0.12057036  0.16201228  0.71612343  1
  O  O87  1  0.37942964  0.66201228  0.28387657  1
  O  O88  1  0.07074528  0.58734964  0.27199185  1
  O  O89  1  0.42925472  0.08734964  0.72800815  1
  O  O90  1  0.92925472  0.41265036  0.72800815  1
  O  O91  1  0.57074528  0.91265036  0.27199185  1
  O  O92  1  0.12190627  0.62802405  0.00824256  1
  O  O93  1  0.37809373  0.12802405  0.99175744  1
  O  O94  1  0.87809373  0.37197595  0.99175744  1
  O  O95  1  0.62190627  0.87197595  0.00824256  1
  O  O96  1  0.75102436  0.26198867  0.11631279  1
  O  O97  1  0.74897564  0.76198867  0.88368721  1
  O  O98  1  0.24897564  0.73801133  0.88368721  1
  O  O99  1  0.25102436  0.23801133  0.11631279  1
  O  O100  1  0.44602271  0.37510461  0.03157438  1
  O  O101  1  0.05397729  0.87510461  0.96842562  1
  O  O102  1  0.55397729  0.62489539  0.96842562  1
  O  O103  1  0.94602271  0.12489539  0.03157438  1
  O  O104  1  0.17184351  0.36049612  0.29354703  1
  O  O105  1  0.32815649  0.86049612  0.70645297  1
  O  O106  1  0.82815649  0.63950388  0.70645297  1
  O  O107  1  0.67184351  0.13950388  0.29354703  1
  O  O108  1  0.29308091  0.47899560  0.35698392  1
  O  O109  1  0.20691909  0.97899560  0.64301608  1
  O  O110  1  0.70691909  0.52100440  0.64301608  1
  O  O111  1  0.79308091  0.02100440  0.35698392  1
  O  O112  1  0.76962836  0.48937919  0.04494587  1
  O  O113  1  0.73037164  0.98937919  0.95505413  1
  O  O114  1  0.23037164  0.51062081  0.95505413  1
  O  O115  1  0.26962836  0.01062081  0.04494587  1
  O  O116  1  0.77056753  0.39427313  0.38345354  1
  O  O117  1  0.72943247  0.89427313  0.61654646  1
  O  O118  1  0.22943247  0.60572687  0.61654646  1
  O  O119  1  0.27056753  0.10572687  0.38345354  1
  O  O120  1  0.31861525  0.43549229  0.65996159  1
  O  O121  1  0.18138475  0.93549229  0.34003841  1
  O  O122  1  0.68138475  0.56450771  0.34003841  1
  O  O123  1  0.81861525  0.06450771  0.65996159  1
