# generated using pymatgen
data_NaLi5Ti3Cr3(PO4)9
_symmetry_space_group_name_H-M   'P 1'
_cell_length_a   8.91388680
_cell_length_b   8.92492505
_cell_length_c   26.76424746
_cell_angle_alpha   56.57991683
_cell_angle_beta   56.56435986
_cell_angle_gamma   56.65051344
_symmetry_Int_Tables_number   1
_chemical_formula_structural   NaLi5Ti3Cr3(PO4)9
_chemical_formula_sum   'Na2 Li10 Ti6 Cr6 P18 O72'
_cell_volume   1387.28036755
_cell_formula_units_Z   2
loop_
 _symmetry_equiv_pos_site_id
 _symmetry_equiv_pos_as_xyz
  1  'x, y, z'
loop_
 _atom_site_type_symbol
 _atom_site_label
 _atom_site_symmetry_multiplicity
 _atom_site_fract_x
 _atom_site_fract_y
 _atom_site_fract_z
 _atom_site_occupancy
  Na  Na0  1  0.49769441  0.49833692  0.50131410  1
  Na  Na1  1  0.49847511  0.50465541  0.83365600  1
  Li  Li2  1  0.25060799  0.92665952  0.22517151  1
  Li  Li3  1  0.67562304  0.25077851  0.30825184  1
  Li  Li4  1  0.92742083  0.67470152  0.08313950  1
  Li  Li5  1  0.25586250  0.92585158  0.56070287  1
  Li  Li6  1  0.67800464  0.26067597  0.63894744  1
  Li  Li7  1  0.92349319  0.67932583  0.41908159  1
  Li  Li8  1  0.74535088  0.08021251  0.77624644  1
  Li  Li9  1  0.25558138  0.92264065  0.89334195  1
  Li  Li10  1  0.68023897  0.25719209  0.97512837  1
  Li  Li11  1  0.92271487  0.67296978  0.75218105  1
  Ti  Ti12  1  0.13808542  0.14118095  0.04637746  1
  Ti  Ti13  1  0.35886208  0.35737547  0.11853470  1
  Ti  Ti14  1  0.14088707  0.13876856  0.37946811  1
  Ti  Ti15  1  0.35424065  0.35194734  0.45286203  1
  Ti  Ti16  1  0.64712216  0.64957048  0.21559972  1
  Ti  Ti17  1  0.34403626  0.36277312  0.78435993  1
  Cr  Cr18  1  0.14269126  0.14440976  0.71299092  1
  Cr  Cr19  1  0.85639062  0.85559344  0.28518616  1
  Cr  Cr20  1  0.64903315  0.65138934  0.54977777  1
  Cr  Cr21  1  0.85465261  0.85456657  0.61880088  1
  Cr  Cr22  1  0.64876255  0.64888951  0.88372474  1
  Cr  Cr23  1  0.85611527  0.85571615  0.95225715  1
  P  P24  1  0.03639395  0.75263503  0.15447708  1
  P  P25  1  0.46461112  0.03553231  0.25065804  1
  P  P26  1  0.75355295  0.46408113  0.01090746  1
  P  P27  1  0.24631174  0.53319426  0.32285115  1
  P  P28  1  0.53241383  0.96954016  0.08199307  1
  P  P29  1  0.03551845  0.75227530  0.48765828  1
  P  P30  1  0.96948816  0.24657177  0.17749307  1
  P  P31  1  0.45751074  0.03606693  0.58582530  1
  P  P32  1  0.75258278  0.46337468  0.34560242  1
  P  P33  1  0.24832229  0.53394155  0.65359608  1
  P  P34  1  0.53291532  0.96566144  0.41614381  1
  P  P35  1  0.03518096  0.75870639  0.82004365  1
  P  P36  1  0.96476763  0.24838313  0.51082185  1
  P  P37  1  0.46365740  0.03483932  0.91734935  1
  P  P38  1  0.75201628  0.46044805  0.67891347  1
  P  P39  1  0.24888620  0.53178138  0.98902440  1
  P  P40  1  0.53516229  0.96236212  0.74976600  1
  P  P41  1  0.96380285  0.24832339  0.84419373  1
  O  O42  1  0.16760572  0.21236119  0.17278318  1
  O  O43  1  0.21730866  0.51757937  0.05467638  1
  O  O44  1  0.10414004  0.89796578  0.08779745  1
  O  O45  1  0.51933565  0.16676942  0.07077076  1
  O  O46  1  0.18614246  0.54735271  0.15684150  1
  O  O47  1  0.00665323  0.79699187  0.20655293  1
  O  O48  1  0.26466452  0.10414073  0.29889215  1
  O  O49  1  0.47235363  0.18607015  0.18222357  1
  O  O50  1  0.54776857  0.47030561  0.06208145  1
  O  O51  1  0.19810045  0.37749126  0.33245143  1
  O  O52  1  0.11563825  0.73854891  0.29426328  1
  O  O53  1  0.37662204  0.99724838  0.06613728  1
  O  O54  1  0.62045622  0.00466757  0.26592240  1
  O  O55  1  0.89735430  0.26487633  0.03571623  1
  O  O56  1  0.16213597  0.21940040  0.50598785  1
  O  O57  1  0.79586771  0.62156990  0.00132299  1
  O  O58  1  0.21432815  0.51856272  0.38881312  1
  O  O59  1  0.45897623  0.51114659  0.27583007  1
  O  O60  1  0.51067811  0.82849235  0.15306706  1
  O  O61  1  0.73816528  0.88184634  0.03876200  1
  O  O62  1  0.10791470  0.89807178  0.42142242  1
  O  O63  1  0.51792386  0.16325536  0.40613137  1
  O  O64  1  0.19701281  0.54949772  0.48954262  1
  O  O65  1  0.99661538  0.19937760  0.12559703  1
  O  O66  1  0.00615529  0.79366193  0.54061280  1
  O  O67  1  0.82864297  0.45879122  0.17071597  1
  O  O68  1  0.47961605  0.84759431  0.25290925  1
  O  O69  1  0.88311616  0.11510303  0.24597033  1
  O  O70  1  0.25810536  0.11259343  0.63099540  1
  O  O71  1  0.46861055  0.19439275  0.51617045  1
  O  O72  1  0.54958630  0.46947635  0.39852654  1
  O  O73  1  0.75368340  0.48006025  0.28394317  1
  O  O74  1  0.19301913  0.38669057  0.66280001  1
  O  O75  1  0.84734486  0.75825989  0.16033605  1
  O  O76  1  0.11565575  0.74163560  0.62764195  1
  O  O77  1  0.37970275  0.99788018  0.39788592  1
  O  O78  1  0.61911501  0.00689919  0.59871547  1
  O  O79  1  0.89868438  0.26402872  0.36775000  1
  O  O80  1  0.16431066  0.21980547  0.83793245  1
  O  O81  1  0.79751138  0.61938804  0.33589368  1
  O  O82  1  0.22293516  0.51368264  0.72030409  1
  O  O83  1  0.45986070  0.50706899  0.60594523  1
  O  O84  1  0.50456601  0.82069446  0.48624146  1
  O  O85  1  0.73900973  0.88309756  0.37180400  1
  O  O86  1  0.10388854  0.89868467  0.75355580  1
  O  O87  1  0.53366780  0.15253691  0.74215330  1
  O  O88  1  0.18718966  0.55002318  0.82385232  1
  O  O89  1  0.99790928  0.19428117  0.45946350  1
  O  O90  1  0.00847223  0.79705829  0.87321153  1
  O  O91  1  0.81940781  0.45839393  0.50176260  1
  O  O92  1  0.46902478  0.85449690  0.58652324  1
  O  O93  1  0.88179403  0.11549881  0.57950014  1
  O  O94  1  0.26397462  0.11509051  0.96346567  1
  O  O95  1  0.48522015  0.18809952  0.84676129  1
  O  O96  1  0.54437295  0.46931946  0.73216080  1
  O  O97  1  0.75875414  0.46960759  0.61824945  1
  O  O98  1  0.19502138  0.37900375  0.99899567  1
  O  O99  1  0.85595473  0.75845424  0.48932524  1
  O  O100  1  0.11639754  0.73773577  0.96099157  1
  O  O101  1  0.38363910  0.99963011  0.73114351  1
  O  O102  1  0.62161830  0.00451132  0.93195473  1
  O  O103  1  0.88360793  0.25659823  0.70670724  1
  O  O104  1  0.79654823  0.61612405  0.66983576  1
  O  O105  1  0.45965105  0.50401793  0.94022236  1
  O  O106  1  0.50650487  0.81585714  0.82017127  1
  O  O107  1  0.74233352  0.87795873  0.70587201  1
  O  O108  1  0.98768838  0.19570804  0.79488397  1
  O  O109  1  0.82225877  0.46105663  0.83505121  1
  O  O110  1  0.46698094  0.85464114  0.92024954  1
  O  O111  1  0.88278381  0.11699230  0.91364466  1
  O  O112  1  0.76558797  0.46920304  0.94981145  1
  O  O113  1  0.84471208  0.77612269  0.82271195  1
