# generated using pymatgen
data_Li2AgF3
_symmetry_space_group_name_H-M   'P 1'
_cell_length_a   2.98789203
_cell_length_b   2.98788774
_cell_length_c   8.22096501
_cell_angle_alpha   89.99865875
_cell_angle_beta   89.99872655
_cell_angle_gamma   59.99949498
_symmetry_Int_Tables_number   1
_chemical_formula_structural   Li2AgF3
_chemical_formula_sum   'Li2 Ag1 F3'
_cell_volume   63.55948917
_cell_formula_units_Z   1
loop_
 _symmetry_equiv_pos_site_id
 _symmetry_equiv_pos_as_xyz
  1  'x, y, z'
loop_
 _atom_site_type_symbol
 _atom_site_label
 _atom_site_symmetry_multiplicity
 _atom_site_fract_x
 _atom_site_fract_y
 _atom_site_fract_z
 _atom_site_occupancy
  Li  Li0  1  0.66666290  0.66667775  0.85838720  1
  Li  Li1  1  0.33332210  0.33333695  0.14161302  1
  Ag  Ag2  1  0.99999138  0.00000863  0.50000015  1
  F  F3  1  0.66663874  0.66666615  0.27690081  1
  F  F4  1  0.33333529  0.33336028  0.72309918  1
  F  F5  1  0.00003059  0.99996924  0.99999965  1
