# generated using pymatgen
data_Ce4ThO9
_symmetry_space_group_name_H-M   'P 1'
_cell_length_a   6.79341202
_cell_length_b   5.60736154
_cell_length_c   6.79341202
_cell_angle_alpha   114.37492474
_cell_angle_beta   80.19321998
_cell_angle_gamma   114.37492474
_symmetry_Int_Tables_number   1
_chemical_formula_structural   Ce4ThO9
_chemical_formula_sum   'Ce4 Th1 O9'
_cell_volume   214.70486997
_cell_formula_units_Z   1
loop_
 _symmetry_equiv_pos_site_id
 _symmetry_equiv_pos_as_xyz
  1  'x, y, z'
loop_
 _atom_site_type_symbol
 _atom_site_label
 _atom_site_symmetry_multiplicity
 _atom_site_fract_x
 _atom_site_fract_y
 _atom_site_fract_z
 _atom_site_occupancy
  Ce  Ce0  1  0.99931274  0.98543200  0.02087840  1
  Ce  Ce1  1  0.42087840  0.63544640  0.80068726  1
  Ce  Ce2  1  0.20068726  0.76524086  0.37912160  1
  Ce  Ce3  1  0.77912160  0.21388174  0.59931274  1
  Th  Th4  1  0.60000000  0.40000000  0.20000000  1
  O  O5  1  0.10000000  0.65000000  0.70000000  1
  O  O6  1  0.31774366  0.95242049  0.09942929  1
  O  O7  1  0.70057071  0.56532316  0.91774366  1
  O  O8  1  0.46871244  0.24928142  0.52060341  1
  O  O9  1  0.73128756  0.05996557  0.87939659  1
  O  O10  1  0.49942929  0.74700880  0.48225634  1
  O  O11  1  0.27939659  0.41943101  0.06871244  1
  O  O12  1  0.92060341  0.87132199  0.33128756  1
  O  O13  1  0.88225634  0.33524755  0.30057071  1
