# generated using pymatgen
data_Ca5Dy3Ti5Mn3O24
_symmetry_space_group_name_H-M   'P 1'
_cell_length_a   5.38336548
_cell_length_b   5.61603511
_cell_length_c   15.27216300
_cell_angle_alpha   90.12317215
_cell_angle_beta   89.83198427
_cell_angle_gamma   89.64270138
_symmetry_Int_Tables_number   1
_chemical_formula_structural   Ca5Dy3Ti5Mn3O24
_chemical_formula_sum   'Ca5 Dy3 Ti5 Mn3 O24'
_cell_volume   461.71384529
_cell_formula_units_Z   1
loop_
 _symmetry_equiv_pos_site_id
 _symmetry_equiv_pos_as_xyz
  1  'x, y, z'
loop_
 _atom_site_type_symbol
 _atom_site_label
 _atom_site_symmetry_multiplicity
 _atom_site_fract_x
 _atom_site_fract_y
 _atom_site_fract_z
 _atom_site_occupancy
  Ca  Ca0  1  0.01261490  0.94913905  0.37638827  1
  Ca  Ca1  1  0.01260515  0.94209434  0.87170836  1
  Ca  Ca2  1  0.49042693  0.44703324  0.37639911  1
  Ca  Ca3  1  0.51088805  0.54530269  0.12736791  1
  Ca  Ca4  1  0.99157996  0.04564456  0.12758109  1
  Dy  Dy5  1  0.48525288  0.43078277  0.87072630  1
  Dy  Dy6  1  0.51710261  0.57067760  0.62611387  1
  Dy  Dy7  1  0.97950182  0.07138058  0.62565738  1
  Ti  Ti8  1  0.99271163  0.48258796  0.99879418  1
  Ti  Ti9  1  0.01129175  0.49577252  0.25201402  1
  Ti  Ti10  1  0.00767039  0.50431533  0.49955739  1
  Ti  Ti11  1  0.51333126  0.00106557  0.25100567  1
  Ti  Ti12  1  0.50625180  0.97710563  0.99865197  1
  Mn  Mn13  1  0.00221250  0.50459041  0.74996068  1
  Mn  Mn14  1  0.49654407  0.99966898  0.74948108  1
  Mn  Mn15  1  0.49314249  0.00577203  0.50040753  1
  O  O16  1  0.07838676  0.47891885  0.12383306  1
  O  O17  1  0.10904539  0.46833728  0.62545157  1
  O  O18  1  0.18543719  0.20085619  0.47945134  1
  O  O19  1  0.20949893  0.21845205  0.97336734  1
  O  O20  1  0.20297409  0.21266821  0.27125735  1
  O  O21  1  0.21159885  0.19309798  0.77447667  1
  O  O22  1  0.30310686  0.68181802  0.77301484  1
  O  O23  1  0.28578258  0.70823792  0.27078259  1
  O  O24  1  0.29567497  0.68326521  0.47992006  1
  O  O25  1  0.30514335  0.70426950  0.97226426  1
  O  O26  1  0.41633527  0.97809141  0.12331768  1
  O  O27  1  0.39019538  0.97016358  0.62205618  1
  O  O28  1  0.59174292  0.03406166  0.87750174  1
  O  O29  1  0.58016289  0.02587037  0.37525891  1
  O  O30  1  0.70641279  0.29949269  0.01944191  1
  O  O31  1  0.70554265  0.28608317  0.22836828  1
  O  O32  1  0.71205062  0.31169005  0.53305935  1
  O  O33  1  0.70752433  0.31555188  0.72449711  1
  O  O34  1  0.78432268  0.79056176  0.22829021  1
  O  O35  1  0.78938582  0.81350253  0.71981726  1
  O  O36  1  0.79686727  0.79818001  0.02187044  1
  O  O37  1  0.80122032  0.79744435  0.52985075  1
  O  O38  1  0.91257887  0.52714705  0.37494150  1
  O  O39  1  0.89588101  0.52930503  0.87609479  1
