# generated using pymatgen
data_Ba2Ti6N2O11
_symmetry_space_group_name_H-M   'P 1'
_cell_length_a   3.94873277
_cell_length_b   7.95663231
_cell_length_c   9.24111935
_cell_angle_alpha   81.59884704
_cell_angle_beta   90.00000002
_cell_angle_gamma   75.63246550
_symmetry_Int_Tables_number   1
_chemical_formula_structural   Ba2Ti6N2O11
_chemical_formula_sum   'Ba2 Ti6 N2 O11'
_cell_volume   278.04508070
_cell_formula_units_Z   1
loop_
 _symmetry_equiv_pos_site_id
 _symmetry_equiv_pos_as_xyz
  1  'x, y, z'
loop_
 _atom_site_type_symbol
 _atom_site_label
 _atom_site_symmetry_multiplicity
 _atom_site_fract_x
 _atom_site_fract_y
 _atom_site_fract_z
 _atom_site_occupancy
  Ba  Ba0  1  0.55260214  0.89479571  0.76557588  1
  Ba  Ba1  1  0.45086748  0.09826505  0.22587055  1
  Ti  Ti2  1  0.11923804  0.76152292  0.08881480  1
  Ti  Ti3  1  0.16810317  0.66379465  0.44001504  1
  Ti  Ti4  1  0.24878082  0.50243736  0.77791500  1
  Ti  Ti5  1  0.76328204  0.47343491  0.23312848  1
  Ti  Ti6  1  0.82661941  0.34676117  0.57173338  1
  Ti  Ti7  1  0.87506873  0.24986153  0.89727468  1
  N  N8  1  0.76249714  0.47500571  0.75405106  1
  N  N9  1  0.36116814  0.27766373  0.89705463  1
  O  O10  1  0.07350307  0.85299287  0.29421251  1
  O  O11  1  0.12567979  0.74864142  0.60910004  1
  O  O12  1  0.16422640  0.67154720  0.91136188  1
  O  O13  1  0.63861207  0.72277686  0.11502385  1
  O  O14  1  0.69984899  0.60030102  0.42753208  1
  O  O15  1  0.24015101  0.51969898  0.23980109  1
  O  O16  1  0.29809663  0.40380673  0.56821733  1
  O  O17  1  0.83443059  0.33113883  0.09538245  1
  O  O18  1  0.86521113  0.26957774  0.38322166  1
  O  O19  1  0.92849873  0.14300153  0.70187778  1
  O  O20  1  0.00351147  0.99297606  0.00283681  1
