# generated using pymatgen
data_TmAlO3
_symmetry_space_group_name_H-M   'P 1'
_cell_length_a   5.15524352
_cell_length_b   5.37670552
_cell_length_c   7.38990158
_cell_angle_alpha   90.00000000
_cell_angle_beta   90.00000000
_cell_angle_gamma   90.00000000
_symmetry_Int_Tables_number   1
_chemical_formula_structural   TmAlO3
_chemical_formula_sum   'Tm4 Al4 O12'
_cell_volume   204.83496426
_cell_formula_units_Z   4
loop_
 _symmetry_equiv_pos_site_id
 _symmetry_equiv_pos_as_xyz
  1  'x, y, z'
loop_
 _atom_site_type_symbol
 _atom_site_label
 _atom_site_symmetry_multiplicity
 _atom_site_fract_x
 _atom_site_fract_y
 _atom_site_fract_z
 _atom_site_occupancy
  Tm  Tm0  1  0.01581682  0.93858406  0.75000000  1
  Tm  Tm1  1  0.48418318  0.43858406  0.75000000  1
  Tm  Tm2  1  0.51581682  0.56141594  0.25000000  1
  Tm  Tm3  1  0.98418318  0.06141594  0.25000000  1
  Al  Al4  1  0.00000000  0.50000000  0.00000000  1
  Al  Al5  1  0.00000000  0.50000000  0.50000000  1
  Al  Al6  1  0.50000000  0.00000000  0.00000000  1
  Al  Al7  1  0.50000000  0.00000000  0.50000000  1
  O  O8  1  0.09667352  0.47110203  0.25000000  1
  O  O9  1  0.20086226  0.20221381  0.55068605  1
  O  O10  1  0.20086226  0.20221381  0.94931395  1
  O  O11  1  0.29913774  0.70221381  0.94931395  1
  O  O12  1  0.29913774  0.70221381  0.55068605  1
  O  O13  1  0.40332648  0.97110203  0.25000000  1
  O  O14  1  0.59667352  0.02889797  0.75000000  1
  O  O15  1  0.70086226  0.29778619  0.05068605  1
  O  O16  1  0.70086226  0.29778619  0.44931395  1
  O  O17  1  0.79913774  0.79778619  0.05068605  1
  O  O18  1  0.79913774  0.79778619  0.44931395  1
  O  O19  1  0.90332648  0.52889797  0.75000000  1
