# generated using pymatgen
data_Ba2Ti6N2O11
_symmetry_space_group_name_H-M   'P 1'
_cell_length_a   3.94959162
_cell_length_b   7.95424326
_cell_length_c   9.19408650
_cell_angle_alpha   81.73084728
_cell_angle_beta   90.01681926
_cell_angle_gamma   75.63563607
_symmetry_Int_Tables_number   1
_chemical_formula_structural   Ba2Ti6N2O11
_chemical_formula_sum   'Ba2 Ti6 N2 O11'
_cell_volume   276.70754213
_cell_formula_units_Z   1
loop_
 _symmetry_equiv_pos_site_id
 _symmetry_equiv_pos_as_xyz
  1  'x, y, z'
loop_
 _atom_site_type_symbol
 _atom_site_label
 _atom_site_symmetry_multiplicity
 _atom_site_fract_x
 _atom_site_fract_y
 _atom_site_fract_z
 _atom_site_occupancy
  Ba  Ba0  1  0.55435542  0.90262481  0.76393101  1
  Ba  Ba1  1  0.45582848  0.10079841  0.22805404  1
  Ti  Ti2  1  0.11710515  0.76690549  0.09266346  1
  Ti  Ti3  1  0.17849128  0.65199686  0.43789736  1
  Ti  Ti4  1  0.24295528  0.52148096  0.77111791  1
  Ti  Ti5  1  0.76284993  0.48134446  0.24041593  1
  Ti  Ti6  1  0.83409764  0.34400825  0.56293281  1
  Ti  Ti7  1  0.87289060  0.25948686  0.89995828  1
  N  N8  1  0.71035087  0.58707514  0.42550821  1
  N  N9  1  0.76528687  0.47748622  0.76572924  1
  O  O10  1  0.08046894  0.84799014  0.29345156  1
  O  O11  1  0.13655479  0.73574733  0.61682020  1
  O  O12  1  0.16752019  0.67085504  0.91104991  1
  O  O13  1  0.64228297  0.72148970  0.11206525  1
  O  O14  1  0.24692240  0.51278175  0.23618069  1
  O  O15  1  0.30590351  0.39617187  0.57476543  1
  O  O16  1  0.36738295  0.27278421  0.89449484  1
  O  O17  1  0.84236623  0.32299711  0.09395019  1
  O  O18  1  0.87921867  0.25323703  0.38591813  1
  O  O19  1  0.93321538  0.14434924  0.70996585  1
  O  O20  1  0.99963544  0.99248813  0.00319869  1
