# generated using pymatgen
data_Na6MgO4
_symmetry_space_group_name_H-M   'P 1'
_cell_length_a   7.49594889
_cell_length_b   7.49598705
_cell_length_c   5.50849084
_cell_angle_alpha   89.99990975
_cell_angle_beta   89.99998803
_cell_angle_gamma   90.00054804
_symmetry_Int_Tables_number   1
_chemical_formula_structural   Na6MgO4
_chemical_formula_sum   'Na12 Mg2 O8'
_cell_volume   309.51954329
_cell_formula_units_Z   2
loop_
 _symmetry_equiv_pos_site_id
 _symmetry_equiv_pos_as_xyz
  1  'x, y, z'
loop_
 _atom_site_type_symbol
 _atom_site_label
 _atom_site_symmetry_multiplicity
 _atom_site_fract_x
 _atom_site_fract_y
 _atom_site_fract_z
 _atom_site_occupancy
  Na  Na0  1  0.03732761  0.53734078  0.74999816  1
  Na  Na1  1  0.03732562  0.96268484  0.75001220  1
  Na  Na2  1  0.25000949  0.25000832  0.67144312  1
  Na  Na3  1  0.25001734  0.25000596  0.17144180  1
  Na  Na4  1  0.46267912  0.53732488  0.74998398  1
  Na  Na5  1  0.46269173  0.96269614  0.75000320  1
  Na  Na6  1  0.53734332  0.03733387  0.24999149  1
  Na  Na7  1  0.53731682  0.46267640  0.24998628  1
  Na  Na8  1  0.75001704  0.75000309  0.32857790  1
  Na  Na9  1  0.75000760  0.75001182  0.82857292  1
  Na  Na10  1  0.96268758  0.03732127  0.25000282  1
  Na  Na11  1  0.96269361  0.46269946  0.24999128  1
  Mg  Mg12  1  0.25000374  0.75000696  0.24999129  1
  Mg  Mg13  1  0.75001451  0.25001223  0.75000362  1
  O  O14  1  0.99096621  0.25001547  0.93436646  1
  O  O15  1  0.25001149  0.99096507  0.43436974  1
  O  O16  1  0.25000410  0.50904131  0.43436080  1
  O  O17  1  0.50903795  0.25000514  0.93436009  1
  O  O18  1  0.49096647  0.75000679  0.06563100  1
  O  O19  1  0.75001094  0.00904096  0.56564073  1
  O  O20  1  0.75000508  0.49096520  0.56563422  1
  O  O21  1  0.00904364  0.75001304  0.06563792  1
