# generated using pymatgen
data_HfBiO4
_symmetry_space_group_name_H-M   'P 1'
_cell_length_a   7.80489579
_cell_length_b   5.47816318
_cell_length_c   7.79357172
_cell_angle_alpha   87.36857464
_cell_angle_beta   81.55321792
_cell_angle_gamma   91.45663959
_symmetry_Int_Tables_number   1
_chemical_formula_structural   HfBiO4
_chemical_formula_sum   'Hf4 Bi4 O16'
_cell_volume   329.08915069
_cell_formula_units_Z   4
loop_
 _symmetry_equiv_pos_site_id
 _symmetry_equiv_pos_as_xyz
  1  'x, y, z'
loop_
 _atom_site_type_symbol
 _atom_site_label
 _atom_site_symmetry_multiplicity
 _atom_site_fract_x
 _atom_site_fract_y
 _atom_site_fract_z
 _atom_site_occupancy
  Hf  Hf0  1  0.35750073  0.22133009  0.32380173  1
  Hf  Hf1  1  0.32903815  0.25770856  0.82138436  1
  Hf  Hf2  1  0.67096185  0.74229144  0.17861564  1
  Hf  Hf3  1  0.64249927  0.77866991  0.67619827  1
  Bi  Bi4  1  0.18049088  0.72160590  0.14751190  1
  Bi  Bi5  1  0.13874027  0.75586927  0.63657884  1
  Bi  Bi6  1  0.86125973  0.24413073  0.36342116  1
  Bi  Bi7  1  0.81950912  0.27839410  0.85248810  1
  O  O8  1  0.11384815  0.00977163  0.31714458  1
  O  O9  1  0.18549426  0.49893787  0.38531575  1
  O  O10  1  0.08119016  0.40964919  0.82738011  1
  O  O11  1  0.31906693  0.39363248  0.07004244  1
  O  O12  1  0.19252400  0.92267756  0.90799666  1
  O  O13  1  0.32285199  0.10935472  0.57811195  1
  O  O14  1  0.43111279  0.90402183  0.18733999  1
  O  O15  1  0.58543249  0.41495872  0.30421279  1
  O  O16  1  0.41456751  0.58504128  0.69578721  1
  O  O17  1  0.56888721  0.09597817  0.81266001  1
  O  O18  1  0.67714801  0.89064528  0.42188805  1
  O  O19  1  0.80747600  0.07732244  0.09200334  1
  O  O20  1  0.68093307  0.60636752  0.92995756  1
  O  O21  1  0.91880984  0.59035081  0.17261989  1
  O  O22  1  0.81450574  0.50106213  0.61468425  1
  O  O23  1  0.88615185  0.99022837  0.68285542  1
