# generated using pymatgen
data_Eu3ReO8
_symmetry_space_group_name_H-M   'P 1'
_cell_length_a   7.42652589
_cell_length_b   7.41882111
_cell_length_c   6.29236607
_cell_angle_alpha   90.00000000
_cell_angle_beta   90.00000000
_cell_angle_gamma   111.33709706
_symmetry_Int_Tables_number   1
_chemical_formula_structural   Eu3ReO8
_chemical_formula_sum   'Eu6 Re2 O16'
_cell_volume   322.92141665
_cell_formula_units_Z   2
loop_
 _symmetry_equiv_pos_site_id
 _symmetry_equiv_pos_as_xyz
  1  'x, y, z'
loop_
 _atom_site_type_symbol
 _atom_site_label
 _atom_site_symmetry_multiplicity
 _atom_site_fract_x
 _atom_site_fract_y
 _atom_site_fract_z
 _atom_site_occupancy
  Eu  Eu0  1  0.10986478  0.33143246  0.75000000  1
  Eu  Eu1  1  0.39471008  0.60264023  0.25000000  1
  Eu  Eu2  1  0.34228428  0.11006918  0.25000000  1
  Eu  Eu3  1  0.65771572  0.88993082  0.75000000  1
  Eu  Eu4  1  0.60528992  0.39735977  0.75000000  1
  Eu  Eu5  1  0.89013522  0.66856754  0.25000000  1
  Re  Re6  1  0.17241477  0.81953360  0.75000000  1
  Re  Re7  1  0.82758523  0.18046640  0.25000000  1
  O  O8  1  0.03633565  0.42080655  0.25000000  1
  O  O9  1  0.19415163  0.80618844  0.04839132  1
  O  O10  1  0.19415163  0.80618844  0.45160868  1
  O  O11  1  0.98278442  0.03912836  0.25000000  1
  O  O12  1  0.33797552  0.65567261  0.75000000  1
  O  O13  1  0.33612555  0.33490299  0.00109806  1
  O  O14  1  0.33612555  0.33490299  0.49890194  1
  O  O15  1  0.59133105  0.96526567  0.25000000  1
  O  O16  1  0.40866895  0.03473433  0.75000000  1
  O  O17  1  0.66387445  0.66509701  0.99890194  1
  O  O18  1  0.66387445  0.66509701  0.50109806  1
  O  O19  1  0.66202448  0.34432739  0.25000000  1
  O  O20  1  0.01721558  0.96087164  0.75000000  1
  O  O21  1  0.80584837  0.19381156  0.95160868  1
  O  O22  1  0.80584837  0.19381156  0.54839132  1
  O  O23  1  0.96366435  0.57919345  0.75000000  1
