# generated using pymatgen
data_Li2Al2Si4O13
_symmetry_space_group_name_H-M   'P 1'
_cell_length_a   5.03407284
_cell_length_b   7.70984163
_cell_length_c   8.68456249
_cell_angle_alpha   65.82227247
_cell_angle_beta   89.49856192
_cell_angle_gamma   89.17437495
_symmetry_Int_Tables_number   1
_chemical_formula_structural   Li2Al2Si4O13
_chemical_formula_sum   'Li2 Al2 Si4 O13'
_cell_volume   307.46348980
_cell_formula_units_Z   1
loop_
 _symmetry_equiv_pos_site_id
 _symmetry_equiv_pos_as_xyz
  1  'x, y, z'
loop_
 _atom_site_type_symbol
 _atom_site_label
 _atom_site_symmetry_multiplicity
 _atom_site_fract_x
 _atom_site_fract_y
 _atom_site_fract_z
 _atom_site_occupancy
  Li  Li0  1  0.12430736  0.11948230  0.69282698  1
  Li  Li1  1  0.63005361  0.87788560  0.28863657  1
  Al  Al2  1  0.12058091  0.07120839  0.37038320  1
  Al  Al3  1  0.63106770  0.10489497  0.88311532  1
  Si  Si4  1  0.13173679  0.91452251  0.09085335  1
  Si  Si5  1  0.17704781  0.49829635  0.09791720  1
  Si  Si6  1  0.68002843  0.51506225  0.87925293  1
  Si  Si7  1  0.62204761  0.94113125  0.60902873  1
  O  O8  1  0.59427642  0.71467187  0.72396889  1
  O  O9  1  0.32275402  0.02815428  0.54903895  1
  O  O10  1  0.29122473  0.03914187  0.91457338  1
  O  O11  1  0.48075481  0.47438553  0.04006909  1
  O  O12  1  0.98115428  0.53647511  0.93798904  1
  O  O13  1  0.25546353  0.95503388  0.24711545  1
  O  O14  1  0.16921209  0.68629971  0.14281013  1
  O  O15  1  0.66925233  0.34748599  0.81433474  1
  O  O16  1  0.09455403  0.31571078  0.26310762  1
  O  O17  1  0.80366007  0.97039546  0.44279051  1
  O  O18  1  0.81515906  0.97242665  0.06900131  1
  O  O19  1  0.75683595  0.04841857  0.71725308  1
  O  O20  1  0.73422845  0.58701671  0.40073353  1
