# generated using pymatgen
data_Cu10Bi25O48
_symmetry_space_group_name_H-M   'P 1'
_cell_length_a   8.51255273
_cell_length_b   8.51254847
_cell_length_c   18.13487274
_cell_angle_alpha   89.99996605
_cell_angle_beta   90.00014569
_cell_angle_gamma   89.99991762
_symmetry_Int_Tables_number   1
_chemical_formula_structural   Cu10Bi25O48
_chemical_formula_sum   'Cu10 Bi25 O48'
_cell_volume   1314.11667210
_cell_formula_units_Z   1
loop_
 _symmetry_equiv_pos_site_id
 _symmetry_equiv_pos_as_xyz
  1  'x, y, z'
loop_
 _atom_site_type_symbol
 _atom_site_label
 _atom_site_symmetry_multiplicity
 _atom_site_fract_x
 _atom_site_fract_y
 _atom_site_fract_z
 _atom_site_occupancy
  Cu  Cu0  1  0.25000035  0.25000168  0.17426775  1
  Cu  Cu1  1  0.25000670  0.25000210  0.52494715  1
  Cu  Cu2  1  0.25000911  0.24999829  0.69210361  1
  Cu  Cu3  1  0.24999788  0.25000326  0.86115297  1
  Cu  Cu4  1  0.75000255  0.75000141  0.14118828  1
  Cu  Cu5  1  0.75000380  0.75000239  0.30799069  1
  Cu  Cu6  1  0.75000387  0.75000939  0.47684232  1
  Cu  Cu7  1  0.74999877  0.75000067  0.64102439  1
  Cu  Cu8  1  0.74999309  0.74999692  0.80506063  1
  Cu  Cu9  1  0.74999840  0.74999514  0.97110334  1
  Bi  Bi10  1  0.08466206  0.56715375  0.07842140  1
  Bi  Bi11  1  0.06904502  0.90745337  0.24410820  1
  Bi  Bi12  1  0.07513026  0.58045177  0.41946023  1
  Bi  Bi13  1  0.07749660  0.57991521  0.75208727  1
  Bi  Bi14  1  0.07860379  0.92154479  0.58561138  1
  Bi  Bi15  1  0.08343860  0.91768280  0.91912475  1
  Bi  Bi16  1  0.25000573  0.25000061  0.32240477  1
  Bi  Bi17  1  0.41533947  0.93284898  0.07842145  1
  Bi  Bi18  1  0.43095391  0.59254865  0.24410513  1
  Bi  Bi19  1  0.42139716  0.57845835  0.58561074  1
  Bi  Bi20  1  0.42487421  0.91955170  0.41946336  1
  Bi  Bi21  1  0.41656348  0.58231748  0.91912330  1
  Bi  Bi22  1  0.42249849  0.92008569  0.75208818  1
  Bi  Bi23  1  0.59254693  0.06904599  0.24410941  1
  Bi  Bi24  1  0.56715452  0.41533715  0.07841969  1
  Bi  Bi25  1  0.58045044  0.42487470  0.41946129  1
  Bi  Bi26  1  0.58231712  0.08343306  0.91912353  1
  Bi  Bi27  1  0.57845603  0.07860351  0.58561249  1
  Bi  Bi28  1  0.57991106  0.42250178  0.75208795  1
  Bi  Bi29  1  0.90745444  0.43095263  0.24410794  1
  Bi  Bi30  1  0.92154169  0.42139962  0.58560878  1
  Bi  Bi31  1  0.91768386  0.41656243  0.91912320  1
  Bi  Bi32  1  0.93284580  0.08466324  0.07842142  1
  Bi  Bi33  1  0.91955637  0.07513019  0.41946078  1
  Bi  Bi34  1  0.92008739  0.07749833  0.75208938  1
  O  O35  1  0.04614746  0.14467896  0.19207536  1
  O  O36  1  0.01340723  0.35175027  0.03003899  1
  O  O37  1  0.04347944  0.14803202  0.52925188  1
  O  O38  1  0.02890480  0.35344929  0.36764256  1
  O  O39  1  0.04519955  0.35266545  0.69621272  1
  O  O40  1  0.04555338  0.14734901  0.86421926  1
  O  O41  1  0.14824907  0.01341136  0.03003922  1
  O  O42  1  0.14468064  0.45385271  0.19207632  1
  O  O43  1  0.14655411  0.02890184  0.36764235  1
  O  O44  1  0.14733825  0.04520365  0.69621695  1
  O  O45  1  0.14735123  0.45444609  0.86421663  1
  O  O46  1  0.14802754  0.45652309  0.52925086  1
  O  O47  1  0.35532350  0.04614373  0.19207646  1
  O  O48  1  0.35197084  0.04348071  0.52925228  1
  O  O49  1  0.35265182  0.04554737  0.86421901  1
  O  O50  1  0.35175066  0.48659620  0.03003920  1
  O  O51  1  0.35345061  0.47110060  0.36764356  1
  O  O52  1  0.35266081  0.45479970  0.69621430  1
  O  O53  1  0.48659371  0.14824988  0.03003907  1
  O  O54  1  0.45385568  0.35532122  0.19207345  1
  O  O55  1  0.47110017  0.14654997  0.36764439  1
  O  O56  1  0.45652176  0.35197141  0.52925072  1
  O  O57  1  0.45479290  0.14733925  0.69621679  1
  O  O58  1  0.45445065  0.35264797  0.86421750  1
  O  O59  1  0.54883064  0.65119353  0.13834858  1
  O  O60  1  0.54415661  0.65221037  0.47204101  1
  O  O61  1  0.54622531  0.65259963  0.80113155  1
  O  O62  1  0.54340054  0.84813763  0.30119700  1
  O  O63  1  0.54322467  0.84950949  0.63711881  1
  O  O64  1  0.54724732  0.84754874  0.96707074  1
  O  O65  1  0.65185971  0.54339879  0.30119475  1
  O  O66  1  0.65049196  0.54322484  0.63711808  1
  O  O67  1  0.65245270  0.54724771  0.96706975  1
  O  O68  1  0.65119185  0.95117271  0.13835053  1
  O  O69  1  0.65220918  0.95584867  0.47204159  1
  O  O70  1  0.65259736  0.95377509  0.80113099  1
  O  O71  1  0.84881036  0.54882966  0.13835050  1
  O  O72  1  0.84779608  0.54415587  0.47203915  1
  O  O73  1  0.84740044  0.54622419  0.80113102  1
  O  O74  1  0.84813786  0.95659663  0.30119652  1
  O  O75  1  0.84951078  0.95677821  0.63711983  1
  O  O76  1  0.84754950  0.95275490  0.96707056  1
  O  O77  1  0.95659649  0.65185847  0.30119777  1
  O  O78  1  0.95677557  0.65049164  0.63711705  1
  O  O79  1  0.95117174  0.84881006  0.13834883  1
  O  O80  1  0.95584906  0.84779558  0.47204073  1
  O  O81  1  0.95377676  0.84740092  0.80113205  1
  O  O82  1  0.95275375  0.65245187  0.96707062  1
