# generated using pymatgen
data_Bi10(Pb2O7)3
_symmetry_space_group_name_H-M   'P 1'
_cell_length_a   7.69576881
_cell_length_b   14.39603608
_cell_length_c   7.35964598
_cell_angle_alpha   97.40212563
_cell_angle_beta   118.96676635
_cell_angle_gamma   80.50425038
_symmetry_Int_Tables_number   1
_chemical_formula_structural   Bi10(Pb2O7)3
_chemical_formula_sum   'Bi10 Pb6 O21'
_cell_volume   702.45626949
_cell_formula_units_Z   1
loop_
 _symmetry_equiv_pos_site_id
 _symmetry_equiv_pos_as_xyz
  1  'x, y, z'
loop_
 _atom_site_type_symbol
 _atom_site_label
 _atom_site_symmetry_multiplicity
 _atom_site_fract_x
 _atom_site_fract_y
 _atom_site_fract_z
 _atom_site_occupancy
  Bi  Bi0  1  0.06757967  0.18711612  0.71458856  1
  Bi  Bi1  1  0.23481965  0.45519965  0.72055121  1
  Bi  Bi2  1  0.23059883  0.02353838  0.29689640  1
  Bi  Bi3  1  0.31272871  0.92732257  0.80529154  1
  Bi  Bi4  1  0.51488759  0.67516945  0.77338800  1
  Bi  Bi5  1  0.48511241  0.32483055  0.22661200  1
  Bi  Bi6  1  0.68727129  0.07267743  0.19470846  1
  Bi  Bi7  1  0.76940117  0.97646162  0.70310360  1
  Bi  Bi8  1  0.76518035  0.54480035  0.27944879  1
  Bi  Bi9  1  0.93242033  0.81288388  0.28541144  1
  Pb  Pb10  1  0.01649933  0.70721696  0.74361704  1
  Pb  Pb11  1  0.52570028  0.20570625  0.72229978  1
  Pb  Pb12  1  0.21285634  0.55661458  0.23756688  1
  Pb  Pb13  1  0.78714366  0.44338542  0.76243312  1
  Pb  Pb14  1  0.47429972  0.79429375  0.27770022  1
  Pb  Pb15  1  0.98350067  0.29278304  0.25638296  1
  O  O16  1  0.03680721  0.02727241  0.72719666  1
  O  O17  1  0.08343358  0.32512337  0.59806732  1
  O  O18  1  0.40136388  0.21024333  0.99272029  1
  O  O19  1  0.26162934  0.12093463  0.59489162  1
  O  O20  1  0.05394933  0.46748009  0.34037854  1
  O  O21  1  0.32190612  0.62212397  0.85696955  1
  O  O22  1  0.17699133  0.80398448  0.63424628  1
  O  O23  1  0.74886065  0.09963558  0.93959511  1
  O  O24  1  0.24210607  0.42753895  0.02645110  1
  O  O25  1  0.59042574  0.08329948  0.49115939  1
  O  O26  1  0.50000000  0.50000000  0.50000000  1
  O  O27  1  0.40957426  0.91670052  0.50884061  1
  O  O28  1  0.75789393  0.57246105  0.97354890  1
  O  O29  1  0.25113935  0.90036442  0.06040489  1
  O  O30  1  0.82300867  0.19601552  0.36575372  1
  O  O31  1  0.67809388  0.37787603  0.14303045  1
  O  O32  1  0.94605067  0.53251991  0.65962146  1
  O  O33  1  0.73837066  0.87906537  0.40510838  1
  O  O34  1  0.59863612  0.78975667  0.00727971  1
  O  O35  1  0.91656642  0.67487663  0.40193268  1
  O  O36  1  0.96319279  0.97272759  0.27280334  1
