# generated using pymatgen
data_Zr4N2O5
_symmetry_space_group_name_H-M   'P 1'
_cell_length_a   8.90775837
_cell_length_b   8.90776754
_cell_length_c   8.90779002
_cell_angle_alpha   109.15439348
_cell_angle_beta   109.15433298
_cell_angle_gamma   110.10707347
_symmetry_Int_Tables_number   1
_chemical_formula_structural   Zr4N2O5
_chemical_formula_sum   'Zr16 N8 O20'
_cell_volume   544.05627567
_cell_formula_units_Z   4
loop_
 _symmetry_equiv_pos_site_id
 _symmetry_equiv_pos_as_xyz
  1  'x, y, z'
loop_
 _atom_site_type_symbol
 _atom_site_label
 _atom_site_symmetry_multiplicity
 _atom_site_fract_x
 _atom_site_fract_y
 _atom_site_fract_z
 _atom_site_occupancy
  Zr  Zr0  1  0.49147960  0.21677370  0.21387472  1
  Zr  Zr1  1  0.99857398  0.99857155  0.00003694  1
  Zr  Zr2  1  0.96347212  0.46347197  0.50003418  1
  Zr  Zr3  1  0.49855403  0.49855707  0.00003905  1
  Zr  Zr4  1  0.99146889  0.77763816  0.27473650  1
  Zr  Zr5  1  0.70311029  0.20310537  0.95682518  1
  Zr  Zr6  1  0.74631138  0.70310576  0.50001891  1
  Zr  Zr7  1  0.27762180  0.49144362  0.27470985  1
  Zr  Zr8  1  0.71678223  0.99145760  0.21385632  1
  Zr  Zr9  1  0.21676740  0.00295128  0.72535912  1
  Zr  Zr10  1  0.77763180  0.50296336  0.78622631  1
  Zr  Zr11  1  0.24632502  0.74632966  0.04324575  1
  Zr  Zr12  1  0.20311712  0.24632103  0.50004145  1
  Zr  Zr13  1  0.50294443  0.71676712  0.72533159  1
  Zr  Zr14  1  0.46347186  0.96347338  0.50004114  1
  Zr  Zr15  1  0.00293278  0.27763529  0.78620699  1
  N  N16  1  0.74912882  0.24911519  0.22703106  1
  N  N17  1  0.71752049  0.21751739  0.72043052  1
  N  N18  1  0.99713375  0.71751811  0.50003769  1
  N  N19  1  0.24911769  0.02212615  0.50006071  1
  N  N20  1  0.52210365  0.74909860  0.50001147  1
  N  N21  1  0.49716145  0.99717070  0.27967828  1
  N  N22  1  0.21751318  0.49713041  0.50002336  1
  N  N23  1  0.02210794  0.52212309  0.77304014  1
  O  O24  1  0.97503862  0.00764200  0.24046570  1
  O  O25  1  0.99948883  0.26577967  0.03239944  1
  O  O26  1  0.76577282  0.49949952  0.03241085  1
  O  O27  1  0.94123643  0.19639480  0.50003391  1
  O  O28  1  0.50763247  0.47501485  0.24044279  1
  O  O29  1  0.69638874  0.44123458  0.50003503  1
  O  O30  1  0.26576032  0.23340239  0.26630065  1
  O  O31  1  0.26720582  0.50764451  0.03264844  1
  O  O32  1  0.73341341  0.76577081  0.26631500  1
  O  O33  1  0.49949320  0.46712324  0.73375379  1
  O  O34  1  0.47503402  0.23459232  0.96741554  1
  O  O35  1  0.76721399  0.73460410  0.75959644  1
  O  O36  1  0.96712726  0.99949828  0.73377424  1
  O  O37  1  0.19641018  0.69642176  0.25520015  1
  O  O38  1  0.23459566  0.26721639  0.75962034  1
  O  O39  1  0.00763423  0.76722231  0.03264682  1
  O  O40  1  0.73461139  0.97502405  0.96741838  1
  O  O41  1  0.44121165  0.94119759  0.74486298  1
  O  O42  1  0.46714234  0.73339085  0.96767718  1
  O  O43  1  0.23341693  0.96713940  0.96768711  1
