# generated using pymatgen
data_YHO2
_symmetry_space_group_name_H-M   'P 1'
_cell_length_a   4.92174341
_cell_length_b   11.21878116
_cell_length_c   3.55812886
_cell_angle_alpha   90.00000000
_cell_angle_beta   90.00000000
_cell_angle_gamma   90.00000000
_symmetry_Int_Tables_number   1
_chemical_formula_structural   YHO2
_chemical_formula_sum   'Y4 H4 O8'
_cell_volume   196.46550879
_cell_formula_units_Z   4
loop_
 _symmetry_equiv_pos_site_id
 _symmetry_equiv_pos_as_xyz
  1  'x, y, z'
loop_
 _atom_site_type_symbol
 _atom_site_label
 _atom_site_symmetry_multiplicity
 _atom_site_fract_x
 _atom_site_fract_y
 _atom_site_fract_z
 _atom_site_occupancy
  Y  Y0  1  0.06130349  0.85573688  0.25000000  1
  Y  Y1  1  0.43869651  0.35573688  0.25000000  1
  Y  Y2  1  0.56130349  0.64426312  0.75000000  1
  Y  Y3  1  0.93869651  0.14426312  0.75000000  1
  H  H4  1  0.10072522  0.58746584  0.25000000  1
  H  H5  1  0.39927478  0.08746584  0.25000000  1
  H  H6  1  0.60072522  0.91253416  0.75000000  1
  H  H7  1  0.89927478  0.41253416  0.75000000  1
  O  O8  1  0.20842481  0.05850825  0.25000000  1
  O  O9  1  0.19191764  0.30770349  0.75000000  1
  O  O10  1  0.30808236  0.80770349  0.75000000  1
  O  O11  1  0.29157519  0.55850825  0.25000000  1
  O  O12  1  0.70842481  0.44149175  0.75000000  1
  O  O13  1  0.69191764  0.19229651  0.25000000  1
  O  O14  1  0.80808236  0.69229651  0.25000000  1
  O  O15  1  0.79157519  0.94149175  0.75000000  1
