# generated using pymatgen
data_Li7V3P8O29
_symmetry_space_group_name_H-M   'P 1'
_cell_length_a   9.84889911
_cell_length_b   9.85125328
_cell_length_c   13.90963846
_cell_angle_alpha   90.12087588
_cell_angle_beta   89.99364487
_cell_angle_gamma   60.00671525
_symmetry_Int_Tables_number   1
_chemical_formula_structural   Li7V3P8O29
_chemical_formula_sum   'Li14 V6 P16 O58'
_cell_volume   1168.83624650
_cell_formula_units_Z   2
loop_
 _symmetry_equiv_pos_site_id
 _symmetry_equiv_pos_as_xyz
  1  'x, y, z'
loop_
 _atom_site_type_symbol
 _atom_site_label
 _atom_site_symmetry_multiplicity
 _atom_site_fract_x
 _atom_site_fract_y
 _atom_site_fract_z
 _atom_site_occupancy
  Li  Li0  1  0.90325843  0.76252611  0.06082099  1
  Li  Li1  1  0.76841532  0.90241017  0.56313136  1
  Li  Li2  1  0.90217792  0.33333282  0.56133826  1
  Li  Li3  1  0.67129280  0.66750360  0.88373543  1
  Li  Li4  1  0.76585662  0.32725599  0.06157512  1
  Li  Li5  1  0.32501694  0.90343533  0.06416260  1
  Li  Li6  1  0.67689304  0.23395198  0.43569344  1
  Li  Li7  1  0.34540108  0.75834328  0.55896525  1
  Li  Li8  1  0.32720692  0.32797094  0.61210962  1
  Li  Li9  1  0.34941665  0.32966739  0.11332855  1
  Li  Li10  1  0.09442822  0.67465129  0.43811969  1
  Li  Li11  1  0.09133603  0.23047535  0.93606557  1
  Li  Li12  1  0.98236673  0.96587957  0.99641673  1
  Li  Li13  1  0.05078123  0.01173859  0.49095957  1
  V  V14  1  0.56373454  0.43773447  0.24778234  1
  V  V15  1  0.43274421  0.56554367  0.75465946  1
  V  V16  1  0.56216551  0.00141412  0.74999138  1
  V  V17  1  0.43373042  0.99916607  0.25341116  1
  V  V18  1  0.99948303  0.56374808  0.25088947  1
  V  V19  1  0.99913937  0.43564068  0.74875447  1
  P  P20  1  0.90459205  0.77722583  0.84284803  1
  P  P21  1  0.76999297  0.91627613  0.34557178  1
  P  P22  1  0.91410557  0.31177086  0.34489631  1
  P  P23  1  0.67011740  0.66619442  0.12574247  1
  P  P24  1  0.66074423  0.66790938  0.62644062  1
  P  P25  1  0.77317318  0.31437929  0.84562561  1
  P  P26  1  0.68242173  0.22793193  0.65806500  1
  P  P27  1  0.31686450  0.91109010  0.84508013  1
  P  P28  1  0.69292741  0.08634082  0.15860265  1
  P  P29  1  0.31260811  0.77265419  0.34229624  1
  P  P30  1  0.21734448  0.69073525  0.15674192  1
  P  P31  1  0.33436375  0.33338576  0.37053104  1
  P  P32  1  0.33388844  0.33112075  0.87293416  1
  P  P33  1  0.09289968  0.68140705  0.65846192  1
  P  P34  1  0.22258330  0.08497781  0.65702073  1
  P  P35  1  0.09147176  0.22667063  0.15940943  1
  O  O36  1  0.99918157  0.76664851  0.56994064  1
  O  O37  1  0.91643960  0.75079101  0.34100104  1
  O  O38  1  0.80182317  0.98464973  0.08048501  1
  O  O39  1  0.74185494  0.92237551  0.83342541  1
  O  O40  1  0.88769109  0.63025731  0.83158470  1
  O  O41  1  0.81791578  0.66870784  0.17046232  1
  O  O42  1  0.91695776  0.46626434  0.33292364  1
  O  O43  1  0.00089167  0.23657522  0.06939431  1
  O  O44  1  0.92032219  0.33032060  0.83996971  1
  O  O45  1  0.66338024  0.81648626  0.66875630  1
  O  O46  1  0.62018189  0.90957121  0.32831818  1
  O  O47  1  0.81115500  0.51751906  0.65983591  1
  O  O48  1  0.68198698  0.66736894  0.01765386  1
  O  O49  1  0.63885443  0.68018950  0.51996528  1
  O  O50  1  0.67614239  0.51461317  0.16088740  1
  O  O51  1  0.48224968  0.89267640  0.83094106  1
  O  O52  1  0.51858426  0.81417394  0.16299992  1
  O  O53  1  0.74759254  0.33661488  0.34003242  1
  O  O54  1  0.78256348  0.21101530  0.75269609  1
  O  O55  1  0.77137255  0.23187202  0.57015528  1
  O  O56  1  0.77375987  0.23081606  0.93573662  1
  O  O57  1  0.62612150  0.48029454  0.83242127  1
  O  O58  1  0.51541016  0.66638262  0.67547427  1
  O  O59  1  0.66438526  0.25423656  0.15358605  1
  O  O60  1  0.46806200  0.62302915  0.33214644  1
  O  O61  1  0.33417303  0.91836125  0.33301449  1
  O  O62  1  0.78335005  0.01663628  0.25958600  1
  O  O63  1  0.76926458  0.99877936  0.43792940  1
  O  O64  1  0.21830615  0.98179272  0.57875526  1
  O  O65  1  0.66292153  0.08202767  0.65536630  1
  O  O66  1  0.51906957  0.37635766  0.66876016  1
  O  O67  1  0.33433279  0.74835016  0.84057089  1
  O  O68  1  0.48724327  0.32554107  0.33455770  1
  O  O69  1  0.36680303  0.52778331  0.16239081  1
  O  O70  1  0.20702660  0.79730800  0.07695907  1
  O  O71  1  0.22461383  0.78125221  0.43406551  1
  O  O72  1  0.19650062  0.78560400  0.25683466  1
  O  O73  1  0.25560180  0.66849627  0.65796544  1
  O  O74  1  0.47259729  0.18398027  0.82140637  1
  O  O75  1  0.53099225  0.09486542  0.16759802  1
  O  O76  1  0.34127555  0.47434136  0.82767389  1
  O  O77  1  0.34975033  0.32451482  0.97973812  1
  O  O78  1  0.32604900  0.34311611  0.47847996  1
  O  O79  1  0.18567499  0.48886078  0.32992078  1
  O  O80  1  0.37415862  0.09578108  0.66239543  1
  O  O81  1  0.32550288  0.19254446  0.32647670  1
  O  O82  1  0.07533367  0.66325645  0.15660355  1
  O  O83  1  0.00470972  0.78354706  0.75189335  1
  O  O84  1  0.98456367  0.78260084  0.93370117  1
  O  O85  1  0.11663439  0.51502790  0.66923045  1
  O  O86  1  0.18239610  0.33388223  0.84079112  1
  O  O87  1  0.11019768  0.37319967  0.17308813  1
  O  O88  1  0.25797287  0.08175585  0.15825860  1
  O  O89  1  0.23629400  0.99938817  0.93612038  1
  O  O90  1  0.20691956  0.01364489  0.75834959  1
  O  O91  1  0.08040318  0.25102516  0.65342987  1
  O  O92  1  0.99363532  0.22222276  0.43459311  1
  O  O93  1  0.00346453  0.20708343  0.25036812  1
