# generated using pymatgen
data_Li2Ta2W2O13
_symmetry_space_group_name_H-M   'P 1'
_cell_length_a   7.41598709
_cell_length_b   7.41598709
_cell_length_c   7.41598709
_cell_angle_alpha   90.03639627
_cell_angle_beta   59.76938124
_cell_angle_gamma   119.81185464
_symmetry_Int_Tables_number   1
_chemical_formula_structural   Li2Ta2W2O13
_chemical_formula_sum   'Li2 Ta2 W2 O13'
_cell_volume   288.30031685
_cell_formula_units_Z   1
loop_
 _symmetry_equiv_pos_site_id
 _symmetry_equiv_pos_as_xyz
  1  'x, y, z'
loop_
 _atom_site_type_symbol
 _atom_site_label
 _atom_site_symmetry_multiplicity
 _atom_site_fract_x
 _atom_site_fract_y
 _atom_site_fract_z
 _atom_site_occupancy
  Li  Li0  1  0.73111424  0.43412371  0.83476205  1
  Li  Li1  1  0.26888576  0.43412371  0.29699053  1
  Ta  Ta2  1  0.25518937  0.38474411  0.87044527  1
  Ta  Ta3  1  0.74481063  0.87436536  0.87044527  1
  W  W4  1  0.75137437  0.87989121  0.36873442  1
  W  W5  1  0.24862563  0.87989121  0.87148317  1
  O  O6  1  0.86477676  0.92976147  0.56377764  1
  O  O7  1  0.50646089  0.57144560  0.56377764  1
  O  O8  1  0.50000000  0.93430389  0.56569611  1
  O  O9  1  0.13522324  0.57144560  0.93501529  1
  O  O10  1  0.49353911  0.92976147  0.93501529  1
  O  O11  1  0.50000000  0.54564486  0.95435514  1
  O  O12  1  0.62064122  0.80560149  0.19333593  1
  O  O13  1  0.00106259  0.18602285  0.19333593  1
  O  O14  1  -0.00000000  0.82105157  0.17894843  1
  O  O15  1  0.37935878  0.18602285  0.81503974  1
  O  O16  1  0.99893741  0.80560149  0.81503974  1
  O  O17  1  -0.00000000  0.18393937  0.81606063  1
  O  O18  1  -0.00000000  0.39225820  0.60774180  1
