# generated using pymatgen
data_Li4MnP2O9
_symmetry_space_group_name_H-M   'P 1'
_cell_length_a   6.78776859
_cell_length_b   7.86443816
_cell_length_c   7.02544311
_cell_angle_alpha   89.32381802
_cell_angle_beta   90.00000000
_cell_angle_gamma   64.43414978
_symmetry_Int_Tables_number   1
_chemical_formula_structural   Li4MnP2O9
_chemical_formula_sum   'Li8 Mn2 P4 O18'
_cell_volume   338.28372596
_cell_formula_units_Z   2
loop_
 _symmetry_equiv_pos_site_id
 _symmetry_equiv_pos_as_xyz
  1  'x, y, z'
loop_
 _atom_site_type_symbol
 _atom_site_label
 _atom_site_symmetry_multiplicity
 _atom_site_fract_x
 _atom_site_fract_y
 _atom_site_fract_z
 _atom_site_occupancy
  Li  Li0  1  0.10777030  0.78446039  0.23255299  1
  Li  Li1  1  0.63349509  0.73300982  0.71064884  1
  Li  Li2  1  0.50000000  0.50000000  0.50000000  1
  Li  Li3  1  0.00000000  0.50000000  0.50000000  1
  Li  Li4  1  0.36650491  0.26699018  0.28935116  1
  Li  Li5  1  0.89222970  0.21553961  0.76744701  1
  Li  Li6  1  0.24109420  1.00000000  0.00000000  1
  Li  Li7  1  0.75890580  0.00000000  0.00000000  1
  Mn  Mn8  1  0.00000000  0.50000000  0.00000000  1
  Mn  Mn9  1  0.50000000  0.50000000  0.00000000  1
  P  P10  1  0.60276476  0.79446949  0.24268972  1
  P  P11  1  0.12431875  0.75136151  0.70846041  1
  P  P12  1  0.87568125  0.24863849  0.29153959  1
  P  P13  1  0.39723524  0.20553051  0.75731028  1
  O  O14  1  0.49610975  0.00777949  0.23563613  1
  O  O15  1  0.03095145  0.93809609  0.81353214  1
  O  O16  1  0.12722974  0.74554151  0.49312016  1
  O  O17  1  0.44058976  0.73835852  0.12351464  1
  O  O18  1  0.82105072  0.73835852  0.12351464  1
  O  O19  1  0.65496460  0.69007079  0.43493953  1
  O  O20  1  0.37416114  0.63568452  0.76621368  1
  O  O21  1  0.99015434  0.63568452  0.76621368  1
  O  O22  1  0.23750863  0.52498173  0.10357924  1
  O  O23  1  0.76249137  0.47501827  0.89642076  1
  O  O24  1  0.00984566  0.36431548  0.23378632  1
  O  O25  1  0.62583886  0.36431548  0.23378632  1
  O  O26  1  0.34503540  0.30992921  0.56506047  1
  O  O27  1  0.17894928  0.26164148  0.87648536  1
  O  O28  1  0.55941024  0.26164148  0.87648536  1
  O  O29  1  0.87277026  0.25445849  0.50687984  1
  O  O30  1  0.96904855  0.06190391  0.18646786  1
  O  O31  1  0.50389025  0.99222051  0.76436387  1
