# generated using pymatgen
data_GaH7(NF2)2
_symmetry_space_group_name_H-M   'P 1'
_cell_length_a   6.35989050
_cell_length_b   6.35989050
_cell_length_c   7.57668755
_cell_angle_alpha   65.74656783
_cell_angle_beta   65.74656783
_cell_angle_gamma   65.19387007
_symmetry_Int_Tables_number   1
_chemical_formula_structural   GaH7(NF2)2
_chemical_formula_sum   'Ga2 H14 N4 F8'
_cell_volume   242.87955004
_cell_formula_units_Z   2
loop_
 _symmetry_equiv_pos_site_id
 _symmetry_equiv_pos_as_xyz
  1  'x, y, z'
loop_
 _atom_site_type_symbol
 _atom_site_label
 _atom_site_symmetry_multiplicity
 _atom_site_fract_x
 _atom_site_fract_y
 _atom_site_fract_z
 _atom_site_occupancy
  Ga  Ga0  1  0.00000000  0.00000000  0.00000000  1
  Ga  Ga1  1  0.00000000  0.00000000  0.50000000  1
  H  H2  1  0.20828737  0.20828737  0.07338839  1
  H  H3  1  0.47107906  0.47107906  0.23354770  1
  H  H4  1  0.19533212  0.43610685  0.33651769  1
  H  H5  1  0.43610685  0.19533212  0.33651769  1
  H  H6  1  0.61592917  0.85887704  0.14351475  1
  H  H7  1  0.85887704  0.61592917  0.14351475  1
  H  H8  1  0.36335253  0.36335253  0.48873712  1
  H  H9  1  0.63664747  0.63664747  0.51126288  1
  H  H10  1  0.38407083  0.14112296  0.85648525  1
  H  H11  1  0.14112296  0.38407083  0.85648525  1
  H  H12  1  0.56389315  0.80466788  0.66348231  1
  H  H13  1  0.80466788  0.56389315  0.66348231  1
  H  H14  1  0.52892094  0.52892094  0.76645230  1
  H  H15  1  0.79171263  0.79171263  0.92661161  1
  N  N16  1  0.79151120  0.79151120  0.06194877  1
  N  N17  1  0.36826800  0.36826800  0.35084450  1
  N  N18  1  0.63173200  0.63173200  0.64915550  1
  N  N19  1  0.20848880  0.20848880  0.93805123  1
  F  F20  1  0.27572953  0.72427047  0.00000000  1
  F  F21  1  0.72427047  0.27572953  0.00000000  1
  F  F22  1  0.06928423  0.06928423  0.69746615  1
  F  F23  1  0.33726326  0.94324482  0.35024391  1
  F  F24  1  0.94324482  0.33726326  0.35024391  1
  F  F25  1  0.05675518  0.66273674  0.64975609  1
  F  F26  1  0.66273674  0.05675518  0.64975609  1
  F  F27  1  0.93071577  0.93071577  0.30253385  1
