# generated using pymatgen
data_Ba16S16O59
_symmetry_space_group_name_H-M   'P 1'
_cell_length_a   8.96161629
_cell_length_b   11.13839810
_cell_length_c   14.54172443
_cell_angle_alpha   90.00338378
_cell_angle_beta   89.93607353
_cell_angle_gamma   89.97975102
_symmetry_Int_Tables_number   1
_chemical_formula_structural   Ba16S16O59
_chemical_formula_sum   'Ba16 S16 O59'
_cell_volume   1451.52557697
_cell_formula_units_Z   1
loop_
 _symmetry_equiv_pos_site_id
 _symmetry_equiv_pos_as_xyz
  1  'x, y, z'
loop_
 _atom_site_type_symbol
 _atom_site_label
 _atom_site_symmetry_multiplicity
 _atom_site_fract_x
 _atom_site_fract_y
 _atom_site_fract_z
 _atom_site_occupancy
  Ba  Ba0  1  0.18544356  0.13550221  0.07590993  1
  Ba  Ba1  1  0.17761454  0.12546498  0.57314862  1
  Ba  Ba2  1  0.18515073  0.61465086  0.07576260  1
  Ba  Ba3  1  0.17927569  0.62444698  0.57083824  1
  Ba  Ba4  1  0.32243643  0.37990935  0.31894764  1
  Ba  Ba5  1  0.32109627  0.86992649  0.32636307  1
  Ba  Ba6  1  0.31998520  0.37492862  0.83104350  1
  Ba  Ba7  1  0.32194829  0.87504830  0.82988389  1
  Ba  Ba8  1  0.68457230  0.11518540  0.17957285  1
  Ba  Ba9  1  0.69356932  0.12412345  0.66914468  1
  Ba  Ba10  1  0.68855756  0.63523406  0.17517060  1
  Ba  Ba11  1  0.69263894  0.62602054  0.67069781  1
  Ba  Ba12  1  0.81288570  0.36972256  0.42615875  1
  Ba  Ba13  1  0.81619820  0.37441299  0.91837793  1
  Ba  Ba14  1  0.81192928  0.88023460  0.42478556  1
  Ba  Ba15  1  0.81730969  0.87590209  0.92617714  1
  S  S16  1  0.06511281  0.12336702  0.34362203  1
  S  S17  1  0.06007356  0.62657282  0.34319375  1
  S  S18  1  0.05917887  0.12502271  0.84247861  1
  S  S19  1  0.05941016  0.62500753  0.84270237  1
  S  S20  1  0.45192355  0.37512080  0.08630445  1
  S  S21  1  0.43518086  0.37316088  0.59480596  1
  S  S22  1  0.43461682  0.87476234  0.09388462  1
  S  S23  1  0.43534548  0.87679667  0.59471682  1
  S  S24  1  0.54750297  0.12554615  0.41399490  1
  S  S25  1  0.55857007  0.12646861  0.90624392  1
  S  S26  1  0.55990627  0.62501819  0.40611924  1
  S  S27  1  0.55855119  0.62353815  0.90618715  1
  S  S28  1  0.95218656  0.87436257  0.66398053  1
  S  S29  1  0.93465766  0.37485897  0.15479190  1
  S  S30  1  0.95280000  0.37561775  0.66390152  1
  S  S31  1  0.95167701  0.87505418  0.16237400  1
  O  O32  1  0.08549800  0.01425207  0.40385136  1
  O  O33  1  0.09044942  0.23254257  0.40260111  1
  O  O34  1  0.08492453  0.51711575  0.40162550  1
  O  O35  1  0.07974739  0.73599608  0.40294634  1
  O  O36  1  0.08145976  0.51500743  0.90168122  1
  O  O37  1  0.08375849  0.73402313  0.90169449  1
  O  O38  1  0.08182360  0.23498167  0.90132317  1
  O  O39  1  0.08418663  0.01603093  0.90132254  1
  O  O40  1  0.08744098  0.37481445  0.19294276  1
  O  O41  1  0.18125262  0.11906213  0.27032935  1
  O  O42  1  0.17257771  0.12594284  0.76724549  1
  O  O43  1  0.17619203  0.63090133  0.26952154  1
  O  O44  1  0.17319570  0.62410075  0.76783774  1
  O  O45  1  0.31583798  0.37546911  0.02135306  1
  O  O46  1  0.31899714  0.36928304  0.52124872  1
  O  O47  1  0.31752073  0.87437994  0.02151041  1
  O  O48  1  0.31953918  0.88084545  0.52079206  1
  O  O49  1  0.40490757  0.12417335  0.94293159  1
  O  O50  1  0.40701918  0.62505332  0.44409416  1
  O  O51  1  0.40513545  0.62587280  0.94299731  1
  O  O52  1  0.42716182  0.26552980  0.15012509  1
  O  O53  1  0.41502486  0.26402663  0.65487928  1
  O  O54  1  0.42770118  0.48500767  0.15025158  1
  O  O55  1  0.41020494  0.48238854  0.65388550  1
  O  O56  1  0.41354972  0.76594741  0.15416864  1
  O  O57  1  0.40963851  0.76767128  0.65365090  1
  O  O58  1  0.41285840  0.98340671  0.15400914  1
  O  O59  1  0.41435195  0.98577710  0.65474433  1
  O  O60  1  0.56820683  0.01483944  0.34998553  1
  O  O61  1  0.57204543  0.23424173  0.34933099  1
  O  O62  1  0.58116502  0.51646823  0.34631028  1
  O  O63  1  0.58225651  0.01703040  0.84752489  1
  O  O64  1  0.57750978  0.23589346  0.84639354  1
  O  O65  1  0.57762373  0.51416664  0.84625796  1
  O  O66  1  0.57916464  0.73461017  0.34646114  1
  O  O67  1  0.58235801  0.73292662  0.84743614  1
  O  O68  1  0.58706958  0.87469648  0.05557542  1
  O  O69  1  0.58790571  0.37545799  0.55717640  1
  O  O70  1  0.58793827  0.87444414  0.55727090  1
  O  O71  1  0.68475044  0.12406068  0.47719562  1
  O  O72  1  0.67698849  0.62579454  0.47839997  1
  O  O73  1  0.67399169  0.13071670  0.97976976  1
  O  O74  1  0.67416323  0.61920165  0.97959025  1
  O  O75  1  0.81742880  0.37505355  0.22711539  1
  O  O76  1  0.81771075  0.37467543  0.72863973  1
  O  O77  1  0.81520028  0.87494016  0.22701271  1
  O  O78  1  0.81636420  0.87533853  0.72787976  1
  O  O79  1  0.90494059  0.12487976  0.80776251  1
  O  O80  1  0.90521051  0.62512741  0.80768084  1
  O  O81  1  0.91209820  0.12568289  0.30716775  1
  O  O82  1  0.90724850  0.62425281  0.30633721  1
  O  O83  1  0.92837818  0.76579306  0.59872216  1
  O  O84  1  0.93136136  0.98453557  0.59949179  1
  O  O85  1  0.91386984  0.26606012  0.09457516  1
  O  O86  1  0.93058101  0.26551009  0.59972643  1
  O  O87  1  0.91419860  0.48379162  0.09449006  1
  O  O88  1  0.92761524  0.48412483  0.59899702  1
  O  O89  1  0.92832984  0.76517925  0.09814152  1
  O  O90  1  0.92836773  0.98491393  0.09843322  1
