# generated using pymatgen
data_Li7Ni5O12
_symmetry_space_group_name_H-M   'P 1'
_cell_length_a   6.47165148
_cell_length_b   6.36874597
_cell_length_c   5.77097079
_cell_angle_alpha   76.94247486
_cell_angle_beta   116.53863614
_cell_angle_gamma   108.41973943
_symmetry_Int_Tables_number   1
_chemical_formula_structural   Li7Ni5O12
_chemical_formula_sum   'Li7 Ni5 O12'
_cell_volume   200.88471831
_cell_formula_units_Z   1
loop_
 _symmetry_equiv_pos_site_id
 _symmetry_equiv_pos_as_xyz
  1  'x, y, z'
loop_
 _atom_site_type_symbol
 _atom_site_label
 _atom_site_symmetry_multiplicity
 _atom_site_fract_x
 _atom_site_fract_y
 _atom_site_fract_z
 _atom_site_occupancy
  Li  Li0  1  0.49799250  0.00289284  0.24970729  1
  Li  Li1  1  0.33333300  0.33333300  0.33333300  1
  Li  Li2  1  0.83008553  0.33128017  0.08330571  1
  Li  Li3  1  0.49767046  0.00615556  0.74510162  1
  Li  Li4  1  0.16867450  0.66377416  0.41695971  1
  Li  Li5  1  0.83658147  0.33538683  0.58336129  1
  Li  Li6  1  0.16899654  0.66051144  0.92156538  1
  Ni  Ni7  1  0.00271444  0.00124009  0.00225859  1
  Ni  Ni8  1  0.00408640  0.99987465  0.50049066  1
  Ni  Ni9  1  0.33333300  0.33333300  0.83333300  1
  Ni  Ni10  1  0.66258060  0.66679235  0.16617634  1
  Ni  Ni11  1  0.66395256  0.66542691  0.66440841  1
  O  O12  1  0.22052891  0.99622672  0.35897081  1
  O  O13  1  0.57275784  0.35268055  0.18095099  1
  O  O14  1  0.09390916  0.31398645  0.48571601  1
  O  O15  1  0.25214848  0.02066774  0.87262594  1
  O  O16  1  0.57193325  0.35128157  0.71580797  1
  O  O17  1  0.89511928  0.68129472  0.02591475  1
  O  O18  1  0.09473375  0.31538443  0.95085903  1
  O  O19  1  0.44613809  0.67044028  0.30769619  1
  O  O20  1  0.91286025  0.68304886  0.53821598  1
  O  O21  1  0.75380575  0.98361814  0.12845102  1
  O  O22  1  0.41451752  0.64599926  0.79404006  1
  O  O23  1  0.77154672  0.98537228  0.64075225  1
