# generated using pymatgen
data_Na9Ti20O40
_symmetry_space_group_name_H-M   'P 1'
_cell_length_a   10.64753288
_cell_length_b   8.69304212
_cell_length_c   10.64753288
_cell_angle_alpha   65.90701742
_cell_angle_beta   80.40733774
_cell_angle_gamma   65.90701742
_symmetry_Int_Tables_number   1
_chemical_formula_structural   Na9Ti20O40
_chemical_formula_sum   'Na9 Ti20 O40'
_cell_volume   821.29868337
_cell_formula_units_Z   1
loop_
 _symmetry_equiv_pos_site_id
 _symmetry_equiv_pos_as_xyz
  1  'x, y, z'
loop_
 _atom_site_type_symbol
 _atom_site_label
 _atom_site_symmetry_multiplicity
 _atom_site_fract_x
 _atom_site_fract_y
 _atom_site_fract_z
 _atom_site_occupancy
  Na  Na0  1  0.14938977  0.02554126  0.55149139  1
  Na  Na1  1  0.34850861  0.22506897  0.94938977  1
  Na  Na2  1  0.44991751  0.57491408  0.65024495  1
  Na  Na3  1  0.24975505  0.37516841  0.24991751  1
  Na  Na4  1  0.75149139  0.62296735  0.75061023  1
  Na  Na5  1  0.55000000  0.42500000  0.35000000  1
  Na  Na6  1  0.85024495  0.97484097  0.45008249  1
  Na  Na7  1  0.65008249  0.77507654  0.04975505  1
  Na  Na8  1  0.95061023  0.82642242  0.14850861  1
  Ti  Ti9  1  0.19773438  0.70632447  0.89903505  1
  Ti  Ti10  1  0.09903505  0.59464048  0.70226562  1
  Ti  Ti11  1  0.00094963  0.49696601  0.50376958  1
  Ti  Ti12  1  0.29683028  0.29927478  0.60250797  1
  Ti  Ti13  1  0.39623042  0.90208436  0.80094963  1
  Ti  Ti14  1  0.09905037  0.10168622  0.19623042  1
  Ti  Ti15  1  0.20067648  0.70014938  0.40057706  1
  Ti  Ti16  1  0.00096495  0.49594215  0.99773438  1
  Ti  Ti17  1  0.70376958  0.19926441  0.89905037  1
  Ti  Ti18  1  0.50100965  0.00003132  0.50055204  1
  Ti  Ti19  1  0.60057706  0.09927356  0.69932352  1
  Ti  Ti20  1  0.29749203  0.80389495  0.09683028  1
  Ti  Ti21  1  0.39944796  0.89895903  0.30100965  1
  Ti  Ti22  1  0.80250797  0.29821625  0.60316972  1
  Ti  Ti23  1  0.90226562  0.90309390  0.80096495  1
  Ti  Ti24  1  0.70055204  0.69941664  0.39899035  1
  Ti  Ti25  1  0.49942294  0.49917414  0.00067648  1
  Ti  Ti26  1  0.59899035  0.10159301  0.19944796  1
  Ti  Ti27  1  0.89932352  0.40140292  0.29942294  1
  Ti  Ti28  1  0.80316972  0.29861403  0.09749203  1
  O  O29  1  0.00714904  0.73792339  0.97820461  1
  O  O30  1  0.17820461  0.48387201  0.89285096  1
  O  O31  1  0.09285096  0.82327703  0.72179539  1
  O  O32  1  0.02202177  0.71654829  0.50775975  1
  O  O33  1  0.10696541  0.37428264  0.67929554  1
  O  O34  1  0.22070446  0.91875095  0.90696541  1
  O  O35  1  0.47761318  0.74679965  0.99260658  1
  O  O36  1  0.07797823  0.34632981  0.19224025  1
  O  O37  1  0.19260658  0.46059377  0.42238682  1
  O  O38  1  0.27791437  0.54587333  0.59315519  1
  O  O39  1  0.39224025  0.66142894  0.82202177  1
  O  O40  1  0.32254922  0.05333337  0.60672946  1
  O  O41  1  0.12210593  0.85298749  0.20822998  1
  O  O42  1  0.20714326  0.93919586  0.37823866  1
  O  O43  1  0.40822998  0.13878253  0.77789407  1
  O  O44  1  0.49257415  0.22428292  0.52219141  1
  O  O45  1  0.37780859  0.68314293  0.29257415  1
  O  O46  1  0.29327054  0.02411741  0.12254922  1
  O  O47  1  0.57823866  0.88256549  0.69285674  1
  O  O48  1  0.69177002  0.42490658  0.92210593  1
  O  O49  1  0.50733679  0.77552349  0.47808704  1
  O  O50  1  0.30684481  0.57621230  0.07791437  1
  O  O51  1  0.70775975  0.97569196  0.87797823  1
  O  O52  1  0.62238682  0.31701941  0.70739342  1
  O  O53  1  0.42191296  0.11714071  0.30733679  1
  O  O54  1  0.87929554  0.14642082  0.79303459  1
  O  O55  1  0.79315519  0.06097148  0.62208563  1
  O  O56  1  0.59266321  0.86094733  0.22191296  1
  O  O57  1  0.67808704  0.94638947  0.39266321  1
  O  O58  1  0.80672946  0.53993817  0.57745078  1
  O  O59  1  0.92179539  0.65492758  0.80714904  1
  O  O60  1  0.60742585  0.33904848  0.17780859  1
  O  O61  1  0.72219141  0.45352566  0.40742585  1
  O  O62  1  0.52176134  0.25366189  0.00714326  1
  O  O63  1  0.77745078  0.08261205  0.09327054  1
  O  O64  1  0.97789407  0.28332340  0.49177002  1
  O  O65  1  0.89285674  0.62457677  0.32176134  1
  O  O66  1  0.90739342  0.17558717  0.27761318  1
  O  O67  1  0.82208563  0.51694289  0.10684481  1
  O  O68  1  0.99303459  0.26054459  0.02070446  1
