# generated using pymatgen
data_B84O11
_symmetry_space_group_name_H-M   'P 1'
_cell_length_a   11.80692340
_cell_length_b   7.39569964
_cell_length_c   8.79982277
_cell_angle_alpha   112.22429532
_cell_angle_beta   95.81374858
_cell_angle_gamma   91.22252966
_symmetry_Int_Tables_number   1
_chemical_formula_structural   B84O11
_chemical_formula_sum   'B84 O11'
_cell_volume   706.17540822
_cell_formula_units_Z   1
loop_
 _symmetry_equiv_pos_site_id
 _symmetry_equiv_pos_as_xyz
  1  'x, y, z'
loop_
 _atom_site_type_symbol
 _atom_site_label
 _atom_site_symmetry_multiplicity
 _atom_site_fract_x
 _atom_site_fract_y
 _atom_site_fract_z
 _atom_site_occupancy
  B  B0  1  0.95089407  0.09090390  0.85252793  1
  B  B1  1  0.98980880  0.22550036  0.56767237  1
  B  B2  1  0.94929241  0.43045103  0.72899712  1
  B  B3  1  0.89858575  0.84817503  0.83728808  1
  B  B4  1  0.90454138  0.19415496  0.71663458  1
  B  B5  1  0.95076596  0.43659012  0.52622754  1
  B  B6  1  0.98384677  0.23469842  0.06885932  1
  B  B7  1  0.83717252  0.54377601  0.65367686  1
  B  B8  1  0.90405264  0.19717547  0.38161172  1
  B  B9  1  0.75691060  0.47254773  0.94864492  1
  B  B10  1  0.95485170  0.09862302  0.19457817  1
  B  B11  1  0.80893190  0.38660859  0.76485587  1
  B  B12  1  0.87469338  0.05181739  0.50164035  1
  B  B13  1  0.80843486  0.39041179  0.43145177  1
  B  B14  1  0.66311684  0.66147449  0.99588551  1
  B  B15  1  0.90369402  0.85577845  0.04917732  1
  B  B16  1  0.76241995  0.14798531  0.62161973  1
  B  B17  1  0.84439206  0.50539291  0.13573409  1
  B  B18  1  0.80537828  0.70939554  0.29635346  1
  B  B19  1  0.71471268  0.79137373  0.71551172  1
  B  B20  1  0.66584968  0.99858048  0.87174405  1
  B  B21  1  0.86768368  0.06116633  0.00418350  1
  B  B22  1  0.72412991  0.35625268  0.57908836  1
  B  B23  1  0.76371311  0.15081421  0.41740313  1
  B  B24  1  0.61042415  0.41684120  0.97792424  1
  B  B25  1  0.75895602  0.47556162  0.28544744  1
  B  B26  1  0.62130132  0.76436492  0.85975764  1
  B  B27  1  0.66994906  0.00709227  0.67036617  1
  B  B28  1  0.80714731  0.71205514  0.09221192  1
  B  B29  1  0.69471761  0.80665289  0.21136880  1
  B  B30  1  0.55375230  0.11287686  0.79665534  1
  B  B31  1  0.62384497  0.76770875  0.52616779  1
  B  B32  1  0.66476419  0.66607313  0.33316157  1
  B  B33  1  0.52470563  0.95744416  0.90914393  1
  B  B34  1  0.72822580  0.33305876  0.07118902  1
  B  B35  1  0.59211947  0.62523063  0.64645172  1
  B  B36  1  0.52630615  0.96191564  0.57542720  1
  B  B37  1  0.61513441  0.42572286  0.18957120  1
  B  B38  1  0.47867091  0.71771838  0.76470082  1
  B  B39  1  0.55887761  0.08022507  0.28189975  1
  B  B40  1  0.43067006  0.35726096  0.85682701  1
  B  B41  1  0.51849702  0.28357830  0.44154100  1
  B  B42  1  0.57921029  0.63198437  0.14559816  1
  B  B43  1  0.44139716  0.92566155  0.72218091  1
  B  B44  1  0.48168676  0.72293893  0.56134575  1
  B  B45  1  0.47281215  0.04940153  0.43049687  1
  B  B46  1  0.52116062  0.28650522  0.23819960  1
  B  B47  1  0.38719647  0.56893601  0.80890436  1
  B  B48  1  0.40791673  0.38046467  0.35566610  1
  B  B49  1  0.27074593  0.66317271  0.92590195  1
  B  B50  1  0.47425091  0.04926761  0.09575677  1
  B  B51  1  0.33923174  0.33198058  0.66795226  1
  B  B52  1  0.37585294  0.23874588  0.47520492  1
  B  B53  1  0.30716287  0.19014963  0.78694036  1
  B  B54  1  0.44337592  0.90782148  0.21650512  1
  B  B55  1  0.37798318  0.23946458  0.14275391  1
  B  B56  1  0.24296516  0.52128522  0.71258740  1
  B  B57  1  0.19229208  0.28275680  0.90344194  1
  B  B58  1  0.32807781  0.00225989  0.33399913  1
  B  B59  1  0.27601561  0.64522166  0.42059199  1
  B  B60  1  0.38092298  0.56453742  0.01127568  1
  B  B61  1  0.13244342  0.93711033  0.99505135  1
  B  B62  1  0.23607533  0.84829939  0.58201017  1
  B  B63  1  0.28380872  0.21467645  0.28645912  1
  B  B64  1  0.15540513  0.49109735  0.86087064  1
  B  B65  1  0.19605157  0.28771178  0.70128376  1
  B  B66  1  0.33247527  0.00630637  0.13097926  1
  B  B67  1  0.33603082  0.33076173  0.99948859  1
  B  B68  1  0.19215923  0.60819561  0.56759663  1
  B  B69  1  0.23773496  0.85299614  0.37806269  1
  B  B70  1  0.09616217  0.14172187  0.94916772  1
  B  B71  1  0.12532293  0.94707570  0.49762363  1
  B  B72  1  0.04499536  0.89993080  0.80470890  1
  B  B73  1  0.19176163  0.61247977  0.23349745  1
  B  B74  1  0.24007936  0.52055103  0.04618889  1
  B  B75  1  0.09605403  0.80162647  0.61799216  1
  B  B76  1  0.16373693  0.45551874  0.34559240  1
  B  B77  1  0.01628632  0.76387091  0.93021542  1
  B  B78  1  0.09582300  0.80474666  0.28251283  1
  B  B79  1  0.04963275  0.56232640  0.47314973  1
  B  B80  1  0.10097594  0.15049637  0.16150551  1
  B  B81  1  0.01062681  0.77332386  0.43161431  1
  B  B82  1  0.05104601  0.56827683  0.26991641  1
  B  B83  1  0.04905542  0.90790943  0.14680909  1
  O  O84  1  0.96379476  0.44530360  0.13518833  1
  O  O85  1  0.89135205  0.83696765  0.43256094  1
  O  O86  1  0.67787994  0.02065805  0.28165717  1
  O  O87  1  0.74981768  0.12387138  0.00706055  1
  O  O88  1  0.60432682  0.41167515  0.57801927  1
  O  O89  1  0.32167141  0.97754532  0.71761518  1
  O  O90  1  0.39591843  0.59365603  0.42501855  1
  O  O91  1  0.46177926  0.69575333  0.14892738  1
  O  O92  1  0.25075240  0.87482604  0.99329865  1
  O  O93  1  0.10928501  0.16153752  0.56534352  1
  O  O94  1  0.03670986  0.55314472  0.86293963  1
