# generated using pymatgen
data_NdTa3O9
_symmetry_space_group_name_H-M   'P 1'
_cell_length_a   8.82627633
_cell_length_b   5.58032795
_cell_length_c   8.88806551
_cell_angle_alpha   71.66532278
_cell_angle_beta   66.57251002
_cell_angle_gamma   71.59927371
_symmetry_Int_Tables_number   1
_chemical_formula_structural   NdTa3O9
_chemical_formula_sum   'Nd2 Ta6 O18'
_cell_volume   372.04851063
_cell_formula_units_Z   2
loop_
 _symmetry_equiv_pos_site_id
 _symmetry_equiv_pos_as_xyz
  1  'x, y, z'
loop_
 _atom_site_type_symbol
 _atom_site_label
 _atom_site_symmetry_multiplicity
 _atom_site_fract_x
 _atom_site_fract_y
 _atom_site_fract_z
 _atom_site_occupancy
  Nd  Nd0  1  0.33691367  0.32388286  0.00233921  1
  Nd  Nd1  1  0.65954061  0.67011725  0.99871053  1
  Ta  Ta2  1  0.08207341  0.58342385  0.75029671  1
  Ta  Ta3  1  0.23792518  0.74770068  0.26436241  1
  Ta  Ta4  1  0.58735884  0.07619103  0.25858196  1
  Ta  Ta5  1  0.91560409  0.41582413  0.25129026  1
  Ta  Ta6  1  0.76031372  0.25115787  0.73702900  1
  Ta  Ta7  1  0.41059360  0.92351983  0.74230043  1
  O  O8  1  0.09493962  0.09333355  0.23258223  1
  O  O9  1  0.99776976  0.50259324  0.00073620  1
  O  O10  1  0.10025574  0.57101536  0.23020598  1
  O  O11  1  0.24927430  0.25029508  0.76917853  1
  O  O12  1  0.49672315  0.00464671  0.50048437  1
  O  O13  1  0.16558531  0.66397589  0.50322616  1
  O  O14  1  0.42632104  0.42950284  0.21926148  1
  O  O15  1  0.34900326  0.83791351  0.00028810  1
  O  O16  1  0.65060260  0.16931879  0.00029822  1
  O  O17  1  0.57405482  0.08126472  0.77290485  1
  O  O18  1  0.74640521  0.27366676  0.23131116  1
  O  O19  1  0.25180450  0.72763461  0.77031732  1
  O  O20  1  0.42234505  0.92657289  0.22785907  1
  O  O21  1  0.83286777  0.33833461  0.49754525  1
  O  O22  1  0.74790914  0.75114045  0.23456249  1
  O  O23  1  0.57387969  0.57749864  0.77941013  1
  O  O24  1  0.89891425  0.42854349  0.77066798  1
  O  O25  1  0.90312168  0.90813935  0.76605095  1
