# generated using pymatgen
data_TiNi(PO4)2
_symmetry_space_group_name_H-M   'P 1'
_cell_length_a   8.46549158
_cell_length_b   8.60981621
_cell_length_c   8.60981600
_cell_angle_alpha   60.00000076
_cell_angle_beta   59.43441813
_cell_angle_gamma   59.43441524
_symmetry_Int_Tables_number   1
_chemical_formula_structural   TiNi(PO4)2
_chemical_formula_sum   'Ti3 Ni3 P6 O24'
_cell_volume   439.90495876
_cell_formula_units_Z   3
loop_
 _symmetry_equiv_pos_site_id
 _symmetry_equiv_pos_as_xyz
  1  'x, y, z'
loop_
 _atom_site_type_symbol
 _atom_site_label
 _atom_site_symmetry_multiplicity
 _atom_site_fract_x
 _atom_site_fract_y
 _atom_site_fract_z
 _atom_site_occupancy
  Ti  Ti0  1  0.06559983  0.64480072  0.64480072  1
  Ti  Ti1  1  0.42700877  0.85766374  0.85766374  1
  Ti  Ti2  1  0.93554211  0.35481963  0.35481963  1
  Ni  Ni3  1  0.99153267  0.00282211  0.00282211  1
  Ni  Ni4  1  0.57457909  0.14180730  0.14180730  1
  Ni  Ni5  1  0.49626980  0.50124373  0.50124373  1
  P  P6  1  0.25568326  0.24761235  0.54372731  1
  P  P7  1  0.25568326  0.95297707  0.24761235  1
  P  P8  1  0.25568326  0.54372731  0.95297707  1
  P  P9  1  0.74900254  0.45379191  0.04721126  1
  P  P10  1  0.74900254  0.04721126  0.74999529  1
  P  P11  1  0.74900254  0.74999529  0.45379191  1
  O  O12  1  0.06970177  0.11730278  0.31626663  1
  O  O13  1  0.06970177  0.49672882  0.11730278  1
  O  O14  1  0.06970177  0.31626663  0.49672882  1
  O  O15  1  0.22207120  0.09080610  0.74554857  1
  O  O16  1  0.43955595  0.18262390  0.39164620  1
  O  O17  1  0.26658213  0.41063773  0.56768231  1
  O  O18  1  0.22207120  0.94157412  0.09080610  1
  O  O19  1  0.26658213  0.75509683  0.41063773  1
  O  O20  1  0.56636491  0.61776129  0.99784650  1
  O  O21  1  0.26658213  0.56768231  0.75509683  1
  O  O22  1  0.78268597  0.25902646  0.05429864  1
  O  O23  1  0.56636491  0.99784650  0.81802730  1
  O  O24  1  0.43955595  0.98617395  0.18262390  1
  O  O25  1  0.22207120  0.74554857  0.94157412  1
  O  O26  1  0.72281389  0.44652981  0.24330621  1
  O  O27  1  0.43955595  0.39164620  0.98617395  1
  O  O28  1  0.72281389  0.24330621  0.58735009  1
  O  O29  1  0.78268597  0.05429864  0.90398992  1
  O  O30  1  0.72281389  0.58735009  0.44652981  1
  O  O31  1  0.56636491  0.81802730  0.61776129  1
  O  O32  1  0.78268597  0.90398992  0.25902646  1
  O  O33  1  0.92869561  0.67197877  0.51112870  1
  O  O34  1  0.92869561  0.51112870  0.88819691  1
  O  O35  1  0.92869561  0.88819691  0.67197877  1
