# generated using pymatgen
data_Li2FeSiO4
_symmetry_space_group_name_H-M   'P 1'
_cell_length_a   5.18325792
_cell_length_b   6.31091449
_cell_length_c   11.00513202
_cell_angle_alpha   90.16124193
_cell_angle_beta   90.00000000
_cell_angle_gamma   90.00000000
_symmetry_Int_Tables_number   1
_chemical_formula_structural   Li2FeSiO4
_chemical_formula_sum   'Li8 Fe4 Si4 O16'
_cell_volume   359.98852140
_cell_formula_units_Z   4
loop_
 _symmetry_equiv_pos_site_id
 _symmetry_equiv_pos_as_xyz
  1  'x, y, z'
loop_
 _atom_site_type_symbol
 _atom_site_label
 _atom_site_symmetry_multiplicity
 _atom_site_fract_x
 _atom_site_fract_y
 _atom_site_fract_z
 _atom_site_occupancy
  Li  Li0  1  0.30292810  0.45007889  0.91192351  1
  Li  Li1  1  0.68931873  0.20319563  0.82299888  1
  Li  Li2  1  0.19016072  0.70266182  0.67258767  1
  Li  Li3  1  0.79634279  0.94770006  0.58448901  1
  Li  Li4  1  0.19707190  0.45007889  0.41192351  1
  Li  Li5  1  0.81068127  0.20319563  0.32299888  1
  Li  Li6  1  0.30983928  0.70266182  0.17258767  1
  Li  Li7  1  0.70365721  0.94770006  0.08448901  1
  Fe  Fe8  1  0.18269322  0.96834031  0.91201555  1
  Fe  Fe9  1  0.31730678  0.96834031  0.41201555  1
  Fe  Fe10  1  0.68183168  0.46530659  0.58347174  1
  Fe  Fe11  1  0.81816832  0.46530659  0.08347174  1
  Si  Si12  1  0.67852040  0.71112469  0.83466314  1
  Si  Si13  1  0.17815076  0.21027865  0.66094785  1
  Si  Si14  1  0.82147960  0.71112469  0.33466314  1
  Si  Si15  1  0.32184924  0.21027865  0.16094785  1
  O  O16  1  0.74394925  0.48605334  0.90583016  1
  O  O17  1  0.78653015  0.92319470  0.90865881  1
  O  O18  1  0.35984277  0.72040396  0.83100348  1
  O  O19  1  0.29695349  0.20771414  0.80055631  1
  O  O20  1  0.79751443  0.70560783  0.69510042  1
  O  O21  1  0.85923213  0.21842520  0.66452041  1
  O  O22  1  0.28544089  0.42183211  0.58674497  1
  O  O23  1  0.24672145  0.98498409  0.59015210  1
  O  O24  1  0.75605075  0.48605334  0.40583016  1
  O  O25  1  0.71346985  0.92319470  0.40865881  1
  O  O26  1  0.14015723  0.72040396  0.33100348  1
  O  O27  1  0.20304651  0.20771414  0.30055631  1
  O  O28  1  0.70248557  0.70560783  0.19510042  1
  O  O29  1  0.64076787  0.21842520  0.16452041  1
  O  O30  1  0.21455911  0.42183211  0.08674497  1
  O  O31  1  0.25327855  0.98498409  0.09015210  1
