# generated using pymatgen
data_NaV2(PO4)3
_symmetry_space_group_name_H-M   'P 1'
_cell_length_a   8.51647055
_cell_length_b   8.86015618
_cell_length_c   11.96343494
_cell_angle_alpha   90.00000000
_cell_angle_beta   88.06231517
_cell_angle_gamma   90.00000000
_symmetry_Int_Tables_number   1
_chemical_formula_structural   NaV2(PO4)3
_chemical_formula_sum   'Na4 V8 P12 O48'
_cell_volume   902.21182474
_cell_formula_units_Z   4
loop_
 _symmetry_equiv_pos_site_id
 _symmetry_equiv_pos_as_xyz
  1  'x, y, z'
loop_
 _atom_site_type_symbol
 _atom_site_label
 _atom_site_symmetry_multiplicity
 _atom_site_fract_x
 _atom_site_fract_y
 _atom_site_fract_z
 _atom_site_occupancy
  Na  Na0  1  0.17747709  0.69417289  0.84534415  1
  Na  Na1  1  0.32252291  0.19417289  0.65465585  1
  Na  Na2  1  0.67747709  0.80582711  0.34534415  1
  Na  Na3  1  0.82252291  0.30582711  0.15465585  1
  V  V4  1  0.24779351  0.96586510  0.38621553  1
  V  V5  1  0.24582359  0.53269297  0.60911117  1
  V  V6  1  0.25220649  0.46586510  0.11378447  1
  V  V7  1  0.25417641  0.03269297  0.89088883  1
  V  V8  1  0.74582359  0.96730703  0.10911117  1
  V  V9  1  0.74779351  0.53413490  0.88621553  1
  V  V10  1  0.75417641  0.46730703  0.39088883  1
  V  V11  1  0.75220649  0.03413490  0.61378447  1
  P  P12  1  0.02889195  0.24949916  0.50074905  1
  P  P13  1  0.10949430  0.11320587  0.15103119  1
  P  P14  1  0.10619233  0.37847853  0.85452986  1
  P  P15  1  0.39380767  0.87847853  0.64547014  1
  P  P16  1  0.39050570  0.61320587  0.34896881  1
  P  P17  1  0.47110905  0.74949916  0.99925095  1
  P  P18  1  0.52889095  0.25050084  0.00074905  1
  P  P19  1  0.60949430  0.38679413  0.65103119  1
  P  P20  1  0.60619233  0.12152147  0.35452986  1
  P  P21  1  0.89380767  0.62152147  0.14547014  1
  P  P22  1  0.89050570  0.88679413  0.84896881  1
  P  P23  1  0.97110905  0.75050084  0.49925095  1
  O  O24  1  0.06002057  0.64322742  0.57449880  1
  O  O25  1  0.07324232  0.60606610  0.12153014  1
  O  O26  1  0.06658437  0.92268996  0.83862297  1
  O  O27  1  0.08327787  0.82116066  0.40690240  1
  O  O28  1  0.10395518  0.12455232  0.42792744  1
  O  O29  1  0.12199726  0.28641025  0.16337135  1
  O  O30  1  0.16363252  0.06773995  0.02887520  1
  O  O31  1  0.14951129  0.48259853  0.75262477  1
  O  O32  1  0.16091588  0.33391861  0.55941710  1
  O  O33  1  0.15549767  0.21667012  0.82400863  1
  O  O34  1  0.19759683  0.44185357  0.95316390  1
  O  O35  1  0.20848961  0.01923299  0.22970358  1
  O  O36  1  0.29151039  0.51923299  0.27029642  1
  O  O37  1  0.30240317  0.94185357  0.54683610  1
  O  O38  1  0.34450233  0.71667012  0.67599137  1
  O  O39  1  0.33908412  0.83391861  0.94058290  1
  O  O40  1  0.33636748  0.56773995  0.47112480  1
  O  O41  1  0.35048871  0.98259853  0.74737523  1
  O  O42  1  0.37800274  0.78641025  0.33662865  1
  O  O43  1  0.39604482  0.62455232  0.07207256  1
  O  O44  1  0.41672213  0.32116066  0.09309760  1
  O  O45  1  0.42675768  0.10606610  0.37846986  1
  O  O46  1  0.43341563  0.42268996  0.66137703  1
  O  O47  1  0.43997943  0.14322742  0.92550120  1
  O  O48  1  0.56002057  0.85677258  0.07449880  1
  O  O49  1  0.56658437  0.57731004  0.33862297  1
  O  O50  1  0.57324232  0.89393390  0.62153014  1
  O  O51  1  0.58327787  0.67883934  0.90690240  1
  O  O52  1  0.60395518  0.37544768  0.92792744  1
  O  O53  1  0.62199726  0.21358975  0.66337135  1
  O  O54  1  0.64951129  0.01740147  0.25262477  1
  O  O55  1  0.66363252  0.43226005  0.52887520  1
  O  O56  1  0.66091588  0.16608139  0.05941710  1
  O  O57  1  0.65549767  0.28332988  0.32400863  1
  O  O58  1  0.69759683  0.05814643  0.45316390  1
  O  O59  1  0.70848961  0.48076701  0.72970358  1
  O  O60  1  0.79151039  0.98076701  0.77029642  1
  O  O61  1  0.80240317  0.55814643  0.04683610  1
  O  O62  1  0.84450233  0.78332988  0.17599137  1
  O  O63  1  0.83908412  0.66608139  0.44058290  1
  O  O64  1  0.85048871  0.51740147  0.24737523  1
  O  O65  1  0.83636748  0.93226005  0.97112480  1
  O  O66  1  0.87800274  0.71358975  0.83662865  1
  O  O67  1  0.89604482  0.87544768  0.57207256  1
  O  O68  1  0.91672213  0.17883934  0.59309760  1
  O  O69  1  0.93341563  0.07731004  0.16137703  1
  O  O70  1  0.92675768  0.39393390  0.87846986  1
  O  O71  1  0.93997943  0.35677258  0.42550120  1
