# generated using pymatgen
data_BiOF
_symmetry_space_group_name_H-M   'P 1'
_cell_length_a   5.83032839
_cell_length_b   5.87230590
_cell_length_c   6.07976170
_cell_angle_alpha   90.00000000
_cell_angle_beta   96.32803164
_cell_angle_gamma   90.00000000
_symmetry_Int_Tables_number   1
_chemical_formula_structural   BiOF
_chemical_formula_sum   'Bi4 O4 F4'
_cell_volume   206.88740833
_cell_formula_units_Z   4
loop_
 _symmetry_equiv_pos_site_id
 _symmetry_equiv_pos_as_xyz
  1  'x, y, z'
loop_
 _atom_site_type_symbol
 _atom_site_label
 _atom_site_symmetry_multiplicity
 _atom_site_fract_x
 _atom_site_fract_y
 _atom_site_fract_z
 _atom_site_occupancy
  Bi  Bi0  1  0.24238886  0.45455576  0.69182444  1
  Bi  Bi1  1  0.24238886  0.04544424  0.19182444  1
  Bi  Bi2  1  0.75761114  0.95455576  0.80817556  1
  Bi  Bi3  1  0.75761114  0.54544424  0.30817556  1
  O  O4  1  0.07556879  0.16995007  0.86875478  1
  O  O5  1  0.07556879  0.33004993  0.36875478  1
  O  O6  1  0.92443121  0.66995007  0.63124522  1
  O  O7  1  0.92443121  0.83004993  0.13124522  1
  F  F8  1  0.44180193  0.75359075  0.98078690  1
  F  F9  1  0.44180193  0.74640925  0.48078690  1
  F  F10  1  0.55819807  0.25359075  0.51921310  1
  F  F11  1  0.55819807  0.24640925  0.01921310  1
