# generated using pymatgen
data_V3O5F
_symmetry_space_group_name_H-M   'P 1'
_cell_length_a   4.65595407
_cell_length_b   4.65595407
_cell_length_c   8.98578756
_cell_angle_alpha   89.81693259
_cell_angle_beta   90.18306741
_cell_angle_gamma   92.55449294
_symmetry_Int_Tables_number   1
_chemical_formula_structural   V3O5F
_chemical_formula_sum   'V6 O10 F2'
_cell_volume   194.59760756
_cell_formula_units_Z   2
loop_
 _symmetry_equiv_pos_site_id
 _symmetry_equiv_pos_as_xyz
  1  'x, y, z'
loop_
 _atom_site_type_symbol
 _atom_site_label
 _atom_site_symmetry_multiplicity
 _atom_site_fract_x
 _atom_site_fract_y
 _atom_site_fract_z
 _atom_site_occupancy
  V  V0  1  0.00950840  0.99049160  0.01558534  1
  V  V1  1  0.99049160  0.00950840  0.31774766  1
  V  V2  1  0.00000000  0.00000000  0.66666700  1
  V  V3  1  0.50000000  0.50000000  0.16666700  1
  V  V4  1  0.46005413  0.53994587  0.83382169  1
  V  V5  1  0.53994587  0.46005413  0.49951131  1
  O  O6  1  0.20553866  0.79446134  0.16427637  1
  O  O7  1  0.19390564  0.80609436  0.83847910  1
  O  O8  1  0.30064116  0.30760245  0.00013872  1
  O  O9  1  0.30760245  0.30064116  0.33319528  1
  O  O10  1  0.30767196  0.30767196  0.66666700  1
  O  O11  1  0.69239755  0.69935884  0.00013872  1
  O  O12  1  0.69935884  0.69239755  0.33319528  1
  O  O13  1  0.69232804  0.69232804  0.66666700  1
  O  O14  1  0.79446134  0.20553866  0.16905763  1
  O  O15  1  0.80609436  0.19390564  0.49485390  1
  F  F16  1  0.19869379  0.80130621  0.49441275  1
  F  F17  1  0.80130621  0.19869379  0.83892025  1
