# generated using pymatgen
data_Li5Mn3(FeO5)2
_symmetry_space_group_name_H-M   'P 1'
_cell_length_a   5.23426828
_cell_length_b   5.22235286
_cell_length_c   7.81613431
_cell_angle_alpha   108.37757858
_cell_angle_beta   103.63820289
_cell_angle_gamma   99.41813473
_symmetry_Int_Tables_number   1
_chemical_formula_structural   Li5Mn3(FeO5)2
_chemical_formula_sum   'Li5 Mn3 Fe2 O10'
_cell_volume   190.36890517
_cell_formula_units_Z   1
loop_
 _symmetry_equiv_pos_site_id
 _symmetry_equiv_pos_as_xyz
  1  'x, y, z'
loop_
 _atom_site_type_symbol
 _atom_site_label
 _atom_site_symmetry_multiplicity
 _atom_site_fract_x
 _atom_site_fract_y
 _atom_site_fract_z
 _atom_site_occupancy
  Li  Li0  1  0.21068152  0.92093734  0.41453419  1
  Li  Li1  1  0.39484522  0.28075189  0.78188435  1
  Li  Li2  1  0.50000000  0.50000000  0.50000000  1
  Li  Li3  1  0.60515478  0.71924811  0.21811565  1
  Li  Li4  1  0.78931848  0.07906266  0.58546581  1
  Mn  Mn5  1  0.00000000  0.50000000  0.00000000  1
  Mn  Mn6  1  0.69760522  0.89499681  0.89711814  1
  Mn  Mn7  1  0.30239478  0.10500319  0.10288186  1
  Fe  Fe8  1  0.10244000  0.69714102  0.68791536  1
  Fe  Fe9  1  0.89756000  0.30285898  0.31208464  1
  O  O10  1  0.07423331  0.08737832  0.85650167  1
  O  O11  1  0.32345341  0.71537789  0.95915438  1
  O  O12  1  0.13541618  0.31412086  0.55031635  1
  O  O13  1  0.23106885  0.46985824  0.22815281  1
  O  O14  1  0.45654204  0.88741227  0.66528494  1
  O  O15  1  0.54345796  0.11258773  0.33471506  1
  O  O16  1  0.76893115  0.53014176  0.77184719  1
  O  O17  1  0.86458382  0.68587914  0.44968365  1
  O  O18  1  0.67654659  0.28462211  0.04084562  1
  O  O19  1  0.92576669  0.91262168  0.14349833  1
