# generated using pymatgen
data_Na2CrO4
_symmetry_space_group_name_H-M   'P 1'
_cell_length_a   9.71780931
_cell_length_b   9.71780932
_cell_length_c   9.71780918
_cell_angle_alpha   107.55988263
_cell_angle_beta   107.55988267
_cell_angle_gamma   107.55987525
_symmetry_Int_Tables_number   1
_chemical_formula_structural   Na2CrO4
_chemical_formula_sum   'Na12 Cr6 O24'
_cell_volume   752.29914390
_cell_formula_units_Z   6
loop_
 _symmetry_equiv_pos_site_id
 _symmetry_equiv_pos_as_xyz
  1  'x, y, z'
loop_
 _atom_site_type_symbol
 _atom_site_label
 _atom_site_symmetry_multiplicity
 _atom_site_fract_x
 _atom_site_fract_y
 _atom_site_fract_z
 _atom_site_occupancy
  Na  Na0  1  0.11227125  0.94073980  0.70576887  1
  Na  Na1  1  0.29423113  0.88772875  0.05926020  1
  Na  Na2  1  0.37765461  0.77470192  0.60396550  1
  Na  Na3  1  0.05926020  0.29423113  0.88772875  1
  Na  Na4  1  0.39603450  0.62234539  0.22529808  1
  Na  Na5  1  0.22529808  0.39603450  0.62234539  1
  Na  Na6  1  0.77470192  0.60396550  0.37765461  1
  Na  Na7  1  0.60396550  0.37765461  0.77470192  1
  Na  Na8  1  0.94073980  0.70576887  0.11227125  1
  Na  Na9  1  0.62234539  0.22529808  0.39603450  1
  Na  Na10  1  0.70576887  0.11227125  0.94073980  1
  Na  Na11  1  0.88772875  0.05926020  0.29423113  1
  Cr  Cr12  1  0.03989707  0.44747221  0.26543376  1
  Cr  Cr13  1  0.73456624  0.96010293  0.55252779  1
  Cr  Cr14  1  0.55252779  0.73456624  0.96010293  1
  Cr  Cr15  1  0.44747221  0.26543376  0.03989707  1
  Cr  Cr16  1  0.26543376  0.03989707  0.44747221  1
  Cr  Cr17  1  0.96010293  0.55252779  0.73456624  1
  O  O18  1  0.19927906  0.91373579  0.25635003  1
  O  O19  1  0.26072490  0.93877793  0.55834726  1
  O  O20  1  0.08626421  0.74364997  0.80072094  1
  O  O21  1  0.06122207  0.44165274  0.73927510  1
  O  O22  1  0.17756204  0.51574717  0.45117315  1
  O  O23  1  0.53695551  0.85348404  0.86905384  1
  O  O24  1  0.13094616  0.46304449  0.14651496  1
  O  O25  1  0.44165274  0.73927510  0.06122207  1
  O  O26  1  0.54882685  0.82243796  0.48425283  1
  O  O27  1  0.48425283  0.54882685  0.82243796  1
  O  O28  1  0.74364997  0.80072094  0.08626421  1
  O  O29  1  0.14651496  0.13094616  0.46304449  1
  O  O30  1  0.85348404  0.86905384  0.53695551  1
  O  O31  1  0.25635003  0.19927906  0.91373579  1
  O  O32  1  0.51574717  0.45117315  0.17756204  1
  O  O33  1  0.45117315  0.17756204  0.51574717  1
  O  O34  1  0.55834726  0.26072490  0.93877793  1
  O  O35  1  0.86905384  0.53695551  0.85348404  1
  O  O36  1  0.46304449  0.14651496  0.13094616  1
  O  O37  1  0.82243796  0.48425283  0.54882685  1
  O  O38  1  0.93877793  0.55834726  0.26072490  1
  O  O39  1  0.91373579  0.25635003  0.19927906  1
  O  O40  1  0.73927510  0.06122207  0.44165274  1
  O  O41  1  0.80072094  0.08626421  0.74364997  1
