# generated using pymatgen
data_V2(OF)3
_symmetry_space_group_name_H-M   'P 1'
_cell_length_a   5.18642808
_cell_length_b   13.24879982
_cell_length_c   5.20032110
_cell_angle_alpha   88.54243889
_cell_angle_beta   119.43582260
_cell_angle_gamma   90.68381998
_symmetry_Int_Tables_number   1
_chemical_formula_structural   V2(OF)3
_chemical_formula_sum   'V6 O9 F9'
_cell_volume   311.10433586
_cell_formula_units_Z   3
loop_
 _symmetry_equiv_pos_site_id
 _symmetry_equiv_pos_as_xyz
  1  'x, y, z'
loop_
 _atom_site_type_symbol
 _atom_site_label
 _atom_site_symmetry_multiplicity
 _atom_site_fract_x
 _atom_site_fract_y
 _atom_site_fract_z
 _atom_site_occupancy
  V  V0  1  0.04590544  0.49976957  0.98933743  1
  V  V1  1  0.96112189  0.00883184  0.96977343  1
  V  V2  1  0.65945202  0.83920218  0.30757156  1
  V  V3  1  0.36783382  0.68069851  0.69830403  1
  V  V4  1  0.69224885  0.34037710  0.33262859  1
  V  V5  1  0.30125075  0.16780708  0.68200129  1
  O  O6  1  0.41544339  0.74643378  0.99257923  1
  O  O7  1  0.32372357  0.41768818  0.08616378  1
  O  O8  1  0.01118308  0.24569568  0.58598637  1
  O  O9  1  0.75053189  0.91449758  0.09652596  1
  O  O10  1  0.08514532  0.58104747  0.75629078  1
  O  O11  1  0.56866196  0.74664623  0.57714477  1
  O  O12  1  0.89962716  0.41693281  0.24775103  1
  O  O13  1  0.25634002  0.08287098  0.90547405  1
  O  O14  1  0.67308635  0.08331989  0.75499342  1
  F  F15  1  0.99719933  0.74256680  0.41487862  1
  F  F16  1  0.08637210  0.08391348  0.33955495  1
  F  F17  1  0.32557671  0.91737955  0.25562174  1
  F  F18  1  0.23708085  0.58050214  0.32480777  1
  F  F19  1  0.59120820  0.24777087  0.99604252  1
  F  F20  1  0.42668849  0.24769292  0.42030297  1
  F  F21  1  0.74379360  0.41682615  0.67949328  1
  F  F22  1  0.92627555  0.91141543  0.67730862  1
  F  F23  1  0.65425266  0.58011377  0.90946480  1
