# generated using pymatgen
data_Li4CuNi3O8
_symmetry_space_group_name_H-M   'P 1'
_cell_length_a   5.53768781
_cell_length_b   5.93559857
_cell_length_c   5.65972290
_cell_angle_alpha   119.03098161
_cell_angle_beta   89.99861425
_cell_angle_gamma   117.80630275
_symmetry_Int_Tables_number   1
_chemical_formula_structural   Li4CuNi3O8
_chemical_formula_sum   'Li4 Cu1 Ni3 O8'
_cell_volume   137.57640061
_cell_formula_units_Z   1
loop_
 _symmetry_equiv_pos_site_id
 _symmetry_equiv_pos_as_xyz
  1  'x, y, z'
loop_
 _atom_site_type_symbol
 _atom_site_label
 _atom_site_symmetry_multiplicity
 _atom_site_fract_x
 _atom_site_fract_y
 _atom_site_fract_z
 _atom_site_occupancy
  Li  Li0  1  0.50002790  0.00000443  0.49999084  1
  Li  Li1  1  0.50004810  0.50015341  0.50010053  1
  Li  Li2  1  0.99991393  0.00001443  0.50000266  1
  Li  Li3  1  0.99990337  0.49987536  0.49990695  1
  Cu  Cu4  1  0.00007283  0.00000615  0.00000378  1
  Ni  Ni5  1  0.50004890  -0.00000061  0.99999558  1
  Ni  Ni6  1  0.49995990  0.49997903  0.99998036  1
  Ni  Ni7  1  0.99998417  0.50002952  0.00001666  1
  O  O8  1  0.75979039  0.01077090  0.78166355  1
  O  O9  1  0.73036462  0.46083097  0.75729053  1
  O  O10  1  0.25103790  0.01052564  0.78155977  1
  O  O11  1  0.25145345  0.50287473  0.77030267  1
  O  O12  1  0.74846687  0.49712079  0.22968639  1
  O  O13  1  0.74906793  0.98947036  0.21838868  1
  O  O14  1  0.26958346  0.53916982  0.24270418  1
  O  O15  1  0.24031927  0.98922106  0.21837785  1
