# generated using pymatgen
data_Li5Ti2Fe3O10
_symmetry_space_group_name_H-M   'P 1'
_cell_length_a   5.23842917
_cell_length_b   5.16799813
_cell_length_c   7.84074349
_cell_angle_alpha   71.10450657
_cell_angle_beta   107.98150445
_cell_angle_gamma   99.92469801
_symmetry_Int_Tables_number   1
_chemical_formula_structural   Li5Ti2Fe3O10
_chemical_formula_sum   'Li5 Ti2 Fe3 O10'
_cell_volume   190.39923649
_cell_formula_units_Z   1
loop_
 _symmetry_equiv_pos_site_id
 _symmetry_equiv_pos_as_xyz
  1  'x, y, z'
loop_
 _atom_site_type_symbol
 _atom_site_label
 _atom_site_symmetry_multiplicity
 _atom_site_fract_x
 _atom_site_fract_y
 _atom_site_fract_z
 _atom_site_occupancy
  Li  Li0  1  0.22009926  0.49483743  0.40504257  1
  Li  Li1  1  0.39963599  0.51367116  0.79011183  1
  Li  Li2  1  0.49687877  0.99850197  0.50008699  1
  Li  Li3  1  0.78071153  0.50069711  0.59819931  1
  Li  Li4  1  0.59834330  0.48578007  0.21152169  1
  Ti  Ti5  1  0.09575447  0.02183231  0.69420046  1
  Ti  Ti6  1  0.90087545  0.97306934  0.31240758  1
  Fe  Fe7  1  0.99826954  0.49483044  0.00113567  1
  Fe  Fe8  1  0.31256195  0.00087288  0.10614950  1
  Fe  Fe9  1  0.68503017  0.99663383  0.89480704  1
  O  O10  1  0.04876934  0.24521837  0.84579063  1
  O  O11  1  0.13418883  0.78147469  0.53990628  1
  O  O12  1  0.31539036  0.74972836  0.93304024  1
  O  O13  1  0.21585596  0.25278289  0.24013442  1
  O  O14  1  0.42306184  0.22885223  0.66032325  1
  O  O15  1  0.57614477  0.76446822  0.34492337  1
  O  O16  1  0.78021278  0.74195181  0.76348022  1
  O  O17  1  0.67774631  0.24440413  0.07090445  1
  O  O18  1  0.86350104  0.21344691  0.46372472  1
  O  O19  1  0.94704535  0.75710884  0.15278077  1
