# generated using pymatgen
data_Cr11Ni40Mo9
_symmetry_space_group_name_H-M   'P 1'
_cell_length_a   6.24319055
_cell_length_b   9.18292821
_cell_length_c   12.58445564
_cell_angle_alpha   87.45481633
_cell_angle_beta   80.19384364
_cell_angle_gamma   77.46480513
_symmetry_Int_Tables_number   1
_chemical_formula_structural   Cr11Ni40Mo9
_chemical_formula_sum   'Cr11 Ni40 Mo9'
_cell_volume   693.96805008
_cell_formula_units_Z   1
loop_
 _symmetry_equiv_pos_site_id
 _symmetry_equiv_pos_as_xyz
  1  'x, y, z'
loop_
 _atom_site_type_symbol
 _atom_site_label
 _atom_site_symmetry_multiplicity
 _atom_site_fract_x
 _atom_site_fract_y
 _atom_site_fract_z
 _atom_site_occupancy
  Cr  Cr0  1  0.08875008  0.54529654  0.15461138  1
  Cr  Cr1  1  0.50392734  0.25377776  0.25104856  1
  Cr  Cr2  1  0.79787447  0.39993173  0.20280229  1
  Cr  Cr3  1  0.11104563  0.05489441  0.64606948  1
  Cr  Cr4  1  0.01019064  0.50564185  0.49562187  1
  Cr  Cr5  1  0.39433920  0.19411210  0.59997636  1
  Cr  Cr6  1  0.29995804  0.64845607  0.44949863  1
  Cr  Cr7  1  0.60226442  0.80155864  0.40009939  1
  Cr  Cr8  1  0.89069182  0.94447247  0.35265352  1
  Cr  Cr9  1  0.29815688  0.15036319  0.95015560  1
  Cr  Cr10  1  0.50314313  0.75262826  0.74686143  1
  Ni  Ni11  1  0.30021311  0.98552758  0.11769081  1
  Ni  Ni12  1  0.50405542  0.08264114  0.41836587  1
  Ni  Ni13  1  0.39989049  0.53035694  0.27090669  1
  Ni  Ni14  1  0.79651888  0.23477559  0.36493624  1
  Ni  Ni15  1  0.70227490  0.68127217  0.22154862  1
  Ni  Ni16  1  0.09471415  0.38667119  0.31714716  1
  Ni  Ni17  1  0.99791948  0.83441762  0.17315153  1
  Ni  Ni18  1  0.39944533  0.03419764  0.76487895  1
  Ni  Ni19  1  0.29704259  0.48333900  0.61229860  1
  Ni  Ni20  1  0.70482658  0.18350989  0.71349096  1
  Ni  Ni21  1  0.59819718  0.63810746  0.56292841  1
  Ni  Ni22  1  0.00495391  0.33229779  0.66412639  1
  Ni  Ni23  1  0.90293661  0.78085296  0.51117484  1
  Ni  Ni24  1  0.20071789  0.93092388  0.46708504  1
  Ni  Ni25  1  0.59340195  0.13472856  0.07231169  1
  Ni  Ni26  1  0.50407630  0.58512471  0.91763698  1
  Ni  Ni27  1  0.89964207  0.28444275  0.02057178  1
  Ni  Ni28  1  0.79930301  0.73315190  0.86589214  1
  Ni  Ni29  1  0.20097157  0.43364389  0.96996316  1
  Ni  Ni30  1  0.10173744  0.88526086  0.81326303  1
  Ni  Ni31  1  0.89257861  0.11807591  0.18584496  1
  Ni  Ni32  1  0.10358293  0.21667270  0.48320356  1
  Ni  Ni33  1  0.00233499  0.66625244  0.33449692  1
  Ni  Ni34  1  0.39526315  0.36628402  0.43187425  1
  Ni  Ni35  1  0.30253161  0.81372869  0.28879238  1
  Ni  Ni36  1  0.69720787  0.51950993  0.38364567  1
  Ni  Ni37  1  0.60129838  0.96563753  0.23827164  1
  Ni  Ni38  1  0.00121847  0.16622489  0.82957824  1
  Ni  Ni39  1  0.89882161  0.61508147  0.67693464  1
  Ni  Ni40  1  0.30302556  0.31348201  0.77957853  1
  Ni  Ni41  1  0.20313607  0.76656896  0.62863911  1
  Ni  Ni42  1  0.60174886  0.46857740  0.73059566  1
  Ni  Ni43  1  0.49840692  0.91838187  0.58106713  1
  Ni  Ni44  1  0.80501960  0.06455223  0.52900628  1
  Ni  Ni45  1  0.19639999  0.26926997  0.13482508  1
  Ni  Ni46  1  0.09534569  0.71448015  0.98475863  1
  Ni  Ni47  1  0.50160491  0.41483964  0.08836813  1
  Ni  Ni48  1  0.40109593  0.86707181  0.92908162  1
  Ni  Ni49  1  0.80125432  0.56317021  0.03825249  1
  Ni  Ni50  1  0.69643517  0.01663379  0.88393728  1
  Mo  Mo51  1  0.00303369  0.00315698  0.00011765  1
  Mo  Mo52  1  0.19885433  0.10106884  0.30204865  1
  Mo  Mo53  1  0.39174450  0.69660306  0.10460729  1
  Mo  Mo54  1  0.69884481  0.84941773  0.05304165  1
  Mo  Mo55  1  0.70146753  0.35182445  0.54636077  1
  Mo  Mo56  1  0.20429190  0.60193690  0.79657465  1
  Mo  Mo57  1  0.59496186  0.29839755  0.90169105  1
  Mo  Mo58  1  0.90288786  0.44828422  0.84973088  1
  Mo  Mo59  1  0.80242239  0.89843811  0.69630782  1
