# generated using pymatgen
data_V4O5F7
_symmetry_space_group_name_H-M   'P 1'
_cell_length_a   5.18121369
_cell_length_b   5.36764527
_cell_length_c   8.98985715
_cell_angle_alpha   73.46217917
_cell_angle_beta   90.00000000
_cell_angle_gamma   61.14244707
_symmetry_Int_Tables_number   1
_chemical_formula_structural   V4O5F7
_chemical_formula_sum   'V4 O5 F7'
_cell_volume   207.08224620
_cell_formula_units_Z   1
loop_
 _symmetry_equiv_pos_site_id
 _symmetry_equiv_pos_as_xyz
  1  'x, y, z'
loop_
 _atom_site_type_symbol
 _atom_site_label
 _atom_site_symmetry_multiplicity
 _atom_site_fract_x
 _atom_site_fract_y
 _atom_site_fract_z
 _atom_site_occupancy
  V  V0  1  0.73725830  0.47524107  0.25388721  1
  V  V1  1  0.46249937  0.02475893  0.49611279  1
  V  V2  1  0.25512484  0.53753536  0.75331229  1
  V  V3  1  0.04266120  0.96246464  0.99668771  1
  O  O4  1  0.40755542  0.75956251  0.07497833  1
  O  O5  1  0.41711693  0.74043749  0.67502167  1
  O  O6  1  0.59389175  0.25421808  0.33384035  1
  O  O7  1  0.03200710  0.75000000  0.87500000  1
  O  O8  1  0.09811083  0.24578192  0.41615965  1
  F  F9  1  0.91839710  0.74440953  0.58240618  1
  F  F10  1  0.91280663  0.75559047  0.16759382  1
  F  F11  1  0.96449163  0.25236465  0.11778420  1
  F  F12  1  0.54045876  0.75000000  0.37500000  1
  F  F13  1  0.57771618  0.24533150  0.92364562  1
  F  F14  1  0.46685728  0.24763535  0.63221580  1
  F  F15  1  0.07304769  0.25466850  0.82635438  1
