# generated using pymatgen
data_Li3Cr3CoO8
_symmetry_space_group_name_H-M   'P 1'
_cell_length_a   5.91784573
_cell_length_b   5.89302812
_cell_length_c   5.89302812
_cell_angle_alpha   59.99999968
_cell_angle_beta   60.13862627
_cell_angle_gamma   89.99999840
_symmetry_Int_Tables_number   1
_chemical_formula_structural   Li3Cr3CoO8
_chemical_formula_sum   'Li3 Cr3 Co1 O8'
_cell_volume   145.62384524
_cell_formula_units_Z   1
loop_
 _symmetry_equiv_pos_site_id
 _symmetry_equiv_pos_as_xyz
  1  'x, y, z'
loop_
 _atom_site_type_symbol
 _atom_site_label
 _atom_site_symmetry_multiplicity
 _atom_site_fract_x
 _atom_site_fract_y
 _atom_site_fract_z
 _atom_site_occupancy
  Li  Li0  1  0.50000000  0.00000000  0.00000000  1
  Li  Li1  1  0.50000000  0.00000000  0.50000000  1
  Li  Li2  1  0.50000000  0.50000000  0.50000000  1
  Cr  Cr3  1  0.00000000  0.00000000  0.50000000  1
  Cr  Cr4  1  0.00000000  0.50000000  0.00000000  1
  Cr  Cr5  1  0.00000000  0.50000000  0.50000000  1
  Co  Co6  1  0.00000000  0.00000000  0.00000000  1
  O  O7  1  0.21315697  0.22855039  0.01539342  1
  O  O8  1  0.21315697  0.22855039  0.54289921  1
  O  O9  1  0.21315697  0.75605618  0.01539342  1
  O  O10  1  0.22583798  0.74194566  0.51610768  1
  O  O11  1  0.77416202  0.25805434  0.48389232  1
  O  O12  1  0.78684303  0.24394382  0.98460658  1
  O  O13  1  0.78684303  0.77144961  0.45710079  1
  O  O14  1  0.78684303  0.77144961  0.98460658  1
