# generated using pymatgen
data_Li2VOF4
_symmetry_space_group_name_H-M   'P 1'
_cell_length_a   7.22002531
_cell_length_b   5.04808341
_cell_length_c   10.34605710
_cell_angle_alpha   89.78272138
_cell_angle_beta   108.97466856
_cell_angle_gamma   91.13500168
_symmetry_Int_Tables_number   1
_chemical_formula_structural   Li2VOF4
_chemical_formula_sum   'Li8 V4 O4 F16'
_cell_volume   356.52445380
_cell_formula_units_Z   4
loop_
 _symmetry_equiv_pos_site_id
 _symmetry_equiv_pos_as_xyz
  1  'x, y, z'
loop_
 _atom_site_type_symbol
 _atom_site_label
 _atom_site_symmetry_multiplicity
 _atom_site_fract_x
 _atom_site_fract_y
 _atom_site_fract_z
 _atom_site_occupancy
  Li  Li0  1  0.11531741  0.50706703  0.86157112  1
  Li  Li1  1  0.14796960  0.96679737  0.34008732  1
  Li  Li2  1  0.37139285  0.96409067  0.68698050  1
  Li  Li3  1  0.36048829  0.53196121  0.18704356  1
  Li  Li4  1  0.63222767  0.52338714  0.84269777  1
  Li  Li5  1  0.61685704  0.98372264  0.34099686  1
  Li  Li6  1  0.88375433  0.00288106  0.63842393  1
  Li  Li7  1  0.88159176  0.49043099  0.14593970  1
  V  V8  1  0.02722133  0.48210078  0.50052230  1
  V  V9  1  0.96560714  0.98690644  0.99466181  1
  V  V10  1  0.51612213  0.46432295  0.51075858  1
  V  V11  1  0.46552084  0.03109030  0.99939814  1
  O  O12  1  0.24508659  0.35034632  0.50039240  1
  O  O13  1  0.24941931  0.15952195  0.00048859  1
  O  O14  1  0.74704533  0.84674493  0.99003919  1
  O  O15  1  0.63324574  0.21053266  0.59937588  1
  F  F16  1  0.03378933  0.34926447  0.67768160  1
  F  F17  1  0.12152824  0.82324860  0.58480387  1
  F  F18  1  0.03568445  0.15992206  0.17337659  1
  F  F19  1  0.36231768  0.72580898  0.88268747  1
  F  F20  1  0.11895362  0.68402002  0.08542857  1
  F  F21  1  0.47491520  0.20531842  0.83365917  1
  F  F22  1  0.38888859  0.77292721  0.38513128  1
  F  F23  1  0.53609171  0.69250718  0.66797748  1
  F  F24  1  0.46502799  0.29676453  0.32963001  1
  F  F25  1  0.52668619  0.81470884  0.16254346  1
  F  F26  1  0.87880786  0.32670427  0.91195350  1
  F  F27  1  0.75969225  0.66262444  0.49696241  1
  F  F28  1  0.64167562  0.29520780  0.10516481  1
  F  F29  1  0.96560223  0.84467322  0.82032142  1
  F  F30  1  0.86340155  0.18491626  0.41959715  1
  F  F31  1  0.96807113  0.65948124  0.32370159  1
