# generated using pymatgen
data_RbCrH4(C2O5)2
_symmetry_space_group_name_H-M   'P 1'
_cell_length_a   5.00205449
_cell_length_b   5.00205449
_cell_length_c   10.27487405
_cell_angle_alpha   88.55565149
_cell_angle_beta   91.44434851
_cell_angle_gamma   85.49781636
_symmetry_Int_Tables_number   1
_chemical_formula_structural   RbCrH4(C2O5)2
_chemical_formula_sum   'Rb1 Cr1 H4 C4 O10'
_cell_volume   256.11295855
_cell_formula_units_Z   1
loop_
 _symmetry_equiv_pos_site_id
 _symmetry_equiv_pos_as_xyz
  1  'x, y, z'
loop_
 _atom_site_type_symbol
 _atom_site_label
 _atom_site_symmetry_multiplicity
 _atom_site_fract_x
 _atom_site_fract_y
 _atom_site_fract_z
 _atom_site_occupancy
  Rb  Rb0  1  0.50000000  0.50000000  0.50000000  1
  Cr  Cr1  1  0.00000000  0.00000000  0.00000000  1
  H  H2  1  0.23104455  0.54492805  0.10343015  1
  H  H3  1  0.45507195  0.76895545  0.10343015  1
  H  H4  1  0.76895545  0.45507195  0.89656985  1
  H  H5  1  0.54492805  0.23104455  0.89656985  1
  C  C6  1  0.02118293  0.76712009  0.75231742  1
  C  C7  1  0.23287991  0.97881707  0.75231742  1
  C  C8  1  0.76712009  0.02118293  0.24768258  1
  C  C9  1  0.97881707  0.23287991  0.24768258  1
  O  O10  1  0.28699942  0.71300058  0.06096489  1
  O  O11  1  0.00853010  0.37582054  0.34148161  1
  O  O12  1  0.62417946  0.99146990  0.34148161  1
  O  O13  1  0.11209178  0.24507813  0.13900800  1
  O  O14  1  0.75492187  0.88790822  0.13900800  1
  O  O15  1  0.24507813  0.11209178  0.86099200  1
  O  O16  1  0.88790822  0.75492187  0.86099200  1
  O  O17  1  0.37582054  0.00853010  0.65851839  1
  O  O18  1  0.99146990  0.62417946  0.65851839  1
  O  O19  1  0.71300058  0.28699942  0.93903511  1
