# generated using pymatgen
data_KSn2F5
_symmetry_space_group_name_H-M   'P 1'
_cell_length_a   5.35398328
_cell_length_b   4.38631525
_cell_length_c   8.81536402
_cell_angle_alpha   88.01520544
_cell_angle_beta   90.00322051
_cell_angle_gamma   127.60823044
_symmetry_Int_Tables_number   1
_chemical_formula_structural   KSn2F5
_chemical_formula_sum   'K1 Sn2 F5'
_cell_volume   163.84696939
_cell_formula_units_Z   1
loop_
 _symmetry_equiv_pos_site_id
 _symmetry_equiv_pos_as_xyz
  1  'x, y, z'
loop_
 _atom_site_type_symbol
 _atom_site_label
 _atom_site_symmetry_multiplicity
 _atom_site_fract_x
 _atom_site_fract_y
 _atom_site_fract_z
 _atom_site_occupancy
  K  K0  1  0.98991424  0.97972914  0.99334208  1
  Sn  Sn1  1  0.34360400  0.68720326  0.31101050  1
  Sn  Sn2  1  0.70302240  0.40647486  0.60621096  1
  F  F3  1  0.64828237  0.29659396  0.83405748  1
  F  F4  1  0.35190655  0.70365652  0.07746016  1
  F  F5  1  0.34040251  0.18495781  0.26299175  1
  F  F6  1  0.84465419  0.18511729  0.26299981  1
  F  F7  1  0.99621374  0.99226717  0.65832726  1
