# generated using pymatgen
data_Li3Mn(PO4)2
_symmetry_space_group_name_H-M   'P 1'
_cell_length_a   4.74578860
_cell_length_b   5.08654855
_cell_length_c   13.78888164
_cell_angle_alpha   81.48785816
_cell_angle_beta   90.14306979
_cell_angle_gamma   62.14399827
_symmetry_Int_Tables_number   1
_chemical_formula_structural   Li3Mn(PO4)2
_chemical_formula_sum   'Li6 Mn2 P4 O16'
_cell_volume   290.06830510
_cell_formula_units_Z   2
loop_
 _symmetry_equiv_pos_site_id
 _symmetry_equiv_pos_as_xyz
  1  'x, y, z'
loop_
 _atom_site_type_symbol
 _atom_site_label
 _atom_site_symmetry_multiplicity
 _atom_site_fract_x
 _atom_site_fract_y
 _atom_site_fract_z
 _atom_site_occupancy
  Li  Li0  1  0.65553533  0.66587196  0.66075620  1
  Li  Li1  1  0.67823670  0.66690578  0.16127807  1
  Li  Li2  1  0.32648400  0.32949960  0.83873999  1
  Li  Li3  1  0.34922926  0.32958598  0.34087888  1
  Li  Li4  1  0.98198816  0.99892766  0.74997166  1
  Li  Li5  1  0.02291843  0.99789970  0.25043573  1
  Mn  Mn6  1  0.00257310  0.99662164  0.49948827  1
  Mn  Mn7  1  0.00158698  0.99882664  0.00026907  1
  P  P8  1  0.66291923  0.68475886  0.88358856  1
  P  P9  1  0.65560370  0.68312751  0.38349098  1
  P  P10  1  0.35030326  0.31108787  0.61598178  1
  P  P11  1  0.34036039  0.31283103  0.11711514  1
  O  O12  1  0.30439797  0.91930987  0.85949725  1
  O  O13  1  0.78000739  0.91671828  0.35982746  1
  O  O14  1  0.78994420  0.77931877  0.96791732  1
  O  O15  1  0.43398749  0.77809811  0.46772077  1
  O  O16  1  0.86431025  0.66361724  0.79419940  1
  O  O17  1  0.04820574  0.62714230  0.58262123  1
  O  O18  1  0.47448048  0.66241294  0.29424297  1
  O  O19  1  0.32615189  0.62843155  0.08367780  1
  O  O20  1  0.67678519  0.36913735  0.91654263  1
  O  O21  1  0.53139844  0.33242115  0.70508486  1
  O  O22  1  0.95723242  0.36711036  0.41678477  1
  O  O23  1  0.13915511  0.33414952  0.20657439  1
  O  O24  1  0.57096396  0.21632110  0.53137387  1
  O  O25  1  0.21292337  0.21807210  0.03299371  1
  O  O26  1  0.22602157  0.07761646  0.64016596  1
  O  O27  1  0.69883600  0.07895466  0.14119629  1
