# generated using pymatgen
data_Li2SiNiO4
_symmetry_space_group_name_H-M   'P 1'
_cell_length_a   4.91930362
_cell_length_b   6.27495511
_cell_length_c   10.70880831
_cell_angle_alpha   90.00028025
_cell_angle_beta   89.99973680
_cell_angle_gamma   90.00711481
_symmetry_Int_Tables_number   1
_chemical_formula_structural   Li2SiNiO4
_chemical_formula_sum   'Li8 Si4 Ni4 O16'
_cell_volume   330.56387632
_cell_formula_units_Z   4
loop_
 _symmetry_equiv_pos_site_id
 _symmetry_equiv_pos_as_xyz
  1  'x, y, z'
loop_
 _atom_site_type_symbol
 _atom_site_label
 _atom_site_symmetry_multiplicity
 _atom_site_fract_x
 _atom_site_fract_y
 _atom_site_fract_z
 _atom_site_occupancy
  Li  Li0  1  0.18522057  0.99920438  0.58932498  1
  Li  Li1  1  0.68551349  0.00083546  0.91169483  1
  Li  Li2  1  0.81510261  0.99770864  0.41146254  1
  Li  Li3  1  0.68489884  0.50228882  0.91146238  1
  Li  Li4  1  0.31477960  0.50079365  0.08932580  1
  Li  Li5  1  0.81448882  0.49916480  0.41169528  1
  Li  Li6  1  0.18511725  0.49800825  0.58908399  1
  Li  Li7  1  0.31488202  0.00199332  0.08908539  1
  Si  Si8  1  0.82650695  0.75093128  0.16633378  1
  Si  Si9  1  0.67349393  0.74906880  0.66633403  1
  Si  Si10  1  0.17297466  0.25116196  0.83436242  1
  Si  Si11  1  0.32702950  0.24883841  0.33436604  1
  Ni  Ni12  1  0.31491926  0.74860539  0.33911034  1
  Ni  Ni13  1  0.18509086  0.75139676  0.83912575  1
  Ni  Ni14  1  0.81559874  0.25141580  0.16153873  1
  Ni  Ni15  1  0.68439793  0.24858097  0.66154363  1
  O  O16  1  0.72078285  0.96677364  0.09357045  1
  O  O17  1  0.77898474  0.96438791  0.59309311  1
  O  O18  1  0.16041229  0.75130328  0.16828575  1
  O  O19  1  0.78456358  0.75092106  0.81198049  1
  O  O20  1  0.71544032  0.74907680  0.31197727  1
  O  O21  1  0.33958552  0.74870058  0.66829143  1
  O  O22  1  0.72102069  0.53560749  0.09309207  1
  O  O23  1  0.77921265  0.53322317  0.59357062  1
  O  O24  1  0.27882194  0.46675957  0.90716042  1
  O  O25  1  0.22133519  0.46422458  0.40751801  1
  O  O26  1  0.28392500  0.24944040  0.68862379  1
  O  O27  1  0.66098343  0.24864154  0.33233324  1
  O  O28  1  0.83902025  0.25135592  0.83233484  1
  O  O29  1  0.21607553  0.25056171  0.18862317  1
  O  O30  1  0.27867110  0.03578260  0.90751963  1
  O  O31  1  0.22117692  0.03324103  0.40715877  1
