# generated using pymatgen
data_Li11Mn12(BO3)12
_symmetry_space_group_name_H-M   'P 1'
_cell_length_a   9.42435100
_cell_length_b   9.74213535
_cell_length_c   9.90262560
_cell_angle_alpha   64.68358167
_cell_angle_beta   69.60932622
_cell_angle_gamma   87.70075395
_symmetry_Int_Tables_number   1
_chemical_formula_structural   Li11Mn12(BO3)12
_chemical_formula_sum   'Li11 Mn12 B12 O36'
_cell_volume   763.98851539
_cell_formula_units_Z   1
loop_
 _symmetry_equiv_pos_site_id
 _symmetry_equiv_pos_as_xyz
  1  'x, y, z'
loop_
 _atom_site_type_symbol
 _atom_site_label
 _atom_site_symmetry_multiplicity
 _atom_site_fract_x
 _atom_site_fract_y
 _atom_site_fract_z
 _atom_site_occupancy
  Li  Li0  1  0.02918792  0.03177399  0.67205449  1
  Li  Li1  1  0.30348409  0.96834333  0.66129111  1
  Li  Li2  1  0.36269950  0.53434957  0.50336759  1
  Li  Li3  1  0.28931161  0.46765405  0.16599558  1
  Li  Li4  1  0.36257026  0.03358459  0.00536721  1
  Li  Li5  1  0.69614660  0.53564259  0.83724716  1
  Li  Li6  1  0.63765492  0.96484744  0.99634695  1
  Li  Li7  1  0.63754597  0.46655284  0.49479719  1
  Li  Li8  1  0.69699932  0.03403052  0.33853946  1
  Li  Li9  1  0.96952535  0.96756411  0.32978641  1
  Li  Li10  1  0.96996638  0.46629304  0.82876520  1
  Mn  Mn11  1  0.12175050  0.79371354  0.56503941  1
  Mn  Mn12  1  0.20428156  0.70140212  0.26650932  1
  Mn  Mn13  1  0.21268408  0.20431230  0.77180925  1
  Mn  Mn14  1  0.11613792  0.30530996  0.06514661  1
  Mn  Mn15  1  0.45419596  0.79472153  0.89818010  1
  Mn  Mn16  1  0.54448951  0.70564086  0.60148156  1
  Mn  Mn17  1  0.45265495  0.29586346  0.39852140  1
  Mn  Mn18  1  0.54163902  0.20596501  0.10219967  1
  Mn  Mn19  1  0.88467604  0.69892845  0.94208269  1
  Mn  Mn20  1  0.79069543  0.79259601  0.23163581  1
  Mn  Mn21  1  0.78875820  0.29478034  0.73197565  1
  Mn  Mn22  1  0.88354107  0.21379192  0.43122795  1
  B  B23  1  0.11078557  0.87092813  0.97967373  1
  B  B24  1  0.22571678  0.63250686  0.84873887  1
  B  B25  1  0.11214120  0.36502044  0.48647083  1
  B  B26  1  0.22188709  0.13372489  0.35094125  1
  B  B27  1  0.44351863  0.86626042  0.31407029  1
  B  B28  1  0.44247342  0.36863007  0.81633545  1
  B  B29  1  0.55422867  0.63290548  0.18511161  1
  B  B30  1  0.55792722  0.13297373  0.68392525  1
  B  B31  1  0.77845631  0.86770786  0.64956783  1
  B  B32  1  0.88862077  0.63288856  0.51898475  1
  B  B33  1  0.77746085  0.36191731  0.14478534  1
  B  B34  1  0.88882643  0.13247448  0.02001404  1
  O  O35  1  0.12119612  0.98643545  0.83106379  1
  O  O36  1  0.00945067  0.75329158  0.42844592  1
  O  O37  1  0.01041344  0.25259010  0.93080039  1
  O  O38  1  0.10430063  0.63548978  0.79816219  1
  O  O39  1  0.23503488  0.51213579  0.98291721  1
  O  O40  1  0.11715710  0.47928831  0.34467920  1
  O  O41  1  0.34318877  0.75677451  0.75937148  1
  O  O42  1  0.10496736  0.13787860  0.29421744  1
  O  O43  1  0.22981686  0.86560599  0.03531478  1
  O  O44  1  0.22992070  0.35939504  0.54378259  1
  O  O45  1  0.32209882  0.74682705  0.40203232  1
  O  O46  1  0.31896990  0.24916601  0.90949788  1
  O  O47  1  0.21711026  0.01734832  0.49577265  1
  O  O48  1  0.44977588  0.98320870  0.16888534  1
  O  O49  1  0.44901003  0.48172451  0.66955938  1
  O  O50  1  0.34207040  0.25445029  0.26209026  1
  O  O51  1  0.43663125  0.63633227  0.12915150  1
  O  O52  1  0.44073798  0.13608706  0.62792055  1
  O  O53  1  0.56108042  0.86308442  0.37053663  1
  O  O54  1  0.56188471  0.36375705  0.86995610  1
  O  O55  1  0.65559724  0.74866872  0.73689347  1
  O  O56  1  0.54893697  0.51733141  0.33086505  1
  O  O57  1  0.55143392  0.01819510  0.83023769  1
  O  O58  1  0.78515595  0.98553120  0.50466759  1
  O  O59  1  0.67651696  0.75155149  0.09587806  1
  O  O60  1  0.67905657  0.25344347  0.59426699  1
  O  O61  1  0.76946825  0.63642030  0.46508785  1
  O  O62  1  0.77201742  0.13651935  0.96276040  1
  O  O63  1  0.89490300  0.85980041  0.70819567  1
  O  O64  1  0.65172376  0.24672414  0.23804717  1
  O  O65  1  0.88443017  0.51767234  0.66395220  1
  O  O66  1  0.78240147  0.48049413  0.00278443  1
  O  O67  1  0.89917350  0.34620334  0.19759674  1
  O  O68  1  0.98619900  0.75926598  0.06872005  1
  O  O69  1  0.99021820  0.24403284  0.57588989  1
  O  O70  1  0.88274632  0.01730414  0.16529717  1
