# generated using pymatgen
data_V5(P3O11)2
_symmetry_space_group_name_H-M   'P 1'
_cell_length_a   12.89738809
_cell_length_b   6.66750963
_cell_length_c   10.46520094
_cell_angle_alpha   90.00000000
_cell_angle_beta   104.09686475
_cell_angle_gamma   90.00000000
_symmetry_Int_Tables_number   1
_chemical_formula_structural   V5(P3O11)2
_chemical_formula_sum   'V10 P12 O44'
_cell_volume   872.83748330
_cell_formula_units_Z   2
loop_
 _symmetry_equiv_pos_site_id
 _symmetry_equiv_pos_as_xyz
  1  'x, y, z'
loop_
 _atom_site_type_symbol
 _atom_site_label
 _atom_site_symmetry_multiplicity
 _atom_site_fract_x
 _atom_site_fract_y
 _atom_site_fract_z
 _atom_site_occupancy
  V  V0  1  0.00000000  0.50000000  0.50000000  1
  V  V1  1  0.13642006  0.74976248  0.78800247  1
  V  V2  1  0.00000000  0.00000000  0.00000000  1
  V  V3  1  0.13642006  0.75023752  0.28800247  1
  V  V4  1  0.33633340  0.98829505  0.80291443  1
  V  V5  1  0.33633340  0.51170495  0.30291443  1
  V  V6  1  0.66366660  0.48829505  0.69708557  1
  V  V7  1  0.66366660  0.01170495  0.19708557  1
  V  V8  1  0.86357994  0.24976248  0.71199753  1
  V  V9  1  0.86357994  0.25023752  0.21199753  1
  P  P10  1  0.08760803  0.25853495  0.77564550  1
  P  P11  1  0.08760803  0.24146505  0.27564550  1
  P  P12  1  0.25893479  0.60924477  0.57376300  1
  P  P13  1  0.25893479  0.89075523  0.07376300  1
  P  P14  1  0.41765436  0.29713675  0.59108263  1
  P  P15  1  0.58234564  0.79713675  0.90891737  1
  P  P16  1  0.41765436  0.20286325  0.09108263  1
  P  P17  1  0.58234564  0.70286325  0.40891737  1
  P  P18  1  0.74106521  0.10924477  0.92623700  1
  P  P19  1  0.74106521  0.39075523  0.42623700  1
  P  P20  1  0.91239197  0.75853495  0.72435450  1
  P  P21  1  0.91239197  0.74146505  0.22435450  1
  O  O22  1  0.00457824  0.20942140  0.86130067  1
  O  O23  1  0.99938786  0.28977719  0.63953026  1
  O  O24  1  0.00457824  0.29057860  0.36129967  1
  O  O25  1  0.99938786  0.21022281  0.13953026  1
  O  O26  1  0.14842156  0.44936211  0.82206149  1
  O  O27  1  0.16005532  0.07629874  0.76829005  1
  O  O28  1  0.16314757  0.47106630  0.55135556  1
  O  O29  1  0.27400200  0.80989663  0.94018090  1
  O  O30  1  0.14842156  0.05063789  0.32206149  1
  O  O31  1  0.16005532  0.42370126  0.26829005  1
  O  O32  1  0.24856623  0.77507504  0.67298674  1
  O  O33  1  0.16314757  0.02893370  0.05135556  1
  O  O34  1  0.27400200  0.69010337  0.44018090  1
  O  O35  1  0.38520891  0.19980590  0.94110171  1
  O  O36  1  0.24856623  0.72492496  0.17298674  1
  O  O37  1  0.37214961  0.11918790  0.65000486  1
  O  O38  1  0.36641936  0.49733824  0.64310144  1
  O  O39  1  0.46197517  0.81957558  0.85161058  1
  O  O40  1  0.38520891  0.30019410  0.44110171  1
  O  O41  1  0.37214961  0.38081210  0.15000486  1
  O  O42  1  0.36641936  0.00266176  0.14310144  1
  O  O43  1  0.46197517  0.68042442  0.35161058  1
  O  O44  1  0.53802483  0.31957558  0.64838942  1
  O  O45  1  0.63358064  0.99733824  0.85689856  1
  O  O46  1  0.62785039  0.61918790  0.84999514  1
  O  O47  1  0.61479109  0.69980590  0.55889829  1
  O  O48  1  0.53802483  0.18042442  0.14838942  1
  O  O49  1  0.63358064  0.50266176  0.35689856  1
  O  O50  1  0.62785039  0.88081210  0.34999514  1
  O  O51  1  0.75143377  0.27507504  0.82701326  1
  O  O52  1  0.61479109  0.80019410  0.05889829  1
  O  O53  1  0.72599800  0.30989663  0.55981910  1
  O  O54  1  0.83685243  0.97106630  0.94864444  1
  O  O55  1  0.75143377  0.22492496  0.32701326  1
  O  O56  1  0.83994468  0.57629874  0.73170995  1
  O  O57  1  0.85157844  0.94936211  0.67793851  1
  O  O58  1  0.72599800  0.19010337  0.05981910  1
  O  O59  1  0.83685243  0.52893370  0.44864444  1
  O  O60  1  0.83994468  0.92370126  0.23170995  1
  O  O61  1  0.85157844  0.55063789  0.17793851  1
  O  O62  1  0.00061214  0.78977719  0.86046974  1
  O  O63  1  0.99542176  0.70942140  0.63869933  1
  O  O64  1  0.00061214  0.71022281  0.36046974  1
  O  O65  1  0.99542176  0.79057860  0.13869933  1
