# generated using pymatgen
data_Li2Ni5O7
_symmetry_space_group_name_H-M   'P 1'
_cell_length_a   6.60217638
_cell_length_b   4.10768638
_cell_length_c   5.08612740
_cell_angle_alpha   113.82047472
_cell_angle_beta   97.90631445
_cell_angle_gamma   89.99241197
_symmetry_Int_Tables_number   1
_chemical_formula_structural   Li2Ni5O7
_chemical_formula_sum   'Li2 Ni5 O7'
_cell_volume   124.75076426
_cell_formula_units_Z   1
loop_
 _symmetry_equiv_pos_site_id
 _symmetry_equiv_pos_as_xyz
  1  'x, y, z'
loop_
 _atom_site_type_symbol
 _atom_site_label
 _atom_site_symmetry_multiplicity
 _atom_site_fract_x
 _atom_site_fract_y
 _atom_site_fract_z
 _atom_site_occupancy
  Li  Li0  1  0.13921385  0.71813730  0.43680220  1
  Li  Li1  1  0.57671372  0.85209330  0.70440845  1
  Ni  Ni2  1  0.00177734  0.00270645  0.00578750  1
  Ni  Ni3  1  0.28773675  0.42465711  0.84989597  1
  Ni  Ni4  1  0.42787323  0.14608569  0.29261359  1
  Ni  Ni5  1  0.85753415  0.28583518  0.57210377  1
  Ni  Ni6  1  0.71379799  0.56888687  0.13798630  1
  O  O7  1  0.99575179  0.49394154  0.98830225  1
  O  O8  1  0.14559923  0.21715210  0.43474511  1
  O  O9  1  0.28178773  0.94092105  0.88230088  1
  O  O10  1  0.56958975  0.35399755  0.70847971  1
  O  O11  1  0.43353438  0.62947234  0.25939976  1
  O  O12  1  0.85753239  0.78551648  0.57147071  1
  O  O13  1  0.71976369  0.07780602  0.15592280  1
