# generated using pymatgen
data_KNa2NiO2
_symmetry_space_group_name_H-M   'P 1'
_cell_length_a   4.44819253
_cell_length_b   4.44819253
_cell_length_c   6.14232423
_cell_angle_alpha   68.84615583
_cell_angle_beta   68.84615583
_cell_angle_gamma   90.19307776
_symmetry_Int_Tables_number   1
_chemical_formula_structural   KNa2NiO2
_chemical_formula_sum   'K1 Na2 Ni1 O2'
_cell_volume   104.45271849
_cell_formula_units_Z   1
loop_
 _symmetry_equiv_pos_site_id
 _symmetry_equiv_pos_as_xyz
  1  'x, y, z'
loop_
 _atom_site_type_symbol
 _atom_site_label
 _atom_site_symmetry_multiplicity
 _atom_site_fract_x
 _atom_site_fract_y
 _atom_site_fract_z
 _atom_site_occupancy
  K  K0  1  0.94604230  0.44604230  0.10791540  1
  Na  Na1  1  0.23467647  0.23467647  0.53064707  1
  Na  Na2  1  0.73467647  0.73467647  0.53064707  1
  Ni  Ni3  1  0.50672337  0.00672337  0.98655327  1
  O  O4  1  0.67680487  0.17680487  0.64639025  1
  O  O5  1  0.33637653  0.83637653  0.32724694  1
