# generated using pymatgen
data_Li4FeSi2O7
_symmetry_space_group_name_H-M   'P 1'
_cell_length_a   4.55073691
_cell_length_b   5.33476391
_cell_length_c   6.85226987
_cell_angle_alpha   80.66587266
_cell_angle_beta   90.00000000
_cell_angle_gamma   64.75327223
_symmetry_Int_Tables_number   1
_chemical_formula_structural   Li4FeSi2O7
_chemical_formula_sum   'Li4 Fe1 Si2 O7'
_cell_volume   148.02424349
_cell_formula_units_Z   1
loop_
 _symmetry_equiv_pos_site_id
 _symmetry_equiv_pos_as_xyz
  1  'x, y, z'
loop_
 _atom_site_type_symbol
 _atom_site_label
 _atom_site_symmetry_multiplicity
 _atom_site_fract_x
 _atom_site_fract_y
 _atom_site_fract_z
 _atom_site_occupancy
  Li  Li0  1  0.16528194  0.70266019  0.43594517  1
  Li  Li1  1  0.71946890  0.57415191  0.14725569  1
  Li  Li2  1  0.29362081  0.42584809  0.85274431  1
  Li  Li3  1  0.86794213  0.29733981  0.56405483  1
  Fe  Fe4  1  0.00112230  0.00000000  0.00000000  1
  Si  Si5  1  0.56527909  0.84932925  0.70866814  1
  Si  Si6  1  0.41460834  0.15067075  0.29133186  1
  O  O7  1  0.33830444  0.89744135  0.22814235  1
  O  O8  1  0.85984967  0.73568597  0.88607948  1
  O  O9  1  0.49734875  0.59263107  0.65514419  1
  O  O10  1  0.08997982  0.40736893  0.34485581  1
  O  O11  1  0.59553564  0.26431403  0.11392052  1
  O  O12  1  0.23574579  0.10255865  0.77185765  1
  O  O13  1  0.68291138  0.00000000  0.50000000  1
