# generated using pymatgen
data_V4P2O13
_symmetry_space_group_name_H-M   'P 1'
_cell_length_a   4.96968768
_cell_length_b   5.00282218
_cell_length_c   8.78753055
_cell_angle_alpha   91.37550171
_cell_angle_beta   100.01261542
_cell_angle_gamma   80.60618033
_symmetry_Int_Tables_number   1
_chemical_formula_structural   V4P2O13
_chemical_formula_sum   'V4 P2 O13'
_cell_volume   212.26471554
_cell_formula_units_Z   1
loop_
 _symmetry_equiv_pos_site_id
 _symmetry_equiv_pos_as_xyz
  1  'x, y, z'
loop_
 _atom_site_type_symbol
 _atom_site_label
 _atom_site_symmetry_multiplicity
 _atom_site_fract_x
 _atom_site_fract_y
 _atom_site_fract_z
 _atom_site_occupancy
  V  V0  1  0.25054099  0.04403622  0.68590980  1
  V  V1  1  0.07441576  0.82318354  0.35741356  1
  V  V2  1  0.56904004  0.53844846  0.93985002  1
  V  V3  1  0.41480335  0.25373880  0.29648448  1
  P  P4  1  0.01302410  0.98965929  0.00186125  1
  P  P5  1  0.75371964  0.56777488  0.58672124  1
  O  O6  1  0.98909085  0.73407953  0.56453349  1
  O  O7  1  0.20313600  0.85247567  0.88604700  1
  O  O8  1  0.07093588  0.50521154  0.27677002  1
  O  O9  1  0.28530958  0.07530692  0.46740618  1
  O  O10  1  0.40536519  0.28243887  0.78776989  1
  O  O11  1  0.19572062  0.98115778  0.16987386  1
  O  O12  1  0.58752441  0.71979707  0.70872938  1
  O  O13  1  0.54790390  0.55799086  0.43194353  1
  O  O14  1  0.47043526  0.43533662  0.09943736  1
  O  O15  1  0.73307232  0.04319060  0.31165196  1
  O  O16  1  0.91861527  0.28789427  0.95634736  1
  O  O17  1  0.88163487  0.28074735  0.64112070  1
  O  O18  1  0.77618997  0.83530973  0.00931892  1
