# generated using pymatgen
data_YScO3
_symmetry_space_group_name_H-M   'P 1'
_cell_length_a   6.21722498
_cell_length_b   6.21726096
_cell_length_c   12.29962708
_cell_angle_alpha   89.99969395
_cell_angle_beta   90.00035698
_cell_angle_gamma   120.00067946
_symmetry_Int_Tables_number   1
_chemical_formula_structural   YScO3
_chemical_formula_sum   'Y6 Sc6 O18'
_cell_volume   411.73262598
_cell_formula_units_Z   6
loop_
 _symmetry_equiv_pos_site_id
 _symmetry_equiv_pos_as_xyz
  1  'x, y, z'
loop_
 _atom_site_type_symbol
 _atom_site_label
 _atom_site_symmetry_multiplicity
 _atom_site_fract_x
 _atom_site_fract_y
 _atom_site_fract_z
 _atom_site_occupancy
  Y  Y0  1  0.33333243  0.66668323  0.23568692  1
  Y  Y1  1  0.99999916  0.00001873  0.27520735  1
  Y  Y2  1  0.99998396  0.99998192  0.77520653  1
  Y  Y3  1  0.33331333  0.66664576  0.73568578  1
  Y  Y4  1  0.66665219  0.33331748  0.73568661  1
  Y  Y5  1  0.66666907  0.33335229  0.23568435  1
  Sc  Sc6  1  0.99996450  0.66616530  0.50188897  1
  Sc  Sc7  1  0.00003035  0.33382067  0.00188146  1
  Sc  Sc8  1  0.33378469  0.33379428  0.50186797  1
  Sc  Sc9  1  0.66623108  0.66623745  0.00187454  1
  Sc  Sc10  1  0.33379438  0.00003388  0.00188693  1
  Sc  Sc11  1  0.66618846  0.99995816  0.50187813  1
  O  O12  1  0.99998276  0.69202934  0.66931462  1
  O  O13  1  0.99999707  0.64108740  0.33579170  1
  O  O14  1  0.99998612  0.35890800  0.83579181  1
  O  O15  1  0.99999874  0.30796308  0.16931377  1
  O  O16  1  0.33333113  0.66668926  0.02184103  1
  O  O17  1  0.99998213  0.99997813  0.47638940  1
  O  O18  1  0.00000336  0.00001495  0.97638582  1
  O  O19  1  0.33331350  0.66664538  0.52184020  1
  O  O20  1  0.30793184  0.30792492  0.66931568  1
  O  O21  1  0.35890975  0.35893218  0.33579357  1
  O  O22  1  0.30795115  0.00002241  0.16931641  1
  O  O23  1  0.64106995  0.64107277  0.83579329  1
  O  O24  1  0.69204714  0.69207442  0.16931641  1
  O  O25  1  0.35890535  0.99998567  0.83579171  1
  O  O26  1  0.66664950  0.33330796  0.52184035  1
  O  O27  1  0.66667548  0.33335983  0.02184169  1
  O  O28  1  0.64108507  0.00001586  0.33579411  1
  O  O29  1  0.69203637  0.99998332  0.66931490  1
