# generated using pymatgen
data_Li2MnSiO4
_symmetry_space_group_name_H-M   'P 1'
_cell_length_a   6.34640223
_cell_length_b   11.00089377
_cell_length_c   5.10748518
_cell_angle_alpha   90.00000000
_cell_angle_beta   90.00000000
_cell_angle_gamma   90.00000000
_symmetry_Int_Tables_number   1
_chemical_formula_structural   Li2MnSiO4
_chemical_formula_sum   'Li8 Mn4 Si4 O16'
_cell_volume   356.58467950
_cell_formula_units_Z   4
loop_
 _symmetry_equiv_pos_site_id
 _symmetry_equiv_pos_as_xyz
  1  'x, y, z'
loop_
 _atom_site_type_symbol
 _atom_site_label
 _atom_site_symmetry_multiplicity
 _atom_site_fract_x
 _atom_site_fract_y
 _atom_site_fract_z
 _atom_site_occupancy
  Li  Li0  1  0.00308158  0.82772578  0.75877489  1
  Li  Li1  1  0.25390251  0.09072815  0.75892988  1
  Li  Li2  1  0.24609749  0.59072815  0.75892988  1
  Li  Li3  1  0.49691842  0.32772578  0.75877489  1
  Li  Li4  1  0.50308158  0.67227422  0.25877489  1
  Li  Li5  1  0.75390251  0.40927185  0.25892988  1
  Li  Li6  1  0.74609749  0.90927185  0.25892988  1
  Li  Li7  1  0.99691842  0.17227422  0.25877489  1
  Mn  Mn8  1  0.24448804  0.41680631  0.25875200  1
  Mn  Mn9  1  0.25551196  0.91680631  0.25875200  1
  Mn  Mn10  1  0.74448804  0.08319369  0.75875200  1
  Mn  Mn11  1  0.75551196  0.58319369  0.75875200  1
  Si  Si12  1  0.00331708  0.66804702  0.26403862  1
  Si  Si13  1  0.49668292  0.16804702  0.26403862  1
  Si  Si14  1  0.50331708  0.83195298  0.76403862  1
  Si  Si15  1  0.99668292  0.33195298  0.76403862  1
  O  O16  1  0.99146715  0.33076001  0.08710871  1
  O  O17  1  0.99935907  0.81011117  0.15347272  1
  O  O18  1  0.28117394  0.09848494  0.15396443  1
  O  O19  1  0.21252419  0.40604822  0.66808275  1
  O  O20  1  0.28747581  0.90604822  0.66808275  1
  O  O21  1  0.21882606  0.59848494  0.15396443  1
  O  O22  1  0.50064093  0.31011117  0.15347272  1
  O  O23  1  0.50853285  0.83076001  0.08710871  1
  O  O24  1  0.49146715  0.16923999  0.58710871  1
  O  O25  1  0.49935907  0.68988883  0.65347272  1
  O  O26  1  0.78117394  0.40151506  0.65396443  1
  O  O27  1  0.71252419  0.09395178  0.16808275  1
  O  O28  1  0.78747581  0.59395178  0.16808275  1
  O  O29  1  0.71882606  0.90151506  0.65396443  1
  O  O30  1  0.00064093  0.18988883  0.65347272  1
  O  O31  1  0.00853285  0.66923999  0.58710871  1
