# generated using pymatgen
data_Na5Fe6(SiO3)12
_symmetry_space_group_name_H-M   'P 1'
_cell_length_a   9.42303739
_cell_length_b   8.86990808
_cell_length_c   9.61846829
_cell_angle_alpha   90.00000000
_cell_angle_beta   72.38624657
_cell_angle_gamma   118.07650449
_symmetry_Int_Tables_number   1
_chemical_formula_structural   Na5Fe6(SiO3)12
_chemical_formula_sum   'Na5 Fe6 Si12 O36'
_cell_volume   666.30001980
_cell_formula_units_Z   1
loop_
 _symmetry_equiv_pos_site_id
 _symmetry_equiv_pos_as_xyz
  1  'x, y, z'
loop_
 _atom_site_type_symbol
 _atom_site_label
 _atom_site_symmetry_multiplicity
 _atom_site_fract_x
 _atom_site_fract_y
 _atom_site_fract_z
 _atom_site_occupancy
  Na  Na0  1  0.16641078  0.87858269  0.41729929  1
  Na  Na1  1  0.50000000  0.45459349  0.25000000  1
  Na  Na2  1  0.83358922  0.21217291  0.08270071  1
  Na  Na3  1  0.16758378  0.78768488  0.91641696  1
  Na  Na4  1  0.83241622  0.12010010  0.58358304  1
  Fe  Fe5  1  0.16559049  0.48248679  0.41692644  1
  Fe  Fe6  1  0.50000000  0.84977455  0.25000000  1
  Fe  Fe7  1  0.83440951  0.81689630  0.08307356  1
  Fe  Fe8  1  0.17346370  0.19205078  0.91337143  1
  Fe  Fe9  1  0.50000000  0.15070790  0.75000000  1
  Fe  Fe10  1  0.82653630  0.51858708  0.58662857  1
  Si  Si11  1  0.30026069  0.56107675  0.05680307  1
  Si  Si12  1  0.03421945  0.10562116  0.27369523  1
  Si  Si13  1  0.36801733  0.09526945  0.10759926  1
  Si  Si14  1  0.29953157  0.23945157  0.56019538  1
  Si  Si15  1  0.03441623  0.42917917  0.77376000  1
  Si  Si16  1  0.63198267  0.22725213  0.39240074  1
  Si  Si17  1  0.36957943  0.77152867  0.60896070  1
  Si  Si18  1  0.96578055  0.57140071  0.22630477  1
  Si  Si19  1  0.69973931  0.76081606  0.44319693  1
  Si  Si20  1  0.63042057  0.90194924  0.89103930  1
  Si  Si21  1  0.96558377  0.89476293  0.72624000  1
  Si  Si22  1  0.70046843  0.43992000  0.93980462  1
  O  O23  1  0.11131400  0.54960322  0.09157156  1
  O  O24  1  0.03690597  0.27408189  0.34142005  1
  O  O25  1  0.01610069  0.58715094  0.37775128  1
  O  O26  1  0.22146329  0.11575814  0.24224444  1
  O  O27  1  0.37130083  0.93006893  0.17549979  1
  O  O28  1  0.34948512  0.59521324  0.20973450  1
  O  O29  1  0.55481850  0.27273443  0.07522414  1
  O  O30  1  0.70516910  0.60851051  0.00837743  1
  O  O31  1  0.68221630  0.91998797  0.04273922  1
  O  O32  1  0.11228054  0.06149238  0.59105273  1
  O  O33  1  0.31778370  0.73777167  0.45726078  1
  O  O34  1  0.29483090  0.40334142  0.49162257  1
  O  O35  1  0.44518150  0.21791593  0.42477586  1
  O  O36  1  0.65051488  0.74572712  0.29026550  1
  O  O37  1  0.62869917  0.05876810  0.32450021  1
  O  O38  1  0.03810053  0.26350093  0.84076141  1
  O  O39  1  0.77853671  0.39429485  0.25775556  1
  O  O40  1  0.01667218  0.92850136  0.87721984  1
  O  O41  1  0.98389931  0.07105025  0.12224872  1
  O  O42  1  0.21880217  0.60732185  0.74291567  1
  O  O43  1  0.96309403  0.73717592  0.15857995  1
  O  O44  1  0.37230333  0.94170501  0.67439622  1
  O  O45  1  0.34848913  0.24892148  0.71099218  1
  O  O46  1  0.55860395  0.78858790  0.57395400  1
  O  O47  1  0.70797292  0.59480699  0.50032832  1
  O  O48  1  0.68304213  0.26118601  0.54324103  1
  O  O49  1  0.88868600  0.93828921  0.40842844  1
  O  O50  1  0.31695787  0.07814389  0.95675897  1
  O  O51  1  0.29202708  0.38683507  0.99967168  1
  O  O52  1  0.44139605  0.72998495  0.92604600  1
  O  O53  1  0.65151087  0.40043235  0.78900782  1
  O  O54  1  0.62769667  0.06940168  0.82560378  1
  O  O55  1  0.78119783  0.88851969  0.75708433  1
  O  O56  1  0.98332782  0.41182918  0.62278016  1
  O  O57  1  0.96189947  0.72540039  0.65923859  1
  O  O58  1  0.88771946  0.44921184  0.90894727  1
