# generated using pymatgen
data_BaRhO3
_symmetry_space_group_name_H-M   'P 1'
_cell_length_a   5.83032249
_cell_length_b   5.83032249
_cell_length_c   9.81147604
_cell_angle_alpha   90.00000000
_cell_angle_beta   90.00000000
_cell_angle_gamma   120.00000004
_symmetry_Int_Tables_number   1
_chemical_formula_structural   BaRhO3
_chemical_formula_sum   'Ba4 Rh4 O12'
_cell_volume   288.83521003
_cell_formula_units_Z   4
loop_
 _symmetry_equiv_pos_site_id
 _symmetry_equiv_pos_as_xyz
  1  'x, y, z'
loop_
 _atom_site_type_symbol
 _atom_site_label
 _atom_site_symmetry_multiplicity
 _atom_site_fract_x
 _atom_site_fract_y
 _atom_site_fract_z
 _atom_site_occupancy
  O  O0  1  0.18256235  0.36512470  0.75000000  1
  O  O1  1  0.81743765  0.18256235  0.25000000  1
  O  O2  1  0.36512470  0.18256235  0.25000000  1
  O  O3  1  0.63487530  0.81743765  0.75000000  1
  O  O4  1  0.18256235  0.81743765  0.75000000  1
  O  O5  1  0.81743765  0.63487530  0.25000000  1
  O  O6  1  0.50000000  0.00000000  0.50000000  1
  O  O7  1  0.50000000  0.50000000  0.00000000  1
  O  O8  1  0.50000000  0.00000000  0.00000000  1
  O  O9  1  0.50000000  0.50000000  0.50000000  1
  O  O10  1  0.00000000  0.50000000  0.50000000  1
  O  O11  1  0.00000000  0.50000000  0.00000000  1
  Rh  Rh12  1  0.33333333  0.66666667  0.88632306  1
  Rh  Rh13  1  0.66666667  0.33333333  0.38632306  1
  Rh  Rh14  1  0.66666667  0.33333333  0.11367694  1
  Rh  Rh15  1  0.33333333  0.66666667  0.61367694  1
  Ba  Ba16  1  0.66666667  0.33333333  0.75000000  1
  Ba  Ba17  1  0.33333333  0.66666667  0.25000000  1
  Ba  Ba18  1  0.00000000  0.00000000  0.50000000  1
  Ba  Ba19  1  0.00000000  0.00000000  0.00000000  1
