# generated using pymatgen
data_HoGaO3
_symmetry_space_group_name_H-M   'P 1'
_cell_length_a   6.09370176
_cell_length_b   6.09370460
_cell_length_c   11.71424563
_cell_angle_alpha   89.99985931
_cell_angle_beta   90.00008651
_cell_angle_gamma   120.00011290
_symmetry_Int_Tables_number   1
_chemical_formula_structural   HoGaO3
_chemical_formula_sum   'Ho6 Ga6 O18'
_cell_volume   376.70991980
_cell_formula_units_Z   6
loop_
 _symmetry_equiv_pos_site_id
 _symmetry_equiv_pos_as_xyz
  1  'x, y, z'
loop_
 _atom_site_type_symbol
 _atom_site_label
 _atom_site_symmetry_multiplicity
 _atom_site_fract_x
 _atom_site_fract_y
 _atom_site_fract_z
 _atom_site_occupancy
  Ho  Ho0  1  0.33333013  0.66667447  0.22937780  1
  Ho  Ho1  1  -0.00000177  0.00000625  0.27126726  1
  Ho  Ho2  1  0.99999206  0.99999785  0.77128016  1
  Ho  Ho3  1  0.33332347  0.66665973  0.72937679  1
  Ho  Ho4  1  0.66665470  0.33332461  0.72937334  1
  Ho  Ho5  1  0.66666670  0.33333985  0.22937768  1
  Ga  Ga6  1  0.99999001  0.66588591  0.49662736  1
  Ga  Ga7  1  0.99999610  0.33412319  0.99662889  1
  Ga  Ga8  1  0.33410092  0.33410362  0.49662425  1
  Ga  Ga9  1  0.66588463  0.66588910  0.99662924  1
  Ga  Ga10  1  0.33411526  0.00000431  0.99662771  1
  Ga  Ga11  1  0.66587686  0.99999182  0.49662607  1
  O  O12  1  0.99998558  0.69312482  0.65990112  1
  O  O13  1  -0.00000236  0.64083264  0.33472107  1
  O  O14  1  0.99998760  0.35916464  0.83472126  1
  O  O15  1  0.99999770  0.30688597  0.15990567  1
  O  O16  1  0.33333180  0.66667323  0.01669070  1
  O  O17  1  0.33331918  0.66666293  0.51668887  1
  O  O18  1  0.99998712  0.99999086  0.47413189  1
  O  O19  1  0.99999634  0.00000773  0.97414372  1
  O  O20  1  0.30684863  0.30685358  0.65989846  1
  O  O21  1  0.35916834  0.35918201  0.33471917  1
  O  O22  1  0.30687516  0.00000777  0.15990614  1
  O  O23  1  0.64082174  0.64082563  0.83472129  1
  O  O24  1  0.69312334  0.69313041  0.15990654  1
  O  O25  1  0.35915656  0.99999334  0.83471932  1
  O  O26  1  0.66665841  0.33332829  0.51668657  1
  O  O27  1  0.66666733  0.33333764  0.01669265  1
  O  O28  1  0.64082903  0.00000624  0.33472140  1
  O  O29  1  0.69312145  0.99999256  0.65989964  1
