# generated using pymatgen
data_Na2NiPCO7
_symmetry_space_group_name_H-M   'P 1'
_cell_length_a   8.87990961
_cell_length_b   10.29322274
_cell_length_c   6.61745696
_cell_angle_alpha   90.28513196
_cell_angle_beta   90.45457513
_cell_angle_gamma   88.60854181
_symmetry_Int_Tables_number   1
_chemical_formula_structural   Na2NiPCO7
_chemical_formula_sum   'Na8 Ni4 P4 C4 O28'
_cell_volume   604.65036128
_cell_formula_units_Z   4
loop_
 _symmetry_equiv_pos_site_id
 _symmetry_equiv_pos_as_xyz
  1  'x, y, z'
loop_
 _atom_site_type_symbol
 _atom_site_label
 _atom_site_symmetry_multiplicity
 _atom_site_fract_x
 _atom_site_fract_y
 _atom_site_fract_z
 _atom_site_occupancy
  Na  Na0  1  0.24842572  0.12226466  0.01032472  1
  Na  Na1  1  0.24904358  0.11987755  0.48903990  1
  Na  Na2  1  0.26434910  0.62278634  0.01418954  1
  Na  Na3  1  0.26481884  0.62364359  0.48178747  1
  Na  Na4  1  0.73702278  0.36638776  0.97785501  1
  Na  Na5  1  0.74518042  0.88224381  0.51335215  1
  Na  Na6  1  0.74756640  0.88630211  0.99101855  1
  Na  Na7  1  0.91031792  0.59524052  0.73139142  1
  Ni  Ni8  1  0.35188030  0.39027567  0.74812605  1
  Ni  Ni9  1  0.34761674  0.88910222  0.75279010  1
  Ni  Ni10  1  0.64950455  0.11225914  0.25634696  1
  Ni  Ni11  1  0.65515446  0.60667347  0.25192065  1
  P  P12  1  0.42561767  0.36055527  0.24969491  1
  P  P13  1  0.42276903  0.85773434  0.25053476  1
  P  P14  1  0.57436980  0.14137263  0.75194221  1
  P  P15  1  0.58214889  0.64623486  0.75052977  1
  C  C16  1  0.07644838  0.35851062  0.75326433  1
  C  C17  1  0.07122450  0.85191220  0.75015013  1
  C  C18  1  0.92337004  0.14289948  0.25155365  1
  C  C19  1  0.92937932  0.64433583  0.24629259  1
  O  O20  1  0.06404118  0.15595339  0.24829516  1
  O  O21  1  0.06980574  0.66151910  0.24645396  1
  O  O22  1  0.14061769  0.47273854  0.74779334  1
  O  O23  1  0.13114228  0.96567411  0.74967133  1
  O  O24  1  0.17086486  0.26014637  0.74724103  1
  O  O25  1  0.16736043  0.75358075  0.74839801  1
  O  O26  1  0.32510312  0.39378220  0.06263817  1
  O  O27  1  0.33027892  0.39791351  0.43674512  1
  O  O28  1  0.32349954  0.89319388  0.06431469  1
  O  O29  1  0.32731057  0.89249261  0.43884633  1
  O  O30  1  0.42106481  0.07289452  0.75393195  1
  O  O31  1  0.43150197  0.57451850  0.74802475  1
  O  O32  1  0.45800666  0.20950997  0.25023891  1
  O  O33  1  0.45920103  0.70745240  0.24804002  1
  O  O34  1  0.53994655  0.29093457  0.75555861  1
  O  O35  1  0.54481152  0.79665887  0.76231497  1
  O  O36  1  0.57683634  0.43004289  0.24165486  1
  O  O37  1  0.57445940  0.92934354  0.25012436  1
  O  O38  1  0.66833528  0.10116500  0.56519701  1
  O  O39  1  0.67298376  0.10717116  0.94029441  1
  O  O40  1  0.67973508  0.62297965  0.56078407  1
  O  O41  1  0.68365630  0.60738320  0.93372356  1
  O  O42  1  0.82603683  0.23894634  0.25062689  1
  O  O43  1  0.82940273  0.73966547  0.24892626  1
  O  O44  1  0.86105082  0.02921328  0.25607216  1
  O  O45  1  0.87136330  0.52995583  0.24600283  1
  O  O46  1  0.93549299  0.35185184  0.76400307  1
  O  O47  1  0.92955884  0.83473549  0.75213632  1
