# generated using pymatgen
data_Li4CrO4
_symmetry_space_group_name_H-M   'P 1'
_cell_length_a   7.78503954
_cell_length_b   5.21718762
_cell_length_c   5.19542541
_cell_angle_alpha   68.03456480
_cell_angle_beta   97.06896395
_cell_angle_gamma   109.38677332
_symmetry_Int_Tables_number   1
_chemical_formula_structural   Li4CrO4
_chemical_formula_sum   'Li8 Cr2 O8'
_cell_volume   184.60318489
_cell_formula_units_Z   2
loop_
 _symmetry_equiv_pos_site_id
 _symmetry_equiv_pos_as_xyz
  1  'x, y, z'
loop_
 _atom_site_type_symbol
 _atom_site_label
 _atom_site_symmetry_multiplicity
 _atom_site_fract_x
 _atom_site_fract_y
 _atom_site_fract_z
 _atom_site_occupancy
  Li  Li0  1  0.00430013  0.24005116  0.25984982  1
  Li  Li1  1  0.20542983  0.39043070  0.78341192  1
  Li  Li2  1  0.41524788  0.91669130  0.75229223  1
  Li  Li3  1  0.44156165  0.49049083  0.24048392  1
  Li  Li4  1  0.55843835  0.50950917  0.75951608  1
  Li  Li5  1  0.58475212  0.08330870  0.24770777  1
  Li  Li6  1  0.79457017  0.60956930  0.21658808  1
  Li  Li7  1  0.99569987  0.75994884  0.74015018  1
  Cr  Cr8  1  0.22696690  0.83793104  0.21978788  1
  Cr  Cr9  1  0.77303310  0.16206896  0.78021212  1
  O  O10  1  0.02460628  0.84415132  0.33866996  1
  O  O11  1  0.19328698  0.62648976  0.00042926  1
  O  O12  1  0.38303335  0.69730492  0.48649706  1
  O  O13  1  0.37547256  0.19374795  0.02454339  1
  O  O14  1  0.62452744  0.80625205  0.97545661  1
  O  O15  1  0.61696665  0.30269508  0.51350294  1
  O  O16  1  0.80671302  0.37351024  0.99957074  1
  O  O17  1  0.97539372  0.15584868  0.66133004  1
