# generated using pymatgen
data_Y4Ga2O9
_symmetry_space_group_name_H-M   'P 1'
_cell_length_a   7.46960179
_cell_length_b   10.72178979
_cell_length_c   11.41510579
_cell_angle_alpha   90.00000000
_cell_angle_beta   108.15750971
_cell_angle_gamma   90.00000000
_symmetry_Int_Tables_number   1
_chemical_formula_structural   Y4Ga2O9
_chemical_formula_sum   'Y16 Ga8 O36'
_cell_volume   868.68288805
_cell_formula_units_Z   4
loop_
 _symmetry_equiv_pos_site_id
 _symmetry_equiv_pos_as_xyz
  1  'x, y, z'
loop_
 _atom_site_type_symbol
 _atom_site_label
 _atom_site_symmetry_multiplicity
 _atom_site_fract_x
 _atom_site_fract_y
 _atom_site_fract_z
 _atom_site_occupancy
  Y  Y0  1  0.02136518  0.09910142  0.80166573  1
  Y  Y1  1  0.02136518  0.40089858  0.30166573  1
  Y  Y2  1  0.16436298  0.88095973  0.58892138  1
  Y  Y3  1  0.33759691  0.37740398  0.93602311  1
  Y  Y4  1  0.16436298  0.61904027  0.08892138  1
  Y  Y5  1  0.33759691  0.12259602  0.43602311  1
  Y  Y6  1  0.47784612  0.61190616  0.72080676  1
  Y  Y7  1  0.52215388  0.11190616  0.77919324  1
  Y  Y8  1  0.47784612  0.88809384  0.22080676  1
  Y  Y9  1  0.52215388  0.38809384  0.27919324  1
  Y  Y10  1  0.66240309  0.87740398  0.56397689  1
  Y  Y11  1  0.83563702  0.38095973  0.91107862  1
  Y  Y12  1  0.66240309  0.62259602  0.06397689  1
  Y  Y13  1  0.83563702  0.11904027  0.41107862  1
  Y  Y14  1  0.97863482  0.59910142  0.69833427  1
  Y  Y15  1  0.97863482  0.90089858  0.19833427  1
  Ga  Ga16  1  0.20962641  0.32199632  0.62497646  1
  Ga  Ga17  1  0.34220454  0.82566137  0.89219438  1
  Ga  Ga18  1  0.20962641  0.17800368  0.12497646  1
  Ga  Ga19  1  0.34220454  0.67433863  0.39219438  1
  Ga  Ga20  1  0.65779546  0.32566137  0.60780562  1
  Ga  Ga21  1  0.79037359  0.82199632  0.87502354  1
  Ga  Ga22  1  0.65779546  0.17433863  0.10780562  1
  Ga  Ga23  1  0.79037359  0.67800368  0.37502354  1
  O  O24  1  0.06605677  0.23484547  0.97331311  1
  O  O25  1  0.07811040  0.50828855  0.89477333  1
  O  O26  1  0.20871219  0.73748686  0.75219201  1
  O  O27  1  0.23692696  0.23911172  0.77357841  1
  O  O28  1  0.06605677  0.26515453  0.47331311  1
  O  O29  1  0.07811040  0.99171145  0.39477333  1
  O  O30  1  0.29927442  0.98560110  0.82966002  1
  O  O31  1  0.21192763  0.48894202  0.65664252  1
  O  O32  1  0.20871219  0.76251314  0.25219201  1
  O  O33  1  0.23692696  0.26088828  0.27357841  1
  O  O34  1  0.36250895  0.73022420  0.54733363  1
  O  O35  1  0.29927442  0.51439890  0.32966002  1
  O  O36  1  0.43076934  0.24934079  0.60980436  1
  O  O37  1  0.56425768  0.49011457  0.89340099  1
  O  O38  1  0.21192763  0.01105798  0.15664252  1
  O  O39  1  0.43574232  0.99011457  0.60659901  1
  O  O40  1  0.56923066  0.74934079  0.89019564  1
  O  O41  1  0.63749105  0.23022420  0.95266637  1
  O  O42  1  0.36250895  0.76977580  0.04733363  1
  O  O43  1  0.43076934  0.25065921  0.10980436  1
  O  O44  1  0.56425768  0.00988543  0.39340099  1
  O  O45  1  0.78807237  0.98894202  0.84335748  1
  O  O46  1  0.43574232  0.50988543  0.10659901  1
  O  O47  1  0.56923066  0.75065921  0.39019564  1
  O  O48  1  0.70072558  0.48560110  0.67033998  1
  O  O49  1  0.63749105  0.26977580  0.45266637  1
  O  O50  1  0.76307304  0.73911172  0.72642159  1
  O  O51  1  0.79128781  0.23748686  0.74780799  1
  O  O52  1  0.78807237  0.51105798  0.34335748  1
  O  O53  1  0.70072558  0.01439890  0.17033998  1
  O  O54  1  0.92188960  0.00828855  0.60522667  1
  O  O55  1  0.93394323  0.73484547  0.52668689  1
  O  O56  1  0.76307304  0.76088828  0.22642159  1
  O  O57  1  0.79128781  0.26251314  0.24780799  1
  O  O58  1  0.92188960  0.49171145  0.10522667  1
  O  O59  1  0.93394323  0.76515453  0.02668689  1
