# generated using pymatgen
data_NaMnPCO7
_symmetry_space_group_name_H-M   'P 1'
_cell_length_a   8.20352498
_cell_length_b   8.17771387
_cell_length_c   10.64875598
_cell_angle_alpha   68.97535324
_cell_angle_beta   108.96676466
_cell_angle_gamma   80.03732369
_symmetry_Int_Tables_number   1
_chemical_formula_structural   NaMnPCO7
_chemical_formula_sum   'Na4 Mn4 P4 C4 O28'
_cell_volume   595.71504782
_cell_formula_units_Z   4
loop_
 _symmetry_equiv_pos_site_id
 _symmetry_equiv_pos_as_xyz
  1  'x, y, z'
loop_
 _atom_site_type_symbol
 _atom_site_label
 _atom_site_symmetry_multiplicity
 _atom_site_fract_x
 _atom_site_fract_y
 _atom_site_fract_z
 _atom_site_occupancy
  Na  Na0  1  0.50586333  0.49034246  0.76707437  1
  Na  Na1  1  0.75710746  0.73989580  0.76734576  1
  Na  Na2  1  0.48435161  0.49382046  0.23897342  1
  Na  Na3  1  0.98868674  0.98709333  0.23689996  1
  Mn  Mn4  1  0.59463397  0.15485084  0.65721862  1
  Mn  Mn5  1  0.09480257  0.65481009  0.65712680  1
  Mn  Mn6  1  0.91230673  0.34957222  0.34726092  1
  Mn  Mn7  1  0.40907869  0.85462665  0.33691017  1
  P  P8  1  0.76878428  0.48210909  0.56964508  1
  P  P9  1  0.27098122  0.98017052  0.56381862  1
  P  P10  1  0.73262019  0.02288343  0.43249447  1
  P  P11  1  0.23242475  0.52246914  0.43270981  1
  C  C12  1  0.69332340  0.04195551  0.92296779  1
  C  C13  1  0.20027705  0.54668277  0.92313720  1
  C  C14  1  0.80253852  0.44919206  0.08316625  1
  C  C15  1  0.29751857  0.95592374  0.07091581  1
  O  O16  1  0.24131759  0.00285654  0.93788791  1
  O  O17  1  0.74579317  0.49463358  0.94794868  1
  O  O18  1  0.27932413  0.46756191  0.86013360  1
  O  O19  1  0.77222047  0.96160328  0.86051234  1
  O  O20  1  0.54767710  0.18677233  0.81878490  1
  O  O21  1  0.05603114  0.69315162  0.81943159  1
  O  O22  1  0.94087570  0.50257029  0.66918960  1
  O  O23  1  0.74872355  0.30609370  0.67535456  1
  O  O24  1  0.45327022  0.98755471  0.66328498  1
  O  O25  1  0.26364323  0.79393853  0.66925088  1
  O  O26  1  0.72232821  0.02558540  0.57345632  1
  O  O27  1  0.10554570  0.14530793  0.51993401  1
  O  O28  1  0.60066806  0.65034058  0.52327126  1
  O  O29  1  0.22647214  0.52996823  0.57343724  1
  O  O30  1  0.77577928  0.47070688  0.43037747  1
  O  O31  1  0.90437283  0.86140576  0.47723672  1
  O  O32  1  0.40205414  0.35864055  0.47745858  1
  O  O33  1  0.27424769  0.97274677  0.42248268  1
  O  O34  1  0.55902852  0.00893618  0.32976831  1
  O  O35  1  0.74369301  0.20839993  0.33049056  1
  O  O36  1  0.05516300  0.50908891  0.33393211  1
  O  O37  1  0.24502253  0.70416424  0.32674212  1
  O  O38  1  0.94906779  0.30641291  0.18534224  1
  O  O39  1  0.44567950  0.81170891  0.17509687  1
  O  O40  1  0.72606340  0.53428816  0.14313600  1
  O  O41  1  0.22192738  0.03789129  0.13503076  1
  O  O42  1  0.74643131  0.99449027  0.05645624  1
  O  O43  1  0.25018211  0.49468450  0.05690839  1
