# generated using pymatgen
data_Li4TiCrO6
_symmetry_space_group_name_H-M   'P 1'
_cell_length_a   5.06300776
_cell_length_b   5.06300720
_cell_length_c   9.80166362
_cell_angle_alpha   85.05207555
_cell_angle_beta   94.94792069
_cell_angle_gamma   59.81097305
_symmetry_Int_Tables_number   1
_chemical_formula_structural   Li4TiCrO6
_chemical_formula_sum   'Li8 Ti2 Cr2 O12'
_cell_volume   213.90420908
_cell_formula_units_Z   2
loop_
 _symmetry_equiv_pos_site_id
 _symmetry_equiv_pos_as_xyz
  1  'x, y, z'
loop_
 _atom_site_type_symbol
 _atom_site_label
 _atom_site_symmetry_multiplicity
 _atom_site_fract_x
 _atom_site_fract_y
 _atom_site_fract_z
 _atom_site_occupancy
  Li  Li0  1  0.00000000  0.50000000  0.00000000  1
  Li  Li1  1  0.24914566  0.24914566  0.75000000  1
  Li  Li2  1  0.15285160  0.67114651  0.49935570  1
  Li  Li3  1  0.50000000  0.00000000  0.50000000  1
  Li  Li4  1  0.32885349  0.84714840  0.99935570  1
  Li  Li5  1  0.67114651  0.15285160  0.00064430  1
  Li  Li6  1  0.84714840  0.32885349  0.50064430  1
  Li  Li7  1  0.75085434  0.75085434  0.25000000  1
  Ti  Ti8  1  0.41687753  0.41687753  0.25000000  1
  Ti  Ti9  1  0.58312247  0.58312247  0.75000000  1
  Cr  Cr10  1  0.08466927  0.08466927  0.25000000  1
  Cr  Cr11  1  0.91533073  0.91533073  0.75000000  1
  O  O12  1  0.14387233  0.35394631  0.36513934  1
  O  O13  1  0.35394631  0.14387233  0.13486066  1
  O  O14  1  0.28040559  0.57424841  0.86249650  1
  O  O15  1  0.06713571  0.78908461  0.13681473  1
  O  O16  1  0.21091539  0.93286429  0.63681473  1
  O  O17  1  0.57424841  0.28040559  0.63750350  1
  O  O18  1  0.42575159  0.71959441  0.36249650  1
  O  O19  1  0.78908461  0.06713571  0.36318527  1
  O  O20  1  0.93286429  0.21091539  0.86318527  1
  O  O21  1  0.71959441  0.42575159  0.13750350  1
  O  O22  1  0.64605369  0.85612767  0.86513934  1
  O  O23  1  0.85612767  0.64605369  0.63486066  1
