# generated using pymatgen
data_Na2NiPCO7
_symmetry_space_group_name_H-M   'P 1'
_cell_length_a   8.87409325
_cell_length_b   8.39991931
_cell_length_c   8.36596558
_cell_angle_alpha   75.61468540
_cell_angle_beta   89.45996355
_cell_angle_gamma   91.20628176
_symmetry_Int_Tables_number   1
_chemical_formula_structural   Na2NiPCO7
_chemical_formula_sum   'Na8 Ni4 P4 C4 O28'
_cell_volume   603.85777396
_cell_formula_units_Z   4
loop_
 _symmetry_equiv_pos_site_id
 _symmetry_equiv_pos_as_xyz
  1  'x, y, z'
loop_
 _atom_site_type_symbol
 _atom_site_label
 _atom_site_symmetry_multiplicity
 _atom_site_fract_x
 _atom_site_fract_y
 _atom_site_fract_z
 _atom_site_occupancy
  Na  Na0  1  0.73422664  0.11490211  0.86743392  1
  Na  Na1  1  0.74887149  0.61635056  0.37180057  1
  Na  Na2  1  0.73434703  0.38357004  0.13699947  1
  Na  Na3  1  0.74852449  0.87739510  0.63466129  1
  Na  Na4  1  0.25642384  0.62558114  0.86239509  1
  Na  Na5  1  0.24959696  0.38529723  0.61613685  1
  Na  Na6  1  0.26850272  0.88266996  0.14809044  1
  Na  Na7  1  0.08765299  0.22991726  0.03690980  1
  Ni  Ni8  1  0.64925597  0.01436738  0.23768980  1
  Ni  Ni9  1  0.65283776  0.51167704  0.73492504  1
  Ni  Ni10  1  0.34627453  0.98454606  0.76035495  1
  Ni  Ni11  1  0.34681723  0.48275266  0.26363574  1
  P  P12  1  0.57533277  0.23447972  0.51377730  1
  P  P13  1  0.57778795  0.73471827  0.01645466  1
  P  P14  1  0.41868440  0.27096128  0.97810103  1
  P  P15  1  0.42377308  0.76378815  0.48534731  1
  C  C16  1  0.92711524  0.47731741  0.77288924  1
  C  C17  1  0.92462750  0.98183193  0.26540248  1
  C  C18  1  0.07432277  0.01758652  0.73080874  1
  C  C19  1  0.07417105  0.52119528  0.23145889  1
  O  O20  1  0.93422003  0.03453863  0.72300110  1
  O  O21  1  0.93445751  0.53424579  0.21344582  1
  O  O22  1  0.86614380  0.59036087  0.65963459  1
  O  O23  1  0.85823430  0.09773824  0.15513110  1
  O  O24  1  0.83096166  0.37984647  0.87184702  1
  O  O25  1  0.83200306  0.88459278  0.36679790  1
  O  O26  1  0.67205234  0.67483643  0.88813880  1
  O  O27  1  0.67205156  0.17505179  0.38683788  1
  O  O28  1  0.67683251  0.35906119  0.57465594  1
  O  O29  1  0.67490302  0.86262081  0.07597240  1
  O  O30  1  0.56737994  0.19923441  0.05351994  1
  O  O31  1  0.57699351  0.69287744  0.55216938  1
  O  O32  1  0.53901465  0.08583164  0.66551602  1
  O  O33  1  0.54189843  0.58411541  0.16692571  1
  O  O34  1  0.45664968  0.41556210  0.82256909  1
  O  O35  1  0.46081889  0.91176085  0.33474669  1
  O  O36  1  0.42609837  0.80749557  0.94703075  1
  O  O37  1  0.42659066  0.30911533  0.44302575  1
  O  O38  1  0.31702487  0.14157107  0.92448523  1
  O  O39  1  0.33176825  0.81734890  0.61830341  1
  O  O40  1  0.31996470  0.34327852  0.09418257  1
  O  O41  1  0.32504475  0.63792239  0.42451677  1
  O  O42  1  0.17165816  0.11239204  0.63403702  1
  O  O43  1  0.17368105  0.61738957  0.13648674  1
  O  O44  1  0.13454950  0.40634788  0.34339475  1
  O  O45  1  0.13711895  0.90250641  0.84246192  1
  O  O46  1  0.06804569  0.46029760  0.78867601  1
  O  O47  1  0.06501975  0.97310772  0.26510809  1
