# generated using pymatgen
data_Li2CrO3
_symmetry_space_group_name_H-M   'P 1'
_cell_length_a   5.01250234
_cell_length_b   5.01250234
_cell_length_c   5.13342509
_cell_angle_alpha   79.75893422
_cell_angle_beta   100.24106578
_cell_angle_gamma   60.99194627
_symmetry_Int_Tables_number   1
_chemical_formula_structural   Li2CrO3
_chemical_formula_sum   'Li4 Cr2 O6'
_cell_volume   105.64923051
_cell_formula_units_Z   2
loop_
 _symmetry_equiv_pos_site_id
 _symmetry_equiv_pos_as_xyz
  1  'x, y, z'
loop_
 _atom_site_type_symbol
 _atom_site_label
 _atom_site_symmetry_multiplicity
 _atom_site_fract_x
 _atom_site_fract_y
 _atom_site_fract_z
 _atom_site_occupancy
  Li  Li0  1  0.50000000  0.50000000  0.50000000  1
  Li  Li1  1  0.84033183  0.84033183  0.50000000  1
  Li  Li2  1  0.15966817  0.15966817  0.50000000  1
  Li  Li3  1  0.00000000  0.00000000  0.00000000  1
  Cr  Cr4  1  0.32866547  0.32866547  0.00000000  1
  Cr  Cr5  1  0.67133453  0.67133453  0.00000000  1
  O  O6  1  0.28179492  0.71820508  0.77210239  1
  O  O7  1  0.06898149  0.56851599  0.22560770  1
  O  O8  1  0.43148401  0.93101851  0.22560770  1
  O  O9  1  0.93101851  0.43148401  0.77439230  1
  O  O10  1  0.56851599  0.06898149  0.77439230  1
  O  O11  1  0.71820508  0.28179492  0.22789761  1
