# generated using pymatgen
data_Li4Nb2Fe3Sn3O16
_symmetry_space_group_name_H-M   'P 1'
_cell_length_a   6.23098300
_cell_length_b   6.19353987
_cell_length_c   9.97154271
_cell_angle_alpha   90.07100989
_cell_angle_beta   90.05776695
_cell_angle_gamma   119.89274696
_symmetry_Int_Tables_number   1
_chemical_formula_structural   Li4Nb2Fe3Sn3O16
_chemical_formula_sum   'Li4 Nb2 Fe3 Sn3 O16'
_cell_volume   333.62281572
_cell_formula_units_Z   1
loop_
 _symmetry_equiv_pos_site_id
 _symmetry_equiv_pos_as_xyz
  1  'x, y, z'
loop_
 _atom_site_type_symbol
 _atom_site_label
 _atom_site_symmetry_multiplicity
 _atom_site_fract_x
 _atom_site_fract_y
 _atom_site_fract_z
 _atom_site_occupancy
  Li  Li0  1  0.34507186  0.67254983  0.90188024  1
  Li  Li1  1  0.98698569  0.99319430  0.98490815  1
  Li  Li2  1  0.99064928  0.99551842  0.49684612  1
  Li  Li3  1  0.65943378  0.32942769  0.40510390  1
  Nb  Nb4  1  0.35220237  0.67630032  0.49695985  1
  Nb  Nb5  1  0.70410461  0.35214667  0.97730637  1
  Fe  Fe6  1  0.65726578  0.82838267  0.21207520  1
  Fe  Fe7  1  0.83323195  0.66079915  0.71349386  1
  Fe  Fe8  1  0.83310060  0.17237690  0.71351545  1
  Sn  Sn9  1  0.16916937  0.83203205  0.21498699  1
  Sn  Sn10  1  0.16920262  0.33722709  0.21473881  1
  Sn  Sn11  1  0.34290506  0.17150210  0.71490975  1
  O  O12  1  0.18268971  0.83972658  0.58744121  1
  O  O13  1  0.02660339  0.51327406  0.33914472  1
  O  O14  1  0.32653450  0.66363068  0.10248722  1
  O  O15  1  0.99367449  0.99676317  0.31159494  1
  O  O16  1  0.00117175  0.00095833  0.79957363  1
  O  O17  1  0.18297923  0.34332929  0.58754177  1
  O  O18  1  0.46661958  0.95560906  0.34802203  1
  O  O19  1  0.46737427  0.51159227  0.34774804  1
  O  O20  1  0.31668337  0.15822033  0.09741189  1
  O  O21  1  0.65784617  0.82884716  0.58349822  1
  O  O22  1  0.51166058  0.47094728  0.85379714  1
  O  O23  1  0.51121649  0.04043180  0.85359938  1
  O  O24  1  0.66771578  0.33352502  0.60991143  1
  O  O25  1  0.83477445  0.66080787  0.09069230  1
  O  O26  1  0.97497099  0.48777138  0.85837657  1
  O  O27  1  0.83416231  0.17340853  0.09027785  1
