# generated using pymatgen
data_Mn2P2O7F2
_symmetry_space_group_name_H-M   'P 1'
_cell_length_a   11.12071772
_cell_length_b   6.75384756
_cell_length_c   10.02321671
_cell_angle_alpha   90.00000000
_cell_angle_beta   90.00000000
_cell_angle_gamma   90.00000000
_symmetry_Int_Tables_number   1
_chemical_formula_structural   Mn2P2O7F2
_chemical_formula_sum   'Mn8 P8 O28 F8'
_cell_volume   752.82007450
_cell_formula_units_Z   4
loop_
 _symmetry_equiv_pos_site_id
 _symmetry_equiv_pos_as_xyz
  1  'x, y, z'
loop_
 _atom_site_type_symbol
 _atom_site_label
 _atom_site_symmetry_multiplicity
 _atom_site_fract_x
 _atom_site_fract_y
 _atom_site_fract_z
 _atom_site_occupancy
  Mn  Mn0  1  0.00000000  0.00000000  0.00000000  1
  Mn  Mn1  1  0.00000000  0.00000000  0.50000000  1
  Mn  Mn2  1  0.17444570  0.00000000  0.25000000  1
  Mn  Mn3  1  0.32555430  0.50000000  0.75000000  1
  Mn  Mn4  1  0.50000000  0.50000000  0.50000000  1
  Mn  Mn5  1  0.50000000  0.50000000  0.00000000  1
  Mn  Mn6  1  0.67444570  0.50000000  0.25000000  1
  Mn  Mn7  1  0.82555430  0.00000000  0.75000000  1
  P  P8  1  0.07495167  0.28341737  0.74633373  1
  P  P9  1  0.07495167  0.71658263  0.75366627  1
  P  P10  1  0.42504833  0.21658263  0.24633373  1
  P  P11  1  0.42504833  0.78341737  0.25366627  1
  P  P12  1  0.57495167  0.21658263  0.74633373  1
  P  P13  1  0.57495167  0.78341737  0.75366627  1
  P  P14  1  0.92504833  0.28341737  0.24633373  1
  P  P15  1  0.92504833  0.71658263  0.25366627  1
  O  O16  1  0.01533944  0.16054501  0.33176362  1
  O  O17  1  0.01533944  0.83945499  0.16823638  1
  O  O18  1  0.01361251  0.50000000  0.75000000  1
  O  O19  1  0.07576500  0.20980905  0.60165246  1
  O  O20  1  0.07576500  0.79019095  0.89834754  1
  O  O21  1  0.19933116  0.29709427  0.80670907  1
  O  O22  1  0.19933116  0.70290573  0.69329093  1
  O  O23  1  0.30066884  0.20290573  0.30670907  1
  O  O24  1  0.30066884  0.79709427  0.19329093  1
  O  O25  1  0.42423500  0.29019095  0.10165246  1
  O  O26  1  0.42423500  0.70980905  0.39834754  1
  O  O27  1  0.48638749  0.00000000  0.25000000  1
  O  O28  1  0.48466056  0.66054501  0.66823638  1
  O  O29  1  0.48466056  0.33945499  0.83176362  1
  O  O30  1  0.51533944  0.33945499  0.33176362  1
  O  O31  1  0.51533944  0.66054501  0.16823638  1
  O  O32  1  0.51361251  0.00000000  0.75000000  1
  O  O33  1  0.57576500  0.29019095  0.60165246  1
  O  O34  1  0.57576500  0.70980905  0.89834754  1
  O  O35  1  0.69933116  0.79709427  0.69329093  1
  O  O36  1  0.69933116  0.20290573  0.80670907  1
  O  O37  1  0.80066884  0.29709427  0.30670907  1
  O  O38  1  0.80066884  0.70290573  0.19329093  1
  O  O39  1  0.92423500  0.20980905  0.10165246  1
  O  O40  1  0.92423500  0.79019095  0.39834754  1
  O  O41  1  0.98638749  0.50000000  0.25000000  1
  O  O42  1  0.98466056  0.16054501  0.83176362  1
  O  O43  1  0.98466056  0.83945499  0.66823638  1
  F  F44  1  0.16427544  0.10966101  0.08070233  1
  F  F45  1  0.16427544  0.89033899  0.41929767  1
  F  F46  1  0.33572456  0.39033899  0.58070233  1
  F  F47  1  0.33572456  0.60966101  0.91929767  1
  F  F48  1  0.66427544  0.39033899  0.08070233  1
  F  F49  1  0.66427544  0.60966101  0.41929767  1
  F  F50  1  0.83572456  0.10966101  0.58070233  1
  F  F51  1  0.83572456  0.89033899  0.91929767  1
