# generated using pymatgen
data_Ba4Ti3O10
_symmetry_space_group_name_H-M   'P 1'
_cell_length_a   4.08258590
_cell_length_b   14.97529907
_cell_length_c   5.80592303
_cell_angle_alpha   101.22688893
_cell_angle_beta   134.93785681
_cell_angle_gamma   82.09588460
_symmetry_Int_Tables_number   1
_chemical_formula_structural   Ba4Ti3O10
_chemical_formula_sum   'Ba4 Ti3 O10'
_cell_volume   246.45996746
_cell_formula_units_Z   1
loop_
 _symmetry_equiv_pos_site_id
 _symmetry_equiv_pos_as_xyz
  1  'x, y, z'
loop_
 _atom_site_type_symbol
 _atom_site_label
 _atom_site_symmetry_multiplicity
 _atom_site_fract_x
 _atom_site_fract_y
 _atom_site_fract_z
 _atom_site_occupancy
  Ba  Ba0  1  0.00406034  0.86522984  0.94480959  1
  Ba  Ba1  1  0.00432244  0.59791936  0.80890742  1
  Ba  Ba2  1  0.00652485  0.13597578  0.08196204  1
  Ba  Ba3  1  0.00793733  0.40291432  0.21410103  1
  Ti  Ti4  1  0.00547877  0.00051607  0.52954375  1
  Ti  Ti5  1  0.00970530  0.27518385  0.66749971  1
  Ti  Ti6  1  0.00530905  0.72583318  0.38983747  1
  O  O7  1  0.00364142  0.59326752  0.29111207  1
  O  O8  1  0.00183133  0.13667718  0.56310410  1
  O  O9  1  0.48894710  0.00058371  0.98348311  1
  O  O10  1  0.51576685  0.00053277  0.49763082  1
  O  O11  1  0.48865476  0.27447597  0.12377218  1
  O  O12  1  0.51349858  0.27448177  0.63779836  1
  O  O13  1  0.48980416  0.72656610  0.84819799  1
  O  O14  1  0.51472382  0.72662205  0.36124483  1
  O  O15  1  0.00044676  0.40771598  0.70040633  1
  O  O16  1  0.00313012  0.86448856  0.42614122  1
