# generated using pymatgen
data_Li24MnCr11O36
_symmetry_space_group_name_H-M   'P 1'
_cell_length_a   8.72800716
_cell_length_b   8.71443862
_cell_length_c   10.59817435
_cell_angle_alpha   114.05543138
_cell_angle_beta   97.17774429
_cell_angle_gamma   60.31288562
_symmetry_Int_Tables_number   1
_chemical_formula_structural   Li24MnCr11O36
_chemical_formula_sum   'Li24 Mn1 Cr11 O36'
_cell_volume   636.45521798
_cell_formula_units_Z   1
loop_
 _symmetry_equiv_pos_site_id
 _symmetry_equiv_pos_as_xyz
  1  'x, y, z'
loop_
 _atom_site_type_symbol
 _atom_site_label
 _atom_site_symmetry_multiplicity
 _atom_site_fract_x
 _atom_site_fract_y
 _atom_site_fract_z
 _atom_site_occupancy
  Li  Li0  1  0.16531825  0.00683922  0.99755524  1
  Li  Li1  1  0.08139626  0.08485641  0.75082392  1
  Li  Li2  1  0.99683143  0.50228941  0.50049126  1
  Li  Li3  1  0.33331818  0.17037872  0.49778788  1
  Li  Li4  1  0.24951931  0.25212135  0.24960724  1
  Li  Li5  1  0.50301367  0.33391384  0.00061958  1
  Li  Li6  1  0.16878755  0.32930924  0.00387059  1
  Li  Li7  1  0.50292512  0.99833651  0.99817230  1
  Li  Li8  1  0.41754512  0.41436678  0.74900184  1
  Li  Li9  1  0.33390607  0.49297259  0.50125814  1
  Li  Li10  1  0.66708153  0.16940831  0.49945887  1
  Li  Li11  1  0.99948631  0.83638925  0.49724819  1
  Li  Li12  1  0.16910982  0.66243856  0.99725662  1
  Li  Li13  1  0.00081201  0.15913822  0.50048111  1
  Li  Li14  1  0.33085522  0.83395100  0.49955193  1
  Li  Li15  1  0.66672529  0.51028942  0.50170887  1
  Li  Li16  1  0.58563946  0.58460467  0.25077671  1
  Li  Li17  1  0.83600591  0.67108576  0.00174637  1
  Li  Li18  1  0.50244530  0.65812296  0.99839933  1
  Li  Li19  1  0.83162336  0.33488406  0.00224526  1
  Li  Li20  1  0.74882844  0.75177152  0.75024036  1
  Li  Li21  1  0.66185989  0.82938557  0.49778631  1
  Li  Li22  1  0.92005185  0.91427021  0.24940400  1
  Li  Li23  1  0.83672596  0.99363846  0.99913642  1
  Mn  Mn24  1  0.91814141  0.58083973  0.24879164  1
  Cr  Cr25  1  0.08960829  0.41774813  0.74967045  1
  Cr  Cr26  1  0.41183525  0.07951505  0.74990555  1
  Cr  Cr27  1  0.07711582  0.75845593  0.74990117  1
  Cr  Cr28  1  0.74232637  0.08880440  0.75006769  1
  Cr  Cr29  1  0.25186399  0.58589483  0.25033028  1
  Cr  Cr30  1  0.57674794  0.25200767  0.24763674  1
  Cr  Cr31  1  0.41893699  0.74084308  0.74827392  1
  Cr  Cr32  1  0.75694542  0.41597214  0.74935445  1
  Cr  Cr33  1  0.25078669  0.92389895  0.25197678  1
  Cr  Cr34  1  0.91535647  0.24604083  0.25021322  1
  Cr  Cr35  1  0.59154107  0.91135056  0.24956201  1
  O  O36  1  0.31020081  0.02589607  0.86368057  1
  O  O37  1  0.22203120  0.13540253  0.63757851  1
  O  O38  1  0.12292644  0.18845722  0.36344409  1
  O  O39  1  0.27806972  0.36391452  0.86264388  1
  O  O40  1  0.02549299  0.30677461  0.13653310  1
  O  O41  1  0.61169164  0.05187363  0.86165582  1
  O  O42  1  0.18992189  0.47036771  0.63498401  1
  O  O43  1  0.55057978  0.11427614  0.63856423  1
  O  O44  1  0.11614306  0.55040643  0.36047644  1
  O  O45  1  0.47936483  0.19650962  0.36454172  1
  O  O46  1  0.94925661  0.02873474  0.86123162  1
  O  O47  1  0.04868823  0.61598535  0.13777314  1
  O  O48  1  0.28609564  0.71985607  0.86208040  1
  O  O49  1  0.64314270  0.35699078  0.86462049  1
  O  O50  1  0.38517692  0.30130826  0.13663729  1
  O  O51  1  0.21340183  0.77800879  0.63639910  1
  O  O52  1  0.85387721  0.14580909  0.63434586  1
  O  O53  1  0.54816021  0.47510240  0.63678173  1
  O  O54  1  0.44345103  0.52992140  0.36136822  1
  O  O55  1  0.14056838  0.86506339  0.36432855  1
  O  O56  1  0.78461082  0.22232221  0.36231674  1
  O  O57  1  0.61990491  0.68769449  0.86163151  1
  O  O58  1  0.35338350  0.63995702  0.13639547  1
  O  O59  1  0.71273394  0.27978262  0.13696881  1
  O  O60  1  0.95032064  0.38621843  0.86031193  1
  O  O61  1  0.04611582  0.98121423  0.13741038  1
  O  O62  1  0.52288639  0.80175157  0.63423703  1
  O  O63  1  0.88643286  0.44921415  0.63756573  1
  O  O64  1  0.45570202  0.88470349  0.36292572  1
  O  O65  1  0.80949269  0.52763122  0.36343932  1
  O  O66  1  0.38459837  0.94338100  0.13829936  1
  O  O67  1  0.97859204  0.69868005  0.86536742  1
  O  O68  1  0.71930443  0.63438904  0.13719882  1
  O  O69  1  0.88066265  0.81211970  0.63869498  1
  O  O70  1  0.78460091  0.85863494  0.36064361  1
  O  O71  1  0.69000988  0.96849272  0.13487912  1
