# generated using pymatgen
data_Li24Ti5Cr7O36
_symmetry_space_group_name_H-M   'P 1'
_cell_length_a   5.04865391
_cell_length_b   5.06063706
_cell_length_c   29.34848550
_cell_angle_alpha   85.05891891
_cell_angle_beta   94.65865896
_cell_angle_gamma   60.06997344
_symmetry_Int_Tables_number   1
_chemical_formula_structural   Li24Ti5Cr7O36
_chemical_formula_sum   'Li24 Ti5 Cr7 O36'
_cell_volume   640.68721705
_cell_formula_units_Z   1
loop_
 _symmetry_equiv_pos_site_id
 _symmetry_equiv_pos_as_xyz
  1  'x, y, z'
loop_
 _atom_site_type_symbol
 _atom_site_label
 _atom_site_symmetry_multiplicity
 _atom_site_fract_x
 _atom_site_fract_y
 _atom_site_fract_z
 _atom_site_occupancy
  Li  Li0  1  0.00545795  0.50285220  0.66673924  1
  Li  Li1  1  0.24950804  0.25185337  0.91658743  1
  Li  Li2  1  0.16346633  0.65768392  0.83345336  1
  Li  Li3  1  0.00024402  0.50300504  0.33331715  1
  Li  Li4  1  0.24716884  0.25095099  0.58337174  1
  Li  Li5  1  0.50534135  0.00221793  0.83323506  1
  Li  Li6  1  0.15468500  0.66197857  0.50007805  1
  Li  Li7  1  0.00295267  0.50033486  0.99984905  1
  Li  Li8  1  0.25345805  0.24800809  0.24999266  1
  Li  Li9  1  0.50710844  0.00368992  0.50007248  1
  Li  Li10  1  0.34064198  0.83517698  0.99970963  1
  Li  Li11  1  0.17053387  0.65404041  0.16684947  1
  Li  Li12  1  0.49997036  0.00017857  0.16665386  1
  Li  Li13  1  0.66033457  0.15891979  0.66688146  1
  Li  Li14  1  0.33523907  0.83959974  0.66657241  1
  Li  Li15  1  0.65389935  0.16429848  0.33324087  1
  Li  Li16  1  0.34553239  0.83378341  0.33332111  1
  Li  Li17  1  0.83138340  0.34393037  0.83327525  1
  Li  Li18  1  0.65616932  0.16354326  0.99982009  1
  Li  Li19  1  0.74926600  0.74988594  0.75004400  1
  Li  Li20  1  0.84068348  0.33481052  0.50006059  1
  Li  Li21  1  0.75111200  0.75221184  0.41670617  1
  Li  Li22  1  0.82949952  0.34560232  0.16642892  1
  Li  Li23  1  0.74613332  0.75217597  0.08324371  1
  Ti  Ti24  1  0.08319903  0.08539525  0.75006011  1
  Ti  Ti25  1  0.08159400  0.07987862  0.41653661  1
  Ti  Ti26  1  0.08660304  0.08041198  0.08360194  1
  Ti  Ti27  1  0.58734213  0.58046105  0.58357472  1
  Ti  Ti28  1  0.91334717  0.91976513  0.24980120  1
  Cr  Cr29  1  0.41953828  0.41700327  0.75008225  1
  Cr  Cr30  1  0.41858589  0.41932921  0.41684172  1
  Cr  Cr31  1  0.58076324  0.58885882  0.91653251  1
  Cr  Cr32  1  0.41354760  0.41927293  0.08283689  1
  Cr  Cr33  1  0.58631483  0.58089184  0.25028860  1
  Cr  Cr34  1  0.92011364  0.91661664  0.91673564  1
  Cr  Cr35  1  0.91450866  0.91903420  0.58322488  1
  O  O36  1  0.14463364  0.35559757  0.78885830  1
  O  O37  1  0.35770403  0.14854322  0.71184385  1
  O  O38  1  0.14796657  0.35631160  0.45464288  1
  O  O39  1  0.28358501  0.57057004  0.95426909  1
  O  O40  1  0.07134937  0.78271440  0.71293573  1
  O  O41  1  0.35677972  0.14800283  0.37862347  1
  O  O42  1  0.21648188  0.92346917  0.87919984  1
  O  O43  1  0.15007426  0.35766863  0.12132982  1
  O  O44  1  0.28087881  0.57297960  0.62056238  1
  O  O45  1  0.06620443  0.79095106  0.37849788  1
  O  O46  1  0.57128238  0.29067042  0.87944552  1
  O  O47  1  0.43241245  0.70776788  0.78766060  1
  O  O48  1  0.35391963  0.14179572  0.04402826  1
  O  O49  1  0.20832738  0.93167502  0.54591870  1
  O  O50  1  0.29146280  0.56806758  0.28729989  1
  O  O51  1  0.78164107  0.07220377  0.78770889  1
  O  O52  1  0.07430675  0.77713071  0.04569816  1
  O  O53  1  0.57507082  0.27710229  0.54605307  1
  O  O54  1  0.43353035  0.70344113  0.45440273  1
  O  O55  1  0.92476394  0.20988390  0.95392122  1
  O  O56  1  0.21848402  0.92724013  0.21271343  1
  O  O57  1  0.71227799  0.43051684  0.71231017  1
  O  O58  1  0.79043421  0.06537307  0.45475921  1
  O  O59  1  0.64754887  0.84606908  0.95463524  1
  O  O60  1  0.56846621  0.28400169  0.21205350  1
  O  O61  1  0.43110905  0.71600170  0.12109671  1
  O  O62  1  0.93088685  0.21517466  0.62154522  1
  O  O63  1  0.70407507  0.43358525  0.37919684  1
  O  O64  1  0.85563109  0.65160886  0.87835400  1
  O  O65  1  0.78125551  0.07291428  0.12051211  1
  O  O66  1  0.65003441  0.85754750  0.62162331  1
  O  O67  1  0.92421103  0.22306991  0.28758138  1
  O  O68  1  0.70765820  0.43139538  0.04577391  1
  O  O69  1  0.85537514  0.64115475  0.54451192  1
  O  O70  1  0.64486204  0.85821952  0.28894058  1
  O  O71  1  0.85006617  0.64192837  0.21187239  1
