# generated using pymatgen
data_Li4Cr3NiO8
_symmetry_space_group_name_H-M   'P 1'
_cell_length_a   5.11808844
_cell_length_b   7.79531758
_cell_length_c   7.78612356
_cell_angle_alpha   81.96622231
_cell_angle_beta   71.10924237
_cell_angle_gamma   83.78186636
_symmetry_Int_Tables_number   1
_chemical_formula_structural   Li4Cr3NiO8
_chemical_formula_sum   'Li8 Cr6 Ni2 O16'
_cell_volume   290.36727233
_cell_formula_units_Z   2
loop_
 _symmetry_equiv_pos_site_id
 _symmetry_equiv_pos_as_xyz
  1  'x, y, z'
loop_
 _atom_site_type_symbol
 _atom_site_label
 _atom_site_symmetry_multiplicity
 _atom_site_fract_x
 _atom_site_fract_y
 _atom_site_fract_z
 _atom_site_occupancy
  Li  Li0  1  0.00308169  0.99745884  0.99807181  1
  Li  Li1  1  0.99912492  0.24820924  0.25170805  1
  Li  Li2  1  0.99696552  0.62749658  0.12681025  1
  Li  Li3  1  0.99969524  0.12181600  0.62546990  1
  Li  Li4  1  0.00025318  0.50319475  0.49957976  1
  Li  Li5  1  0.99482486  0.87200113  0.37795262  1
  Li  Li6  1  0.00088142  0.37690630  0.87323262  1
  Li  Li7  1  0.00513523  0.75297690  0.74709988  1
  Cr  Cr8  1  0.50186479  0.05834605  0.31585133  1
  Cr  Cr9  1  0.49998383  0.43820739  0.18833127  1
  Cr  Cr10  1  0.50004539  0.81251400  0.06244354  1
  Cr  Cr11  1  0.50005096  0.31256729  0.56248513  1
  Cr  Cr12  1  0.50000527  0.18683627  0.93655725  1
  Cr  Cr13  1  0.49819168  0.56649145  0.80929382  1
  Ni  Ni14  1  0.49955480  0.68702782  0.43730831  1
  Ni  Ni15  1  0.50033721  0.93789444  0.68779291  1
  O  O16  1  0.27733008  0.03023935  0.15070497  1
  O  O17  1  0.71946562  0.21933605  0.10101189  1
  O  O18  1  0.28029605  0.40561602  0.02404161  1
  O  O19  1  0.73256643  0.10090955  0.46598246  1
  O  O20  1  0.27683403  0.27946723  0.40069556  1
  O  O21  1  0.27355361  0.65634208  0.27200046  1
  O  O22  1  0.72668415  0.46457740  0.35021020  1
  O  O23  1  0.27336813  0.16038353  0.77481242  1
  O  O24  1  0.26739136  0.52400356  0.65893358  1
  O  O25  1  0.73149389  0.85158520  0.21679232  1
  O  O26  1  0.72333001  0.34542576  0.72427384  1
  O  O27  1  0.27357105  0.90985253  0.52234084  1
  O  O28  1  0.72636078  0.71528382  0.60239156  1
  O  O29  1  0.26837746  0.77354390  0.90836534  1
  O  O30  1  0.72282315  0.59478985  0.97434401  1
  O  O31  1  0.72655717  0.96869774  0.85311146  1
