# generated using pymatgen
data_Li24MnCr11O36
_symmetry_space_group_name_H-M   'P 1'
_cell_length_a   8.75049627
_cell_length_b   8.71068282
_cell_length_c   10.24352513
_cell_angle_alpha   89.99999768
_cell_angle_beta   72.92851369
_cell_angle_gamma   60.15039576
_symmetry_Int_Tables_number   1
_chemical_formula_structural   Li24MnCr11O36
_chemical_formula_sum   'Li24 Mn1 Cr11 O36'
_cell_volume   637.23650343
_cell_formula_units_Z   1
loop_
 _symmetry_equiv_pos_site_id
 _symmetry_equiv_pos_as_xyz
  1  'x, y, z'
loop_
 _atom_site_type_symbol
 _atom_site_label
 _atom_site_symmetry_multiplicity
 _atom_site_fract_x
 _atom_site_fract_y
 _atom_site_fract_z
 _atom_site_occupancy
  Li  Li0  1  0.16812288  0.00491373  0.49954120  1
  Li  Li1  1  0.16623171  0.16718437  0.25029158  1
  Li  Li2  1  0.16697067  0.00629139  0.99894118  1
  Li  Li3  1  0.16710012  0.32778444  0.00051516  1
  Li  Li4  1  0.49915895  0.99973830  0.00026381  1
  Li  Li5  1  0.16666861  0.16673190  0.75011784  1
  Li  Li6  1  0.16654419  0.32646966  0.49992986  1
  Li  Li7  1  0.49870699  0.00199946  0.50063908  1
  Li  Li8  1  0.16795901  0.66737346  0.99936092  1
  Li  Li9  1  0.16750705  0.66556524  0.49973619  1
  Li  Li10  1  0.49969633  0.33992906  0.50105882  1
  Li  Li11  1  0.50043429  0.50008308  0.24970842  1
  Li  Li12  1  0.49854412  0.33970261  0.00045880  1
  Li  Li13  1  0.50012281  0.65967985  0.00007014  1
  Li  Li14  1  0.83324629  0.33360179  0.00079239  1
  Li  Li15  1  0.49999839  0.50006652  0.74988216  1
  Li  Li16  1  0.49956688  0.66155056  0.49948484  1
  Li  Li17  1  0.83341971  0.33351608  0.49920761  1
  Li  Li18  1  0.83308042  0.67088501  0.49956971  1
  Li  Li19  1  0.83333300  0.83366681  0.25000000  1
  Li  Li20  1  0.83358558  0.67063243  0.00043029  1
  Li  Li21  1  0.83290894  0.99546844  0.00026611  1
  Li  Li22  1  0.83333300  0.83291810  0.75000000  1
  Li  Li23  1  0.83375806  0.99504339  0.49973389  1
  Mn  Mn24  1  0.83333300  0.49708847  0.25000000  1
  Cr  Cr25  1  0.15824378  0.50463026  0.25067144  1
  Cr  Cr26  1  0.49346539  0.17534334  0.25118576  1
  Cr  Cr27  1  0.17422340  0.49134224  0.74958183  1
  Cr  Cr28  1  0.50786259  0.15976854  0.75039683  1
  Cr  Cr29  1  0.17320161  0.83547573  0.24881424  1
  Cr  Cr30  1  0.83333300  0.16028638  0.25000000  1
  Cr  Cr31  1  0.15880441  0.83429813  0.74960317  1
  Cr  Cr32  1  0.83333300  0.17380905  0.75000000  1
  Cr  Cr33  1  0.50842322  0.82954104  0.24932856  1
  Cr  Cr34  1  0.49244260  0.83223264  0.75041817  1
  Cr  Cr35  1  0.83333300  0.50815548  0.75000000  1
  O  O36  1  0.35725774  0.07449126  0.36469266  1
  O  O37  1  0.00157695  0.56991418  0.13883635  1
  O  O38  1  0.35614710  0.06673012  0.86521382  1
  O  O39  1  0.33266853  0.26655422  0.13820126  1
  O  O40  1  0.00154542  0.56733767  0.63718325  1
  O  O41  1  0.33982727  0.25852626  0.63818151  1
  O  O42  1  0.32776511  0.40627671  0.36240490  1
  O  O43  1  0.02343492  0.73603904  0.36429940  1
  O  O44  1  0.66588318  0.10047603  0.36307456  1
  O  O45  1  0.33221533  0.40242149  0.86144207  1
  O  O46  1  0.30940926  0.59841500  0.13530734  1
  O  O47  1  0.66546861  0.23256391  0.13739031  1
  O  O48  1  0.02256446  0.74172825  0.86477380  1
  O  O49  1  0.65927417  0.09849848  0.86184777  1
  O  O50  1  0.00078282  0.93302621  0.13692544  1
  O  O51  1  0.31051990  0.58954422  0.63478618  1
  O  O52  1  0.67727085  0.23351246  0.63746991  1
  O  O53  1  0.00739283  0.92443964  0.63815223  1
  O  O54  1  0.00119839  0.06469853  0.36260969  1
  O  O55  1  0.33399847  0.76588976  0.36179874  1
  O  O56  1  0.68786850  0.40628092  0.36335814  1
  O  O57  1  0.98939615  0.07744931  0.86253009  1
  O  O58  1  0.33890089  0.90070883  0.13759510  1
  O  O59  1  0.97879850  0.26081643  0.13664186  1
  O  O60  1  0.32683873  0.76502053  0.86181849  1
  O  O61  1  0.68877932  0.40804772  0.86418531  1
  O  O62  1  0.67277651  0.58900060  0.13802266  1
  O  O63  1  0.33445067  0.90130382  0.63855793  1
  O  O64  1  0.97788768  0.26349404  0.63581469  1
  O  O65  1  0.66639430  0.60085853  0.63759475  1
  O  O66  1  0.66509005  0.73815813  0.36116365  1
  O  O67  1  0.99389049  0.42844412  0.36197734  1
  O  O68  1  0.66512158  0.73554909  0.86281675  1
  O  O69  1  0.64323108  0.92614096  0.13570060  1
  O  O70  1  0.00027270  0.43391883  0.86240525  1
  O  O71  1  0.64410254  0.93095971  0.63522620  1
