# generated using pymatgen
data_Li4Cr3NiO8
_symmetry_space_group_name_H-M   'P 1'
_cell_length_a   5.10062736
_cell_length_b   5.87826618
_cell_length_c   5.11077826
_cell_angle_alpha   90.10517838
_cell_angle_beta   80.47479397
_cell_angle_gamma   73.32813059
_symmetry_Int_Tables_number   1
_chemical_formula_structural   Li4Cr3NiO8
_chemical_formula_sum   'Li4 Cr3 Ni1 O8'
_cell_volume   144.57298274
_cell_formula_units_Z   1
loop_
 _symmetry_equiv_pos_site_id
 _symmetry_equiv_pos_as_xyz
  1  'x, y, z'
loop_
 _atom_site_type_symbol
 _atom_site_label
 _atom_site_symmetry_multiplicity
 _atom_site_fract_x
 _atom_site_fract_y
 _atom_site_fract_z
 _atom_site_occupancy
  Li  Li0  1  0.00531196  0.99674876  0.99800200  1
  Li  Li1  1  0.99462308  0.25338488  0.50202586  1
  Li  Li2  1  0.99972863  0.50270566  0.99599095  1
  Li  Li3  1  0.00039619  0.74719880  0.50390607  1
  Cr  Cr4  1  0.50000642  0.12502563  0.75000649  1
  Cr  Cr5  1  0.50158848  0.37713215  0.24730300  1
  Cr  Cr6  1  0.49838121  0.87276082  0.25274961  1
  Ni  Ni7  1  0.50002361  0.62506141  0.74997039  1
  O  O8  1  0.27675310  0.17912750  0.11996399  1
  O  O9  1  0.72327735  0.07077779  0.38006180  1
  O  O10  1  0.27723163  0.42908543  0.61910360  1
  O  O11  1  0.72866077  0.31164272  0.88541105  1
  O  O12  1  0.26980281  0.68028163  0.13188222  1
  O  O13  1  0.73013210  0.56982968  0.36812436  1
  O  O14  1  0.27144696  0.93830557  0.61448654  1
  O  O15  1  0.72263469  0.82093156  0.88101205  1
