# generated using pymatgen
data_CoPO4
_symmetry_space_group_name_H-M   'P 1'
_cell_length_a   17.90955931
_cell_length_b   5.42833526
_cell_length_c   9.06732769
_cell_angle_alpha   90.00000000
_cell_angle_beta   92.24300157
_cell_angle_gamma   90.00000000
_symmetry_Int_Tables_number   1
_chemical_formula_structural   CoPO4
_chemical_formula_sum   'Co8 P8 O32'
_cell_volume   880.84197051
_cell_formula_units_Z   8
loop_
 _symmetry_equiv_pos_site_id
 _symmetry_equiv_pos_as_xyz
  1  'x, y, z'
loop_
 _atom_site_type_symbol
 _atom_site_label
 _atom_site_symmetry_multiplicity
 _atom_site_fract_x
 _atom_site_fract_y
 _atom_site_fract_z
 _atom_site_occupancy
  Co  Co0  1  0.09136754  0.26359363  0.58229918  1
  Co  Co1  1  0.16232713  0.72234559  0.09474757  1
  Co  Co2  1  0.33767287  0.22234559  0.90525243  1
  Co  Co3  1  0.40863246  0.76359363  0.41770082  1
  Co  Co4  1  0.59136754  0.23640637  0.58229918  1
  Co  Co5  1  0.66232713  0.77765441  0.09474757  1
  Co  Co6  1  0.83767287  0.27765441  0.90525243  1
  Co  Co7  1  0.90863246  0.73640637  0.41770082  1
  P  P8  1  0.09505665  0.75952457  0.42068399  1
  P  P9  1  0.15576758  0.22581648  0.90960703  1
  P  P10  1  0.34423242  0.72581648  0.09039297  1
  P  P11  1  0.40494335  0.25952457  0.57931601  1
  P  P12  1  0.59505665  0.74047543  0.42068399  1
  P  P13  1  0.65576758  0.27418352  0.90960703  1
  P  P14  1  0.84423242  0.77418352  0.09039297  1
  P  P15  1  0.90494335  0.24047543  0.57931601  1
  O  O16  1  0.01124630  0.74943245  0.44908768  1
  O  O17  1  0.10141644  0.31539401  0.78411122  1
  O  O18  1  0.10660090  0.79974836  0.25504651  1
  O  O19  1  0.13075017  0.97245820  0.51240951  1
  O  O20  1  0.13314926  0.51566584  0.47273705  1
  O  O21  1  0.13696108  0.95656072  0.94962444  1
  O  O22  1  0.14611182  0.39418426  0.04580318  1
  O  O23  1  0.23624998  0.24440645  0.85502242  1
  O  O24  1  0.26375002  0.74440645  0.14497758  1
  O  O25  1  0.35388818  0.89418426  0.95419682  1
  O  O26  1  0.36303892  0.45656072  0.05037556  1
  O  O27  1  0.36685074  0.01566584  0.52726295  1
  O  O28  1  0.36924983  0.47245820  0.48759049  1
  O  O29  1  0.39339910  0.29974836  0.74495349  1
  O  O30  1  0.39858356  0.81539401  0.21588878  1
  O  O31  1  0.48875370  0.24943245  0.55091232  1
  O  O32  1  0.51124630  0.75056755  0.44908768  1
  O  O33  1  0.60141644  0.18460599  0.78411122  1
  O  O34  1  0.60660090  0.70025164  0.25504651  1
  O  O35  1  0.63075017  0.52754180  0.51240951  1
  O  O36  1  0.63314926  0.98433416  0.47273705  1
  O  O37  1  0.63696108  0.54343928  0.94962444  1
  O  O38  1  0.64611182  0.10581574  0.04580318  1
  O  O39  1  0.73624998  0.25559355  0.85502242  1
  O  O40  1  0.76375002  0.75559355  0.14497758  1
  O  O41  1  0.85388818  0.60581574  0.95419682  1
  O  O42  1  0.86303892  0.04343928  0.05037556  1
  O  O43  1  0.86685074  0.48433416  0.52726295  1
  O  O44  1  0.86924983  0.02754180  0.48759049  1
  O  O45  1  0.89339910  0.20025164  0.74495349  1
  O  O46  1  0.89858356  0.68460599  0.21588878  1
  O  O47  1  0.98875370  0.25056755  0.55091232  1
