# generated using pymatgen
data_Na3FePCO7
_symmetry_space_group_name_H-M   'P 1'
_cell_length_a   8.99645703
_cell_length_b   5.33022352
_cell_length_c   6.69705237
_cell_angle_alpha   90.00000000
_cell_angle_beta   90.00000000
_cell_angle_gamma   90.56246637
_symmetry_Int_Tables_number   1
_chemical_formula_structural   Na3FePCO7
_chemical_formula_sum   'Na6 Fe2 P2 C2 O14'
_cell_volume   321.12912754
_cell_formula_units_Z   2
loop_
 _symmetry_equiv_pos_site_id
 _symmetry_equiv_pos_as_xyz
  1  'x, y, z'
loop_
 _atom_site_type_symbol
 _atom_site_label
 _atom_site_symmetry_multiplicity
 _atom_site_fract_x
 _atom_site_fract_y
 _atom_site_fract_z
 _atom_site_occupancy
  Na  Na0  1  0.00257430  0.00626460  0.49032219  1
  Na  Na1  1  0.16387518  0.44482041  0.19050216  1
  Na  Na2  1  0.48943233  0.48887940  0.48357055  1
  Na  Na3  1  0.51056767  0.51112060  0.98357055  1
  Na  Na4  1  0.83612482  0.55517959  0.69050216  1
  Na  Na5  1  0.99742570  0.99373540  0.99032219  1
  Fe  Fe6  1  0.29897391  0.02241381  0.74084919  1
  Fe  Fe7  1  0.70102609  0.97758619  0.24084919  1
  P  P8  1  0.34258623  0.97860003  0.23965872  1
  P  P9  1  0.65741377  0.02139997  0.73965872  1
  C  C10  1  0.15089032  0.49267428  0.74267521  1
  C  C11  1  0.84910968  0.50732572  0.24267521  1
  O  O12  1  0.04846852  0.31768858  0.74774439  1
  O  O13  1  0.11128285  0.72874600  0.74339068  1
  O  O14  1  0.25122502  0.06750427  0.05454369  1
  O  O15  1  0.25202150  0.06040286  0.42641632  1
  O  O16  1  0.28943680  0.43300252  0.74038333  1
  O  O17  1  0.36747099  0.69371370  0.23200807  1
  O  O18  1  0.49540998  0.12337632  0.24253450  1
  O  O19  1  0.50459002  0.87662368  0.74253450  1
  O  O20  1  0.63252901  0.30628630  0.73200807  1
  O  O21  1  0.71056320  0.56699748  0.24038333  1
  O  O22  1  0.74797850  0.93959714  0.92641632  1
  O  O23  1  0.74877498  0.93249573  0.55454369  1
  O  O24  1  0.88871715  0.27125400  0.24339068  1
  O  O25  1  0.95153148  0.68231142  0.24774439  1
