# generated using pymatgen
data_Li5Mn5(SnO6)2
_symmetry_space_group_name_H-M   'P 1'
_cell_length_a   5.39193811
_cell_length_b   5.39193741
_cell_length_c   10.26167581
_cell_angle_alpha   85.10378148
_cell_angle_beta   94.89621798
_cell_angle_gamma   60.31088094
_symmetry_Int_Tables_number   1
_chemical_formula_structural   Li5Mn5(SnO6)2
_chemical_formula_sum   'Li5 Mn5 Sn2 O12'
_cell_volume   255.40528276
_cell_formula_units_Z   1
loop_
 _symmetry_equiv_pos_site_id
 _symmetry_equiv_pos_as_xyz
  1  'x, y, z'
loop_
 _atom_site_type_symbol
 _atom_site_label
 _atom_site_symmetry_multiplicity
 _atom_site_fract_x
 _atom_site_fract_y
 _atom_site_fract_z
 _atom_site_occupancy
  Li  Li0  1  0.16588496  0.67198829  0.50525294  1
  Li  Li1  1  0.32856713  0.84429493  0.99226767  1
  Li  Li2  1  0.67198829  0.16588496  0.99474706  1
  Li  Li3  1  0.84429493  0.32856713  0.50773233  1
  Li  Li4  1  0.91495821  0.91495821  0.75000000  1
  Mn  Mn5  1  0.08117695  0.08117695  0.25000000  1
  Mn  Mn6  1  0.99563325  0.51227034  0.99329407  1
  Mn  Mn7  1  0.51227034  0.99563325  0.50670593  1
  Mn  Mn8  1  0.41762104  0.41762104  0.25000000  1
  Mn  Mn9  1  0.57818837  0.57818837  0.75000000  1
  Sn  Sn10  1  0.24696035  0.24696035  0.75000000  1
  Sn  Sn11  1  0.74832158  0.74832158  0.25000000  1
  O  O12  1  0.97398669  0.21617370  0.87554970  1
  O  O13  1  0.21617370  0.97398669  0.62445030  1
  O  O14  1  0.10907959  0.39069964  0.36810551  1
  O  O15  1  0.39069964  0.10907959  0.13189449  1
  O  O16  1  0.29996147  0.52661417  0.86812016  1
  O  O17  1  0.52661417  0.29996147  0.63187984  1
  O  O18  1  0.46936374  0.71333450  0.37189316  1
  O  O19  1  0.71333450  0.46936374  0.12810684  1
  O  O20  1  0.60663917  0.87404196  0.86448604  1
  O  O21  1  0.87404196  0.60663917  0.63551396  1
  O  O22  1  0.78817244  0.02606654  0.37337224  1
  O  O23  1  0.02606654  0.78817244  0.12662676  1
