# generated using pymatgen
data_Ca2WO5
_symmetry_space_group_name_H-M   'P 1'
_cell_length_a   7.55072701
_cell_length_b   5.37419599
_cell_length_c   11.19725609
_cell_angle_alpha   90.00000000
_cell_angle_beta   108.53600751
_cell_angle_gamma   90.00000000
_symmetry_Int_Tables_number   1
_chemical_formula_structural   Ca2WO5
_chemical_formula_sum   'Ca8 W4 O20'
_cell_volume   430.80332525
_cell_formula_units_Z   4
loop_
 _symmetry_equiv_pos_site_id
 _symmetry_equiv_pos_as_xyz
  1  'x, y, z'
loop_
 _atom_site_type_symbol
 _atom_site_label
 _atom_site_symmetry_multiplicity
 _atom_site_fract_x
 _atom_site_fract_y
 _atom_site_fract_z
 _atom_site_occupancy
  Ca  Ca0  1  0.15279492  0.43107962  0.81409940  1
  Ca  Ca1  1  0.15279492  0.06892038  0.31409940  1
  Ca  Ca2  1  0.34547417  0.99321541  0.63244956  1
  Ca  Ca3  1  0.65452583  0.49321541  0.86755044  1
  Ca  Ca4  1  0.34547417  0.50678459  0.13244956  1
  Ca  Ca5  1  0.65452583  0.00678459  0.36755044  1
  Ca  Ca6  1  0.84720508  0.93107962  0.68590060  1
  Ca  Ca7  1  0.84720508  0.56892038  0.18590060  1
  W  W8  1  0.00000000  0.50000000  0.50000000  1
  W  W9  1  0.00000000  0.00000000  0.00000000  1
  W  W10  1  0.50000000  0.50000000  0.50000000  1
  W  W11  1  0.50000000  0.00000000  0.00000000  1
  O  O12  1  0.00884003  0.23868267  0.61888732  1
  O  O13  1  0.25098339  0.13065472  0.00004955  1
  O  O14  1  0.11344955  0.71328459  0.64182292  1
  O  O15  1  0.39298869  0.69301956  0.92629985  1
  O  O16  1  0.00884003  0.26131733  0.11888732  1
  O  O17  1  0.25098339  0.36934528  0.50004955  1
  O  O18  1  0.11344955  0.78671541  0.14182292  1
  O  O19  1  0.44701854  0.15615851  0.83365980  1
  O  O20  1  0.39298869  0.80698044  0.42629985  1
  O  O21  1  0.55298146  0.65615851  0.66634020  1
  O  O22  1  0.44701854  0.34384149  0.33365980  1
  O  O23  1  0.60701131  0.19301956  0.57370015  1
  O  O24  1  0.55298146  0.84384149  0.16634020  1
  O  O25  1  0.88655045  0.21328459  0.85817708  1
  O  O26  1  0.74901661  0.63065472  0.49995045  1
  O  O27  1  0.99115997  0.73868267  0.88111268  1
  O  O28  1  0.60701131  0.30698044  0.07370015  1
  O  O29  1  0.88655045  0.28671541  0.35817708  1
  O  O30  1  0.74901661  0.86934528  0.99995045  1
  O  O31  1  0.99115997  0.76131733  0.38111268  1
