# generated using pymatgen
data_LiNb10O18
_symmetry_space_group_name_H-M   'P 1'
_cell_length_a   7.93633471
_cell_length_b   9.45812124
_cell_length_c   10.42199798
_cell_angle_alpha   90.00000000
_cell_angle_beta   110.45070326
_cell_angle_gamma   90.00000000
_symmetry_Int_Tables_number   1
_chemical_formula_structural   LiNb10O18
_chemical_formula_sum   'Li2 Nb20 O36'
_cell_volume   732.99833225
_cell_formula_units_Z   2
loop_
 _symmetry_equiv_pos_site_id
 _symmetry_equiv_pos_as_xyz
  1  'x, y, z'
loop_
 _atom_site_type_symbol
 _atom_site_label
 _atom_site_symmetry_multiplicity
 _atom_site_fract_x
 _atom_site_fract_y
 _atom_site_fract_z
 _atom_site_occupancy
  Li  Li0  1  0.00000000  0.50000000  0.50000000  1
  Li  Li1  1  0.00000000  0.00000000  0.00000000  1
  Nb  Nb2  1  0.00396294  0.11578812  0.66865254  1
  Nb  Nb3  1  0.19717952  0.37378105  0.98141172  1
  Nb  Nb4  1  0.17959852  0.86989298  0.62305716  1
  Nb  Nb5  1  0.00396294  0.38421188  0.16865254  1
  Nb  Nb6  1  0.39715612  0.87050685  0.93948101  1
  Nb  Nb7  1  0.19717952  0.12621895  0.48141172  1
  Nb  Nb8  1  0.39596556  0.38658571  0.77026844  1
  Nb  Nb9  1  0.17959852  0.63010702  0.12305716  1
  Nb  Nb10  1  0.39715612  0.62949315  0.43948101  1
  Nb  Nb11  1  0.60403444  0.88658571  0.72973156  1
  Nb  Nb12  1  0.39596556  0.11341429  0.27026844  1
  Nb  Nb13  1  0.60284388  0.37050685  0.56051899  1
  Nb  Nb14  1  0.82040148  0.36989298  0.87694284  1
  Nb  Nb15  1  0.60403444  0.61341429  0.22973156  1
  Nb  Nb16  1  0.80282048  0.87378105  0.51858828  1
  Nb  Nb17  1  0.60284388  0.12949315  0.06051899  1
  Nb  Nb18  1  0.99603706  0.61578812  0.83134746  1
  Nb  Nb19  1  0.82040148  0.13010702  0.37694284  1
  Nb  Nb20  1  0.80282048  0.62621895  0.01858828  1
  Nb  Nb21  1  0.99603706  0.88421188  0.33134746  1
  O  O22  1  0.01070083  0.23760520  0.85031567  1
  O  O23  1  0.19533875  0.75304616  0.96113259  1
  O  O24  1  0.19958852  0.98723756  0.80379141  1
  O  O25  1  0.19964534  0.49483322  0.80274313  1
  O  O26  1  0.01070083  0.26239480  0.35031567  1
  O  O27  1  0.20214281  0.25293209  0.64561392  1
  O  O28  1  0.19533875  0.74695384  0.46113259  1
  O  O29  1  0.41765035  0.25670483  0.93166296  1
  O  O30  1  0.41132234  0.76399446  0.77433735  1
  O  O31  1  0.19958852  0.51276244  0.30379141  1
  O  O32  1  0.19964534  0.00516678  0.30274313  1
  O  O33  1  0.39904668  0.99693493  0.60859152  1
  O  O34  1  0.39473198  0.49224990  0.59807747  1
  O  O35  1  0.20214281  0.24706791  0.14561392  1
  O  O36  1  0.60526802  0.99224990  0.90192253  1
  O  O37  1  0.60095332  0.49693493  0.89140848  1
  O  O38  1  0.41765035  0.24329517  0.43166296  1
  O  O39  1  0.58867766  0.26399446  0.72566265  1
  O  O40  1  0.41132234  0.73600554  0.27433735  1
  O  O41  1  0.58234965  0.75670483  0.56833704  1
  O  O42  1  0.39904668  0.50306507  0.10859152  1
  O  O43  1  0.39473198  0.00775010  0.09807747  1
  O  O44  1  0.79785719  0.75293209  0.85438608  1
  O  O45  1  0.60526802  0.50775010  0.40192253  1
  O  O46  1  0.60095332  0.00306507  0.39140848  1
  O  O47  1  0.80035466  0.99483322  0.69725687  1
  O  O48  1  0.80041148  0.48723756  0.69620859  1
  O  O49  1  0.58867766  0.23600554  0.22566265  1
  O  O50  1  0.58234965  0.74329517  0.06833704  1
  O  O51  1  0.80466125  0.25304616  0.53886741  1
  O  O52  1  0.79785719  0.74706791  0.35438608  1
  O  O53  1  0.98929917  0.73760520  0.64968433  1
  O  O54  1  0.80035466  0.50516678  0.19725687  1
  O  O55  1  0.80041148  0.01276244  0.19620859  1
  O  O56  1  0.80466125  0.24695384  0.03886741  1
  O  O57  1  0.98929917  0.76239480  0.14968433  1
