# generated using pymatgen
data_Li2FePCO7
_symmetry_space_group_name_H-M   'P 1'
_cell_length_a   8.32042110
_cell_length_b   10.16794998
_cell_length_c   6.48879721
_cell_angle_alpha   90.00000000
_cell_angle_beta   90.00000000
_cell_angle_gamma   85.26872855
_symmetry_Int_Tables_number   1
_chemical_formula_structural   Li2FePCO7
_chemical_formula_sum   'Li8 Fe4 P4 C4 O28'
_cell_volume   547.09221078
_cell_formula_units_Z   4
loop_
 _symmetry_equiv_pos_site_id
 _symmetry_equiv_pos_as_xyz
  1  'x, y, z'
loop_
 _atom_site_type_symbol
 _atom_site_label
 _atom_site_symmetry_multiplicity
 _atom_site_fract_x
 _atom_site_fract_y
 _atom_site_fract_z
 _atom_site_occupancy
  Li  Li0  1  0.09653418  0.38150527  0.24624703  1
  Li  Li1  1  0.09653418  0.88150527  0.25375297  1
  Li  Li2  1  0.27468259  0.12561020  0.03432482  1
  Li  Li3  1  0.27468259  0.62561020  0.46567518  1
  Li  Li4  1  0.72531741  0.37438980  0.53432482  1
  Li  Li5  1  0.72531741  0.87438980  0.96567518  1
  Li  Li6  1  0.90346582  0.11849473  0.74624703  1
  Li  Li7  1  0.90346582  0.61849473  0.75375297  1
  Fe  Fe8  1  0.32986488  0.39987293  0.75781837  1
  Fe  Fe9  1  0.32986488  0.89987293  0.74218163  1
  Fe  Fe10  1  0.67013512  0.10012707  0.25781837  1
  Fe  Fe11  1  0.67013512  0.60012707  0.24218163  1
  P  P12  1  0.42035618  0.36072463  0.25488193  1
  P  P13  1  0.42035618  0.86072463  0.24511807  1
  P  P14  1  0.57964382  0.13927537  0.75488193  1
  P  P15  1  0.57964382  0.63927537  0.74511807  1
  C  C16  1  0.03990840  0.35100686  0.74455303  1
  C  C17  1  0.03990840  0.85100686  0.75544697  1
  C  C18  1  0.96009160  0.14899314  0.24455303  1
  C  C19  1  0.96009160  0.64899314  0.25544697  1
  O  O20  1  0.07691273  0.47415155  0.74021159  1
  O  O21  1  0.10218722  0.18375946  0.21999652  1
  O  O22  1  0.07691273  0.97415155  0.75978841  1
  O  O23  1  0.16229973  0.26326226  0.77375163  1
  O  O24  1  0.10218722  0.68375946  0.28000348  1
  O  O25  1  0.16229973  0.76326226  0.72624837  1
  O  O26  1  0.31811585  0.40356055  0.06349057  1
  O  O27  1  0.30437074  0.40177045  0.43704090  1
  O  O28  1  0.30437074  0.90177045  0.06295910  1
  O  O29  1  0.31811585  0.90356055  0.43650943  1
  O  O30  1  0.42008218  0.07291741  0.77749285  1
  O  O31  1  0.46116696  0.20853854  0.24236796  1
  O  O32  1  0.42008218  0.57291741  0.72250715  1
  O  O33  1  0.46116696  0.70853854  0.25763204  1
  O  O34  1  0.53883304  0.29146146  0.74236796  1
  O  O35  1  0.57991782  0.42708259  0.27749285  1
  O  O36  1  0.53883304  0.79146146  0.75763204  1
  O  O37  1  0.57991782  0.92708259  0.22250715  1
  O  O38  1  0.68188415  0.09643945  0.56349057  1
  O  O39  1  0.69562926  0.09822955  0.93704090  1
  O  O40  1  0.69562926  0.59822955  0.56295910  1
  O  O41  1  0.68188415  0.59643945  0.93650943  1
  O  O42  1  0.83770027  0.23673774  0.27375163  1
  O  O43  1  0.89781278  0.31624054  0.71999652  1
  O  O44  1  0.83770027  0.73673774  0.22624837  1
  O  O45  1  0.92308727  0.02584845  0.24021159  1
  O  O46  1  0.89781278  0.81624054  0.78000348  1
  O  O47  1  0.92308727  0.52584845  0.25978841  1
