# generated using pymatgen
data_Ba3LaCl9
_symmetry_space_group_name_H-M   'P 1'
_cell_length_a   7.70367830
_cell_length_b   29.93891432
_cell_length_c   7.18299136
_cell_angle_alpha   90.00000000
_cell_angle_beta   90.00000000
_cell_angle_gamma   92.10079089
_symmetry_Int_Tables_number   1
_chemical_formula_structural   Ba3LaCl9
_chemical_formula_sum   'Ba12 La4 Cl36'
_cell_volume   1655.56995858
_cell_formula_units_Z   4
loop_
 _symmetry_equiv_pos_site_id
 _symmetry_equiv_pos_as_xyz
  1  'x, y, z'
loop_
 _atom_site_type_symbol
 _atom_site_label
 _atom_site_symmetry_multiplicity
 _atom_site_fract_x
 _atom_site_fract_y
 _atom_site_fract_z
 _atom_site_occupancy
  Ba  Ba0  1  0.31591813  0.93306353  0.97337957  1
  Ba  Ba1  1  0.28703517  0.69199370  0.00475639  1
  Ba  Ba2  1  0.31591813  0.43306353  0.02662043  1
  Ba  Ba3  1  0.28703517  0.19199370  0.99524361  1
  Ba  Ba4  1  0.68716269  0.56985712  0.98963213  1
  Ba  Ba5  1  0.71877871  0.80821461  0.98617860  1
  Ba  Ba6  1  0.68716269  0.06985712  0.01036787  1
  Ba  Ba7  1  0.71877871  0.30821461  0.01382140  1
  Ba  Ba8  1  0.78084645  0.69211956  0.52434695  1
  Ba  Ba9  1  0.81752438  0.93063246  0.51481869  1
  Ba  Ba10  1  0.78084645  0.19211956  0.47565305  1
  Ba  Ba11  1  0.81752438  0.43063246  0.48518131  1
  La  La12  1  0.20714225  0.80667098  0.52005207  1
  La  La13  1  0.18187814  0.56697100  0.54402565  1
  La  La14  1  0.20714225  0.30667098  0.47994793  1
  La  La15  1  0.18187814  0.06697100  0.45597435  1
  Cl  Cl16  1  0.02375413  0.86776376  0.79087920  1
  Cl  Cl17  1  0.01769672  0.75311487  0.81001190  1
  Cl  Cl18  1  0.00771128  0.62707598  0.80415831  1
  Cl  Cl19  1  0.02375413  0.36776376  0.20912080  1
  Cl  Cl20  1  0.01769672  0.25311487  0.18998810  1
  Cl  Cl21  1  0.10881330  0.99425377  0.70049087  1
  Cl  Cl22  1  0.00771128  0.12707598  0.19584169  1
  Cl  Cl23  1  0.15306717  0.89060458  0.33552892  1
  Cl  Cl24  1  0.10881330  0.49425377  0.29950913  1
  Cl  Cl25  1  0.15931459  0.70953752  0.40273517  1
  Cl  Cl26  1  0.15306717  0.39060458  0.66447108  1
  Cl  Cl27  1  0.15931459  0.20953752  0.59726483  1
  Cl  Cl28  1  0.35324945  0.79572853  0.16274351  1
  Cl  Cl29  1  0.35013969  0.59951393  0.21461061  1
  Cl  Cl30  1  0.35324945  0.29572853  0.83725649  1
  Cl  Cl31  1  0.35013969  0.09951393  0.78538939  1
  Cl  Cl32  1  0.41032292  0.51193293  0.74366478  1
  Cl  Cl33  1  0.48818088  0.86625675  0.67979089  1
  Cl  Cl34  1  0.48288697  0.75265695  0.69249011  1
  Cl  Cl35  1  0.46926826  0.62735375  0.69875821  1
  Cl  Cl36  1  0.41032292  0.01193293  0.25633522  1
  Cl  Cl37  1  0.48818088  0.36625675  0.32020911  1
  Cl  Cl38  1  0.48288697  0.25265695  0.30750989  1
  Cl  Cl39  1  0.46926826  0.12735375  0.30124179  1
  Cl  Cl40  1  0.59949193  0.98975888  0.76431377  1
  Cl  Cl41  1  0.59949193  0.48975888  0.23568623  1
  Cl  Cl42  1  0.65586815  0.90094243  0.14692535  1
  Cl  Cl43  1  0.67812839  0.69875552  0.10525271  1
  Cl  Cl44  1  0.65586815  0.40094243  0.85307465  1
  Cl  Cl45  1  0.67812839  0.19875552  0.89474729  1
  Cl  Cl46  1  0.85609090  0.79749515  0.39657021  1
  Cl  Cl47  1  0.88091742  0.59871606  0.35740278  1
  Cl  Cl48  1  0.85609090  0.29749515  0.60342979  1
  Cl  Cl49  1  0.88091742  0.09871606  0.64259722  1
  Cl  Cl50  1  0.93954791  0.51082769  0.75289241  1
  Cl  Cl51  1  0.93954791  0.01082769  0.24710759  1
