# generated using pymatgen
data_Ho3Mn3Ga2Si
_symmetry_space_group_name_H-M   'P 1'
_cell_length_a   4.14516953
_cell_length_b   6.92439055
_cell_length_c   6.92410351
_cell_angle_alpha   119.99879767
_cell_angle_beta   90.00000000
_cell_angle_gamma   90.00000000
_symmetry_Int_Tables_number   1
_chemical_formula_structural   Ho3Mn3Ga2Si
_chemical_formula_sum   'Ho3 Mn3 Ga2 Si1'
_cell_volume   172.11681356
_cell_formula_units_Z   1
loop_
 _symmetry_equiv_pos_site_id
 _symmetry_equiv_pos_as_xyz
  1  'x, y, z'
loop_
 _atom_site_type_symbol
 _atom_site_label
 _atom_site_symmetry_multiplicity
 _atom_site_fract_x
 _atom_site_fract_y
 _atom_site_fract_z
 _atom_site_occupancy
  Ho  Ho0  1  0.50000000  0.57348357  0.99596396  1
  Ho  Ho1  1  0.50000000  0.42252367  0.42649646  1
  Ho  Ho2  1  0.50000000  0.00394627  0.57741214  1
  Mn  Mn3  1  0.00000000  0.22730507  0.98922678  1
  Mn  Mn4  1  -0.00000000  0.76230781  0.77277877  1
  Mn  Mn5  1  -0.00000000  0.01028172  0.23785700  1
  Ga  Ga6  1  0.50000000  0.00008494  0.00017545  1
  Ga  Ga7  1  -0.00000000  0.66656658  0.33334108  1
  Si  Si8  1  -0.00000000  0.33340037  0.66674835  1
