# generated using pymatgen
data_K2MnO4
_symmetry_space_group_name_H-M   'P 1'
_cell_length_a   5.98245806
_cell_length_b   8.37275719
_cell_length_c   11.65542448
_cell_angle_alpha   90.00000000
_cell_angle_beta   119.22554356
_cell_angle_gamma   90.00000000
_symmetry_Int_Tables_number   1
_chemical_formula_structural   K2MnO4
_chemical_formula_sum   'K8 Mn4 O16'
_cell_volume   509.49915272
_cell_formula_units_Z   4
loop_
 _symmetry_equiv_pos_site_id
 _symmetry_equiv_pos_as_xyz
  1  'x, y, z'
loop_
 _atom_site_type_symbol
 _atom_site_label
 _atom_site_symmetry_multiplicity
 _atom_site_fract_x
 _atom_site_fract_y
 _atom_site_fract_z
 _atom_site_occupancy
  K  K0  1  0.21774267  0.73191836  0.90523905  1
  K  K1  1  0.43741820  0.49240502  0.70930561  1
  K  K2  1  0.21774267  0.76808164  0.40523905  1
  K  K3  1  0.56258180  0.99240502  0.79069439  1
  K  K4  1  0.43741820  0.00759498  0.20930561  1
  K  K5  1  0.78225733  0.23191836  0.59476095  1
  K  K6  1  0.56258180  0.50759498  0.29069439  1
  K  K7  1  0.78225733  0.26808164  0.09476095  1
  Mn  Mn8  1  0.12713933  0.27179053  0.93454368  1
  Mn  Mn9  1  0.12713933  0.22820947  0.43454368  1
  Mn  Mn10  1  0.87286067  0.77179053  0.56545632  1
  Mn  Mn11  1  0.87286067  0.72820947  0.06545632  1
  O  O12  1  0.22277953  0.09240194  0.91628665  1
  O  O13  1  0.23023228  0.41276795  0.87161250  1
  O  O14  1  0.24446555  0.19932595  0.59558900  1
  O  O15  1  0.19445005  0.77695699  0.64207389  1
  O  O16  1  0.22277953  0.40759806  0.41628665  1
  O  O17  1  0.23023228  0.08723205  0.37161250  1
  O  O18  1  0.80554995  0.27695699  0.85792611  1
  O  O19  1  0.75553445  0.69932595  0.90441100  1
  O  O20  1  0.24446555  0.30067405  0.09558900  1
  O  O21  1  0.19445005  0.72304301  0.14207389  1
  O  O22  1  0.76976772  0.91276795  0.62838750  1
  O  O23  1  0.77722047  0.59240194  0.58371335  1
  O  O24  1  0.80554995  0.22304301  0.35792611  1
  O  O25  1  0.75553445  0.80067405  0.40441100  1
  O  O26  1  0.76976772  0.58723205  0.12838750  1
  O  O27  1  0.77722047  0.90759806  0.08371335  1
