# generated using pymatgen
data_Fe5Sb(PO4)6
_symmetry_space_group_name_H-M   'P 1'
_cell_length_a   8.57281090
_cell_length_b   8.69034036
_cell_length_c   8.69034048
_cell_angle_alpha   59.99999842
_cell_angle_beta   59.54544709
_cell_angle_gamma   59.54544934
_symmetry_Int_Tables_number   1
_chemical_formula_structural   Fe5Sb(PO4)6
_chemical_formula_sum   'Fe5 Sb1 P6 O24'
_cell_volume   454.63572270
_cell_formula_units_Z   1
loop_
 _symmetry_equiv_pos_site_id
 _symmetry_equiv_pos_as_xyz
  1  'x, y, z'
loop_
 _atom_site_type_symbol
 _atom_site_label
 _atom_site_symmetry_multiplicity
 _atom_site_fract_x
 _atom_site_fract_y
 _atom_site_fract_z
 _atom_site_occupancy
  Fe  Fe0  1  0.01699622  0.99433459  0.99433459  1
  Fe  Fe1  1  0.06780343  0.64406586  0.64406586  1
  Fe  Fe2  1  0.49839941  0.50053386  0.50053386  1
  Fe  Fe3  1  0.43299695  0.85566802  0.85566802  1
  Fe  Fe4  1  0.92600277  0.35799874  0.35799874  1
  Sb  Sb5  1  0.57261942  0.14246053  0.14246053  1
  P  P6  1  0.24538507  0.25506664  0.54487726  1
  P  P7  1  0.24538507  0.95467203  0.25506664  1
  P  P8  1  0.24538507  0.54487726  0.95467203  1
  P  P9  1  0.74709709  0.46051354  0.04458432  1
  P  P10  1  0.74709709  0.04458432  0.74780505  1
  P  P11  1  0.74709709  0.74780505  0.46051354  1
  O  O12  1  0.07036452  0.11196937  0.32148213  1
  O  O13  1  0.07036452  0.49618398  0.11196937  1
  O  O14  1  0.07036452  0.32148213  0.49618398  1
  O  O15  1  0.23091930  0.09082584  0.73593947  1
  O  O16  1  0.43731125  0.18706610  0.38564381  1
  O  O17  1  0.27260410  0.41087937  0.55731647  1
  O  O18  1  0.23091930  0.94231539  0.09082584  1
  O  O19  1  0.27260410  0.75919906  0.41087937  1
  O  O20  1  0.56445328  0.60930173  0.00420050  1
  O  O21  1  0.27260410  0.55731647  0.75919906  1
  O  O22  1  0.77053333  0.25616588  0.06006764  1
  O  O23  1  0.56445328  0.00420050  0.82204449  1
  O  O24  1  0.43731125  0.98997885  0.18706610  1
  O  O25  1  0.23091930  0.73593947  0.94231539  1
  O  O26  1  0.72541080  0.43705657  0.24272001  1
  O  O27  1  0.43731125  0.38564381  0.98997885  1
  O  O28  1  0.72541080  0.24272001  0.59481262  1
  O  O29  1  0.77053333  0.06006764  0.91323415  1
  O  O30  1  0.72541080  0.59481262  0.43705657  1
  O  O31  1  0.56445328  0.82204449  0.60930173  1
  O  O32  1  0.77053333  0.91323415  0.25616588  1
  O  O33  1  0.93098187  0.68962487  0.49149779  1
  O  O34  1  0.93098187  0.49149779  0.88789647  1
  O  O35  1  0.93098187  0.88789647  0.68962487  1
