# generated using pymatgen
data_Sb2(PO4)3
_symmetry_space_group_name_H-M   'P 1'
_cell_length_a   9.14613526
_cell_length_b   9.14613551
_cell_length_c   9.14613507
_cell_angle_alpha   55.14550227
_cell_angle_beta   55.14549534
_cell_angle_gamma   55.14550175
_symmetry_Int_Tables_number   1
_chemical_formula_structural   Sb2(PO4)3
_chemical_formula_sum   'Sb4 P6 O24'
_cell_volume   479.93157144
_cell_formula_units_Z   2
loop_
 _symmetry_equiv_pos_site_id
 _symmetry_equiv_pos_as_xyz
  1  'x, y, z'
loop_
 _atom_site_type_symbol
 _atom_site_label
 _atom_site_symmetry_multiplicity
 _atom_site_fract_x
 _atom_site_fract_y
 _atom_site_fract_z
 _atom_site_occupancy
  Sb  Sb0  1  0.14232154  0.14232154  0.14232154  1
  Sb  Sb1  1  0.85767846  0.85767846  0.85767846  1
  Sb  Sb2  1  0.34795167  0.34795167  0.34795167  1
  Sb  Sb3  1  0.65204833  0.65204833  0.65204833  1
  P  P4  1  0.04297055  0.74485725  0.45577805  1
  P  P5  1  0.45577805  0.04297055  0.74485725  1
  P  P6  1  0.74485725  0.45577805  0.04297055  1
  P  P7  1  0.25514275  0.54422195  0.95702945  1
  P  P8  1  0.54422195  0.95702945  0.25514275  1
  P  P9  1  0.95702945  0.25514275  0.54422195  1
  O  O10  1  0.15689049  0.22009283  0.52209624  1
  O  O11  1  0.22009283  0.52209624  0.15689049  1
  O  O12  1  0.52209624  0.15689049  0.22009283  1
  O  O13  1  0.17789260  0.53051035  0.48397367  1
  O  O14  1  0.12755283  0.87460896  0.25156945  1
  O  O15  1  0.02484342  0.78613939  0.60651724  1
  O  O16  1  0.25156945  0.12755283  0.87460896  1
  O  O17  1  0.48397367  0.17789260  0.53051035  1
  O  O18  1  0.53051035  0.48397367  0.17789260  1
  O  O19  1  0.21386061  0.39348276  0.97515658  1
  O  O20  1  0.12539104  0.74843055  0.87244717  1
  O  O21  1  0.39348276  0.97515658  0.21386061  1
  O  O22  1  0.60651724  0.02484342  0.78613939  1
  O  O23  1  0.87460896  0.25156945  0.12755283  1
  O  O24  1  0.78613939  0.60651724  0.02484342  1
  O  O25  1  0.46948965  0.51602633  0.82210740  1
  O  O26  1  0.51602633  0.82210740  0.46948965  1
  O  O27  1  0.74843055  0.87244717  0.12539104  1
  O  O28  1  0.97515658  0.21386061  0.39348276  1
  O  O29  1  0.87244717  0.12539104  0.74843055  1
  O  O30  1  0.82210740  0.46948965  0.51602633  1
  O  O31  1  0.47790376  0.84310951  0.77990717  1
  O  O32  1  0.77990717  0.47790376  0.84310951  1
  O  O33  1  0.84310951  0.77990717  0.47790376  1
