# generated using pymatgen
data_Li3AlFeO4
_symmetry_space_group_name_H-M   'P 1'
_cell_length_a   10.19113606
_cell_length_b   10.19113606
_cell_length_c   10.19113606
_cell_angle_alpha   116.65273023
_cell_angle_beta   116.65273023
_cell_angle_gamma   95.90252626
_symmetry_Int_Tables_number   1
_chemical_formula_structural   Li3AlFeO4
_chemical_formula_sum   'Li24 Al8 Fe8 O32'
_cell_volume   781.80729004
_cell_formula_units_Z   8
loop_
 _symmetry_equiv_pos_site_id
 _symmetry_equiv_pos_as_xyz
  1  'x, y, z'
loop_
 _atom_site_type_symbol
 _atom_site_label
 _atom_site_symmetry_multiplicity
 _atom_site_fract_x
 _atom_site_fract_y
 _atom_site_fract_z
 _atom_site_occupancy
  Li  Li0  1  0.92931354  0.10611218  0.15599857  1
  Li  Li1  1  0.82068646  0.14388782  0.34400143  1
  Li  Li2  1  0.89388782  0.04988739  0.82320236  1
  Li  Li3  1  0.52331497  0.17931354  0.32320236  1
  Li  Li4  1  0.44190819  0.29236882  0.13257724  1
  Li  Li5  1  0.71544092  0.56458618  0.14042640  1
  Li  Li6  1  0.22668503  0.07068646  0.17679764  1
  Li  Li7  1  0.85611218  0.20011261  0.67679764  1
  Li  Li8  1  0.70763118  0.84020942  0.14954037  1
  Li  Li9  1  0.43541382  0.57584021  0.15085474  1
  Li  Li10  1  0.79988739  0.47668503  0.65599857  1
  Li  Li11  1  0.95011261  0.77331497  0.84400143  1
  Li  Li12  1  0.31458618  0.67415979  0.34914526  1
  Li  Li13  1  0.42498547  0.28455908  0.84914526  1
  Li  Li14  1  0.04236882  0.40979058  0.35045963  1
  Li  Li15  1  0.69066905  0.55809181  0.85045963  1
  Li  Li16  1  0.03455908  0.68541382  0.35957360  1
  Li  Li17  1  0.42415979  0.57501453  0.85957360  1
  Li  Li18  1  0.59020942  0.94066905  0.63257724  1
  Li  Li19  1  0.30809181  0.95763118  0.36742276  1
  Li  Li20  1  0.15979058  0.30933095  0.86742276  1
  Li  Li21  1  0.32584021  0.67498547  0.64042640  1
  Li  Li22  1  0.05933095  0.69190819  0.64954037  1
  Li  Li23  1  0.32501453  0.96544092  0.65085474  1
  Al  Al24  1  0.74899568  0.41402591  0.30156467  1
  Al  Al25  1  0.16402591  0.36246124  0.16503023  1
  Al  Al26  1  0.55256898  0.25100432  0.66503023  1
  Al  Al27  1  0.58597409  0.88753876  0.33496977  1
  Al  Al28  1  0.63753876  0.80256898  0.80156467  1
  Al  Al29  1  0.00100432  0.83597409  0.19843533  1
  Al  Al30  1  0.11246124  0.44743102  0.69843533  1
  Al  Al31  1  0.19743102  0.99899568  0.83496977  1
  Fe  Fe32  1  0.45032368  0.92533032  0.99852832  1
  Fe  Fe33  1  0.54820463  0.54967632  0.47500664  1
  Fe  Fe34  1  0.67533032  0.17680201  0.97500664  1
  Fe  Fe35  1  0.82319799  0.79820463  0.49852832  1
  Fe  Fe36  1  0.29967632  0.32466968  0.50147168  1
  Fe  Fe37  1  0.07466968  0.07319799  0.52499336  1
  Fe  Fe38  1  0.20179537  0.70032368  0.02499336  1
  Fe  Fe39  1  0.92680201  0.45179537  0.00147168  1
  O  O40  1  0.83170409  0.26774919  0.24272459  1
  O  O41  1  0.33897951  0.08170409  0.06395391  1
  O  O42  1  0.59807771  0.35485608  0.08132605  1
  O  O43  1  0.86469029  0.64127609  0.09294595  1
  O  O44  1  0.88530971  0.60872391  0.40705405  1
  O  O45  1  0.64800483  0.39324290  0.39947516  1
  O  O46  1  0.41102049  0.16829591  0.43604609  1
  O  O47  1  0.35872391  0.45166887  0.22341320  1
  O  O48  1  0.52174433  0.11469029  0.72341320  1
  O  O49  1  0.91829591  0.98225081  0.25727541  1
  O  O50  1  0.14324290  0.24376774  0.24523807  1
  O  O51  1  0.75147033  0.35199517  0.74523807  1
  O  O52  1  0.64514392  0.72646997  0.24322164  1
  O  O53  1  0.10485608  0.52353003  0.25677836  1
  O  O54  1  0.48324833  0.40192229  0.75677836  1
  O  O55  1  0.60675710  0.00623226  0.25476193  1
  O  O56  1  0.72497540  0.66102049  0.74272459  1
  O  O57  1  0.39127609  0.79833113  0.27658680  1
  O  O58  1  0.22825567  0.13530971  0.77658680  1
  O  O59  1  0.73225081  0.97497540  0.56395391  1
  O  O60  1  0.47646997  0.73324833  0.58132605  1
  O  O61  1  0.10199517  0.85675710  0.10052484  1
  O  O62  1  0.99376774  0.24852967  0.60052484  1
  O  O63  1  0.20166887  0.47825567  0.59294595  1
  O  O64  1  0.54833113  0.77174433  0.90705405  1
  O  O65  1  0.75623226  0.00147033  0.89947516  1
  O  O66  1  0.27353003  0.51675167  0.91867395  1
  O  O67  1  0.15192229  0.89514392  0.41867395  1
  O  O68  1  0.01774919  0.27502460  0.93604609  1
  O  O69  1  0.02502460  0.58897951  0.75727541  1
  O  O70  1  0.26675167  0.84807771  0.74322164  1
  O  O71  1  0.99852967  0.89800483  0.75476193  1
