# generated using pymatgen
data_In2Hg8As5Br7
_symmetry_space_group_name_H-M   'P 1'
_cell_length_a   8.11298980
_cell_length_b   8.11298980
_cell_length_c   14.09218820
_cell_angle_alpha   90.04213237
_cell_angle_beta   89.95786763
_cell_angle_gamma   119.97885558
_symmetry_Int_Tables_number   1
_chemical_formula_structural   In2Hg8As5Br7
_chemical_formula_sum   'In2 Hg8 As5 Br7'
_cell_volume   803.45815587
_cell_formula_units_Z   1
loop_
 _symmetry_equiv_pos_site_id
 _symmetry_equiv_pos_as_xyz
  1  'x, y, z'
loop_
 _atom_site_type_symbol
 _atom_site_label
 _atom_site_symmetry_multiplicity
 _atom_site_fract_x
 _atom_site_fract_y
 _atom_site_fract_z
 _atom_site_occupancy
  In  In0  1  0.00026205  0.99973795  0.68706206  1
  In  In1  1  0.99973795  0.00026205  0.31293794  1
  Hg  Hg2  1  0.33323541  0.66676459  0.75075429  1
  Hg  Hg3  1  0.66676459  0.33323541  0.24924571  1
  Hg  Hg4  1  0.50000000  0.00000000  0.50000000  1
  Hg  Hg5  1  0.50000000  0.50000000  0.50000000  1
  Hg  Hg6  1  -0.00000000  0.50000000  0.50000000  1
  Hg  Hg7  1  0.50000000  0.00000000  -0.00000000  1
  Hg  Hg8  1  0.50000000  0.50000000  -0.00000000  1
  Hg  Hg9  1  -0.00000000  0.50000000  -0.00000000  1
  As  As10  1  0.33326995  0.66673005  0.56959467  1
  As  As11  1  0.66673005  0.33326995  0.43040533  1
  As  As12  1  0.66667444  0.33332556  0.06778415  1
  As  As13  1  0.33332556  0.66667444  0.93221585  1
  As  As14  1  -0.00000000  0.00000000  0.50000000  1
  Br  Br15  1  0.82794017  0.17205983  0.74960485  1
  Br  Br16  1  0.34452721  0.17211611  0.74975897  1
  Br  Br17  1  0.82788389  0.65547279  0.74975897  1
  Br  Br18  1  0.17205983  0.82794017  0.25039515  1
  Br  Br19  1  0.65547279  0.82788389  0.25024103  1
  Br  Br20  1  0.17211611  0.34452721  0.25024103  1
  Br  Br21  1  -0.00000000  0.00000000  -0.00000000  1
