# generated using pymatgen
data_MnH4(OF2)2
_symmetry_space_group_name_H-M   'P 1'
_cell_length_a   6.27809087
_cell_length_b   6.71461588
_cell_length_c   7.87548962
_cell_angle_alpha   94.53657910
_cell_angle_beta   113.48969748
_cell_angle_gamma   62.12822371
_symmetry_Int_Tables_number   1
_chemical_formula_structural   MnH4(OF2)2
_chemical_formula_sum   'Mn2 H8 O4 F8'
_cell_volume   266.79360921
_cell_formula_units_Z   2
loop_
 _symmetry_equiv_pos_site_id
 _symmetry_equiv_pos_as_xyz
  1  'x, y, z'
loop_
 _atom_site_type_symbol
 _atom_site_label
 _atom_site_symmetry_multiplicity
 _atom_site_fract_x
 _atom_site_fract_y
 _atom_site_fract_z
 _atom_site_occupancy
  Mn  Mn0  1  0.49714067  0.74983324  0.74908811  1
  Mn  Mn1  1  0.49788580  0.25016676  0.25091189  1
  H  H2  1  0.09904685  0.93456425  0.43332784  1
  H  H3  1  0.65982998  0.79990139  0.09539338  1
  H  H4  1  0.33553714  0.70026012  0.40350359  1
  H  H5  1  0.39454204  0.43418956  0.93368612  1
  H  H6  1  0.89504448  0.56581044  0.06631388  1
  H  H7  1  0.63229267  0.29973988  0.59649641  1
  H  H8  1  0.36433899  0.20009861  0.90460662  1
  H  H9  1  0.60028325  0.06543575  0.56667216  1
  O  O10  1  0.25456689  0.77910783  0.49323365  1
  O  O11  1  0.74015867  0.72119603  0.00553313  1
  O  O12  1  0.45582157  0.27880397  0.99446687  1
  O  O13  1  0.54044207  0.22089217  0.50676635  1
  F  F14  1  0.55600180  0.95630849  0.23593584  1
  F  F15  1  0.67709368  0.84482473  0.66933889  1
  F  F16  1  0.31670242  0.65352482  0.82695643  1
  F  F17  1  0.44011732  0.54406278  0.26529116  1
  F  F18  1  0.71888994  0.45593722  0.73470884  1
  F  F19  1  0.14327081  0.34647518  0.17304357  1
  F  F20  1  0.85257852  0.15517527  0.33066111  1
  F  F21  1  0.27637345  0.04369151  0.76406416  1
