# generated using pymatgen
data_Er3TaO7
_symmetry_space_group_name_H-M   'P 1'
_cell_length_a   7.42858343
_cell_length_b   10.52580451
_cell_length_c   7.50776417
_cell_angle_alpha   90.00000000
_cell_angle_beta   90.00000000
_cell_angle_gamma   90.00000000
_symmetry_Int_Tables_number   1
_chemical_formula_structural   Er3TaO7
_chemical_formula_sum   'Er12 Ta4 O28'
_cell_volume   587.04572184
_cell_formula_units_Z   4
loop_
 _symmetry_equiv_pos_site_id
 _symmetry_equiv_pos_as_xyz
  1  'x, y, z'
loop_
 _atom_site_type_symbol
 _atom_site_label
 _atom_site_symmetry_multiplicity
 _atom_site_fract_x
 _atom_site_fract_y
 _atom_site_fract_z
 _atom_site_occupancy
  Er  Er0  1  0.01245399  0.25000000  0.79529356  1
  Er  Er1  1  0.25185175  0.51969521  0.96784140  1
  Er  Er2  1  0.25185175  0.98030479  0.96784140  1
  Er  Er3  1  0.24814825  0.01969521  0.46784140  1
  Er  Er4  1  0.24814825  0.48030479  0.46784140  1
  Er  Er5  1  0.48754601  0.75000000  0.29529356  1
  Er  Er6  1  0.51245399  0.25000000  0.70470644  1
  Er  Er7  1  0.75185175  0.51969521  0.53215860  1
  Er  Er8  1  0.75185175  0.98030479  0.53215860  1
  Er  Er9  1  0.74814825  0.01969521  0.03215860  1
  Er  Er10  1  0.74814825  0.48030479  0.03215860  1
  Er  Er11  1  0.98754601  0.75000000  0.20470644  1
  Ta  Ta12  1  0.99939302  0.75000000  0.74763389  1
  Ta  Ta13  1  0.50060698  0.25000000  0.24763389  1
  Ta  Ta14  1  0.49939302  0.75000000  0.75236611  1
  Ta  Ta15  1  0.00060698  0.25000000  0.25236611  1
  O  O16  1  0.03617389  0.12403002  0.04569998  1
  O  O17  1  0.03617389  0.37596998  0.04569998  1
  O  O18  1  0.04011001  0.61171136  0.58219961  1
  O  O19  1  0.04011001  0.88828864  0.58219961  1
  O  O20  1  0.24849511  0.25000000  0.33606294  1
  O  O21  1  0.25496391  0.11600542  0.73117599  1
  O  O22  1  0.25496391  0.38399458  0.73117599  1
  O  O23  1  0.24503609  0.61600542  0.23117599  1
  O  O24  1  0.24503609  0.88399458  0.23117599  1
  O  O25  1  0.25150489  0.75000000  0.83606294  1
  O  O26  1  0.45988999  0.11171136  0.08219961  1
  O  O27  1  0.45988999  0.38828864  0.08219961  1
  O  O28  1  0.46382611  0.62403002  0.54569998  1
  O  O29  1  0.46382611  0.87596998  0.54569998  1
  O  O30  1  0.53617389  0.12403002  0.45430002  1
  O  O31  1  0.53617389  0.37596998  0.45430002  1
  O  O32  1  0.54011001  0.61171136  0.91780039  1
  O  O33  1  0.54011001  0.88828864  0.91780039  1
  O  O34  1  0.74849511  0.25000000  0.16393706  1
  O  O35  1  0.75496391  0.11600542  0.76882401  1
  O  O36  1  0.75496391  0.38399458  0.76882401  1
  O  O37  1  0.74503609  0.61600542  0.26882401  1
  O  O38  1  0.74503609  0.88399458  0.26882401  1
  O  O39  1  0.75150489  0.75000000  0.66393706  1
  O  O40  1  0.95988999  0.11171136  0.41780039  1
  O  O41  1  0.95988999  0.38828864  0.41780039  1
  O  O42  1  0.96382611  0.62403002  0.95430002  1
  O  O43  1  0.96382611  0.87596998  0.95430002  1
