# generated using pymatgen
data_MnH4(SO5)2
_symmetry_space_group_name_H-M   'P 1'
_cell_length_a   5.80430209
_cell_length_b   12.98615957
_cell_length_c   5.15059222
_cell_angle_alpha   90.00000000
_cell_angle_beta   103.38444504
_cell_angle_gamma   90.00000000
_symmetry_Int_Tables_number   1
_chemical_formula_structural   MnH4(SO5)2
_chemical_formula_sum   'Mn2 H8 S4 O20'
_cell_volume   377.68416324
_cell_formula_units_Z   2
loop_
 _symmetry_equiv_pos_site_id
 _symmetry_equiv_pos_as_xyz
  1  'x, y, z'
loop_
 _atom_site_type_symbol
 _atom_site_label
 _atom_site_symmetry_multiplicity
 _atom_site_fract_x
 _atom_site_fract_y
 _atom_site_fract_z
 _atom_site_occupancy
  Mn  Mn0  1  0.00000000  0.50000000  0.50000000  1
  Mn  Mn1  1  0.00000000  0.00000000  0.00000000  1
  H  H2  1  0.08378506  0.69652047  0.50211946  1
  H  H3  1  0.08378506  0.80347953  0.00211946  1
  H  H4  1  0.31741694  0.63953798  0.68160918  1
  H  H5  1  0.31741694  0.86046202  0.18160918  1
  H  H6  1  0.68258306  0.13953798  0.81839082  1
  H  H7  1  0.68258306  0.36046202  0.31839082  1
  H  H8  1  0.91621494  0.19652047  0.99788054  1
  H  H9  1  0.91621494  0.30347953  0.49788054  1
  S  S10  1  0.21874281  0.11800637  0.56426802  1
  S  S11  1  0.21874281  0.38199363  0.06426802  1
  S  S12  1  0.78125719  0.61800637  0.93573198  1
  S  S13  1  0.78125719  0.88199363  0.43573198  1
  O  O14  1  0.99239864  0.68214005  0.99325058  1
  O  O15  1  0.99239864  0.81785995  0.49325058  1
  O  O16  1  0.21090828  0.46021519  0.84033394  1
  O  O17  1  0.17462044  0.63011892  0.52745378  1
  O  O18  1  0.23641739  0.05578933  0.81969729  1
  O  O19  1  0.21090828  0.03978481  0.34033394  1
  O  O20  1  0.17462044  0.86988108  0.02745378  1
  O  O21  1  0.23641739  0.44421067  0.31969729  1
  O  O22  1  0.44335220  0.17308958  0.60160375  1
  O  O23  1  0.55664780  0.67308958  0.89839625  1
  O  O24  1  0.44335220  0.32691042  0.10160375  1
  O  O25  1  0.55664780  0.82691042  0.39839625  1
  O  O26  1  0.76358261  0.55578933  0.68030271  1
  O  O27  1  0.82537956  0.13011892  0.97254622  1
  O  O28  1  0.78909172  0.96021519  0.65966606  1
  O  O29  1  0.76358261  0.94421067  0.18030271  1
  O  O30  1  0.82537956  0.36988108  0.47254622  1
  O  O31  1  0.78909172  0.53978481  0.15966606  1
  O  O32  1  0.00760136  0.18214005  0.50674942  1
  O  O33  1  0.00760136  0.31785995  0.00674942  1
