# generated using pymatgen
data_LiSn2(PO4)3
_symmetry_space_group_name_H-M   'P 1'
_cell_length_a   12.32149761
_cell_length_b   8.75974040
_cell_length_c   8.87811013
_cell_angle_alpha   90.00000000
_cell_angle_beta   90.00000000
_cell_angle_gamma   90.00000000
_symmetry_Int_Tables_number   1
_chemical_formula_structural   LiSn2(PO4)3
_chemical_formula_sum   'Li4 Sn8 P12 O48'
_cell_volume   958.24212961
_cell_formula_units_Z   4
loop_
 _symmetry_equiv_pos_site_id
 _symmetry_equiv_pos_as_xyz
  1  'x, y, z'
loop_
 _atom_site_type_symbol
 _atom_site_label
 _atom_site_symmetry_multiplicity
 _atom_site_fract_x
 _atom_site_fract_y
 _atom_site_fract_z
 _atom_site_occupancy
  Li  Li0  1  0.67675020  0.21550146  0.78036516  1
  Li  Li1  1  0.67675020  0.78449854  0.28036516  1
  Li  Li2  1  0.82324980  0.28449854  0.28036516  1
  Li  Li3  1  0.82324980  0.71550146  0.78036516  1
  Sn  Sn4  1  0.12316034  0.25079558  0.53920232  1
  Sn  Sn5  1  0.12316034  0.74920442  0.03920232  1
  Sn  Sn6  1  0.37683966  0.75079558  0.53920232  1
  Sn  Sn7  1  0.37683966  0.24920442  0.03920232  1
  Sn  Sn8  1  0.61009326  0.25238123  0.45875839  1
  Sn  Sn9  1  0.61009326  0.74761877  0.95875839  1
  Sn  Sn10  1  0.88990674  0.24761877  0.95875839  1
  Sn  Sn11  1  0.88990674  0.75238123  0.45875839  1
  P  P12  1  0.00110769  0.04207958  0.25146278  1
  P  P13  1  0.00110769  0.95792042  0.75146278  1
  P  P14  1  0.14913430  0.60182595  0.39233101  1
  P  P15  1  0.35086570  0.10182595  0.39233101  1
  P  P16  1  0.35086570  0.89817405  0.89233101  1
  P  P17  1  0.49889231  0.45792042  0.75146278  1
  P  P18  1  0.49889231  0.54207958  0.25146278  1
  P  P19  1  0.64786172  0.10514319  0.10507925  1
  P  P20  1  0.64786172  0.89485681  0.60507925  1
  P  P21  1  0.85213828  0.39485681  0.60507925  1
  P  P22  1  0.85213828  0.60514319  0.10507925  1
  P  P23  1  0.14913430  0.39817405  0.89233101  1
  O  O24  1  0.03087905  0.64854402  0.43044970  1
  O  O25  1  0.03087905  0.35145598  0.93044970  1
  O  O26  1  0.07279115  0.85649429  0.84763140  1
  O  O27  1  0.07279115  0.14350571  0.34763140  1
  O  O28  1  0.06971114  0.05465534  0.64607998  1
  O  O29  1  0.06971114  0.94534466  0.14607998  1
  O  O30  1  0.15717310  0.42668553  0.39706689  1
  O  O31  1  0.15717310  0.57331447  0.89706689  1
  O  O32  1  0.17927078  0.34731284  0.73175350  1
  O  O33  1  0.17927078  0.65268716  0.23175350  1
  O  O34  1  0.22272039  0.32563040  0.01224584  1
  O  O35  1  0.22272039  0.67436960  0.51224584  1
  O  O36  1  0.27727961  0.82563040  0.01224584  1
  O  O37  1  0.27727961  0.17436960  0.51224584  1
  O  O38  1  0.32072922  0.84731284  0.73175350  1
  O  O39  1  0.32072922  0.15268716  0.23175350  1
  O  O40  1  0.34282690  0.07331447  0.89706689  1
  O  O41  1  0.34282690  0.92668553  0.39706689  1
  O  O42  1  0.43028886  0.55465534  0.64607998  1
  O  O43  1  0.43028886  0.44534466  0.14607998  1
  O  O44  1  0.42720885  0.64350571  0.34763140  1
  O  O45  1  0.42720885  0.35649429  0.84763140  1
  O  O46  1  0.46912095  0.14854402  0.43044970  1
  O  O47  1  0.46912095  0.85145598  0.93044970  1
  O  O48  1  0.53381749  0.15532100  0.06763023  1
  O  O49  1  0.53381749  0.84467900  0.56763023  1
  O  O50  1  0.57896035  0.34867657  0.66438652  1
  O  O51  1  0.57896035  0.65132343  0.16438652  1
  O  O52  1  0.57945751  0.44684348  0.34763029  1
  O  O53  1  0.57945751  0.55315652  0.84763029  1
  O  O54  1  0.65999021  0.07266939  0.60464634  1
  O  O55  1  0.65999021  0.92733061  0.10464634  1
  O  O56  1  0.68555085  0.16023231  0.26450291  1
  O  O57  1  0.68555085  0.83976769  0.76450291  1
  O  O58  1  0.72624932  0.17313889  0.98357749  1
  O  O59  1  0.72624932  0.82686111  0.48357749  1
  O  O60  1  0.77375068  0.32686111  0.48357749  1
  O  O61  1  0.77375068  0.67313889  0.98357749  1
  O  O62  1  0.81444915  0.33976769  0.76450291  1
  O  O63  1  0.81444915  0.66023231  0.26450291  1
  O  O64  1  0.84000979  0.42733061  0.10464634  1
  O  O65  1  0.84000979  0.57266939  0.60464634  1
  O  O66  1  0.92054249  0.05315652  0.84763029  1
  O  O67  1  0.92054249  0.94684348  0.34763029  1
  O  O68  1  0.92103965  0.15132343  0.16438652  1
  O  O69  1  0.92103965  0.84867657  0.66438652  1
  O  O70  1  0.96618251  0.34467900  0.56763023  1
  O  O71  1  0.96618251  0.65532100  0.06763023  1
