# generated using pymatgen
data_Li6V3P8O29
_symmetry_space_group_name_H-M   'P 1'
_cell_length_a   9.81361517
_cell_length_b   9.83846533
_cell_length_c   13.98139659
_cell_angle_alpha   90.65440564
_cell_angle_beta   90.39672645
_cell_angle_gamma   59.97793327
_symmetry_Int_Tables_number   1
_chemical_formula_structural   Li6V3P8O29
_chemical_formula_sum   'Li12 V6 P16 O58'
_cell_volume   1168.72465372
_cell_formula_units_Z   2
loop_
 _symmetry_equiv_pos_site_id
 _symmetry_equiv_pos_as_xyz
  1  'x, y, z'
loop_
 _atom_site_type_symbol
 _atom_site_label
 _atom_site_symmetry_multiplicity
 _atom_site_fract_x
 _atom_site_fract_y
 _atom_site_fract_z
 _atom_site_occupancy
  Li  Li0  1  0.77082043  0.90501169  0.56227387  1
  Li  Li1  1  0.90777911  0.32398236  0.56461254  1
  Li  Li2  1  0.67796353  0.66418818  0.88549439  1
  Li  Li3  1  0.76411254  0.32826704  0.05993087  1
  Li  Li4  1  0.31979053  0.90762485  0.05934890  1
  Li  Li5  1  0.68126188  0.22709961  0.44082595  1
  Li  Li6  1  0.32320255  0.76896017  0.56167736  1
  Li  Li7  1  0.23083196  0.67168018  0.93831482  1
  Li  Li8  1  0.33001798  0.32932397  0.11180756  1
  Li  Li9  1  0.09227608  0.67831465  0.43694776  1
  Li  Li10  1  0.22827077  0.09016882  0.44215441  1
  Li  Li11  1  0.94648175  0.01184366  0.99071129  1
  V  V12  1  0.57049273  0.43146138  0.25224570  1
  V  V13  1  0.43155500  0.56799360  0.74811962  1
  V  V14  1  0.56898502  0.00247407  0.75338485  1
  V  V15  1  0.43688776  0.99898492  0.24668770  1
  V  V16  1  0.99580705  0.57022339  0.24512601  1
  V  V17  1  0.00662120  0.43158794  0.75481729  1
  P  P18  1  0.91295080  0.77929882  0.83966549  1
  P  P19  1  0.76823688  0.91403940  0.34221977  1
  P  P20  1  0.91718926  0.32037627  0.34480185  1
  P  P21  1  0.66587159  0.66451618  0.12596752  1
  P  P22  1  0.66948964  0.66539280  0.62920651  1
  P  P23  1  0.77504235  0.31811735  0.84461560  1
  P  P24  1  0.68190023  0.23094532  0.66082435  1
  P  P25  1  0.31791882  0.90911999  0.84380902  1
  P  P26  1  0.69169497  0.08671618  0.15781526  1
  P  P27  1  0.31914164  0.76949748  0.34120682  1
  P  P28  1  0.22808821  0.67914682  0.15794234  1
  P  P29  1  0.33293689  0.33420285  0.37021246  1
  P  P30  1  0.33473237  0.33811570  0.87290589  1
  P  P31  1  0.08572951  0.67887842  0.65444291  1
  P  P32  1  0.23216834  0.08424558  0.66027693  1
  P  P33  1  0.08541303  0.22262091  0.15825713  1
  O  O34  1  0.99952754  0.75534552  0.56326355  1
  O  O35  1  0.91802878  0.75037049  0.33847210  1
  O  O36  1  0.79001033  0.00379101  0.07416987  1
  O  O37  1  0.74206224  0.91995923  0.83758871  1
  O  O38  1  0.90033656  0.62848548  0.83463352  1
  O  O39  1  0.80807597  0.67104859  0.16875957  1
  O  O40  1  0.90650955  0.47850902  0.32272792  1
  O  O41  1  0.98604152  0.21764705  0.07858658  1
  O  O42  1  0.91683795  0.34192264  0.83898716  1
  O  O43  1  0.67333776  0.81443796  0.66786907  1
  O  O44  1  0.62141687  0.90026834  0.32255079  1
  O  O45  1  0.81700641  0.51661620  0.67368754  1
  O  O46  1  0.65971749  0.66581209  0.01843888  1
  O  O47  1  0.67102237  0.65784261  0.52243156  1
  O  O48  1  0.66979298  0.51371889  0.16380961  1
  O  O49  1  0.48279543  0.89069045  0.83093763  1
  O  O50  1  0.51130562  0.81620051  0.16528870  1
  O  O51  1  0.75188307  0.33576587  0.34279190  1
  O  O52  1  0.79023392  0.20995062  0.75165606  1
  O  O53  1  0.75666270  0.24565420  0.57075666  1
  O  O54  1  0.77735000  0.23238181  0.93316172  1
  O  O55  1  0.62444509  0.48057258  0.83042409  1
  O  O56  1  0.51445480  0.67223551  0.66835867  1
  O  O57  1  0.66047204  0.25984741  0.16304867  1
  O  O58  1  0.47935339  0.61958342  0.32013200  1
  O  O59  1  0.33572619  0.91627988  0.34145304  1
  O  O60  1  0.78662260  0.01127906  0.25614353  1
  O  O61  1  0.75576531  -0.00000979  0.43461180  1
  O  O62  1  0.24554302  0.99441341  0.56936338  1
  O  O63  1  0.66376815  0.08416038  0.65915608  1
  O  O64  1  0.52061544  0.38070057  0.67936996  1
  O  O65  1  0.33833522  0.74093762  0.83736091  1
  O  O66  1  0.48888209  0.32681052  0.33338728  1
  O  O67  1  0.37518494  0.51574127  0.17119018  1
  O  O68  1  0.23249273  0.76339871  0.06953463  1
  O  O69  1  0.24609460  0.75255630  0.43113128  1
  O  O70  1  0.20902107  0.78785085  0.25015826  1
  O  O71  1  0.25007752  0.66641269  0.65743181  1
  O  O72  1  0.47970854  0.19301978  0.83055100  1
  O  O73  1  0.52644612  0.10043371  0.16609167  1
  O  O74  1  0.32575094  0.49186450  0.83589201  1
  O  O75  1  0.32541135  0.34403738  0.97995712  1
  O  O76  1  0.33108136  0.33032627  0.47687017  1
  O  O77  1  0.18737004  0.48401457  0.32833441  1
  O  O78  1  0.38366216  0.09078714  0.68030511  1
  O  O79  1  0.33308403  0.18336525  0.32528864  1
  O  O80  1  0.08245743  0.65822730  0.16042456  1
  O  O81  1  0.98893006  0.79606319  0.74159391  1
  O  O82  1  0.00528928  0.79313273  0.92123202  1
  O  O83  1  0.09941041  0.52034561  0.67274338  1
  O  O84  1  0.18467870  0.33899806  0.82842237  1
  O  O85  1  0.10161516  0.37123752  0.16801565  1
  O  O86  1  0.25366301  0.07898212  0.15587282  1
  O  O87  1  0.23260613  0.98680326  0.93371427  1
  O  O88  1  0.21182829  0.99578995  0.75107211  1
  O  O89  1  0.08616435  0.24831388  0.65994258  1
  O  O90  1  0.00190159  0.24828961  0.43708766  1
  O  O91  1  0.01398939  0.20322266  0.25900912  1
