# generated using pymatgen
data_CoP6(WO8)3
_symmetry_space_group_name_H-M   'P 1'
_cell_length_a   8.94125599
_cell_length_b   8.94125571
_cell_length_c   8.94125568
_cell_angle_alpha   58.87544251
_cell_angle_beta   58.87544572
_cell_angle_gamma   58.87545047
_symmetry_Int_Tables_number   1
_chemical_formula_structural   CoP6(WO8)3
_chemical_formula_sum   'Co1 P6 W3 O24'
_cell_volume   492.47768846
_cell_formula_units_Z   1
loop_
 _symmetry_equiv_pos_site_id
 _symmetry_equiv_pos_as_xyz
  1  'x, y, z'
loop_
 _atom_site_type_symbol
 _atom_site_label
 _atom_site_symmetry_multiplicity
 _atom_site_fract_x
 _atom_site_fract_y
 _atom_site_fract_z
 _atom_site_occupancy
  Co  Co0  1  0.85946997  0.85946997  0.85946997  1
  P  P1  1  0.03451202  0.75179179  0.46908407  1
  P  P2  1  0.46908407  0.03451202  0.75179179  1
  P  P3  1  0.75179179  0.46908407  0.03451202  1
  P  P4  1  0.24545947  0.53970404  0.96292934  1
  P  P5  1  0.53970404  0.96292934  0.24545947  1
  P  P6  1  0.96292934  0.24545947  0.53970404  1
  W  W7  1  0.14211959  0.14211959  0.14211959  1
  W  W8  1  0.35745722  0.35745722  0.35745722  1
  W  W9  1  0.64242442  0.64242442  0.64242442  1
  O  O10  1  0.13538461  0.29125335  0.49147253  1
  O  O11  1  0.29125335  0.49147253  0.13538461  1
  O  O12  1  0.06423930  0.91844855  0.28499476  1
  O  O13  1  0.49147253  0.13538461  0.29125335  1
  O  O14  1  0.21430476  0.57809905  0.42614286  1
  O  O15  1  0.01751055  0.76984753  0.63390622  1
  O  O16  1  0.28499476  0.06423930  0.91844855  1
  O  O17  1  0.42614286  0.21430476  0.57809905  1
  O  O18  1  0.57809905  0.42614286  0.21430475  1
  O  O19  1  0.22189197  0.36439384  0.99187639  1
  O  O20  1  0.08147885  0.71219991  0.94778090  1
  O  O21  1  0.36439384  0.99187639  0.22189197  1
  O  O22  1  0.63390622  0.01751055  0.76984753  1
  O  O23  1  0.91844855  0.28499476  0.06423930  1
  O  O24  1  0.76984753  0.63390622  0.01751055  1
  O  O25  1  0.42507352  0.55672432  0.79067419  1
  O  O26  1  0.55672432  0.79067419  0.42507352  1
  O  O27  1  0.71219991  0.94778090  0.08147885  1
  O  O28  1  0.99187639  0.22189197  0.36439384  1
  O  O29  1  0.79067419  0.42507352  0.55672432  1
  O  O30  1  0.49070164  0.86858241  0.71806408  1
  O  O31  1  0.94778090  0.08147885  0.71219991  1
  O  O32  1  0.71806408  0.49070164  0.86858241  1
  O  O33  1  0.86858241  0.71806408  0.49070164  1
