# generated using pymatgen
data_Mn3Sn(PO4)4
_symmetry_space_group_name_H-M   'P 1'
_cell_length_a   4.99615866
_cell_length_b   10.00118860
_cell_length_c   6.07957613
_cell_angle_alpha   90.00000000
_cell_angle_beta   90.00000000
_cell_angle_gamma   89.70373914
_symmetry_Int_Tables_number   1
_chemical_formula_structural   Mn3Sn(PO4)4
_chemical_formula_sum   'Mn3 Sn1 P4 O16'
_cell_volume   303.77731125
_cell_formula_units_Z   1
loop_
 _symmetry_equiv_pos_site_id
 _symmetry_equiv_pos_as_xyz
  1  'x, y, z'
loop_
 _atom_site_type_symbol
 _atom_site_label
 _atom_site_symmetry_multiplicity
 _atom_site_fract_x
 _atom_site_fract_y
 _atom_site_fract_z
 _atom_site_occupancy
  Mn  Mn0  1  0.07131280  0.71430348  0.75000000  1
  Mn  Mn1  1  0.44947358  0.22070637  0.75000000  1
  Mn  Mn2  1  0.57853756  0.78265714  0.25000000  1
  Sn  Sn3  1  0.95845871  0.27978309  0.25000000  1
  P  P4  1  0.09178997  0.60414888  0.25000000  1
  P  P5  1  0.39775892  0.09327869  0.25000000  1
  P  P6  1  0.58651228  0.89524274  0.75000000  1
  P  P7  1  0.91982790  0.40990044  0.75000000  1
  O  O8  1  0.16791458  0.45246743  0.25000000  1
  O  O9  1  0.22765915  0.67300542  0.05010774  1
  O  O10  1  0.22765915  0.67300542  0.44989226  1
  O  O11  1  0.21859549  0.38899674  0.75000000  1
  O  O12  1  0.27954175  0.87415804  0.75000000  1
  O  O13  1  0.24673666  0.16637634  0.05495010  1
  O  O14  1  0.24673666  0.16637634  0.44504990  1
  O  O15  1  0.35351269  0.94296189  0.25000000  1
  O  O16  1  0.64482644  0.04396991  0.75000000  1
  O  O17  1  0.72595804  0.82363116  0.55015706  1
  O  O18  1  0.72595804  0.82363116  0.94984294  1
  O  O19  1  0.70117706  0.12184615  0.25000000  1
  O  O20  1  0.78443030  0.61794269  0.25000000  1
  O  O21  1  0.77621005  0.33646585  0.54891498  1
  O  O22  1  0.77621005  0.33646585  0.95108502  1
  O  O23  1  0.84320515  0.55867980  0.75000000  1
