# generated using pymatgen
data_Li6V3P8O29
_symmetry_space_group_name_H-M   'P 1'
_cell_length_a   9.79465855
_cell_length_b   9.82863763
_cell_length_c   13.96246253
_cell_angle_alpha   89.95785815
_cell_angle_beta   90.23147179
_cell_angle_gamma   60.12220869
_symmetry_Int_Tables_number   1
_chemical_formula_structural   Li6V3P8O29
_chemical_formula_sum   'Li12 V6 P16 O58'
_cell_volume   1165.47523590
_cell_formula_units_Z   2
loop_
 _symmetry_equiv_pos_site_id
 _symmetry_equiv_pos_as_xyz
  1  'x, y, z'
loop_
 _atom_site_type_symbol
 _atom_site_label
 _atom_site_symmetry_multiplicity
 _atom_site_fract_x
 _atom_site_fract_y
 _atom_site_fract_z
 _atom_site_occupancy
  Li  Li0  1  0.77322614  0.90908946  0.55804913  1
  Li  Li1  1  0.91067123  0.31685072  0.55776202  1
  Li  Li2  1  0.66656174  0.66976641  0.88709545  1
  Li  Li3  1  0.76656642  0.32654379  0.06388170  1
  Li  Li4  1  0.32951484  0.90029384  0.06218586  1
  Li  Li5  1  0.67719678  0.22939318  0.43763617  1
  Li  Li6  1  0.31950674  0.77132587  0.56179107  1
  Li  Li7  1  0.66779052  0.09660120  0.94107146  1
  Li  Li8  1  0.09574311  0.67524568  0.43682257  1
  Li  Li9  1  0.22839838  0.09423862  0.43840687  1
  Li  Li10  1  0.09997158  0.23055169  0.94311778  1
  Li  Li11  1  0.01214679  0.92951789  0.00953891  1
  V  V12  1  0.56437893  0.43621900  0.24984100  1
  V  V13  1  0.42959041  0.56517625  0.75476247  1
  V  V14  1  0.56808972  0.00138101  0.74697247  1
  V  V15  1  0.43231823  0.00015512  0.24910097  1
  V  V16  1  0.99738326  0.57151331  0.24481600  1
  V  V17  1  0.00180078  0.43726710  0.75200679  1
  P  P18  1  0.91226082  0.77907916  0.84123475  1
  P  P19  1  0.76903328  0.91228546  0.33945686  1
  P  P20  1  0.91308632  0.32111093  0.34104245  1
  P  P21  1  0.66452280  0.66699809  0.12712577  1
  P  P22  1  0.66558269  0.66552411  0.62956767  1
  P  P23  1  0.77396265  0.31618660  0.84262789  1
  P  P24  1  0.67981663  0.23482193  0.65713858  1
  P  P25  1  0.31790911  0.90935902  0.84274084  1
  P  P26  1  0.68474650  0.08899408  0.15621145  1
  P  P27  1  0.32082880  0.76726495  0.34418777  1
  P  P28  1  0.22415079  0.69093965  0.15964752  1
  P  P29  1  0.33247359  0.33363070  0.37016665  1
  P  P30  1  0.33678767  0.33007977  0.87315891  1
  P  P31  1  0.08530558  0.68398452  0.65598088  1
  P  P32  1  0.22931851  0.08826172  0.65821217  1
  P  P33  1  0.08621916  0.22906026  0.15793280  1
  O  O34  1  0.99762528  0.75707131  0.56432224  1
  O  O35  1  0.91647246  0.74848707  0.34104890  1
  O  O36  1  0.77450511  0.01489848  0.06614702  1
  O  O37  1  0.73959336  0.92182379  0.83829454  1
  O  O38  1  0.89850722  0.62794537  0.83304760  1
  O  O39  1  0.80408987  0.67881044  0.17057827  1
  O  O40  1  0.90618761  0.47803611  0.32179887  1
  O  O41  1  0.00014265  0.22420565  0.06859973  1
  O  O42  1  0.92251896  0.33233543  0.84511858  1
  O  O43  1  0.67366063  0.81315599  0.66692633  1
  O  O44  1  0.61881923  0.90127234  0.32044749  1
  O  O45  1  0.81590588  0.51588892  0.67468748  1
  O  O46  1  0.66297214  0.66368921  0.01893131  1
  O  O47  1  0.66767266  0.65895627  0.52299714  1
  O  O48  1  0.67712184  0.51027791  0.16564828  1
  O  O49  1  0.48203199  0.89423326  0.82889635  1
  O  O50  1  0.50689744  0.81078259  0.16380397  1
  O  O51  1  0.74747368  0.33910579  0.34269548  1
  O  O52  1  0.79237417  0.21274701  0.74873206  1
  O  O53  1  0.75988315  0.24359143  0.56719224  1
  O  O54  1  0.76435858  0.23229943  0.93060625  1
  O  O55  1  0.62769165  0.48222872  0.82985397  1
  O  O56  1  0.51557180  0.66886146  0.67285494  1
  O  O57  1  0.66038998  0.25761810  0.16350853  1
  O  O58  1  0.48159913  0.62074189  0.32330974  1
  O  O59  1  0.33645564  0.91631851  0.34326781  1
  O  O60  1  0.79255976  0.00018758  0.24919524  1
  O  O61  1  0.75324843  0.00315901  0.42978534  1
  O  O62  1  0.24546485  0.99759344  0.56821467  1
  O  O63  1  0.66731277  0.08327440  0.65739742  1
  O  O64  1  0.52079899  0.38126816  0.67391493  1
  O  O65  1  0.33718602  0.74602170  0.84147281  1
  O  O66  1  0.48732439  0.32676084  0.32955905  1
  O  O67  1  0.38167703  0.53827655  0.16561428  1
  O  O68  1  0.20604934  0.79869747  0.07815928  1
  O  O69  1  0.24862410  0.75131460  0.43533067  1
  O  O70  1  0.20409982  0.78903481  0.25749464  1
  O  O71  1  0.24848256  0.67032758  0.65899138  1
  O  O72  1  0.48770689  0.18592075  0.83224925  1
  O  O73  1  0.52928636  0.09004256  0.16829653  1
  O  O74  1  0.33411587  0.47933697  0.82791778  1
  O  O75  1  0.33460938  0.32789631  0.97949203  1
  O  O76  1  0.33905240  0.32548080  0.47731522  1
  O  O77  1  0.18643608  0.48779654  0.33209112  1
  O  O78  1  0.38120378  0.09650557  0.67840034  1
  O  O79  1  0.32499050  0.18687473  0.32875947  1
  O  O80  1  0.08472276  0.65944919  0.16293750  1
  O  O81  1  0.98795040  0.79847862  0.74341261  1
  O  O82  1  0.99848983  0.79030469  0.92480521  1
  O  O83  1  0.09911926  0.52328894  0.67552861  1
  O  O84  1  0.18495257  0.32985435  0.83092252  1
  O  O85  1  0.09358535  0.37863949  0.16937676  1
  O  O86  1  0.25349875  0.08129149  0.16023800  1
  O  O87  1  0.23344250  0.00102286  0.93131880  1
  O  O88  1  0.20981241  0.00003101  0.74985569  1
  O  O89  1  0.08384169  0.25281634  0.65723107  1
  O  O90  1  0.00366559  0.24248671  0.43125084  1
  O  O91  1  0.00016797  0.20764237  0.25070114  1
