# generated using pymatgen
data_FeTe2
_symmetry_space_group_name_H-M   'P 1'
_cell_length_a   3.78228820
_cell_length_b   3.78228820
_cell_length_c   5.83983074
_cell_angle_alpha   90.72544280
_cell_angle_beta   89.27455720
_cell_angle_gamma   121.15615266
_symmetry_Int_Tables_number   1
_chemical_formula_structural   FeTe2
_chemical_formula_sum   'Fe1 Te2'
_cell_volume   71.48514782
_cell_formula_units_Z   1
loop_
 _symmetry_equiv_pos_site_id
 _symmetry_equiv_pos_as_xyz
  1  'x, y, z'
loop_
 _atom_site_type_symbol
 _atom_site_label
 _atom_site_symmetry_multiplicity
 _atom_site_fract_x
 _atom_site_fract_y
 _atom_site_fract_z
 _atom_site_occupancy
  Fe  Fe0  1  0.00000000  0.00000000  0.50000000  1
  Te  Te1  1  0.66758189  0.33241811  0.74545234  1
  Te  Te2  1  0.33241811  0.66758189  0.25454766  1
