# generated using pymatgen
data_V(SO4)2
_symmetry_space_group_name_H-M   'P 1'
_cell_length_a   8.87202772
_cell_length_b   8.87202791
_cell_length_c   8.87202760
_cell_angle_alpha   56.02782912
_cell_angle_beta   56.02783439
_cell_angle_gamma   56.02783199
_symmetry_Int_Tables_number   1
_chemical_formula_structural   V(SO4)2
_chemical_formula_sum   'V3 S6 O24'
_cell_volume   448.36720126
_cell_formula_units_Z   3
loop_
 _symmetry_equiv_pos_site_id
 _symmetry_equiv_pos_as_xyz
  1  'x, y, z'
loop_
 _atom_site_type_symbol
 _atom_site_label
 _atom_site_symmetry_multiplicity
 _atom_site_fract_x
 _atom_site_fract_y
 _atom_site_fract_z
 _atom_site_occupancy
  V  V0  1  0.14848124  0.14848124  0.14848124  1
  V  V1  1  0.64758121  0.64758121  0.64758121  1
  V  V2  1  0.84999623  0.84999623  0.84999623  1
  S  S3  1  0.04249679  0.75202440  0.45775847  1
  S  S4  1  0.45775847  0.04249679  0.75202440  1
  S  S5  1  0.75202440  0.45775847  0.04249679  1
  S  S6  1  0.25661114  0.53786043  0.95977791  1
  S  S7  1  0.53786043  0.95977791  0.25661114  1
  S  S8  1  0.95977791  0.25661114  0.53786043  1
  O  O9  1  0.11480220  0.27220797  0.53096552  1
  O  O10  1  0.27220797  0.53096552  0.11480220  1
  O  O11  1  0.99721287  0.96304919  0.33332810  1
  O  O12  1  0.53096552  0.11480220  0.27220797  1
  O  O13  1  0.00824369  0.73138223  0.65755849  1
  O  O14  1  0.23224487  0.62491885  0.38501621  1
  O  O15  1  0.38501621  0.23224487  0.62491885  1
  O  O16  1  0.33332810  0.99721287  0.96304919  1
  O  O17  1  0.62491885  0.38501621  0.23224487  1
  O  O18  1  0.05138215  0.68466206  0.95084159  1
  O  O19  1  0.27946592  0.35077121  0.97509206  1
  O  O20  1  0.35077121  0.97509206  0.27946592  1
  O  O21  1  0.65755849  0.00824369  0.73138223  1
  O  O22  1  0.73138223  0.65755849  0.00824369  1
  O  O23  1  0.96304919  0.33332810  0.99721287  1
  O  O24  1  0.39759562  0.61173677  0.76194085  1
  O  O25  1  0.68466206  0.95084159  0.05138215  1
  O  O26  1  0.61173677  0.76194085  0.39759562  1
  O  O27  1  0.76194085  0.39759562  0.61173677  1
  O  O28  1  0.97509206  0.27946592  0.35077121  1
  O  O29  1  0.49034017  0.88390264  0.70371194  1
  O  O30  1  0.95084159  0.05138215  0.68466206  1
  O  O31  1  0.70371194  0.49034017  0.88390264  1
  O  O32  1  0.88390264  0.70371194  0.49034017  1
