# generated using pymatgen
data_Li5CoO4
_symmetry_space_group_name_H-M   'P 1'
_cell_length_a   6.45574184
_cell_length_b   6.45575783
_cell_length_c   4.72322770
_cell_angle_alpha   90.00372258
_cell_angle_beta   89.99606069
_cell_angle_gamma   86.01383498
_symmetry_Int_Tables_number   1
_chemical_formula_structural   Li5CoO4
_chemical_formula_sum   'Li10 Co2 O8'
_cell_volume   196.37236737
_cell_formula_units_Z   2
loop_
 _symmetry_equiv_pos_site_id
 _symmetry_equiv_pos_as_xyz
  1  'x, y, z'
loop_
 _atom_site_type_symbol
 _atom_site_label
 _atom_site_symmetry_multiplicity
 _atom_site_fract_x
 _atom_site_fract_y
 _atom_site_fract_z
 _atom_site_occupancy
  Li  Li0  1  0.04117208  0.95068753  0.77624107  1
  Li  Li1  1  0.21554278  0.28018906  0.69146740  1
  Li  Li2  1  0.28015656  0.21560609  0.19145911  1
  Li  Li3  1  0.45068273  0.54117292  0.72376706  1
  Li  Li4  1  0.48217158  0.98217189  0.74999960  1
  Li  Li5  1  0.54141168  0.45043581  0.22383836  1
  Li  Li6  1  0.71560218  0.78015943  0.30853254  1
  Li  Li7  1  0.78019171  0.71553401  0.80852347  1
  Li  Li8  1  0.95043515  0.04141648  0.27617049  1
  Li  Li9  1  0.98204291  0.48204241  0.24999325  1
  Co  Co10  1  0.25661794  0.75662189  0.25000517  1
  Co  Co11  1  0.75640943  0.25640430  0.75000311  1
  O  O12  1  0.99967302  0.23800833  0.97422075  1
  O  O13  1  0.23783026  0.99958242  0.47430781  1
  O  O14  1  0.26593072  0.48630669  0.41041034  1
  O  O15  1  0.48647930  0.26574113  0.91038971  1
  O  O16  1  0.49957429  0.73783115  0.02568860  1
  O  O17  1  0.76573608  0.98647498  0.58961606  1
  O  O18  1  0.73801825  0.49966012  0.52577069  1
  O  O19  1  0.98630235  0.76593236  0.08959539  1
