# generated using pymatgen
data_Li6V3P8O29
_symmetry_space_group_name_H-M   'P 1'
_cell_length_a   9.82897988
_cell_length_b   9.83805130
_cell_length_c   13.89698053
_cell_angle_alpha   89.94644407
_cell_angle_beta   90.04847954
_cell_angle_gamma   59.89992143
_symmetry_Int_Tables_number   1
_chemical_formula_structural   Li6V3P8O29
_chemical_formula_sum   'Li12 V6 P16 O58'
_cell_volume   1162.59664825
_cell_formula_units_Z   2
loop_
 _symmetry_equiv_pos_site_id
 _symmetry_equiv_pos_as_xyz
  1  'x, y, z'
loop_
 _atom_site_type_symbol
 _atom_site_label
 _atom_site_symmetry_multiplicity
 _atom_site_fract_x
 _atom_site_fract_y
 _atom_site_fract_z
 _atom_site_occupancy
  Li  Li0  1  0.90799609  0.77645198  0.05989632  1
  Li  Li1  1  0.77040869  0.90615056  0.56128318  1
  Li  Li2  1  0.90653984  0.32166370  0.55988903  1
  Li  Li3  1  0.66847490  0.66707990  0.88278228  1
  Li  Li4  1  0.77265031  0.31297913  0.06120141  1
  Li  Li5  1  0.31939621  0.90786397  0.06205493  1
  Li  Li6  1  0.67729254  0.22732660  0.43950070  1
  Li  Li7  1  0.32179990  0.77163142  0.55999447  1
  Li  Li8  1  0.22670396  0.67787181  0.94063247  1
  Li  Li9  1  0.09395859  0.67893123  0.43981028  1
  Li  Li10  1  0.22883626  0.09462623  0.43872256  1
  Li  Li11  1  0.09266431  0.22785351  0.94041912  1
  V  V12  1  0.56742289  0.43029205  0.24959658  1
  V  V13  1  0.43544995  0.56414747  0.75031174  1
  V  V14  1  0.56647894  0.00390189  0.75316442  1
  V  V15  1  0.43458835  0.00004043  0.24922675  1
  V  V16  1  0.00098396  0.56583335  0.25064559  1
  V  V17  1  0.00180226  0.43377915  0.74961811  1
  P  P18  1  0.90994742  0.77140355  0.84182373  1
  P  P19  1  0.76849822  0.91308086  0.34346919  1
  P  P20  1  0.91178089  0.31955879  0.34158126  1
  P  P21  1  0.66797436  0.66467754  0.12620071  1
  P  P22  1  0.66658637  0.66812905  0.62687590  1
  P  P23  1  0.77214126  0.31711606  0.84431737  1
  P  P24  1  0.68229860  0.23092582  0.65866080  1
  P  P25  1  0.31851384  0.91074080  0.84239936  1
  P  P26  1  0.68308544  0.08527222  0.15727461  1
  P  P27  1  0.32070386  0.76765935  0.34097723  1
  P  P28  1  0.23114584  0.68055406  0.15707045  1
  P  P29  1  0.33271276  0.33336771  0.37357496  1
  P  P30  1  0.33255946  0.33441575  0.87365855  1
  P  P31  1  0.08831962  0.68112803  0.65729400  1
  P  P32  1  0.23218745  0.08669465  0.65671122  1
  P  P33  1  0.08791294  0.23169228  0.15827674  1
  O  O34  1  0.99684736  0.75987162  0.56752508  1
  O  O35  1  0.91702870  0.74901708  0.34251039  1
  O  O36  1  0.76906649  0.99314085  0.07173276  1
  O  O37  1  0.74473707  0.91648061  0.84016106  1
  O  O38  1  0.88996018  0.62499241  0.82678742  1
  O  O39  1  0.81575692  0.67028361  0.16602344  1
  O  O40  1  0.89759077  0.48011437  0.32400479  1
  O  O41  1  0.99893269  0.24122364  0.06784061  1
  O  O42  1  0.92111874  0.33310756  0.84178446  1
  O  O43  1  0.67062832  0.81492156  0.66803292  1
  O  O44  1  0.62025159  0.90108187  0.32497119  1
  O  O45  1  0.81577370  0.51504069  0.66898167  1
  O  O46  1  0.66935779  0.66581460  0.01753048  1
  O  O47  1  0.66749055  0.66435002  0.51963513  1
  O  O48  1  0.67555073  0.51115539  0.16431938  1
  O  O49  1  0.48549248  0.88681225  0.82628702  1
  O  O50  1  0.51433113  0.81202833  0.16445636  1
  O  O51  1  0.74780880  0.33364536  0.34149410  1
  O  O52  1  0.79052807  0.21047568  0.75119634  1
  O  O53  1  0.76045572  0.24272746  0.56824879  1
  O  O54  1  0.75777738  0.24571873  0.93479928  1
  O  O55  1  0.62779758  0.48549025  0.82516800  1
  O  O56  1  0.51442469  0.67031392  0.66847736  1
  O  O57  1  0.66200979  0.25319456  0.15967430  1
  O  O58  1  0.48034966  0.61794388  0.32350641  1
  O  O59  1  0.33764155  0.91587537  0.34067094  1
  O  O60  1  0.78737588  0.00589212  0.25401619  1
  O  O61  1  0.75678827  0.00099593  0.43472839  1
  O  O62  1  0.24256431  0.99636341  0.56680280  1
  O  O63  1  0.66627338  0.08306655  0.65876641  1
  O  O64  1  0.52173779  0.38075261  0.67402795  1
  O  O65  1  0.33261131  0.74750995  0.84382826  1
  O  O66  1  0.48642426  0.32597483  0.33323666  1
  O  O67  1  0.37881651  0.52098018  0.17515336  1
  O  O68  1  0.24258992  0.76003476  0.06695355  1
  O  O69  1  0.24197761  0.75778235  0.43151636  1
  O  O70  1  0.21007678  0.79115510  0.24931840  1
  O  O71  1  0.25098707  0.66798838  0.65783456  1
  O  O72  1  0.47784272  0.18936841  0.82824252  1
  O  O73  1  0.52154811  0.09800625  0.17505785  1
  O  O74  1  0.33121219  0.48686851  0.83289824  1
  O  O75  1  0.32478581  0.33700554  0.98041967  1
  O  O76  1  0.32978099  0.33777177  0.48100820  1
  O  O77  1  0.18411835  0.48855903  0.33169537  1
  O  O78  1  0.38280057  0.09373147  0.67416052  1
  O  O79  1  0.32456471  0.18795928  0.33325459  1
  O  O80  1  0.08222131  0.66708554  0.15767530  1
  O  O81  1  0.99970342  0.78955372  0.75014861  1
  O  O82  1  0.00275729  0.75518144  0.93127760  1
  O  O83  1  0.10052773  0.52086926  0.67391542  1
  O  O84  1  0.18134093  0.33408298  0.83086736  1
  O  O85  1  0.09926276  0.37982775  0.17418491  1
  O  O86  1  0.25272207  0.08205816  0.15907548  1
  O  O87  1  0.24152594  0.00310098  0.93198105  1
  O  O88  1  0.21135904  0.99882425  0.74994511  1
  O  O89  1  0.08377169  0.25024641  0.65678469  1
  O  O90  1  0.00161492  0.24072769  0.43220629  1
  O  O91  1  -0.00000742  0.20857380  0.25001766  1
