# generated using pymatgen
data_Na5Li3Ti5O14
_symmetry_space_group_name_H-M   'P 1'
_cell_length_a   8.26604410
_cell_length_b   7.04232296
_cell_length_c   5.23424331
_cell_angle_alpha   97.31546440
_cell_angle_beta   101.44270825
_cell_angle_gamma   90.36992223
_symmetry_Int_Tables_number   1
_chemical_formula_structural   Na5Li3Ti5O14
_chemical_formula_sum   'Na5 Li3 Ti5 O14'
_cell_volume   296.05169256
_cell_formula_units_Z   1
loop_
 _symmetry_equiv_pos_site_id
 _symmetry_equiv_pos_as_xyz
  1  'x, y, z'
loop_
 _atom_site_type_symbol
 _atom_site_label
 _atom_site_symmetry_multiplicity
 _atom_site_fract_x
 _atom_site_fract_y
 _atom_site_fract_z
 _atom_site_occupancy
  Na  Na0  1  0.50252541  0.99940751  0.48682354  1
  Na  Na1  1  0.65330791  0.15324063  0.09003721  1
  Na  Na2  1  0.19059247  0.69064419  0.34269261  1
  Na  Na3  1  0.36005381  0.86363442  0.92639698  1
  Na  Na4  1  0.78901277  0.28766622  0.64842574  1
  Li  Li5  1  0.06137033  0.55782553  0.78138825  1
  Li  Li6  1  0.28328096  0.29315749  0.14160601  1
  Li  Li7  1  0.86016842  0.84815105  0.43204118  1
  Ti  Ti8  1  0.00634620  0.01198749  0.99148230  1
  Ti  Ti9  1  0.13332726  0.14163842  0.55326114  1
  Ti  Ti10  1  0.41535413  0.42302304  0.72599629  1
  Ti  Ti11  1  0.57706320  0.57021210  0.30196593  1
  Ti  Ti12  1  0.73325173  0.72022112  0.87577162  1
  O  O13  1  0.04793841  0.24725844  0.87372326  1
  O  O14  1  0.21770901  0.01861253  0.25028635  1
  O  O15  1  0.37906252  0.17277056  0.79221113  1
  O  O16  1  0.19675312  0.40697164  0.51569909  1
  O  O17  1  0.34925991  0.55170228  0.03182485  1
  O  O18  1  0.09876963  0.89628967  0.69228296  1
  O  O19  1  0.52269926  0.32677210  0.40281128  1
  O  O20  1  0.64975610  0.46332804  0.96301232  1
  O  O21  1  0.92791242  0.11824389  0.31967980  1
  O  O22  1  0.48149612  0.68683320  0.59537615  1
  O  O23  1  0.62626510  0.82011081  0.16801893  1
  O  O24  1  0.78740540  0.59523833  0.54314713  1
  O  O25  1  0.94850206  0.73257275  0.05482754  1
  O  O26  1  0.77190136  0.97417656  0.78475140  1
