# generated using pymatgen
data_Mn2Cr3O12
_symmetry_space_group_name_H-M   'P 1'
_cell_length_a   12.36500733
_cell_length_b   9.05072886
_cell_length_c   9.19082870
_cell_angle_alpha   90.00000000
_cell_angle_beta   90.00000000
_cell_angle_gamma   90.00000000
_symmetry_Int_Tables_number   1
_chemical_formula_structural   Mn2Cr3O12
_chemical_formula_sum   'Mn8 Cr12 O48'
_cell_volume   1028.56704246
_cell_formula_units_Z   4
loop_
 _symmetry_equiv_pos_site_id
 _symmetry_equiv_pos_as_xyz
  1  'x, y, z'
loop_
 _atom_site_type_symbol
 _atom_site_label
 _atom_site_symmetry_multiplicity
 _atom_site_fract_x
 _atom_site_fract_y
 _atom_site_fract_z
 _atom_site_occupancy
  Mn  Mn0  1  0.11942898  0.24846672  0.96922444  1
  Mn  Mn1  1  0.11942898  0.75153328  0.46922444  1
  Mn  Mn2  1  0.38057102  0.74846672  0.96922444  1
  Mn  Mn3  1  0.38057102  0.25153328  0.46922444  1
  Mn  Mn4  1  0.61942898  0.25153328  0.03077556  1
  Mn  Mn5  1  0.61942898  0.74846672  0.53077556  1
  Mn  Mn6  1  0.88057102  0.24846672  0.53077556  1
  Mn  Mn7  1  0.88057102  0.75153328  0.03077556  1
  Cr  Cr8  1  0.00000000  0.47294235  0.25000000  1
  Cr  Cr9  1  0.00000000  0.52705765  0.75000000  1
  Cr  Cr10  1  0.14635170  0.09830012  0.60141813  1
  Cr  Cr11  1  0.14635170  0.90169988  0.10141813  1
  Cr  Cr12  1  0.35364830  0.40169988  0.10141813  1
  Cr  Cr13  1  0.35364830  0.59830012  0.60141813  1
  Cr  Cr14  1  0.50000000  0.02705765  0.75000000  1
  Cr  Cr15  1  0.50000000  0.97294235  0.25000000  1
  Cr  Cr16  1  0.64635170  0.40169988  0.39858187  1
  Cr  Cr17  1  0.64635170  0.59830012  0.89858187  1
  Cr  Cr18  1  0.85364830  0.09830012  0.89858187  1
  Cr  Cr19  1  0.85364830  0.90169988  0.39858187  1
  O  O20  1  0.02043981  0.14857258  0.55968344  1
  O  O21  1  0.02043981  0.85142742  0.05968344  1
  O  O22  1  0.07034000  0.57818418  0.36732262  1
  O  O23  1  0.07034000  0.42181582  0.86732262  1
  O  O24  1  0.08479500  0.36598755  0.16141717  1
  O  O25  1  0.08479500  0.63401245  0.66141717  1
  O  O26  1  0.16146401  0.08719011  0.09328656  1
  O  O27  1  0.16146401  0.91280989  0.59328656  1
  O  O28  1  0.17487868  0.14962735  0.76764617  1
  O  O29  1  0.17487868  0.85037265  0.26764617  1
  O  O30  1  0.23020288  0.82355693  0.98160985  1
  O  O31  1  0.23020288  0.17644307  0.48160985  1
  O  O32  1  0.26979712  0.32355693  0.98160985  1
  O  O33  1  0.26979712  0.67644307  0.48160985  1
  O  O34  1  0.32512132  0.64962735  0.76764617  1
  O  O35  1  0.32512132  0.35037265  0.26764617  1
  O  O36  1  0.33853599  0.41280989  0.59328656  1
  O  O37  1  0.33853599  0.58719011  0.09328656  1
  O  O38  1  0.41520500  0.13401245  0.66141717  1
  O  O39  1  0.41520500  0.86598755  0.16141717  1
  O  O40  1  0.42966000  0.07818418  0.36732262  1
  O  O41  1  0.42966000  0.92181582  0.86732262  1
  O  O42  1  0.47956019  0.64857258  0.55968344  1
  O  O43  1  0.47956019  0.35142742  0.05968344  1
  O  O44  1  0.52043981  0.35142742  0.44031656  1
  O  O45  1  0.52043981  0.64857258  0.94031656  1
  O  O46  1  0.57034000  0.07818418  0.13267738  1
  O  O47  1  0.57034000  0.92181582  0.63267738  1
  O  O48  1  0.58479500  0.13401245  0.83858283  1
  O  O49  1  0.58479500  0.86598755  0.33858283  1
  O  O50  1  0.66146401  0.41280989  0.90671344  1
  O  O51  1  0.66146401  0.58719011  0.40671344  1
  O  O52  1  0.67487868  0.35037265  0.23235383  1
  O  O53  1  0.67487868  0.64962735  0.73235383  1
  O  O54  1  0.73020288  0.32355693  0.51839015  1
  O  O55  1  0.73020288  0.67644307  0.01839015  1
  O  O56  1  0.76979712  0.17644307  0.01839015  1
  O  O57  1  0.76979712  0.82355693  0.51839015  1
  O  O58  1  0.82512132  0.14962735  0.73235383  1
  O  O59  1  0.82512132  0.85037265  0.23235383  1
  O  O60  1  0.83853599  0.08719011  0.40671344  1
  O  O61  1  0.83853599  0.91280989  0.90671344  1
  O  O62  1  0.91520500  0.36598755  0.33858283  1
  O  O63  1  0.91520500  0.63401245  0.83858283  1
  O  O64  1  0.92966000  0.42181582  0.63267738  1
  O  O65  1  0.92966000  0.57818418  0.13267738  1
  O  O66  1  0.97956019  0.14857258  0.94031656  1
  O  O67  1  0.97956019  0.85142742  0.44031656  1
