# generated using pymatgen
data_Li2V3FeO8
_symmetry_space_group_name_H-M   'P 1'
_cell_length_a   8.52910079
_cell_length_b   8.42004893
_cell_length_c   8.41975511
_cell_angle_alpha   90.00152019
_cell_angle_beta   89.98375247
_cell_angle_gamma   89.99439834
_symmetry_Int_Tables_number   1
_chemical_formula_structural   Li2V3FeO8
_chemical_formula_sum   'Li8 V12 Fe4 O32'
_cell_volume   604.66844103
_cell_formula_units_Z   4
loop_
 _symmetry_equiv_pos_site_id
 _symmetry_equiv_pos_as_xyz
  1  'x, y, z'
loop_
 _atom_site_type_symbol
 _atom_site_label
 _atom_site_symmetry_multiplicity
 _atom_site_fract_x
 _atom_site_fract_y
 _atom_site_fract_z
 _atom_site_occupancy
  Li  Li0  1  0.00155542  0.00196357  0.00464156  1
  Li  Li1  1  0.24968317  0.24549710  0.24856197  1
  Li  Li2  1  0.25156253  0.75470168  0.74795569  1
  Li  Li3  1  0.49966212  0.99829484  0.50463587  1
  Li  Li4  1  0.50156365  0.49810188  0.99537310  1
  Li  Li5  1  0.74968555  0.25454436  0.75169294  1
  Li  Li6  1  0.75155352  0.74544702  0.25177122  1
  Li  Li7  1  0.99965582  0.50143163  0.49553920  1
  V  V8  1  0.12359709  0.12804214  0.62690025  1
  V  V9  1  0.12488539  0.38083245  0.86960139  1
  V  V10  1  0.12681133  0.62428624  0.11723737  1
  V  V11  1  0.37362303  0.37694969  0.62229642  1
  V  V12  1  0.37475513  0.61947843  0.36908516  1
  V  V13  1  0.37671281  0.86748275  0.12566966  1
  V  V14  1  0.62354999  0.37212394  0.37290842  1
  V  V15  1  0.62464747  0.11913742  0.13078248  1
  V  V16  1  0.62671047  0.87547390  0.88237784  1
  V  V17  1  0.87350429  0.12307773  0.37804162  1
  V  V18  1  0.87482251  0.88061833  0.63086641  1
  V  V19  1  0.87671320  0.63260291  0.87430756  1
  Fe  Fe20  1  0.12444961  0.87381005  0.37453084  1
  Fe  Fe21  1  0.37440718  0.12454335  0.87619672  1
  Fe  Fe22  1  0.62460439  0.62604326  0.62522694  1
  Fe  Fe23  1  0.87449983  0.37513215  0.12394670  1
  O  O24  1  0.11037838  0.11921842  0.39487261  1
  O  O25  1  0.11214328  0.89014778  0.61199668  1
  O  O26  1  0.10770725  0.62497220  0.88272698  1
  O  O27  1  0.13543865  0.13121457  0.85099163  1
  O  O28  1  0.11557167  0.39797479  0.11526377  1
  O  O29  1  0.14003494  0.36575705  0.63120303  1
  O  O30  1  0.13915590  0.63557972  0.35651995  1
  O  O31  1  0.13918192  0.85554225  0.13079815  1
  O  O32  1  0.36043223  0.14489139  0.63077684  1
  O  O33  1  0.36217275  0.36191505  0.86005118  1
  O  O34  1  0.35754017  0.63282053  0.12471439  1
  O  O35  1  0.38552153  0.60096173  0.61893843  1
  O  O36  1  0.36562519  0.86483617  0.35212473  1
  O  O37  1  0.38980284  0.38130909  0.38437585  1
  O  O38  1  0.38887080  0.10667652  0.11441891  1
  O  O39  1  0.38908331  0.88081938  0.89440881  1
  O  O40  1  0.61042707  0.38084347  0.60506730  1
  O  O41  1  0.61207629  0.60996728  0.38775221  1
  O  O42  1  0.60757129  0.87527421  0.11719997  1
  O  O43  1  0.63547524  0.36878511  0.14899558  1
  O  O44  1  0.61549823  0.10192476  0.88514481  1
  O  O45  1  0.63986518  0.13435719  0.36921811  1
  O  O46  1  0.63894699  0.86415757  0.64301830  1
  O  O47  1  0.63907141  0.64465239  0.86915391  1
  O  O48  1  0.86031100  0.35516326  0.36911316  1
  O  O49  1  0.86196399  0.13781028  0.14020182  1
  O  O50  1  0.85765280  0.86743316  0.87441366  1
  O  O51  1  0.88547081  0.89889740  0.38138284  1
  O  O52  1  0.86554575  0.63483629  0.64823379  1
  O  O53  1  0.88999499  0.11934164  0.61567965  1
  O  O54  1  0.88916418  0.39321369  0.88586232  1
  O  O55  1  0.88908947  0.61922885  0.10537625  1
