# generated using pymatgen
data_V2(OF)3
_symmetry_space_group_name_H-M   'P 1'
_cell_length_a   5.19115437
_cell_length_b   13.23392123
_cell_length_c   5.22055615
_cell_angle_alpha   89.01025316
_cell_angle_beta   119.37687177
_cell_angle_gamma   90.60797741
_symmetry_Int_Tables_number   1
_chemical_formula_structural   V2(OF)3
_chemical_formula_sum   'V6 O9 F9'
_cell_volume   312.48317532
_cell_formula_units_Z   3
loop_
 _symmetry_equiv_pos_site_id
 _symmetry_equiv_pos_as_xyz
  1  'x, y, z'
loop_
 _atom_site_type_symbol
 _atom_site_label
 _atom_site_symmetry_multiplicity
 _atom_site_fract_x
 _atom_site_fract_y
 _atom_site_fract_z
 _atom_site_occupancy
  V  V0  1  0.04076428  0.48757103  0.03476679  1
  V  V1  1  0.03939983  0.99938559  0.01180911  1
  V  V2  1  0.64066742  0.82664619  0.34400634  1
  V  V3  1  0.31570579  0.66735786  0.70811640  1
  V  V4  1  0.71661478  0.32752317  0.36330448  1
  V  V5  1  0.36651550  0.15725285  0.68076190  1
  O  O6  1  0.41449147  0.74845141  0.98641900  1
  O  O7  1  0.32812354  0.41939061  0.08915329  1
  O  O8  1  0.31366972  0.91772566  0.22735295  1
  O  O9  1  0.99907032  0.25143694  0.57325706  1
  O  O10  1  0.08859094  0.58572431  0.75322655  1
  O  O11  1  0.56798314  0.75099662  0.55998944  1
  O  O12  1  0.91088187  0.42323372  0.23547830  1
  O  O13  1  0.22604311  0.08131229  0.90781638  1
  O  O14  1  0.65466196  0.08270977  0.75501573  1
  F  F15  1  0.00460635  0.75117735  0.41080594  1
  F  F16  1  0.06952993  0.08262783  0.32583999  1
  F  F17  1  0.24399258  0.58693053  0.32360063  1
  F  F18  1  0.58495607  0.25505687  0.99131758  1
  F  F19  1  0.74939411  0.91884981  0.08239002  1
  F  F20  1  0.40860646  0.25100249  0.40536664  1
  F  F21  1  0.74801991  0.42064236  0.67123916  1
  F  F22  1  0.91283880  0.91946865  0.66028241  1
  F  F23  1  0.65487211  0.58752506  0.89868592  1
