# generated using pymatgen
data_BaO
_symmetry_space_group_name_H-M   'P 1'
_cell_length_a   3.92376456
_cell_length_b   52.70602812
_cell_length_c   3.91329435
_cell_angle_alpha   90.00000000
_cell_angle_beta   119.90853360
_cell_angle_gamma   90.00000000
_symmetry_Int_Tables_number   1
_chemical_formula_structural   BaO
_chemical_formula_sum   'Ba16 O16'
_cell_volume   701.51331523
_cell_formula_units_Z   16
loop_
 _symmetry_equiv_pos_site_id
 _symmetry_equiv_pos_as_xyz
  1  'x, y, z'
loop_
 _atom_site_type_symbol
 _atom_site_label
 _atom_site_symmetry_multiplicity
 _atom_site_fract_x
 _atom_site_fract_y
 _atom_site_fract_z
 _atom_site_occupancy
  Ba  Ba0  1  0.05046818  0.25000000  0.77682901  1
  Ba  Ba1  1  0.06876699  0.56274579  0.28129036  1
  Ba  Ba2  1  0.06876699  0.93725421  0.28129036  1
  Ba  Ba3  1  0.33657793  0.62528516  0.91421835  1
  Ba  Ba4  1  0.33657793  0.87471484  0.91421835  1
  Ba  Ba5  1  0.37220802  0.18747974  0.43502986  1
  Ba  Ba6  1  0.37220802  0.31252026  0.43502986  1
  Ba  Ba7  1  0.50003416  0.00000879  0.99793574  1
  Ba  Ba8  1  0.50003416  0.49999121  0.99793574  1
  Ba  Ba9  1  0.62800881  0.68745194  0.56186316  1
  Ba  Ba10  1  0.62800881  0.81254806  0.56186316  1
  Ba  Ba11  1  0.66266150  0.12531122  0.07657151  1
  Ba  Ba12  1  0.66266150  0.37468878  0.07657151  1
  Ba  Ba13  1  0.93119288  0.06276281  0.71242694  1
  Ba  Ba14  1  0.93119288  0.43723719  0.71242694  1
  Ba  Ba15  1  0.94952276  0.75000000  0.22531499  1
  O  O16  1  0.17774112  0.03076942  0.33581136  1
  O  O17  1  0.31621205  0.09441310  0.40760504  1
  O  O18  1  0.01969205  0.15637829  0.76697640  1
  O  O19  1  0.31621205  0.40558690  0.40760504  1
  O  O20  1  0.01969205  0.34362171  0.76697640  1
  O  O21  1  0.17774112  0.46923058  0.33581136  1
  O  O22  1  0.28712647  0.71837850  0.89530781  1
  O  O23  1  0.28712647  0.78162150  0.89530781  1
  O  O24  1  0.71306131  0.21837750  0.10998190  1
  O  O25  1  0.82234308  0.53080343  0.65885144  1
  O  O26  1  0.82234308  0.96919657  0.65885144  1
  O  O27  1  0.98067453  0.65639813  0.24417338  1
  O  O28  1  0.71306131  0.28162250  0.10998190  1
  O  O29  1  0.68370413  0.59444567  0.58910725  1
  O  O30  1  0.68370413  0.90555433  0.58910725  1
  O  O31  1  0.98067453  0.84360187  0.24417338  1
