# generated using pymatgen
data_CoCu3(PO4)4
_symmetry_space_group_name_H-M   'P 1'
_cell_length_a   5.13334357
_cell_length_b   9.99827274
_cell_length_c   5.98561788
_cell_angle_alpha   90.00000000
_cell_angle_beta   90.00000000
_cell_angle_gamma   87.07245202
_symmetry_Int_Tables_number   1
_chemical_formula_structural   CoCu3(PO4)4
_chemical_formula_sum   'Co1 Cu3 P4 O16'
_cell_volume   306.80832444
_cell_formula_units_Z   1
loop_
 _symmetry_equiv_pos_site_id
 _symmetry_equiv_pos_as_xyz
  1  'x, y, z'
loop_
 _atom_site_type_symbol
 _atom_site_label
 _atom_site_symmetry_multiplicity
 _atom_site_fract_x
 _atom_site_fract_y
 _atom_site_fract_z
 _atom_site_occupancy
  Co  Co0  1  0.93531446  0.29270138  0.25000000  1
  Cu  Cu1  1  0.12306933  0.68964406  0.75000000  1
  Cu  Cu2  1  0.35496179  0.19163454  0.75000000  1
  Cu  Cu3  1  0.63077682  0.81099089  0.25000000  1
  P  P4  1  0.08038077  0.60451700  0.25000000  1
  P  P5  1  0.43396463  0.10766878  0.25000000  1
  P  P6  1  0.55433212  0.88854885  0.75000000  1
  P  P7  1  0.92316064  0.39706835  0.75000000  1
  O  O8  1  0.13517117  0.45246548  0.25000000  1
  O  O9  1  0.22092263  0.67068076  0.05012316  1
  O  O10  1  0.22092263  0.67068076  0.44987684  1
  O  O11  1  0.22343526  0.36593805  0.75000000  1
  O  O12  1  0.26125385  0.86126861  0.75000000  1
  O  O13  1  0.26559706  0.17792183  0.05682802  1
  O  O14  1  0.26559706  0.17792183  0.44317198  1
  O  O15  1  0.38878613  0.95542414  0.25000000  1
  O  O16  1  0.57995078  0.04272141  0.75000000  1
  O  O17  1  0.71321512  0.82483474  0.55204904  1
  O  O18  1  0.71321512  0.82483474  0.94795096  1
  O  O19  1  0.72281337  0.13173980  0.25000000  1
  O  O20  1  0.78183541  0.63625421  0.25000000  1
  O  O21  1  0.79124593  0.33618666  0.54181335  1
  O  O22  1  0.79124593  0.33618666  0.95818665  1
  O  O23  1  0.88883199  0.55216845  0.75000000  1
