# generated using pymatgen
data_Na2NiPCO7
_symmetry_space_group_name_H-M   'P 1'
_cell_length_a   8.91174515
_cell_length_b   8.41318726
_cell_length_c   8.45412448
_cell_angle_alpha   75.78652503
_cell_angle_beta   89.03493975
_cell_angle_gamma   91.65483058
_symmetry_Int_Tables_number   1
_chemical_formula_structural   Na2NiPCO7
_chemical_formula_sum   'Na8 Ni4 P4 C4 O28'
_cell_volume   614.01042767
_cell_formula_units_Z   4
loop_
 _symmetry_equiv_pos_site_id
 _symmetry_equiv_pos_as_xyz
  1  'x, y, z'
loop_
 _atom_site_type_symbol
 _atom_site_label
 _atom_site_symmetry_multiplicity
 _atom_site_fract_x
 _atom_site_fract_y
 _atom_site_fract_z
 _atom_site_occupancy
  Na  Na0  1  0.73544574  0.11387299  0.86573401  1
  Na  Na1  1  0.75022796  0.61691200  0.37561035  1
  Na  Na2  1  0.73397571  0.38401074  0.13679425  1
  Na  Na3  1  0.75263918  0.87673666  0.63323652  1
  Na  Na4  1  0.26187865  0.10719879  0.38120809  1
  Na  Na5  1  0.26255591  0.40582470  0.63038756  1
  Na  Na6  1  0.25584565  0.87063137  0.13111157  1
  Na  Na7  1  0.08932120  0.24726244  0.01850974  1
  Ni  Ni8  1  0.65114229  0.01459628  0.23284059  1
  Ni  Ni9  1  0.64751170  0.51467947  0.73713694  1
  Ni  Ni10  1  0.34729375  0.97812737  0.76633987  1
  Ni  Ni11  1  0.34903747  0.48173157  0.26266726  1
  P  P12  1  0.57609512  0.23389664  0.51684228  1
  P  P13  1  0.57504645  0.73487324  0.01367990  1
  P  P14  1  0.42253323  0.26406877  0.98406099  1
  P  P15  1  0.42297882  0.76892512  0.47942339  1
  C  C16  1  0.92092207  0.47834108  0.76773371  1
  C  C17  1  0.92734982  0.98875121  0.26189337  1
  C  C18  1  0.07475906  0.01920121  0.73640258  1
  C  C19  1  0.07447262  0.51251891  0.23499950  1
  O  O20  1  0.93554229  0.03829382  0.72181197  1
  O  O21  1  0.93452926  0.52437328  0.22282447  1
  O  O22  1  0.86004491  0.59318163  0.65782876  1
  O  O23  1  0.86245184  0.10166424  0.15092632  1
  O  O24  1  0.82339527  0.38399519  0.86950421  1
  O  O25  1  0.83554955  0.88832892  0.36239816  1
  O  O26  1  0.67028233  0.67707051  0.88492784  1
  O  O27  1  0.67004915  0.17691473  0.38681563  1
  O  O28  1  0.67238724  0.36359090  0.57553160  1
  O  O29  1  0.67563119  0.86101172  0.07397073  1
  O  O30  1  0.57306913  0.19324668  0.05139607  1
  O  O31  1  0.57296166  0.70077264  0.55308529  1
  O  O32  1  0.54098722  0.08342221  0.66673710  1
  O  O33  1  0.53991983  0.58440523  0.16329431  1
  O  O34  1  0.45948542  0.41007152  0.83286537  1
  O  O35  1  0.45952471  0.91643679  0.32665704  1
  O  O36  1  0.42590425  0.80824061  0.94698027  1
  O  O37  1  0.42422009  0.30376375  0.44893409  1
  O  O38  1  0.31907095  0.13761620  0.92725527  1
  O  O39  1  0.32541137  0.83962787  0.59629953  1
  O  O40  1  0.32673298  0.31780636  0.11585383  1
  O  O41  1  0.32772387  0.63863443  0.42114815  1
  O  O42  1  0.17557497  0.11446627  0.64143144  1
  O  O43  1  0.17183051  0.60896222  0.13879213  1
  O  O44  1  0.13622607  0.39712901  0.34455669  1
  O  O45  1  0.13203791  0.90495945  0.84833357  1
  O  O46  1  0.05976574  0.45696965  0.77721991  1
  O  O47  1  0.06898391  0.98483861  0.26389781  1
