# generated using pymatgen
data_AgClO3
_symmetry_space_group_name_H-M   'P 1'
_cell_length_a   8.84305570
_cell_length_b   5.41686018
_cell_length_c   6.96727525
_cell_angle_alpha   90.00000000
_cell_angle_beta   112.18064990
_cell_angle_gamma   90.00000000
_symmetry_Int_Tables_number   1
_chemical_formula_structural   AgClO3
_chemical_formula_sum   'Ag4 Cl4 O12'
_cell_volume   309.04595773
_cell_formula_units_Z   4
loop_
 _symmetry_equiv_pos_site_id
 _symmetry_equiv_pos_as_xyz
  1  'x, y, z'
loop_
 _atom_site_type_symbol
 _atom_site_label
 _atom_site_symmetry_multiplicity
 _atom_site_fract_x
 _atom_site_fract_y
 _atom_site_fract_z
 _atom_site_occupancy
  Ag  Ag0  1  0.17625677  0.26287963  0.69214168  1
  Ag  Ag1  1  0.32374323  0.76287963  0.30785832  1
  Ag  Ag2  1  0.67625677  0.23712037  0.69214168  1
  Ag  Ag3  1  0.82374323  0.73712037  0.30785832  1
  Cl  Cl4  1  0.02494606  0.22260829  0.17694060  1
  Cl  Cl5  1  0.47505394  0.72260829  0.82305940  1
  Cl  Cl6  1  0.52494606  0.27739171  0.17694060  1
  Cl  Cl7  1  0.97505394  0.77739171  0.82305940  1
  O  O8  1  0.15363684  0.84309195  0.90821464  1
  O  O9  1  0.04334095  0.47769837  0.27224360  1
  O  O10  1  0.10687368  0.04396581  0.35699798  1
  O  O11  1  0.39312632  0.54396581  0.64300202  1
  O  O12  1  0.45665905  0.97769837  0.72775640  1
  O  O13  1  0.34636316  0.34309195  0.09178536  1
  O  O14  1  0.65363684  0.65690805  0.90821464  1
  O  O15  1  0.54334095  0.02230163  0.27224360  1
  O  O16  1  0.60687368  0.45603419  0.35699798  1
  O  O17  1  0.89312632  0.95603419  0.64300202  1
  O  O18  1  0.95665905  0.52230163  0.72775640  1
  O  O19  1  0.84636316  0.15690805  0.09178536  1
