# generated using pymatgen
data_TiFe3Ni2(PO4)6
_symmetry_space_group_name_H-M   'P 1'
_cell_length_a   8.48515743
_cell_length_b   8.48515661
_cell_length_c   8.48515688
_cell_angle_alpha   61.06576076
_cell_angle_beta   61.06575607
_cell_angle_gamma   61.06575418
_symmetry_Int_Tables_number   1
_chemical_formula_structural   TiFe3Ni2(PO4)6
_chemical_formula_sum   'Ti1 Fe3 Ni2 P6 O24'
_cell_volume   442.34652931
_cell_formula_units_Z   1
loop_
 _symmetry_equiv_pos_site_id
 _symmetry_equiv_pos_as_xyz
  1  'x, y, z'
loop_
 _atom_site_type_symbol
 _atom_site_label
 _atom_site_symmetry_multiplicity
 _atom_site_fract_x
 _atom_site_fract_y
 _atom_site_fract_z
 _atom_site_occupancy
  Ti  Ti0  1  0.85519005  0.85519005  0.85519005  1
  Fe  Fe1  1  0.14507901  0.14507901  0.14507901  1
  Fe  Fe2  1  0.35623559  0.35623559  0.35623559  1
  Fe  Fe3  1  0.64395017  0.64395017  0.64395017  1
  Ni  Ni4  1  0.00083921  0.00083921  0.00083921  1
  Ni  Ni5  1  0.50068678  0.50068678  0.50068678  1
  P  P6  1  0.74953243  0.45240672  0.04590626  1
  P  P7  1  0.04590626  0.74953243  0.45240672  1
  P  P8  1  0.45240672  0.04590626  0.74953243  1
  P  P9  1  0.25087519  0.54562815  0.95381147  1
  P  P10  1  0.54562815  0.95381147  0.25087519  1
  P  P11  1  0.95381147  0.25087519  0.54562815  1
  O  O12  1  0.11015383  0.31763875  0.50726081  1
  O  O13  1  0.31763875  0.50726081  0.11015383  1
  O  O14  1  0.06052091  0.90863644  0.25539579  1
  O  O15  1  0.50726081  0.11015383  0.31763875  1
  O  O16  1  0.99265557  0.82225792  0.61463694  1
  O  O17  1  0.24398625  0.59318342  0.44476954  1
  O  O18  1  0.25539579  0.06052091  0.90863644  1
  O  O19  1  0.44476954  0.24398625  0.59318342  1
  O  O20  1  0.18070424  0.39078599  0.99505462  1
  O  O21  1  0.59318342  0.44476954  0.24398625  1
  O  O22  1  0.09000242  0.74619351  0.93678635  1
  O  O23  1  0.39078599  0.99505462  0.18070424  1
  O  O24  1  0.61463694  0.99265557  0.82225792  1
  O  O25  1  0.90863644  0.25539579  0.06052091  1
  O  O26  1  0.40728347  0.56273897  0.75370778  1
  O  O27  1  0.82225792  0.61463694  0.99265557  1
  O  O28  1  0.56273897  0.75370778  0.40728347  1
  O  O29  1  0.74619351  0.93678635  0.09000242  1
  O  O30  1  0.75370778  0.40728347  0.56273897  1
  O  O31  1  0.99505462  0.18070424  0.39078599  1
  O  O32  1  0.49520876  0.89099376  0.67930292  1
  O  O33  1  0.93678635  0.09000242  0.74619351  1
  O  O34  1  0.67930292  0.49520876  0.89099376  1
  O  O35  1  0.89099376  0.67930292  0.49520876  1
