# generated using pymatgen
data_Ho4Fe29Si5
_symmetry_space_group_name_H-M   'P 1'
_cell_length_a   6.35028192
_cell_length_b   6.33193467
_cell_length_c   12.66242162
_cell_angle_alpha   81.43729435
_cell_angle_beta   82.32874495
_cell_angle_gamma   82.26776652
_symmetry_Int_Tables_number   1
_chemical_formula_structural   Ho4Fe29Si5
_chemical_formula_sum   'Ho4 Fe29 Si5'
_cell_volume   495.54189825
_cell_formula_units_Z   1
loop_
 _symmetry_equiv_pos_site_id
 _symmetry_equiv_pos_as_xyz
  1  'x, y, z'
loop_
 _atom_site_type_symbol
 _atom_site_label
 _atom_site_symmetry_multiplicity
 _atom_site_fract_x
 _atom_site_fract_y
 _atom_site_fract_z
 _atom_site_occupancy
  Ho  Ho0  1  0.65887171  0.65039932  0.32663023  1
  Ho  Ho1  1  0.65319638  0.65461653  0.82616405  1
  Ho  Ho2  1  0.34680362  0.34538347  0.17383595  1
  Ho  Ho3  1  0.34112829  0.34960068  0.67336977  1
  Fe  Fe4  1  0.30141821  0.69899382  0.99969825  1
  Fe  Fe5  1  0.30939216  0.69424592  0.49913422  1
  Fe  Fe6  1  0.69882424  0.99959678  0.15163334  1
  Fe  Fe7  1  0.69029513  0.00292431  0.65215347  1
  Fe  Fe8  1  0.00073839  0.29223644  0.35392688  1
  Fe  Fe9  1  0.99898264  0.29833092  0.85074905  1
  Fe  Fe10  1  0.30970487  0.99707569  0.34784653  1
  Fe  Fe11  1  0.30117576  0.00040322  0.84836666  1
  Fe  Fe12  1  0.00101736  0.70166908  0.14925095  1
  Fe  Fe13  1  0.99926161  0.70776356  0.64607312  1
  Fe  Fe14  1  0.69858179  0.30100618  0.00030175  1
  Fe  Fe15  1  0.69060784  0.30575408  0.50086578  1
  Fe  Fe16  1  0.33727386  0.33601654  0.42488406  1
  Fe  Fe17  1  0.33963497  0.33977818  0.92178684  1
  Fe  Fe18  1  0.34103158  0.84463610  0.16980485  1
  Fe  Fe19  1  0.33652287  0.84933407  0.66799063  1
  Fe  Fe20  1  0.84457452  0.33986587  0.17081300  1
  Fe  Fe21  1  0.83643186  0.34481184  0.67135434  1
  Fe  Fe22  1  0.66036503  0.66022182  0.07821316  1
  Fe  Fe23  1  0.66272614  0.66398346  0.57511594  1
  Fe  Fe24  1  0.66347713  0.15066593  0.33200937  1
  Fe  Fe25  1  0.65896842  0.15536390  0.83019515  1
  Fe  Fe26  1  0.16356814  0.65518816  0.32864566  1
  Fe  Fe27  1  0.15542548  0.66013413  0.82918700  1
  Fe  Fe28  1  0.00187014  0.99863542  0.25013945  1
  Fe  Fe29  1  0.99812986  0.00136458  0.74986055  1
  Fe  Fe30  1  -0.00000000  0.50000000  0.50000000  1
  Fe  Fe31  1  -0.00000000  0.50000000  -0.00000000  1
  Fe  Fe32  1  0.50000000  -0.00000000  -0.00000000  1
  Si  Si33  1  0.50000000  -0.00000000  0.50000000  1
  Si  Si34  1  0.92253665  0.88964735  0.44487717  1
  Si  Si35  1  0.89848897  0.89814104  0.94923840  1
  Si  Si36  1  0.10151103  0.10185896  0.05076160  1
  Si  Si37  1  0.07746335  0.11035265  0.55512283  1
