# generated using pymatgen
data_Na2NiPCO7
_symmetry_space_group_name_H-M   'P 1'
_cell_length_a   10.17738151
_cell_length_b   10.42785309
_cell_length_c   6.61506903
_cell_angle_alpha   90.04332442
_cell_angle_beta   89.90882507
_cell_angle_gamma   60.48311619
_symmetry_Int_Tables_number   1
_chemical_formula_structural   Na2NiPCO7
_chemical_formula_sum   'Na8 Ni4 P4 C4 O28'
_cell_volume   610.92578328
_cell_formula_units_Z   4
loop_
 _symmetry_equiv_pos_site_id
 _symmetry_equiv_pos_as_xyz
  1  'x, y, z'
loop_
 _atom_site_type_symbol
 _atom_site_label
 _atom_site_symmetry_multiplicity
 _atom_site_fract_x
 _atom_site_fract_y
 _atom_site_fract_z
 _atom_site_occupancy
  Na  Na0  1  0.01311184  0.25460207  0.45862244  1
  Na  Na1  1  0.48622855  0.26026969  0.98956636  1
  Na  Na2  1  0.48608940  0.25920463  0.50947767  1
  Na  Na3  1  0.85260787  0.07492119  0.76743581  1
  Na  Na4  1  0.50194386  0.74913282  0.01081442  1
  Na  Na5  1  0.50575770  0.74471623  0.49113161  1
  Na  Na6  1  0.00148758  0.73708669  0.98874680  1
  Na  Na7  1  0.00156262  0.73701209  0.51252248  1
  Ni  Ni8  1  0.28219681  0.06698719  0.75372476  1
  Ni  Ni9  1  0.21211450  0.43566950  0.24969208  1
  Ni  Ni10  1  0.78783606  0.56087660  0.75385224  1
  Ni  Ni11  1  0.71647422  0.93510990  0.25159639  1
  P  P12  1  0.35596259  0.06545434  0.24985739  1
  P  P13  1  0.14642818  0.42832813  0.75023044  1
  P  P14  1  0.84973066  0.57324029  0.25100568  1
  P  P15  1  0.64775105  0.93223370  0.75050072  1
  C  C16  1  0.81636001  0.10654925  0.25413842  1
  C  C17  1  0.32159027  0.60252561  0.25010291  1
  C  C18  1  0.68231722  0.39145492  0.74716304  1
  C  C19  1  0.17763624  0.89366452  0.74679940  1
  O  O20  1  0.09950143  0.03656202  0.74433649  1
  O  O21  1  0.28308263  0.04192974  0.06084145  1
  O  O22  1  0.27112096  0.05403116  0.43614290  1
  O  O23  1  0.14289146  0.28382702  0.74061785  1
  O  O24  1  0.01629387  0.44526497  0.25639910  1
  O  O25  1  0.48219046  0.06496823  0.75015890  1
  O  O26  1  0.35618056  0.21329314  0.24750778  1
  O  O27  1  0.22769188  0.44198744  0.93861510  1
  O  O28  1  0.22766995  0.44640057  0.56328214  1
  O  O29  1  0.67176273  0.15105454  0.24987767  1
  O  O30  1  0.17666553  0.65345088  0.24928085  1
  O  O31  1  0.39990556  0.45926618  0.24917667  1
  O  O32  1  0.62483452  0.30732605  0.74894919  1
  O  O33  1  0.11103967  0.81781662  0.74888709  1
  O  O34  1  0.86914938  0.19147979  0.26231914  1
  O  O35  1  0.38148554  0.68252318  0.25183520  1
  O  O36  1  0.60235910  0.53432662  0.75438228  1
  O  O37  1  0.82611264  0.34095835  0.73918353  1
  O  O38  1  0.32223174  0.83943929  0.74826398  1
  O  O39  1  0.76527771  0.56540073  0.06333623  1
  O  O40  1  0.76646687  0.56042687  0.43816110  1
  O  O41  1  0.64278995  0.78717891  0.74929626  1
  O  O42  1  0.52358346  0.93536387  0.25707550  1
  O  O43  1  0.98019094  0.56228651  0.75053561  1
  O  O44  1  0.85684140  0.71868233  0.25303892  1
  O  O45  1  0.73362721  0.94750927  0.56657793  1
  O  O46  1  0.73260921  0.94594909  0.93643101  1
  O  O47  1  0.90036042  0.96340130  0.24866707  1
