# generated using pymatgen
data_Li2FeF5
_symmetry_space_group_name_H-M   'P 1'
_cell_length_a   7.01451452
_cell_length_b   8.52927289
_cell_length_c   5.96414525
_cell_angle_alpha   88.01504914
_cell_angle_beta   108.98268938
_cell_angle_gamma   38.10329218
_symmetry_Int_Tables_number   1
_chemical_formula_structural   Li2FeF5
_chemical_formula_sum   'Li4 Fe2 F10'
_cell_volume   180.55908976
_cell_formula_units_Z   2
loop_
 _symmetry_equiv_pos_site_id
 _symmetry_equiv_pos_as_xyz
  1  'x, y, z'
loop_
 _atom_site_type_symbol
 _atom_site_label
 _atom_site_symmetry_multiplicity
 _atom_site_fract_x
 _atom_site_fract_y
 _atom_site_fract_z
 _atom_site_occupancy
  Li  Li0  1  0.99968572  0.50032260  0.99862417  1
  Li  Li1  1  0.36796690  0.86037636  0.33017829  1
  Li  Li2  1  0.63083911  0.13995950  0.66552261  1
  Li  Li3  1  0.50365751  0.49663703  0.99248196  1
  Fe  Fe4  1  0.14708520  0.12797586  0.74910652  1
  Fe  Fe5  1  0.85069019  0.87337793  0.24631438  1
  F  F6  1  0.00650720  0.17623197  0.39058813  1
  F  F7  1  0.13871748  0.49372077  0.34991496  1
  F  F8  1  0.38351851  0.04819340  0.15166641  1
  F  F9  1  0.86050553  0.50680787  0.64626955  1
  F  F10  1  0.48325192  0.28126740  0.06733766  1
  F  F11  1  0.61472430  0.95247729  0.84461842  1
  F  F12  1  0.20375760  0.75746973  0.21076818  1
  F  F13  1  0.79166329  0.24650325  0.78548561  1
  F  F14  1  0.99139242  0.82529774  0.60501820  1
  F  F15  1  0.51488713  0.71992828  0.92674196  1
