# generated using pymatgen
data_Na4CrH8SO7
_symmetry_space_group_name_H-M   'P 1'
_cell_length_a   5.83140839
_cell_length_b   13.86621080
_cell_length_c   11.26736785
_cell_angle_alpha   90.00000000
_cell_angle_beta   103.78144899
_cell_angle_gamma   90.00000000
_symmetry_Int_Tables_number   1
_chemical_formula_structural   Na4CrH8SO7
_chemical_formula_sum   'Na16 Cr4 H32 S4 O28'
_cell_volume   884.84566382
_cell_formula_units_Z   4
loop_
 _symmetry_equiv_pos_site_id
 _symmetry_equiv_pos_as_xyz
  1  'x, y, z'
loop_
 _atom_site_type_symbol
 _atom_site_label
 _atom_site_symmetry_multiplicity
 _atom_site_fract_x
 _atom_site_fract_y
 _atom_site_fract_z
 _atom_site_occupancy
  Na  Na0  1  0.00929535  0.31544557  0.76347951  1
  Na  Na1  1  0.25042077  0.94425418  0.99509833  1
  Na  Na2  1  0.24648640  0.70212217  0.97503745  1
  Na  Na3  1  0.00929535  0.18455443  0.26347951  1
  Na  Na4  1  0.25042077  0.55574582  0.49509833  1
  Na  Na5  1  0.24648640  0.79787783  0.47503745  1
  Na  Na6  1  0.50145634  0.20689015  0.77735339  1
  Na  Na7  1  0.49854366  0.70689015  0.72264661  1
  Na  Na8  1  0.50145634  0.29310985  0.27735339  1
  Na  Na9  1  0.49854366  0.79310985  0.22264661  1
  Na  Na10  1  0.75351360  0.20212217  0.52496255  1
  Na  Na11  1  0.74957923  0.44425418  0.50490167  1
  Na  Na12  1  0.99070465  0.81544557  0.73652049  1
  Na  Na13  1  0.75351360  0.29787783  0.02496255  1
  Na  Na14  1  0.74957923  0.05574582  0.00490167  1
  Na  Na15  1  0.99070465  0.68455443  0.23652049  1
  Cr  Cr16  1  0.24943227  0.31373717  0.51633524  1
  Cr  Cr17  1  0.24943227  0.18626283  0.01633524  1
  Cr  Cr18  1  0.75056773  0.81373717  0.98366476  1
  Cr  Cr19  1  0.75056773  0.68626283  0.48366476  1
  H  H20  1  0.09915181  0.64303803  0.66124127  1
  H  H21  1  0.22616017  0.53648840  0.85315149  1
  H  H22  1  0.23885647  0.07680253  0.82892264  1
  H  H23  1  0.16094169  0.14918755  0.61285573  1
  H  H24  1  0.32632292  0.35735107  0.94816433  1
  H  H25  1  0.25008726  0.44808312  0.68209807  1
  H  H26  1  0.42609222  0.87777321  0.81577569  1
  H  H27  1  0.09915181  0.85696197  0.16124127  1
  H  H28  1  0.22616017  0.96351160  0.35315149  1
  H  H29  1  0.23885647  0.42319747  0.32892264  1
  H  H30  1  0.16094169  0.35081245  0.11285573  1
  H  H31  1  0.50842304  0.53592392  0.86278606  1
  H  H32  1  0.32632292  0.14264893  0.44816433  1
  H  H33  1  0.25008726  0.05191688  0.18209807  1
  H  H34  1  0.49157696  0.03592392  0.63721394  1
  H  H35  1  0.57390778  0.37777321  0.68422431  1
  H  H36  1  0.42609222  0.62222679  0.31577569  1
  H  H37  1  0.50842304  0.96407608  0.36278606  1
  H  H38  1  0.74991274  0.94808312  0.81790193  1
  H  H39  1  0.67367708  0.85735107  0.55183567  1
  H  H40  1  0.49157696  0.46407608  0.13721394  1
  H  H41  1  0.83905831  0.64918755  0.88714427  1
  H  H42  1  0.76114353  0.57680253  0.67107736  1
  H  H43  1  0.77383983  0.03648840  0.64684851  1
  H  H44  1  0.90084819  0.14303803  0.83875873  1
  H  H45  1  0.57390778  0.12222679  0.18422431  1
  H  H46  1  0.74991274  0.55191688  0.31790193  1
  H  H47  1  0.67367708  0.64264893  0.05183567  1
  H  H48  1  0.83905831  0.85081245  0.38714427  1
  H  H49  1  0.76114353  0.92319747  0.17107736  1
  H  H50  1  0.77383983  0.46351160  0.14684851  1
  H  H51  1  0.90084819  0.35696197  0.33875873  1
  S  S52  1  0.09332837  0.98523010  0.59180587  1
  S  S53  1  0.09332837  0.51476990  0.09180587  1
  S  S54  1  0.90667163  0.48523010  0.90819413  1
  S  S55  1  0.90667163  0.01476990  0.40819413  1
  O  O56  1  0.08516730  0.69221078  0.59798669  1
  O  O57  1  0.13579094  0.41991565  0.61334177  1
  O  O58  1  0.14466529  0.21850632  0.62828725  1
  O  O59  1  0.36309444  0.29365722  0.92059518  1
  O  O60  1  0.35731225  0.08977655  0.90439033  1
  O  O61  1  0.35880051  0.57150834  0.82952687  1
  O  O62  1  0.41528142  0.82277112  0.86810960  1
  O  O63  1  0.08516730  0.80778922  0.09798669  1
  O  O64  1  0.13579094  0.08008435  0.11334177  1
  O  O65  1  0.14466529  0.28149368  0.12828725  1
  O  O66  1  0.36309444  0.20634278  0.42059518  1
  O  O67  1  0.35731225  0.41022345  0.40439033  1
  O  O68  1  0.35880051  0.92849166  0.32952687  1
  O  O69  1  0.41528142  0.67722888  0.36810960  1
  O  O70  1  0.58471858  0.32277112  0.63189040  1
  O  O71  1  0.64119949  0.07150834  0.67047313  1
  O  O72  1  0.64268775  0.58977655  0.59560967  1
  O  O73  1  0.63690556  0.79365722  0.57940482  1
  O  O74  1  0.85533471  0.71850632  0.87171275  1
  O  O75  1  0.86420906  0.91991565  0.88665823  1
  O  O76  1  0.91483270  0.19221078  0.90201331  1
  O  O77  1  0.58471858  0.17722888  0.13189040  1
  O  O78  1  0.64119949  0.42849166  0.17047313  1
  O  O79  1  0.64268775  0.91022345  0.09560867  1
  O  O80  1  0.63690556  0.70634278  0.07940482  1
  O  O81  1  0.85533471  0.78149368  0.37171275  1
  O  O82  1  0.86420906  0.58008435  0.38665823  1
  O  O83  1  0.91483270  0.30778922  0.40201331  1
