# generated using pymatgen
data_LiV2(PO4)3
_symmetry_space_group_name_H-M   'P 1'
_cell_length_a   8.68360762
_cell_length_b   8.63004463
_cell_length_c   11.95949448
_cell_angle_alpha   90.00000000
_cell_angle_beta   91.19956239
_cell_angle_gamma   90.00000000
_symmetry_Int_Tables_number   1
_chemical_formula_structural   LiV2(PO4)3
_chemical_formula_sum   'Li4 V8 P12 O48'
_cell_volume   896.04715693
_cell_formula_units_Z   4
loop_
 _symmetry_equiv_pos_site_id
 _symmetry_equiv_pos_as_xyz
  1  'x, y, z'
loop_
 _atom_site_type_symbol
 _atom_site_label
 _atom_site_symmetry_multiplicity
 _atom_site_fract_x
 _atom_site_fract_y
 _atom_site_fract_z
 _atom_site_occupancy
  Li  Li0  1  0.08590479  0.70743382  0.76180533  1
  Li  Li1  1  0.41409521  0.20743382  0.73819467  1
  Li  Li2  1  0.58590479  0.79256618  0.26180533  1
  Li  Li3  1  0.91409521  0.29256618  0.23819467  1
  V  V4  1  0.25145805  0.02735162  0.88602810  1
  V  V5  1  0.25208521  0.96474072  0.38326194  1
  V  V6  1  0.24791479  0.46474072  0.11673806  1
  V  V7  1  0.24854195  0.52735162  0.61397190  1
  V  V8  1  0.75145805  0.47264838  0.38602810  1
  V  V9  1  0.75208521  0.53525928  0.88326194  1
  V  V10  1  0.74791479  0.03525928  0.61673806  1
  V  V11  1  0.74854195  0.97264838  0.11397190  1
  P  P12  1  0.03178800  0.24663398  0.49519836  1
  P  P13  1  0.10400690  0.38633715  0.85481420  1
  P  P14  1  0.11043490  0.10661303  0.14629000  1
  P  P15  1  0.38956510  0.60661303  0.35371000  1
  P  P16  1  0.39599310  0.88633715  0.64518580  1
  P  P17  1  0.46821200  0.74663398  0.00480164  1
  P  P18  1  0.53178800  0.25336602  0.99519836  1
  P  P19  1  0.60400690  0.11366285  0.35481420  1
  P  P20  1  0.61043490  0.39338697  0.64629000  1
  P  P21  1  0.88956510  0.89338697  0.85371000  1
  P  P22  1  0.89599310  0.61366285  0.14518580  1
  P  P23  1  0.96821200  0.75336602  0.50480164  1
  O  O24  1  0.07011933  0.84294788  0.42520448  1
  O  O25  1  0.06165608  0.66426548  0.59551069  1
  O  O26  1  0.06894776  0.90397287  0.84993798  1
  O  O27  1  0.07053158  0.59915216  0.15556485  1
  O  O28  1  0.12670281  0.36365315  0.57089433  1
  O  O29  1  0.15788486  0.43003208  0.97536197  1
  O  O30  1  0.15530076  0.21804245  0.82866160  1
  O  O31  1  0.17544476  0.99498075  0.23639190  1
  O  O32  1  0.15155412  0.15127236  0.43427197  1
  O  O33  1  0.13759604  0.27819519  0.17677010  1
  O  O34  1  0.17612145  0.06156225  0.03395414  1
  O  O35  1  0.18303771  0.50229923  0.77472855  1
  O  O36  1  0.31696229  0.00229923  0.72527145  1
  O  O37  1  0.32387855  0.56156225  0.46604586  1
  O  O38  1  0.36240396  0.77819519  0.32322990  1
  O  O39  1  0.34844588  0.65127236  0.06572803  1
  O  O40  1  0.32455524  0.49498075  0.26360810  1
  O  O41  1  0.34469924  0.71804245  0.67133840  1
  O  O42  1  0.34211514  0.93003208  0.52463803  1
  O  O43  1  0.37329719  0.86365315  0.92910567  1
  O  O44  1  0.42946842  0.09915216  0.34443515  1
  O  O45  1  0.43105224  0.40397287  0.65006202  1
  O  O46  1  0.43834392  0.16426548  0.90448931  1
  O  O47  1  0.42988067  0.34294788  0.07479552  1
  O  O48  1  0.57011933  0.65705212  0.92520448  1
  O  O49  1  0.56165608  0.83573452  0.09551069  1
  O  O50  1  0.56894776  0.59602713  0.34993798  1
  O  O51  1  0.57053158  0.90084784  0.65556485  1
  O  O52  1  0.62670281  0.13634685  0.07089433  1
  O  O53  1  0.65788486  0.06996792  0.47536197  1
  O  O54  1  0.65530076  0.28195755  0.32866160  1
  O  O55  1  0.67544476  0.50501925  0.73639190  1
  O  O56  1  0.65155412  0.34872764  0.93427197  1
  O  O57  1  0.63759604  0.22180481  0.67677010  1
  O  O58  1  0.67612145  0.43843775  0.53395414  1
  O  O59  1  0.68303771  0.99770077  0.27472855  1
  O  O60  1  0.81696229  0.49770077  0.22527145  1
  O  O61  1  0.82387855  0.93843775  0.96604586  1
  O  O62  1  0.86240396  0.72180481  0.82322990  1
  O  O63  1  0.84844588  0.84872764  0.56572803  1
  O  O64  1  0.82455524  0.00501925  0.76360810  1
  O  O65  1  0.84469924  0.78195755  0.17133840  1
  O  O66  1  0.84211514  0.56996792  0.02463803  1
  O  O67  1  0.87329719  0.63634685  0.42910567  1
  O  O68  1  0.92946842  0.40084784  0.84443515  1
  O  O69  1  0.93105224  0.09602713  0.15006202  1
  O  O70  1  0.93834392  0.33573452  0.40448931  1
  O  O71  1  0.92988067  0.15705212  0.57479552  1
