# generated using pymatgen
data_LiNbNiO4
_symmetry_space_group_name_H-M   'P 1'
_cell_length_a   6.05637634
_cell_length_b   6.05637634
_cell_length_c   8.57296996
_cell_angle_alpha   90.00000000
_cell_angle_beta   90.00000000
_cell_angle_gamma   90.00000000
_symmetry_Int_Tables_number   1
_chemical_formula_structural   LiNbNiO4
_chemical_formula_sum   'Li4 Nb4 Ni4 O16'
_cell_volume   314.45391799
_cell_formula_units_Z   4
loop_
 _symmetry_equiv_pos_site_id
 _symmetry_equiv_pos_as_xyz
  1  'x, y, z'
loop_
 _atom_site_type_symbol
 _atom_site_label
 _atom_site_symmetry_multiplicity
 _atom_site_fract_x
 _atom_site_fract_y
 _atom_site_fract_z
 _atom_site_occupancy
  Li  Li0  1  0.00000000  0.23303590  0.00000000  1
  Li  Li1  1  0.00000000  0.76696410  0.50000000  1
  Li  Li2  1  0.23303590  0.00000000  0.25000000  1
  Li  Li3  1  0.76696410  0.00000000  0.75000000  1
  Nb  Nb4  1  0.25515300  0.25515300  0.62500000  1
  Nb  Nb5  1  0.25515300  0.74484700  0.87500000  1
  Nb  Nb6  1  0.74484700  0.25515300  0.37500000  1
  Nb  Nb7  1  0.74484700  0.74484700  0.12500000  1
  Ni  Ni8  1  0.24365452  0.50000000  0.25000000  1
  Ni  Ni9  1  0.50000000  0.24365452  0.00000000  1
  Ni  Ni10  1  0.50000000  0.75634548  0.50000000  1
  Ni  Ni11  1  0.75634548  0.50000000  0.75000000  1
  O  O12  1  0.00196037  0.25749653  0.25430592  1
  O  O13  1  0.00196037  0.74250347  0.24569408  1
  O  O14  1  0.25749653  0.00196037  0.99569408  1
  O  O15  1  0.25749653  0.99803963  0.50430592  1
  O  O16  1  0.25767320  0.49318916  0.00725755  1
  O  O17  1  0.25767320  0.50681084  0.49274245  1
  O  O18  1  0.49318916  0.25767320  0.24274245  1
  O  O19  1  0.49318916  0.74232680  0.25725755  1
  O  O20  1  0.50681084  0.25767320  0.75725755  1
  O  O21  1  0.50681084  0.74232680  0.74274245  1
  O  O22  1  0.74232680  0.50681084  0.50725755  1
  O  O23  1  0.74232680  0.49318916  0.99274245  1
  O  O24  1  0.74250347  0.00196037  0.00430592  1
  O  O25  1  0.74250347  0.99803963  0.49569408  1
  O  O26  1  0.99803963  0.25749653  0.74569408  1
  O  O27  1  0.99803963  0.74250347  0.75430592  1
