# generated using pymatgen
data_Li32Mn3Cr13O48
_symmetry_space_group_name_H-M   'P 1'
_cell_length_a   5.03807437
_cell_length_b   8.71651597
_cell_length_c   19.51754595
_cell_angle_alpha   98.15936552
_cell_angle_beta   94.89354118
_cell_angle_gamma   89.74844506
_symmetry_Int_Tables_number   1
_chemical_formula_structural   Li32Mn3Cr13O48
_chemical_formula_sum   'Li32 Mn3 Cr13 O48'
_cell_volume   845.30761989
_cell_formula_units_Z   1
loop_
 _symmetry_equiv_pos_site_id
 _symmetry_equiv_pos_as_xyz
  1  'x, y, z'
loop_
 _atom_site_type_symbol
 _atom_site_label
 _atom_site_symmetry_multiplicity
 _atom_site_fract_x
 _atom_site_fract_y
 _atom_site_fract_z
 _atom_site_occupancy
  Li  Li0  1  0.99010914  0.16921525  0.24953994  1
  Li  Li1  1  0.87612095  0.37585879  0.37529765  1
  Li  Li2  1  0.75236319  0.25008016  0.99988321  1
  Li  Li3  1  0.74004065  0.92043704  0.00024715  1
  Li  Li4  1  0.98932777  0.16801933  0.74925564  1
  Li  Li5  1  0.75698890  0.58003692  0.49949438  1
  Li  Li6  1  0.87230940  0.37347320  0.87471388  1
  Li  Li7  1  0.75257470  0.24856683  0.50016819  1
  Li  Li8  1  0.73906754  0.92068508  0.49930340  1
  Li  Li9  1  0.62432096  0.12424429  0.12484936  1
  Li  Li10  1  0.75445018  0.57823238  0.99920864  1
  Li  Li11  1  0.50884761  0.33065355  0.25000905  1
  Li  Li12  1  0.62438838  0.12559678  0.62529213  1
  Li  Li13  1  0.49794980  0.00015408  0.25003667  1
  Li  Li14  1  0.49563155  0.67042395  0.25053905  1
  Li  Li15  1  0.50679849  0.32958415  0.74976357  1
  Li  Li16  1  0.37719864  0.87666976  0.37510267  1
  Li  Li17  1  0.50029417  0.00224345  0.75019816  1
  Li  Li18  1  0.25171796  0.75116702  0.99965790  1
  Li  Li19  1  0.49029087  0.66866436  0.75034000  1
  Li  Li20  1  0.24411260  0.41963548  0.99974437  1
  Li  Li21  1  0.37442120  0.87454258  0.87475436  1
  Li  Li22  1  0.26229741  0.08219103  0.50069126  1
  Li  Li23  1  0.24805577  0.74893176  0.50007225  1
  Li  Li24  1  0.12436582  0.62443450  0.12497887  1
  Li  Li25  1  0.24262794  0.42025379  0.50068311  1
  Li  Li26  1  0.00560805  0.83150440  0.25047655  1
  Li  Li27  1  0.26043359  0.07923808  0.00020781  1
  Li  Li28  1  0.12605817  0.62308804  0.62462660  1
  Li  Li29  1  0.99955473  0.49976879  0.25030050  1
  Li  Li30  1  0.00878873  0.83116271  0.75067650  1
  Li  Li31  1  0.00533544  0.49938410  0.74967453  1
  Mn  Mn32  1  0.87269959  0.70809637  0.37424062  1
  Mn  Mn33  1  0.37628467  0.54198324  0.87544468  1
  Mn  Mn34  1  0.12883872  0.29080147  0.62604147  1
  Cr  Cr35  1  0.88187007  0.03949863  0.37480745  1
  Cr  Cr36  1  0.87133908  0.70390872  0.87471669  1
  Cr  Cr37  1  0.87702319  0.03751379  0.87486549  1
  Cr  Cr38  1  0.61798760  0.78949779  0.12398045  1
  Cr  Cr39  1  0.63158265  0.45522717  0.12608927  1
  Cr  Cr40  1  0.61922697  0.79439467  0.62377686  1
  Cr  Cr41  1  0.63086655  0.45726369  0.62555236  1
  Cr  Cr42  1  0.37538354  0.54595342  0.37485731  1
  Cr  Cr43  1  0.37572809  0.21249007  0.37560058  1
  Cr  Cr44  1  0.36911637  0.21171843  0.87535572  1
  Cr  Cr45  1  0.11528203  0.95861669  0.12372433  1
  Cr  Cr46  1  0.13445227  0.29518377  0.12661450  1
  Cr  Cr47  1  0.11783754  0.95469586  0.62453529  1
  O  O48  1  0.96813419  0.10509280  0.06882008  1
  O  O49  1  0.92429616  0.78472429  0.06853879  1
  O  O50  1  0.93230828  0.42306031  0.06796094  1
  O  O51  1  0.96847054  0.10747129  0.56947181  1
  O  O52  1  0.82288475  0.96215626  0.18075811  1
  O  O53  1  0.81924088  0.32288598  0.18291559  1
  O  O54  1  0.93185043  0.78743406  0.56829875  1
  O  O55  1  0.92885273  0.42663317  0.56822664  1
  O  O56  1  0.78334394  0.64021047  0.18101040  1
  O  O57  1  0.70992033  0.85310356  0.31847084  1
  O  O58  1  0.81556744  0.95945729  0.68123793  1
  O  O59  1  0.82636777  0.32124015  0.68243354  1
  O  O60  1  0.68296779  0.53506874  0.31905574  1
  O  O61  1  0.67315161  0.17452923  0.31814827  1
  O  O62  1  0.78053605  0.64016242  0.68077500  1
  O  O63  1  0.71695603  0.85257604  0.81852198  1
  O  O64  1  0.46650873  0.60843494  0.06908157  1
  O  O65  1  0.57315156  0.71377757  0.43065686  1
  O  O66  1  0.57558368  0.07173417  0.43273065  1
  O  O67  1  0.67618313  0.53526980  0.81903965  1
  O  O68  1  0.67353227  0.17819082  0.81781515  1
  O  O69  1  0.42647153  0.92942638  0.06682683  1
  O  O70  1  0.43323715  0.29019515  0.06908685  1
  O  O71  1  0.53251164  0.39568425  0.43144488  1
  O  O72  1  0.46643347  0.60861461  0.56821944  1
  O  O73  1  0.56737608  0.71457267  0.93079361  1
  O  O74  1  0.57694570  0.07481774  0.93198966  1
  O  O75  1  0.32465202  0.82616059  0.18159506  1
  O  O76  1  0.31801415  0.46451052  0.18170506  1
  O  O77  1  0.43212979  0.92606734  0.56715252  1
  O  O78  1  0.42841974  0.28807830  0.56969739  1
  O  O79  1  0.54000121  0.39764865  0.93162732  1
  O  O80  1  0.28328690  0.14595261  0.18145524  1
  O  O81  1  0.21775236  0.35896983  0.31904713  1
  O  O82  1  0.31783441  0.82759583  0.68228097  1
  O  O83  1  0.31832094  0.46490446  0.68131235  1
  O  O84  1  0.17577986  0.67721095  0.31803737  1
  O  O85  1  0.17102396  0.03646359  0.31873701  1
  O  O86  1  0.28823292  0.14420149  0.68107504  1
  O  O87  1  0.21612653  0.35714664  0.81952685  1
  O  O88  1  0.06847924  0.57285409  0.43199676  1
  O  O89  1  0.08005818  0.21462863  0.43133832  1
  O  O90  1  0.18146176  0.67721568  0.81771817  1
  O  O91  1  0.16783877  0.03527869  0.81854015  1
  O  O92  1  0.03246602  0.89316268  0.43061813  1
  O  O93  1  0.07389791  0.57357602  0.93179790  1
  O  O94  1  0.08147450  0.21444257  0.93153952  1
  O  O95  1  0.03199274  0.89242018  0.93088173  1
