# generated using pymatgen
data_NaLi3Ti2Cr2(PO4)6
_symmetry_space_group_name_H-M   'P 1'
_cell_length_a   8.47626948
_cell_length_b   8.88418221
_cell_length_c   8.47626975
_cell_angle_alpha   118.49243396
_cell_angle_beta   59.99999714
_cell_angle_gamma   118.49243335
_symmetry_Int_Tables_number   1
_chemical_formula_structural   NaLi3Ti2Cr2(PO4)6
_chemical_formula_sum   'Na1 Li3 Ti2 Cr2 P6 O24'
_cell_volume   461.36127049
_cell_formula_units_Z   1
loop_
 _symmetry_equiv_pos_site_id
 _symmetry_equiv_pos_as_xyz
  1  'x, y, z'
loop_
 _atom_site_type_symbol
 _atom_site_label
 _atom_site_symmetry_multiplicity
 _atom_site_fract_x
 _atom_site_fract_y
 _atom_site_fract_z
 _atom_site_occupancy
  Na  Na0  1  0.99422341  0.98266924  0.99422341  1
  Li  Li1  1  0.34698753  0.16584318  0.09390182  1
  Li  Li2  1  0.09390182  0.16584318  0.72495283  1
  Li  Li3  1  0.72495283  0.16584318  0.34698753  1
  Ti  Ti4  1  0.64156571  0.92469614  0.64156571  1
  Ti  Ti5  1  0.85577544  0.56732533  0.85577544  1
  Cr  Cr6  1  0.14560859  0.43682477  0.14560859  1
  Cr  Cr7  1  0.35032516  0.05097649  0.35032516  1
  P  P8  1  0.03101223  0.24650726  0.46160447  1
  P  P9  1  0.53992051  0.75189133  0.24562245  1
  P  P10  1  0.24562245  0.75189133  0.96634938  1
  P  P11  1  0.75389056  0.24650726  0.03101223  1
  P  P12  1  0.46160447  0.24650726  0.75389056  1
  P  P13  1  0.96634938  0.75189133  0.53992051  1
  O  O14  1  0.23414038  0.91946355  0.14963586  1
  O  O15  1  0.14963586  0.91946355  0.53568731  1
  O  O16  1  0.99902501  0.42491535  0.61617984  1
  O  O17  1  0.11661525  0.25634906  0.25412621  1
  O  O18  1  0.53568731  0.91946355  0.23414038  1
  O  O19  1  0.10200307  0.73466442  0.89191837  1
  O  O20  1  0.38336110  0.57833128  0.19924260  1
  O  O21  1  0.17285552  0.20673193  0.48843953  1
  O  O22  1  0.52938773  0.79395982  0.45109929  1
  O  O23  1  0.19924260  0.57833128  0.99572757  1
  O  O24  1  0.74074198  0.73466442  0.10200307  1
  O  O25  1  0.45109929  0.79395982  0.81347280  1
  O  O26  1  0.54543689  0.20673193  0.17285552  1
  O  O27  1  0.25412621  0.25634906  0.88560761  1
  O  O28  1  0.80971050  0.42491535  0.99902501  1
  O  O29  1  0.48843953  0.20673193  0.54543689  1
  O  O30  1  0.81347280  0.79395982  0.52938773  1
  O  O31  1  0.61617984  0.42491535  0.80971050  1
  O  O32  1  0.88560761  0.25634906  0.11661525  1
  O  O33  1  0.47681590  0.09814549  0.78978267  1
  O  O34  1  0.89191837  0.73466442  0.74074198  1
  O  O35  1  0.99572757  0.57833128  0.38336110  1
  O  O36  1  0.83154691  0.09814549  0.47681590  1
  O  O37  1  0.78978267  0.09814549  0.83154691  1
