# generated using pymatgen
data_Li2MnF4
_symmetry_space_group_name_H-M   'P 1'
_cell_length_a   6.12999239
_cell_length_b   6.12999239
_cell_length_c   8.62473388
_cell_angle_alpha   90.00000000
_cell_angle_beta   90.00000000
_cell_angle_gamma   90.00000000
_symmetry_Int_Tables_number   1
_chemical_formula_structural   Li2MnF4
_chemical_formula_sum   'Li8 Mn4 F16'
_cell_volume   324.08995786
_cell_formula_units_Z   4
loop_
 _symmetry_equiv_pos_site_id
 _symmetry_equiv_pos_as_xyz
  1  'x, y, z'
loop_
 _atom_site_type_symbol
 _atom_site_label
 _atom_site_symmetry_multiplicity
 _atom_site_fract_x
 _atom_site_fract_y
 _atom_site_fract_z
 _atom_site_occupancy
  Li  Li0  1  0.00000000  0.21636972  0.00000000  1
  Li  Li1  1  0.00000000  0.78363028  0.50000000  1
  Li  Li2  1  0.24750071  0.24750071  0.62500000  1
  Li  Li3  1  0.24750071  0.75249929  0.87500000  1
  Li  Li4  1  0.21636972  0.00000000  0.25000000  1
  Li  Li5  1  0.78363028  0.00000000  0.75000000  1
  Li  Li6  1  0.75249929  0.24750071  0.37500000  1
  Li  Li7  1  0.75249929  0.75249929  0.12500000  1
  Mn  Mn8  1  0.22768895  0.50000000  0.25000000  1
  Mn  Mn9  1  0.50000000  0.22768895  0.00000000  1
  Mn  Mn10  1  0.50000000  0.77231105  0.50000000  1
  Mn  Mn11  1  0.77231105  0.50000000  0.75000000  1
  F  F12  1  0.00304895  0.24291507  0.23779157  1
  F  F13  1  0.00304895  0.75708493  0.26220843  1
  F  F14  1  0.24291507  0.00304895  0.01220843  1
  F  F15  1  0.24291507  0.99695105  0.48779157  1
  F  F16  1  0.24857824  0.51972649  0.49834451  1
  F  F17  1  0.24857824  0.48027351  0.00165549  1
  F  F18  1  0.51972649  0.24857824  0.75165549  1
  F  F19  1  0.51972649  0.75142176  0.74834451  1
  F  F20  1  0.48027351  0.24857824  0.24834451  1
  F  F21  1  0.48027351  0.75142176  0.25165549  1
  F  F22  1  0.75142176  0.51972649  0.50165549  1
  F  F23  1  0.75142176  0.48027351  0.99834451  1
  F  F24  1  0.75708493  0.99695105  0.51220843  1
  F  F25  1  0.75708493  0.00304895  0.98779157  1
  F  F26  1  0.99695105  0.24291507  0.76220843  1
  F  F27  1  0.99695105  0.75708493  0.73779157  1
