# generated using pymatgen
data_Sm2TeO6
_symmetry_space_group_name_H-M   'P 1'
_cell_length_a   9.28468115
_cell_length_b   9.28462056
_cell_length_c   5.36946898
_cell_angle_alpha   90.00056585
_cell_angle_beta   90.00000606
_cell_angle_gamma   120.00027581
_symmetry_Int_Tables_number   1
_chemical_formula_structural   Sm2TeO6
_chemical_formula_sum   'Sm6 Te3 O18'
_cell_volume   400.85925608
_cell_formula_units_Z   3
loop_
 _symmetry_equiv_pos_site_id
 _symmetry_equiv_pos_as_xyz
  1  'x, y, z'
loop_
 _atom_site_type_symbol
 _atom_site_label
 _atom_site_symmetry_multiplicity
 _atom_site_fract_x
 _atom_site_fract_y
 _atom_site_fract_z
 _atom_site_occupancy
  Sm  Sm0  1  0.99999275  0.61393539  0.99999427  1
  Sm  Sm1  1  0.00000750  0.27637505  0.50001765  1
  Sm  Sm2  1  0.38605813  0.38606511  0.00000596  1
  Sm  Sm3  1  0.27634864  0.00000009  0.49999943  1
  Sm  Sm4  1  0.72363163  0.72362508  0.49998203  1
  Sm  Sm5  1  0.61391556  0.00000026  -0.00000026  1
  Te  Te6  1  0.33332210  0.66665704  0.49890690  1
  Te  Te7  1  0.00002392  0.00000017  0.99999963  1
  Te  Te8  1  0.66666478  0.33334248  0.50109244  1
  O  O9  1  0.07188329  0.87612474  0.79201826  1
  O  O10  1  0.22701736  0.75942080  0.28866323  1
  O  O11  1  0.13692552  0.54300863  0.70881188  1
  O  O12  1  0.40609178  0.86307247  0.70881335  1
  O  O13  1  0.24056686  0.46759159  0.28865634  1
  O  O14  1  0.12386821  0.19575660  0.79198426  1
  O  O15  1  0.19575889  0.12387452  0.20798200  1
  O  O16  1  0.53240527  0.77297578  0.28862469  1
  O  O17  1  0.45698540  0.59390559  0.70879602  1
  O  O18  1  0.80419198  0.92808292  0.79200753  1
  O  O19  1  0.46759716  0.24058037  0.71133729  1
  O  O20  1  0.59391819  0.45699108  0.29118772  1
  O  O21  1  0.54301960  0.13692807  0.29118703  1
  O  O22  1  0.77297466  0.53240809  0.71134455  1
  O  O23  1  0.92811126  0.80424288  0.20801542  1
  O  O24  1  0.75942931  0.22702488  0.71137619  1
  O  O25  1  0.86308039  0.40609431  0.29120414  1
  O  O26  1  0.87610886  0.07191701  0.20799205  1
