# generated using pymatgen
data_V3(O2F)2
_symmetry_space_group_name_H-M   'P 1'
_cell_length_a   4.69184548
_cell_length_b   7.74426381
_cell_length_c   5.55017161
_cell_angle_alpha   94.77300244
_cell_angle_beta   90.00000000
_cell_angle_gamma   90.00000000
_symmetry_Int_Tables_number   1
_chemical_formula_structural   V3(O2F)2
_chemical_formula_sum   'V6 O8 F4'
_cell_volume   200.96553238
_cell_formula_units_Z   2
loop_
 _symmetry_equiv_pos_site_id
 _symmetry_equiv_pos_as_xyz
  1  'x, y, z'
loop_
 _atom_site_type_symbol
 _atom_site_label
 _atom_site_symmetry_multiplicity
 _atom_site_fract_x
 _atom_site_fract_y
 _atom_site_fract_z
 _atom_site_occupancy
  V  V0  1  0.50727763  0.66247792  0.14865652  1
  V  V1  1  0.48179554  0.01214295  0.48986100  1
  V  V2  1  0.51445631  0.35662675  0.82021764  1
  V  V3  1  0.00727763  0.67085508  0.68467748  1
  V  V4  1  0.98179554  0.32119005  0.34347200  1
  V  V5  1  0.01445631  0.97670625  0.01311536  1
  O  O6  1  0.79875792  0.44562007  0.63033755  1
  O  O7  1  0.80817443  0.08757243  0.28819307  1
  O  O8  1  0.79958377  0.76940098  0.97658489  1
  O  O9  1  0.69374029  0.41966476  0.11823493  1
  O  O10  1  0.29958377  0.56393302  0.85674811  1
  O  O11  1  0.30817443  0.24576057  0.54514093  1
  O  O12  1  0.29875792  0.88771293  0.20299545  1
  O  O13  1  0.19374029  0.91366824  0.71509907  1
  F  F14  1  0.70325264  0.10902181  0.79920507  1
  F  F15  1  0.69296148  0.76878327  0.47232443  1
  F  F16  1  0.20325264  0.22431119  0.03412893  1
  F  F17  1  0.19296148  0.56455073  0.36100857  1
