# generated using pymatgen
data_LiCr(PO3)3
_symmetry_space_group_name_H-M   'P 1'
_cell_length_a   8.41278000
_cell_length_b   8.75550129
_cell_length_c   9.06685599
_cell_angle_alpha   90.00000000
_cell_angle_beta   90.00000000
_cell_angle_gamma   90.00000000
_symmetry_Int_Tables_number   1
_chemical_formula_structural   LiCr(PO3)3
_chemical_formula_sum   'Li4 Cr4 P12 O36'
_cell_volume   667.84744089
_cell_formula_units_Z   4
loop_
 _symmetry_equiv_pos_site_id
 _symmetry_equiv_pos_as_xyz
  1  'x, y, z'
loop_
 _atom_site_type_symbol
 _atom_site_label
 _atom_site_symmetry_multiplicity
 _atom_site_fract_x
 _atom_site_fract_y
 _atom_site_fract_z
 _atom_site_occupancy
  Li  Li0  1  0.15468475  0.13353581  0.38222849  1
  Li  Li1  1  0.34531525  0.86646419  0.88222849  1
  Li  Li2  1  0.65468475  0.36646419  0.61777151  1
  Li  Li3  1  0.84531525  0.63353581  0.11777151  1
  Cr  Cr4  1  0.12942435  0.85401571  0.16207741  1
  Cr  Cr5  1  0.37057565  0.14598429  0.66207741  1
  Cr  Cr6  1  0.62942435  0.64598429  0.83792259  1
  Cr  Cr7  1  0.87057565  0.35401571  0.33792259  1
  P  P8  1  0.02916406  0.32181350  0.68543109  1
  P  P9  1  0.18636002  0.47796713  0.18880169  1
  P  P10  1  0.20082259  0.80778682  0.56487540  1
  P  P11  1  0.29917741  0.19221318  0.06487540  1
  P  P12  1  0.31363998  0.52203287  0.68880169  1
  P  P13  1  0.47083594  0.67818650  0.18543109  1
  P  P14  1  0.52916406  0.17818650  0.31456891  1
  P  P15  1  0.68636002  0.02203287  0.81119831  1
  P  P16  1  0.70082259  0.69221318  0.43512460  1
  P  P17  1  0.79917741  0.30778682  0.93512460  1
  P  P18  1  0.81363998  0.97796713  0.31119831  1
  P  P19  1  0.97083594  0.82181350  0.81456891  1
  O  O20  1  0.03743983  0.77347974  0.65553758  1
  O  O21  1  0.08879809  0.60926130  0.13250307  1
  O  O22  1  0.10357113  0.87272205  0.91234666  1
  O  O23  1  0.11848180  0.38552165  0.31569683  1
  O  O24  1  0.13430224  0.19576334  0.62529623  1
  O  O25  1  0.14001668  0.46390321  0.73643570  1
  O  O26  1  0.15918598  0.85855733  0.41278439  1
  O  O27  1  0.18988254  0.09527894  0.15819859  1
  O  O28  1  0.22806840  0.36446093  0.05396027  1
  O  O29  1  0.27193160  0.63553907  0.55396027  1
  O  O30  1  0.31011746  0.90472106  0.65819859  1
  O  O31  1  0.34081402  0.14144267  0.91278439  1
  O  O32  1  0.35998332  0.53609679  0.23643570  1
  O  O33  1  0.36569776  0.80423666  0.12529623  1
  O  O34  1  0.38151820  0.61447835  0.81569683  1
  O  O35  1  0.39642887  0.12727795  0.41234666  1
  O  O36  1  0.41120191  0.39073870  0.63250307  1
  O  O37  1  0.46256017  0.22652026  0.15553758  1
  O  O38  1  0.53743983  0.72652026  0.34446242  1
  O  O39  1  0.58879809  0.89073870  0.86749693  1
  O  O40  1  0.60357113  0.62727795  0.08765334  1
  O  O41  1  0.61848180  0.11447835  0.68430317  1
  O  O42  1  0.63430224  0.30423666  0.37470377  1
  O  O43  1  0.64001668  0.03609679  0.26356430  1
  O  O44  1  0.65918598  0.64144267  0.58721561  1
  O  O45  1  0.68988254  0.40472106  0.84180141  1
  O  O46  1  0.72806840  0.13553907  0.94603973  1
  O  O47  1  0.77193160  0.86446093  0.44603973  1
  O  O48  1  0.81011746  0.59527894  0.34180141  1
  O  O49  1  0.84081402  0.35855733  0.08721561  1
  O  O50  1  0.85998332  0.96390321  0.76356430  1
  O  O51  1  0.86569776  0.69576334  0.87470377  1
  O  O52  1  0.88151820  0.88552165  0.18430317  1
  O  O53  1  0.89642887  0.37272205  0.58765334  1
  O  O54  1  0.91120191  0.10926130  0.36749693  1
  O  O55  1  0.96256017  0.27347974  0.84446242  1
