# generated using pymatgen
data_BaP4O11
_symmetry_space_group_name_H-M   'P 1'
_cell_length_a   10.38307623
_cell_length_b   10.44117471
_cell_length_c   11.85012199
_cell_angle_alpha   67.57787043
_cell_angle_beta   110.97491148
_cell_angle_gamma   94.14218192
_symmetry_Int_Tables_number   1
_chemical_formula_structural   BaP4O11
_chemical_formula_sum   'Ba4 P16 O44'
_cell_volume   1105.79271856
_cell_formula_units_Z   4
loop_
 _symmetry_equiv_pos_site_id
 _symmetry_equiv_pos_as_xyz
  1  'x, y, z'
loop_
 _atom_site_type_symbol
 _atom_site_label
 _atom_site_symmetry_multiplicity
 _atom_site_fract_x
 _atom_site_fract_y
 _atom_site_fract_z
 _atom_site_occupancy
  Ba  Ba0  1  0.24759542  0.77969382  0.98244986  1
  Ba  Ba1  1  0.72976763  0.73378490  0.49658988  1
  Ba  Ba2  1  0.27023237  0.26621510  0.50341012  1
  Ba  Ba3  1  0.75240458  0.22030618  0.01755014  1
  P  P4  1  0.09051658  0.56779156  0.77552158  1
  P  P5  1  0.23683750  0.90175919  0.43141201  1
  P  P6  1  0.08806789  0.25319179  0.92364954  1
  P  P7  1  0.60324795  0.77376958  0.90063010  1
  P  P8  1  0.26278782  0.59194237  0.61298794  1
  P  P9  1  0.37574200  0.93115356  0.23746303  1
  P  P10  1  0.06370849  0.13743657  0.71076838  1
  P  P11  1  0.55688452  0.58819064  0.74605188  1
  P  P12  1  0.44311548  0.41180936  0.25394812  1
  P  P13  1  0.93629151  0.86256343  0.28923162  1
  P  P14  1  0.62425800  0.06884644  0.76253697  1
  P  P15  1  0.73721218  0.40805763  0.38701206  1
  P  P16  1  0.39675205  0.22623042  0.09936990  1
  P  P17  1  0.91193211  0.74680821  0.07635046  1
  P  P18  1  0.76316250  0.09824081  0.56858799  1
  P  P19  1  0.90948342  0.43220844  0.22447842  1
  O  O20  1  0.98141760  0.79700846  0.98037208  1
  O  O21  1  0.17061539  0.02023797  0.76878662  1
  O  O22  1  0.08706371  0.92762455  0.32601442  1
  O  O23  1  0.21298894  0.59279275  0.87613835  1
  O  O24  1  0.04437859  0.41032376  0.83322693  1
  O  O25  1  0.48833901  0.77810133  0.94413997  1
  O  O26  1  0.24138346  0.75796327  0.54704525  1
  O  O27  1  0.60719722  0.90404855  0.77727501  1
  O  O28  1  0.14012129  0.54942255  0.66427751  1
  O  O29  1  0.33549674  0.87124277  0.36892250  1
  O  O30  1  0.05093261  0.17481708  0.82882188  1
  O  O31  1  0.25342873  0.24111875  0.98158900  1
  O  O32  1  0.25527266  0.93104585  0.12167099  1
  O  O33  1  0.39592954  0.56277179  0.74168495  1
  O  O34  1  0.61323790  0.64541983  0.86574219  1
  O  O35  1  0.72559694  0.98546857  0.52009610  1
  O  O36  1  0.26863147  0.52268883  0.52731381  1
  O  O37  1  0.06658344  0.26611157  0.59948891  1
  O  O38  1  0.55172888  0.70201775  0.62082821  1
  O  O39  1  0.51189237  0.85971772  0.27511017  1
  O  O40  1  0.03952101  0.34117192  0.29000916  1
  O  O41  1  0.36556134  0.54784140  0.20325834  1
  O  O42  1  0.63443866  0.45215860  0.79674166  1
  O  O43  1  0.96047899  0.65882808  0.70999084  1
  O  O44  1  0.48810763  0.14028228  0.72488983  1
  O  O45  1  0.44827112  0.29798225  0.37917179  1
  O  O46  1  0.93341656  0.73388843  0.40051109  1
  O  O47  1  0.73136853  0.47731117  0.47268619  1
  O  O48  1  0.27440306  0.01453143  0.47990390  1
  O  O49  1  0.38676210  0.35458017  0.13425781  1
  O  O50  1  0.60407046  0.43722821  0.25831505  1
  O  O51  1  0.74472734  0.06895415  0.87832901  1
  O  O52  1  0.74657127  0.75888125  0.01841100  1
  O  O53  1  0.94906739  0.82518292  0.17117812  1
  O  O54  1  0.66450326  0.12875723  0.63107750  1
  O  O55  1  0.85987871  0.45057745  0.33572249  1
  O  O56  1  0.39280278  0.09595145  0.22272499  1
  O  O57  1  0.75861654  0.24203673  0.45295475  1
  O  O58  1  0.51166099  0.22189867  0.05586003  1
  O  O59  1  0.95562141  0.58967624  0.16677307  1
  O  O60  1  0.78701106  0.40720725  0.12386165  1
  O  O61  1  0.91293629  0.07237545  0.67398558  1
  O  O62  1  0.82938461  0.97976203  0.23121338  1
  O  O63  1  0.01858240  0.20299154  0.01962792  1
