# generated using pymatgen
data_Sr5W3O14
_symmetry_space_group_name_H-M   'P 1'
_cell_length_a   10.91244064
_cell_length_b   7.68831996
_cell_length_c   11.07539212
_cell_angle_alpha   90.07833776
_cell_angle_beta   90.11038520
_cell_angle_gamma   44.79139607
_symmetry_Int_Tables_number   1
_chemical_formula_structural   Sr5W3O14
_chemical_formula_sum   'Sr10 W6 O28'
_cell_volume   654.65077963
_cell_formula_units_Z   2
loop_
 _symmetry_equiv_pos_site_id
 _symmetry_equiv_pos_as_xyz
  1  'x, y, z'
loop_
 _atom_site_type_symbol
 _atom_site_label
 _atom_site_symmetry_multiplicity
 _atom_site_fract_x
 _atom_site_fract_y
 _atom_site_fract_z
 _atom_site_occupancy
  Sr  Sr0  1  0.00725943  0.99339041  0.50547627  1
  Sr  Sr1  1  0.50064984  0.00660959  0.00547627  1
  Sr  Sr2  1  0.75245182  0.49630022  0.22601154  1
  Sr  Sr3  1  0.74875204  0.50369978  0.72601154  1
  Sr  Sr4  1  0.72769902  0.02611858  0.26114776  1
  Sr  Sr5  1  0.25381760  0.97388142  0.76114776  1
  Sr  Sr6  1  0.76249404  0.97407973  0.74990599  1
  Sr  Sr7  1  0.23657377  0.02592027  0.24990599  1
  Sr  Sr8  1  0.24735030  0.50675790  0.27618913  1
  Sr  Sr9  1  0.25410819  0.49324210  0.77618913  1
  W  W10  1  0.99702544  0.99923241  0.00125584  1
  W  W11  1  0.49625785  0.00076759  0.50125584  1
  W  W12  1  0.49742674  0.50323285  0.00141507  1
  W  W13  1  0.50065959  0.49676715  0.50141507  1
  W  W14  1  0.00272299  0.49383120  0.00258432  1
  W  W15  1  0.99655419  0.50616880  0.50258432  1
  O  O16  1  0.54974666  0.91069638  0.33375213  1
  O  O17  1  0.96044404  0.08930362  0.83375213  1
  O  O18  1  0.50299372  0.24624924  0.45703066  1
  O  O19  1  0.24924296  0.75375076  0.95703066  1
  O  O20  1  0.00516668  0.24367610  0.04392773  1
  O  O21  1  0.74884278  0.75632390  0.54392773  1
  O  O22  1  0.47085911  0.35875029  0.12830697  1
  O  O23  1  0.32960939  0.64124971  0.62830697  1
  O  O24  1  0.97054829  0.36363758  0.37466097  1
  O  O25  1  0.83418487  0.63636242  0.87466097  1
  O  O26  1  0.30324759  0.72653758  0.39314274  1
  O  O27  1  0.52978517  0.27346242  0.89314274  1
  O  O28  1  0.80800978  0.72144851  0.11187518  1
  O  O29  1  0.02945929  0.27855149  0.61187518  1
  O  O30  1  0.69708917  0.27792541  0.61112497  1
  O  O31  1  0.47501358  0.72207459  0.11112497  1
  O  O32  1  0.20117310  0.27365873  0.89346502  1
  O  O33  1  0.97483183  0.72634127  0.39346502  1
  O  O34  1  0.53207014  0.63829253  0.87553076  1
  O  O35  1  0.67036367  0.36170747  0.37553076  1
  O  O36  1  0.03166231  0.64433970  0.62751902  1
  O  O37  1  0.17600200  0.35566030  0.12751902  1
  O  O38  1  0.75327746  0.24257017  0.04411931  1
  O  O39  1  0.49584763  0.75742983  0.54411931  1
  O  O40  1  0.25241737  0.24509447  0.45841602  1
  O  O41  1  0.99751185  0.75490553  0.95841602  1
  O  O42  1  0.05141717  0.91238735  0.16825159  1
  O  O43  1  0.46380552  0.08761265  0.66825159  1
