# generated using pymatgen
data_FeNi(PS3)2
_symmetry_space_group_name_H-M   'P 1'
_cell_length_a   5.90435219
_cell_length_b   5.87388578
_cell_length_c   6.86912137
_cell_angle_alpha   82.22690732
_cell_angle_beta   74.38900638
_cell_angle_gamma   59.82827808
_symmetry_Int_Tables_number   1
_chemical_formula_structural   FeNi(PS3)2
_chemical_formula_sum   'Fe1 Ni1 P2 S6'
_cell_volume   198.35894695
_cell_formula_units_Z   1
loop_
 _symmetry_equiv_pos_site_id
 _symmetry_equiv_pos_as_xyz
  1  'x, y, z'
loop_
 _atom_site_type_symbol
 _atom_site_label
 _atom_site_symmetry_multiplicity
 _atom_site_fract_x
 _atom_site_fract_y
 _atom_site_fract_z
 _atom_site_occupancy
  Fe  Fe0  1  0.34374965  0.31250070  0.00000000  1
  Ni  Ni1  1  0.66309824  0.67380351  1.00000000  1
  P  P2  1  0.94231100  0.00119538  0.16549174  1
  P  P3  1  0.05649362  0.00119538  0.83450826  1
  S  S4  1  0.26101637  0.99387017  0.24022319  1
  S  S5  1  0.74511346  0.99387017  0.75977681  1
  S  S6  1  0.91390090  0.66554234  0.23430896  1
  S  S7  1  0.58393649  0.34624000  0.23191416  1
  S  S8  1  0.06982351  0.34624000  0.76808584  1
  S  S9  1  0.42055676  0.66554234  0.76569104  1
