# generated using pymatgen
data_Na2Co2O3
_symmetry_space_group_name_H-M   'P 1'
_cell_length_a   8.39552803
_cell_length_b   8.39552803
_cell_length_c   5.64786714
_cell_angle_alpha   71.71429243
_cell_angle_beta   108.28570757
_cell_angle_gamma   96.73062907
_symmetry_Int_Tables_number   1
_chemical_formula_structural   Na2Co2O3
_chemical_formula_sum   'Na8 Co8 O12'
_cell_volume   358.82265891
_cell_formula_units_Z   4
loop_
 _symmetry_equiv_pos_site_id
 _symmetry_equiv_pos_as_xyz
  1  'x, y, z'
loop_
 _atom_site_type_symbol
 _atom_site_label
 _atom_site_symmetry_multiplicity
 _atom_site_fract_x
 _atom_site_fract_y
 _atom_site_fract_z
 _atom_site_occupancy
  Na  Na0  1  0.18040278  0.00697755  0.58507732  1
  Na  Na1  1  0.99302245  0.81959722  0.08507732  1
  Na  Na2  1  0.28889508  0.28889508  0.75000000  1
  Na  Na3  1  0.57525243  0.57525243  0.75000000  1
  Na  Na4  1  0.42474757  0.42474757  0.25000000  1
  Na  Na5  1  0.71110492  0.71110492  0.25000000  1
  Na  Na6  1  0.00697755  0.18040278  0.91492268  1
  Na  Na7  1  0.81959722  0.99302245  0.41492268  1
  Co  Co8  1  0.21790607  0.64506582  0.69709996  1
  Co  Co9  1  0.55113683  0.91325326  0.75046385  1
  Co  Co10  1  0.35493418  0.78209393  0.19709996  1
  Co  Co11  1  0.08674674  0.44886317  0.25046385  1
  Co  Co12  1  0.91325326  0.55113683  0.74953615  1
  Co  Co13  1  0.64506582  0.21790607  0.80290004  1
  Co  Co14  1  0.44886317  0.08674674  0.24953615  1
  Co  Co15  1  0.78209393  0.35493418  0.30290004  1
  O  O16  1  0.43083693  0.71853653  0.93496511  1
  O  O17  1  0.14387237  0.43360782  0.94016101  1
  O  O18  1  0.76522194  0.00342271  0.94412067  1
  O  O19  1  0.28146347  0.56916307  0.43496511  1
  O  O20  1  0.56639218  0.85612763  0.44016101  1
  O  O21  1  0.99657729  0.23477806  0.44412067  1
  O  O22  1  0.00342271  0.76522194  0.55587933  1
  O  O23  1  0.43360782  0.14387237  0.55983899  1
  O  O24  1  0.71853653  0.43083693  0.56503489  1
  O  O25  1  0.23477806  0.99657729  0.05587933  1
  O  O26  1  0.85612763  0.56639218  0.05983899  1
  O  O27  1  0.56916307  0.28146347  0.06503489  1
