# generated using pymatgen
data_Li3V2P4(HO8)2
_symmetry_space_group_name_H-M   'P 1'
_cell_length_a   9.74926861
_cell_length_b   8.08138800
_cell_length_c   7.55483800
_cell_angle_alpha   90.00000000
_cell_angle_beta   104.72194634
_cell_angle_gamma   90.00000000
_symmetry_Int_Tables_number   1
_chemical_formula_structural   Li3V2P4(HO8)2
_chemical_formula_sum   'Li6 V4 P8 H4 O32'
_cell_volume   575.68668498
_cell_formula_units_Z   2
loop_
 _symmetry_equiv_pos_site_id
 _symmetry_equiv_pos_as_xyz
  1  'x, y, z'
loop_
 _atom_site_type_symbol
 _atom_site_label
 _atom_site_symmetry_multiplicity
 _atom_site_fract_x
 _atom_site_fract_y
 _atom_site_fract_z
 _atom_site_occupancy
  Li  Li0  1  0.05253325  0.37051683  0.65374174  1
  Li  Li1  1  0.30004141  0.13643831  0.15253868  1
  Li  Li2  1  0.44995859  0.63643831  0.34746132  1
  Li  Li3  1  0.69746675  0.87051683  0.84625826  1
  Li  Li4  1  0.80006610  0.13137849  0.15250688  1
  Li  Li5  1  0.94993390  0.63137849  0.34749312  1
  V  V6  1  0.24934587  0.50462753  0.00100084  1
  V  V7  1  0.50065413  0.00462753  0.49899916  1
  V  V8  1  0.74765199  0.49696906  0.99195693  1
  V  V9  1  0.00234801  0.99696906  0.50804307  1
  P  P10  1  0.06301000  0.34690261  0.26698323  1
  P  P11  1  0.18240932  0.85036327  0.23435454  1
  P  P12  1  0.31243553  0.15194104  0.75998043  1
  P  P13  1  0.43756447  0.65194104  0.74001957  1
  P  P14  1  0.56759068  0.35036327  0.26564546  1
  P  P15  1  0.68699000  0.84690261  0.23301677  1
  P  P16  1  0.81687654  0.15577276  0.76795133  1
  P  P17  1  0.93312346  0.65577276  0.73204867  1
  H  H18  1  0.27204735  0.50970768  0.51836272  1
  H  H19  1  0.47795265  0.00970768  0.98163728  1
  H  H20  1  0.74177791  0.49411928  0.49121228  1
  H  H21  1  0.00822209  0.99411928  0.00878772  1
  O  O22  1  0.06017278  0.55230998  0.83950387  1
  O  O23  1  0.00550922  0.17758678  0.31235821  1
  O  O24  1  0.07608279  0.82723828  0.35694410  1
  O  O25  1  0.12331368  0.44526079  0.44333986  1
  O  O26  1  0.18235233  0.04901844  0.64650925  1
  O  O27  1  0.25380925  0.31570987  0.80996593  1
  O  O28  1  0.11530466  0.94660830  0.05632026  1
  O  O29  1  0.17041211  0.32658195  0.14849211  1
  O  O30  1  0.33002212  0.66798609  0.85378703  1
  O  O31  1  0.37575332  0.05850713  0.94548467  1
  O  O32  1  0.23947271  0.68208418  0.19287373  1
  O  O33  1  0.30833959  0.95903193  0.33699344  1
  O  O34  1  0.37424668  0.55850713  0.55451533  1
  O  O35  1  0.41997788  0.16798609  0.64621297  1
  O  O36  1  0.49619075  0.81570987  0.69003407  1
  O  O37  1  0.56764767  0.54901844  0.85349075  1
  O  O38  1  0.44166041  0.45903193  0.16300656  1
  O  O39  1  0.51052729  0.18208418  0.30712627  1
  O  O40  1  0.57958789  0.82658195  0.35150789  1
  O  O41  1  0.63469534  0.44660830  0.44367974  1
  O  O42  1  0.68982722  0.05230998  0.66049613  1
  O  O43  1  0.77369778  0.33067454  0.81710209  1
  O  O44  1  0.62668632  0.94526079  0.05666014  1
  O  O45  1  0.67391721  0.32723828  0.14305590  1
  O  O46  1  0.82501216  0.67409411  0.85263501  1
  O  O47  1  0.87674905  0.05965359  0.94678865  1
  O  O48  1  0.74449078  0.67758678  0.18764179  1
  O  O49  1  0.81638749  0.95188315  0.34793449  1
  O  O50  1  0.87325095  0.55965359  0.55321135  1
  O  O51  1  0.92498784  0.17409411  0.64736499  1
  O  O52  1  0.97630222  0.83067454  0.68289791  1
  O  O53  1  0.93361251  0.45188315  0.15206551  1
