# generated using pymatgen
data_Na6NiO4
_symmetry_space_group_name_H-M   'P 1'
_cell_length_a   7.64865378
_cell_length_b   7.67749706
_cell_length_c   5.87871955
_cell_angle_alpha   89.76985500
_cell_angle_beta   90.11549897
_cell_angle_gamma   120.12482315
_symmetry_Int_Tables_number   1
_chemical_formula_structural   Na6NiO4
_chemical_formula_sum   'Na12 Ni2 O8'
_cell_volume   298.58425365
_cell_formula_units_Z   2
loop_
 _symmetry_equiv_pos_site_id
 _symmetry_equiv_pos_as_xyz
  1  'x, y, z'
loop_
 _atom_site_type_symbol
 _atom_site_label
 _atom_site_symmetry_multiplicity
 _atom_site_fract_x
 _atom_site_fract_y
 _atom_site_fract_z
 _atom_site_occupancy
  Na  Na0  1  0.14194529  0.85843186  0.96741885  1
  Na  Na1  1  0.07561416  0.53773541  0.63489885  1
  Na  Na2  1  0.14226287  0.28397897  0.96753048  1
  Na  Na3  1  0.46335636  0.92660294  0.63554841  1
  Na  Na4  1  0.46223149  0.53774144  0.63441560  1
  Na  Na5  1  0.28437494  0.14207856  0.46782639  1
  Na  Na6  1  0.71562506  0.85770261  0.96782639  1
  Na  Na7  1  0.53664364  0.46324659  0.13554841  1
  Na  Na8  1  0.53776851  0.07550995  0.13441560  1
  Na  Na9  1  0.85805471  0.71648757  0.46741885  1
  Na  Na10  1  0.92438584  0.46212125  0.13489885  1
  Na  Na11  1  0.85773713  0.14171610  0.46753048  1
  Ni  Ni12  1  0.33369959  0.66656510  0.24329839  1
  Ni  Ni13  1  0.66630041  0.33286450  0.74329839  1
  O  O14  1  0.18738247  0.81261038  0.35706584  1
  O  O15  1  0.19125332  0.37885794  0.35449372  1
  O  O16  1  0.33391109  0.66516266  0.90638822  1
  O  O17  1  0.62095555  0.80862981  0.35491525  1
  O  O18  1  0.37904445  0.18767427  0.85491525  1
  O  O19  1  0.81261753  0.62522690  0.85706584  1
  O  O20  1  0.66608891  0.33125157  0.40638822  1
  O  O21  1  0.80874668  0.18760362  0.85449372  1
