# generated using pymatgen
data_Li2Mn(PO3)4
_symmetry_space_group_name_H-M   'P 1'
_cell_length_a   8.07374178
_cell_length_b   9.53097259
_cell_length_c   13.37377924
_cell_angle_alpha   90.00000000
_cell_angle_beta   89.80816983
_cell_angle_gamma   90.00000000
_symmetry_Int_Tables_number   1
_chemical_formula_structural   Li2Mn(PO3)4
_chemical_formula_sum   'Li8 Mn4 P16 O48'
_cell_volume   1029.11472413
_cell_formula_units_Z   4
loop_
 _symmetry_equiv_pos_site_id
 _symmetry_equiv_pos_as_xyz
  1  'x, y, z'
loop_
 _atom_site_type_symbol
 _atom_site_label
 _atom_site_symmetry_multiplicity
 _atom_site_fract_x
 _atom_site_fract_y
 _atom_site_fract_z
 _atom_site_occupancy
  Li  Li0  1  0.13505947  0.30861072  0.82147614  1
  Li  Li1  1  0.36494166  0.80860656  0.67852869  1
  Li  Li2  1  0.50455640  0.75088949  0.48969612  1
  Li  Li3  1  0.49544415  0.24910961  0.51030376  1
  Li  Li4  1  0.63505947  0.19138928  0.32147614  1
  Li  Li5  1  0.86494166  0.69139344  0.17852869  1
  Li  Li6  1  0.00455640  0.74911051  0.98969612  1
  Li  Li7  1  0.99544415  0.25089039  0.01030376  1
  Mn  Mn8  1  0.88044618  0.24987462  0.50462016  1
  Mn  Mn9  1  0.11955243  0.75011879  0.49538254  1
  Mn  Mn10  1  0.38044618  0.25012538  0.00462016  1
  Mn  Mn11  1  0.61955243  0.74988121  0.99538254  1
  P  P12  1  0.83062403  0.50257741  0.86078113  1
  P  P13  1  0.17145713  0.00719725  0.86052943  1
  P  P14  1  0.54606444  0.00986914  0.84634385  1
  P  P15  1  0.45792704  0.50545946  0.84732845  1
  P  P16  1  0.95392920  0.50984225  0.65366189  1
  P  P17  1  0.04207141  0.00547314  0.65266825  1
  P  P18  1  0.66938065  0.00258941  0.63921932  1
  P  P19  1  0.32854367  0.50718774  0.63946936  1
  P  P20  1  0.67145713  0.49280275  0.36052943  1
  P  P21  1  0.33062403  0.99742259  0.36078113  1
  P  P22  1  0.95792704  0.99454054  0.34732845  1
  P  P23  1  0.04606444  0.49013086  0.34634385  1
  P  P24  1  0.54207141  0.49452686  0.15266825  1
  P  P25  1  0.45392920  0.99015775  0.15366189  1
  P  P26  1  0.82854367  0.99281226  0.13946936  1
  P  P27  1  0.16938065  0.49741059  0.13921932  1
  O  O28  1  0.82578058  0.61811751  0.93790158  1
  O  O29  1  0.17604466  0.13677691  0.92664985  1
  O  O30  1  0.44522153  0.61803204  0.92467227  1
  O  O31  1  0.54814364  0.12296034  0.92329869  1
  O  O32  1  0.08958028  0.87663953  0.89383794  1
  O  O33  1  0.92952639  0.37285830  0.88319338  1
  O  O34  1  0.63766015  0.87565471  0.86373776  1
  O  O35  1  0.35318324  0.37586334  0.86064069  1
  O  O36  1  0.64589658  0.45508800  0.82994262  1
  O  O37  1  0.35415292  0.96607187  0.81825021  1
  O  O38  1  0.89708655  0.57654219  0.75938513  1
  O  O39  1  0.08908309  0.07567231  0.75967026  1
  O  O40  1  0.60291524  0.07654531  0.74061645  1
  O  O41  1  0.41091978  0.57567373  0.74032786  1
  O  O42  1  0.14584789  0.46607029  0.68174796  1
  O  O43  1  0.85410560  0.95508773  0.67006105  1
  O  O44  1  0.86234582  0.37565794  0.63626427  1
  O  O45  1  0.14682238  0.87585564  0.63935940  1
  O  O46  1  0.41041014  0.37664496  0.60615853  1
  O  O47  1  0.57047045  0.87285379  0.61681149  1
  O  O48  1  0.95185550  0.62296320  0.57669603  1
  O  O49  1  0.05478135  0.11802235  0.57532938  1
  O  O50  1  0.32395526  0.63678449  0.57334848  1
  O  O51  1  0.67422014  0.11811159  0.56210263  1
  O  O52  1  0.67604466  0.36322309  0.42664985  1
  O  O53  1  0.32578058  0.88188249  0.43790158  1
  O  O54  1  0.94522153  0.88196796  0.42467227  1
  O  O55  1  0.04814364  0.37703966  0.42329869  1
  O  O56  1  0.58958028  0.62336047  0.39383794  1
  O  O57  1  0.42952639  0.12714170  0.38319338  1
  O  O58  1  0.85318324  0.12413666  0.36064069  1
  O  O59  1  0.13766015  0.62434529  0.36373776  1
  O  O60  1  0.85415292  0.53392813  0.31825021  1
  O  O61  1  0.14589658  0.04491200  0.32994262  1
  O  O62  1  0.58908309  0.42432769  0.25967026  1
  O  O63  1  0.39708655  0.92345781  0.25938513  1
  O  O64  1  0.91091978  0.92432627  0.24032786  1
  O  O65  1  0.10291524  0.42345469  0.24061645  1
  O  O66  1  0.64584789  0.03392971  0.18174796  1
  O  O67  1  0.35410560  0.54491227  0.17006105  1
  O  O68  1  0.36234582  0.12434206  0.13626427  1
  O  O69  1  0.64682238  0.62414436  0.13935940  1
  O  O70  1  0.91041014  0.12335504  0.10615853  1
  O  O71  1  0.07047045  0.62714621  0.11681149  1
  O  O72  1  0.55478135  0.38197765  0.07532938  1
  O  O73  1  0.45185550  0.87703680  0.07669603  1
  O  O74  1  0.82395526  0.86321551  0.07334848  1
  O  O75  1  0.17422014  0.38188841  0.06210263  1
