# generated using pymatgen
data_NaV2O4
_symmetry_space_group_name_H-M   'P 1'
_cell_length_a   5.09075789
_cell_length_b   6.05266202
_cell_length_c   11.47921692
_cell_angle_alpha   90.00032622
_cell_angle_beta   90.00427412
_cell_angle_gamma   90.00025161
_symmetry_Int_Tables_number   1
_chemical_formula_structural   NaV2O4
_chemical_formula_sum   'Na4 V8 O16'
_cell_volume   353.70494244
_cell_formula_units_Z   4
loop_
 _symmetry_equiv_pos_site_id
 _symmetry_equiv_pos_as_xyz
  1  'x, y, z'
loop_
 _atom_site_type_symbol
 _atom_site_label
 _atom_site_symmetry_multiplicity
 _atom_site_fract_x
 _atom_site_fract_y
 _atom_site_fract_z
 _atom_site_occupancy
  Na  Na0  1  0.02649568  0.75000530  0.25000844  1
  Na  Na1  1  0.35241626  0.75001472  0.74997184  1
  Na  Na2  1  0.64762290  0.24998267  0.24999826  1
  Na  Na3  1  0.97351790  0.24999648  0.75001363  1
  V  V4  1  0.01059911  0.25000692  0.00789118  1
  V  V5  1  0.98942412  0.74999413  0.99210643  1
  V  V6  1  0.01056947  0.24999798  0.49207332  1
  V  V7  1  0.98939893  0.75000032  0.50791628  1
  V  V8  1  0.50000041  0.49999874  0.99999312  1
  V  V9  1  0.50000673  0.00000111  0.99999061  1
  V  V10  1  0.50000343  0.00001915  0.50001542  1
  V  V11  1  0.50000465  0.49997785  0.50001632  1
  O  O12  1  0.15827746  0.00301881  0.59318991  1
  O  O13  1  0.15827677  0.00299574  0.90682339  1
  O  O14  1  0.15827698  0.49698239  0.59318683  1
  O  O15  1  0.15826557  0.49700466  0.90682051  1
  O  O16  1  0.32375868  0.25000361  0.09405779  1
  O  O17  1  0.32373823  0.24999313  0.40590697  1
  O  O18  1  0.31408587  0.74999833  0.08400063  1
  O  O19  1  0.31405021  0.74999407  0.41601564  1
  O  O20  1  0.68591271  0.25000646  0.58401152  1
  O  O21  1  0.68591520  0.25000225  0.91599463  1
  O  O22  1  0.67626075  0.75000966  0.59406423  1
  O  O23  1  0.67624724  0.74999602  0.90594613  1
  O  O24  1  0.84170495  0.99700342  0.40681949  1
  O  O25  1  0.84170637  0.50299518  0.40682187  1
  O  O26  1  0.84172583  0.99701150  0.09317149  1
  O  O27  1  0.84173759  0.50298941  0.09317411  1
