# generated using pymatgen
data_SrLiLa7(CoO8)2
_symmetry_space_group_name_H-M   'P 1'
_cell_length_a   7.57074889
_cell_length_b   7.57322277
_cell_length_c   6.89290631
_cell_angle_alpha   74.16806529
_cell_angle_beta   74.16239187
_cell_angle_gamma   90.30466564
_symmetry_Int_Tables_number   1
_chemical_formula_structural   SrLiLa7(CoO8)2
_chemical_formula_sum   'Sr1 Li1 La7 Co2 O16'
_cell_volume   364.41851609
_cell_formula_units_Z   1
loop_
 _symmetry_equiv_pos_site_id
 _symmetry_equiv_pos_as_xyz
  1  'x, y, z'
loop_
 _atom_site_type_symbol
 _atom_site_label
 _atom_site_symmetry_multiplicity
 _atom_site_fract_x
 _atom_site_fract_y
 _atom_site_fract_z
 _atom_site_occupancy
  Sr  Sr0  1  0.06549686  0.57281276  0.72195836  1
  Li  Li1  1  0.25037288  0.25195204  0.99503921  1
  La  La2  1  0.57333731  0.06427643  0.72579593  1
  La  La3  1  0.92926207  0.44155784  0.26098195  1
  La  La4  1  0.06379954  0.06280810  0.72323535  1
  La  La5  1  0.43390933  0.43272848  0.28007461  1
  La  La6  1  0.57281510  0.57183212  0.73482365  1
  La  La7  1  0.92843935  0.93019316  0.26789358  1
  La  La8  1  0.43646986  0.92615839  0.27181594  1
  Co  Co9  1  0.74902255  0.24896921  0.00183930  1
  Co  Co10  1  0.25040986  0.75002247  0.00103166  1
  O  O11  1  0.74456727  0.00688482  0.00132732  1
  O  O12  1  0.99140709  0.24864923  0.00436785  1
  O  O13  1  0.66845548  0.16851593  0.32193799  1
  O  O14  1  0.82633942  0.32643681  0.67560258  1
  O  O15  1  0.50530190  0.24487672  0.00434220  1
  O  O16  1  0.74864814  0.48931937  0.00737986  1
  O  O17  1  0.16134593  0.15740989  0.36349753  1
  O  O18  1  0.35122339  0.32893893  0.63804723  1
  O  O19  1  0.65414539  0.65644795  0.37765418  1
  O  O20  1  0.83200091  0.85863369  0.62233739  1
  O  O21  1  0.24943824  0.50599458  0.00501703  1
  O  O22  1  0.49248561  0.75445503  0.00229693  1
  O  O23  1  0.17251623  0.67181842  0.31575329  1
  O  O24  1  0.33651462  0.83641999  0.67277087  1
  O  O25  1  0.00814639  0.74850419  0.00261886  1
  O  O26  1  0.25412529  0.99338245  0.00055833  1
