# generated using pymatgen
data_Fe3Ni2P6WO24
_symmetry_space_group_name_H-M   'P 1'
_cell_length_a   8.53637883
_cell_length_b   8.65738733
_cell_length_c   8.65738748
_cell_angle_alpha   60.00000080
_cell_angle_beta   59.52995735
_cell_angle_gamma   59.52996121
_symmetry_Int_Tables_number   1
_chemical_formula_structural   Fe3Ni2P6WO24
_chemical_formula_sum   'Fe3 Ni2 P6 W1 O24'
_cell_volume   449.16929108
_cell_formula_units_Z   1
loop_
 _symmetry_equiv_pos_site_id
 _symmetry_equiv_pos_as_xyz
  1  'x, y, z'
loop_
 _atom_site_type_symbol
 _atom_site_label
 _atom_site_symmetry_multiplicity
 _atom_site_fract_x
 _atom_site_fract_y
 _atom_site_fract_z
 _atom_site_occupancy
  Fe  Fe0  1  0.07030202  0.64323266  0.64323266  1
  Fe  Fe1  1  0.43509964  0.85496645  0.85496645  1
  Fe  Fe2  1  0.93082935  0.35639055  0.35639055  1
  Ni  Ni3  1  0.01634394  0.99455202  0.99455202  1
  Ni  Ni4  1  0.50303911  0.49898730  0.49898730  1
  P  P5  1  0.24383814  0.25375292  0.54965602  1
  P  P6  1  0.24383814  0.95275291  0.25375292  1
  P  P7  1  0.24383814  0.54965602  0.95275291  1
  P  P8  1  0.74914072  0.46068901  0.04570768  1
  P  P9  1  0.74914072  0.04570768  0.74446259  1
  P  P10  1  0.74914072  0.74446259  0.46068901  1
  W  W11  1  0.57289512  0.14236796  0.14236796  1
  O  O12  1  0.06697385  0.10930403  0.32177905  1
  O  O13  1  0.06697385  0.50194307  0.10930403  1
  O  O14  1  0.06697385  0.32177905  0.50194307  1
  O  O15  1  0.22615787  0.09087011  0.74249667  1
  O  O16  1  0.43096363  0.17952500  0.38946097  1
  O  O17  1  0.27979564  0.40994918  0.55327723  1
  O  O18  1  0.22615787  0.94047534  0.09087011  1
  O  O19  1  0.27979564  0.75697794  0.40994918  1
  O  O20  1  0.56612186  0.61002071  0.00338694  1
  O  O21  1  0.27979564  0.55327723  0.75697794  1
  O  O22  1  0.76970638  0.25683334  0.06470260  1
  O  O23  1  0.56612186  0.00338694  0.82046949  1
  O  O24  1  0.43096363  0.00005040  0.17952500  1
  O  O25  1  0.22615787  0.74249667  0.94047534  1
  O  O26  1  0.72482314  0.44079678  0.24391115  1
  O  O27  1  0.43096363  0.38946097  0.00005040  1
  O  O28  1  0.72482314  0.24391115  0.59046793  1
  O  O29  1  0.76970638  0.06470260  0.90875868  1
  O  O30  1  0.72482314  0.59046793  0.44079678  1
  O  O31  1  0.56612186  0.82046949  0.61002071  1
  O  O32  1  0.76970638  0.90875868  0.25683334  1
  O  O33  1  0.93297569  0.68728446  0.49253782  1
  O  O34  1  0.93297569  0.49253782  0.88720202  1
  O  O35  1  0.93297569  0.88720202  0.68728446  1
