# generated using pymatgen
data_NiS2
_symmetry_space_group_name_H-M   'P 1'
_cell_length_a   5.44602920
_cell_length_b   4.79205639
_cell_length_c   5.35066314
_cell_angle_alpha   90.04787785
_cell_angle_beta   90.00799229
_cell_angle_gamma   42.50640441
_symmetry_Int_Tables_number   1
_chemical_formula_structural   NiS2
_chemical_formula_sum   'Ni2 S4'
_cell_volume   94.35079265
_cell_formula_units_Z   2
loop_
 _symmetry_equiv_pos_site_id
 _symmetry_equiv_pos_as_xyz
  1  'x, y, z'
loop_
 _atom_site_type_symbol
 _atom_site_label
 _atom_site_symmetry_multiplicity
 _atom_site_fract_x
 _atom_site_fract_y
 _atom_site_fract_z
 _atom_site_occupancy
  Ni  Ni0  1  0.75467735  0.49317669  0.16572199  1
  Ni  Ni1  1  0.24624498  0.50515166  0.66615826  1
  S  S2  1  0.26151404  0.66760364  0.05180880  1
  S  S3  1  0.75919799  0.67027266  0.78252617  1
  S  S4  1  0.24093250  0.32986387  0.28229624  1
  S  S5  1  0.73743314  0.33393148  0.55148854  1
