# generated using pymatgen
data_V3O5F
_symmetry_space_group_name_H-M   'P 1'
_cell_length_a   4.62212678
_cell_length_b   7.61356122
_cell_length_c   5.50706800
_cell_angle_alpha   94.15850625
_cell_angle_beta   90.00000000
_cell_angle_gamma   90.00000000
_symmetry_Int_Tables_number   1
_chemical_formula_structural   V3O5F
_chemical_formula_sum   'V6 O10 F2'
_cell_volume   193.28815564
_cell_formula_units_Z   2
loop_
 _symmetry_equiv_pos_site_id
 _symmetry_equiv_pos_as_xyz
  1  'x, y, z'
loop_
 _atom_site_type_symbol
 _atom_site_label
 _atom_site_symmetry_multiplicity
 _atom_site_fract_x
 _atom_site_fract_y
 _atom_site_fract_z
 _atom_site_occupancy
  V  V0  1  0.52784209  0.67324987  0.16557310  1
  V  V1  1  0.48799248  0.99792127  0.48790390  1
  V  V2  1  0.49173376  0.35100237  0.83440895  1
  V  V3  1  0.98799248  0.66874573  0.67876310  1
  V  V4  1  0.99173376  0.31566363  0.33225705  1
  V  V5  1  0.02784209  0.99341713  0.00109390  1
  O  O6  1  0.79098980  0.42520983  0.63464542  1
  O  O7  1  0.80716232  0.09515550  0.28759398  1
  O  O8  1  0.79704579  0.77920863  0.97465117  1
  O  O9  1  0.69471752  0.75814381  0.46155590  1
  O  O10  1  0.70526718  0.43727832  0.13684272  1
  O  O11  1  0.30716232  0.57151050  0.87907202  1
  O  O12  1  0.29098980  0.24145717  0.53202158  1
  O  O13  1  0.29704579  0.88745837  0.19201483  1
  O  O14  1  0.20526718  0.22938868  0.02982328  1
  O  O15  1  0.19471752  0.90852319  0.70511010  1
  F  F16  1  0.69725006  0.10438659  0.79970774  1
  F  F17  1  0.19725006  0.56228041  0.36695826  1
