# generated using pymatgen
data_VS2
_symmetry_space_group_name_H-M   'P 1'
_cell_length_a   3.19070967
_cell_length_b   22.78797821
_cell_length_c   3.19260754
_cell_angle_alpha   87.81114788
_cell_angle_beta   59.96598875
_cell_angle_gamma   88.32216764
_symmetry_Int_Tables_number   1
_chemical_formula_structural   VS2
_chemical_formula_sum   'V2 S4'
_cell_volume   200.80445534
_cell_formula_units_Z   2
loop_
 _symmetry_equiv_pos_site_id
 _symmetry_equiv_pos_as_xyz
  1  'x, y, z'
loop_
 _atom_site_type_symbol
 _atom_site_label
 _atom_site_symmetry_multiplicity
 _atom_site_fract_x
 _atom_site_fract_y
 _atom_site_fract_z
 _atom_site_occupancy
  V  V0  1  0.75001102  0.24999937  0.49999104  1
  V  V1  1  0.24999615  0.75000053  0.50000737  1
  S  S2  1  0.41068525  0.31446578  0.15214231  1
  S  S3  1  0.91064657  0.81435070  0.15223225  1
  S  S4  1  0.08931204  0.18553322  0.84785846  1
  S  S5  1  0.58934898  0.68565040  0.84776858  1
