# generated using pymatgen
data_H11S2N3O7
_symmetry_space_group_name_H-M   'P 1'
_cell_length_a   9.95353939
_cell_length_b   13.24283763
_cell_length_c   6.15473671
_cell_angle_alpha   90.00000000
_cell_angle_beta   90.00000000
_cell_angle_gamma   90.00000000
_symmetry_Int_Tables_number   1
_chemical_formula_structural   H11S2N3O7
_chemical_formula_sum   'H44 S8 N12 O28'
_cell_volume   811.27496227
_cell_formula_units_Z   4
loop_
 _symmetry_equiv_pos_site_id
 _symmetry_equiv_pos_as_xyz
  1  'x, y, z'
loop_
 _atom_site_type_symbol
 _atom_site_label
 _atom_site_symmetry_multiplicity
 _atom_site_fract_x
 _atom_site_fract_y
 _atom_site_fract_z
 _atom_site_occupancy
  H  H0  1  0.05184799  0.35450575  0.71699885  1
  H  H1  1  0.01770719  0.97756391  0.68126384  1
  H  H2  1  0.07111644  0.61769738  0.03375838  1
  H  H3  1  0.06264232  0.32223630  0.17893917  1
  H  H4  1  0.08865185  0.58861005  0.30777822  1
  H  H5  1  0.08047700  0.09428609  0.70353840  1
  H  H6  1  0.13429251  0.20659787  0.23153759  1
  H  H7  1  0.15945933  0.99987692  0.83438333  1
  H  H8  1  0.16875511  0.00601114  0.56322435  1
  H  H9  1  0.18599500  0.31241471  0.36332806  1
  H  H10  1  0.22291226  0.29556205  0.10109247  1
  H  H11  1  0.27708774  0.79556205  0.60109247  1
  H  H12  1  0.31400500  0.81241471  0.86332806  1
  H  H13  1  0.33124489  0.50601114  0.06322435  1
  H  H14  1  0.34054067  0.49987692  0.33438333  1
  H  H15  1  0.36570749  0.70659787  0.73153759  1
  H  H16  1  0.41952300  0.59428609  0.20353840  1
  H  H17  1  0.41134815  0.08861005  0.80777822  1
  H  H18  1  0.43735768  0.82223630  0.67893917  1
  H  H19  1  0.42888356  0.11769738  0.53375838  1
  H  H20  1  0.48229281  0.47756391  0.18126384  1
  H  H21  1  0.44815201  0.85450575  0.21699885  1
  H  H22  1  0.55184799  0.14549425  0.71699885  1
  H  H23  1  0.51770719  0.52243609  0.68126384  1
  H  H24  1  0.57111644  0.88230262  0.03375838  1
  H  H25  1  0.56264232  0.17776370  0.17893917  1
  H  H26  1  0.58865185  0.91138995  0.30777822  1
  H  H27  1  0.58047700  0.40571391  0.70353840  1
  H  H28  1  0.63429251  0.29340213  0.23153759  1
  H  H29  1  0.65945933  0.50012308  0.83438333  1
  H  H30  1  0.66875511  0.49398886  0.56322435  1
  H  H31  1  0.68599500  0.18758529  0.36332806  1
  H  H32  1  0.72291226  0.20443795  0.10109247  1
  H  H33  1  0.77708774  0.70443795  0.60109247  1
  H  H34  1  0.81400500  0.68758529  0.86332806  1
  H  H35  1  0.83124489  0.99398886  0.06322435  1
  H  H36  1  0.84054067  0.00012308  0.33438333  1
  H  H37  1  0.86570749  0.79340213  0.73153759  1
  H  H38  1  0.91952300  0.90571391  0.20353840  1
  H  H39  1  0.91134815  0.41138995  0.80777822  1
  H  H40  1  0.93735768  0.67776370  0.67893917  1
  H  H41  1  0.92888356  0.38230262  0.53375838  1
  H  H42  1  0.98229281  0.02243609  0.18126384  1
  H  H43  1  0.94815201  0.64549425  0.21699885  1
  S  S44  1  0.12883221  0.76441907  0.22025473  1
  S  S45  1  0.20229324  0.53521744  0.70277647  1
  S  S46  1  0.29770676  0.03521744  0.20277647  1
  S  S47  1  0.37116779  0.26441907  0.72025473  1
  S  S48  1  0.62883221  0.73558093  0.22025473  1
  S  S49  1  0.70229324  0.96478256  0.70277647  1
  S  S50  1  0.79770676  0.46478256  0.20277647  1
  S  S51  1  0.87116779  0.23558093  0.72025473  1
  N  N52  1  0.05099018  0.64101249  0.19461210  1
  N  N53  1  0.10604233  0.01908231  0.69570214  1
  N  N54  1  0.15061983  0.28455487  0.21835746  1
  N  N55  1  0.34938017  0.78455487  0.71835746  1
  N  N56  1  0.39395767  0.51908231  0.19570214  1
  N  N57  1  0.44900982  0.14101249  0.69461210  1
  N  N58  1  0.55099018  0.85898751  0.19461210  1
  N  N59  1  0.60604233  0.48091769  0.69570214  1
  N  N60  1  0.65061983  0.21544513  0.21835746  1
  N  N61  1  0.84938017  0.71544513  0.71835746  1
  N  N62  1  0.89395767  0.98091769  0.19570214  1
  N  N63  1  0.94900982  0.35898751  0.69461210  1
  O  O64  1  0.07610021  0.81608336  0.03031054  1
  O  O65  1  0.07991523  0.80139564  0.42831919  1
  O  O66  1  0.11065825  0.62156346  0.75073015  1
  O  O67  1  0.15508866  0.07256340  0.19603459  1
  O  O68  1  0.16721103  0.49104452  0.48527944  1
  O  O69  1  0.18928602  0.45799985  0.87739439  1
  O  O70  1  0.22964505  0.23752284  0.71179013  1
  O  O71  1  0.27035495  0.73752284  0.21179013  1
  O  O72  1  0.31071398  0.95799985  0.37739439  1
  O  O73  1  0.33278897  0.99104452  0.98527944  1
  O  O74  1  0.34491134  0.57256340  0.69603459  1
  O  O75  1  0.38934175  0.12156346  0.25073015  1
  O  O76  1  0.42008477  0.30139564  0.92831919  1
  O  O77  1  0.42389979  0.31608336  0.53031054  1
  O  O78  1  0.57610021  0.68391664  0.03031054  1
  O  O79  1  0.57991523  0.69860436  0.42831919  1
  O  O80  1  0.61065825  0.87843654  0.75073015  1
  O  O81  1  0.65508866  0.42743660  0.19603459  1
  O  O82  1  0.66721103  0.00895548  0.48527944  1
  O  O83  1  0.68928602  0.04200015  0.87739439  1
  O  O84  1  0.72964505  0.26247716  0.71179013  1
  O  O85  1  0.77035495  0.76247716  0.21179013  1
  O  O86  1  0.81071398  0.54200015  0.37739439  1
  O  O87  1  0.83278897  0.50895548  0.98527944  1
  O  O88  1  0.84491134  0.92743660  0.69603459  1
  O  O89  1  0.88934175  0.37843654  0.25073015  1
  O  O90  1  0.92008477  0.19860436  0.92831919  1
  O  O91  1  0.92389979  0.18391664  0.53031054  1
