# generated using pymatgen
data_Li2MnVP2(HO5)2
_symmetry_space_group_name_H-M   'P 1'
_cell_length_a   5.49881416
_cell_length_b   19.87060585
_cell_length_c   5.16412614
_cell_angle_alpha   81.96637339
_cell_angle_beta   99.60256692
_cell_angle_gamma   97.19793636
_symmetry_Int_Tables_number   1
_chemical_formula_structural   Li2MnVP2(HO5)2
_chemical_formula_sum   'Li6 Mn3 V3 P6 H6 O30'
_cell_volume   547.87726726
_cell_formula_units_Z   3
loop_
 _symmetry_equiv_pos_site_id
 _symmetry_equiv_pos_as_xyz
  1  'x, y, z'
loop_
 _atom_site_type_symbol
 _atom_site_label
 _atom_site_symmetry_multiplicity
 _atom_site_fract_x
 _atom_site_fract_y
 _atom_site_fract_z
 _atom_site_occupancy
  Li  Li0  1  0.45047200  0.94049225  0.86218801  1
  Li  Li1  1  0.11436668  0.27396803  0.19678345  1
  Li  Li2  1  0.21184146  0.39205539  0.47313411  1
  Li  Li3  1  0.78798948  0.61069534  0.52862346  1
  Li  Li4  1  0.88507356  0.72439123  0.80115968  1
  Li  Li5  1  0.55063770  0.05908257  0.13555262  1
  Mn  Mn6  1  0.16970105  0.83295375  0.32912111  1
  Mn  Mn7  1  0.33745608  0.66685603  0.66617033  1
  Mn  Mn8  1  0.83299805  0.16643916  0.66599076  1
  V  V9  1  -0.00002424  0.99979068  0.99866353  1
  V  V10  1  0.49701847  0.50092269  0.00396046  1
  V  V11  1  0.66329482  0.33277834  0.33762076  1
  P  P12  1  0.04652425  0.58847730  0.14895602  1
  P  P13  1  0.37756145  0.25568829  0.81786991  1
  P  P14  1  0.28744150  0.07756298  0.51526702  1
  P  P15  1  0.71347502  0.92181449  0.48108938  1
  P  P16  1  0.62963708  0.74505622  0.18061782  1
  P  P17  1  0.94482042  0.41158783  0.85750210  1
  H  H18  1  0.04520034  0.88615679  0.86417896  1
  H  H19  1  0.29253028  0.77827093  0.80171700  1
  H  H20  1  0.38202774  0.55616893  0.53048329  1
  H  H21  1  0.61188218  0.44626550  0.46935645  1
  H  H22  1  0.71075077  0.21895695  0.19893619  1
  H  H23  1  0.95626093  0.11366511  0.13367288  1
  O  O24  1  0.01955797  0.62549214  0.86484151  1
  O  O25  1  0.13514464  0.90749126  0.02325540  1
  O  O26  1  0.10654817  0.64262763  0.34956716  1
  O  O27  1  0.20220496  0.75734345  0.64110078  1
  O  O28  1  0.11448846  0.22138716  0.86413712  1
  O  O29  1  0.20165355  0.44868987  0.80615045  1
  O  O30  1  0.09003519  0.12792387  0.45077685  1
  O  O31  1  0.25388937  0.53995813  0.20326502  1
  O  O32  1  0.45009976  0.88726662  0.52630897  1
  O  O33  1  0.42893649  0.79466147  0.11812502  1
  O  O34  1  0.46956287  0.57676491  0.69059678  1
  O  O35  1  0.57137854  0.68957245  0.98411961  1
  O  O36  1  0.23391180  0.02296112  0.31878702  1
  O  O37  1  0.29752479  0.03963678  0.80320204  1
  O  O38  1  0.36550548  0.29342859  0.52957150  1
  O  O39  1  0.65260979  0.70819642  0.46578917  1
  O  O40  1  0.70235296  0.96031830  0.19421596  1
  O  O41  1  0.76487377  0.97586347  0.67949561  1
  O  O42  1  0.43021501  0.31065299  0.01265088  1
  O  O43  1  0.52857895  0.42527594  0.30986269  1
  O  O44  1  0.57560673  0.20549412  0.88107365  1
  O  O45  1  0.55042828  0.11159136  0.46897748  1
  O  O46  1  0.73876489  0.46021974  0.80455857  1
  O  O47  1  0.91273978  0.87197104  0.54407835  1
  O  O48  1  0.79292310  0.55067510  0.21073808  1
  O  O49  1  0.88924770  0.78080114  0.12319638  1
  O  O50  1  0.79956729  0.24002441  0.35934869  1
  O  O51  1  0.89315433  0.35847183  0.65692042  1
  O  O52  1  0.86692453  0.09258029  0.97342384  1
  O  O53  1  0.96263278  0.37256163  0.14324869  1
