# generated using pymatgen
data_V3(O2F)2
_symmetry_space_group_name_H-M   'P 1'
_cell_length_a   7.30419975
_cell_length_b   5.58295624
_cell_length_c   5.59124321
_cell_angle_alpha   72.54313994
_cell_angle_beta   72.89203570
_cell_angle_gamma   72.08332772
_symmetry_Int_Tables_number   1
_chemical_formula_structural   V3(O2F)2
_chemical_formula_sum   'V6 O8 F4'
_cell_volume   201.77226853
_cell_formula_units_Z   2
loop_
 _symmetry_equiv_pos_site_id
 _symmetry_equiv_pos_as_xyz
  1  'x, y, z'
loop_
 _atom_site_type_symbol
 _atom_site_label
 _atom_site_symmetry_multiplicity
 _atom_site_fract_x
 _atom_site_fract_y
 _atom_site_fract_z
 _atom_site_occupancy
  V  V0  1  0.83333300  0.66666700  0.66666700  1
  V  V1  1  0.68497930  0.36955729  0.29889738  1
  V  V2  1  0.33333300  0.66666700  0.66666700  1
  V  V3  1  0.16721993  0.31769923  0.31134148  1
  V  V4  1  0.49944607  0.01563377  0.02199252  1
  V  V5  1  0.98168670  0.96377571  0.03443562  1
  O  O6  1  0.33568937  0.36262989  0.95978596  1
  O  O7  1  0.95921353  0.23113172  0.22260251  1
  O  O8  1  0.63850565  0.55915415  0.55712604  1
  O  O9  1  0.70745347  0.10220128  0.11073049  1
  O  O10  1  0.02816135  0.77417885  0.77620796  1
  O  O11  1  0.66241578  0.64236994  0.02750536  1
  O  O12  1  0.33097663  0.97070311  0.37354704  1
  O  O13  1  0.00425122  0.69096406  0.30582864  1
  F  F14  1  0.66098224  0.04454179  0.63034197  1
  F  F15  1  0.28973428  0.90450220  0.91059916  1
  F  F16  1  0.37693272  0.42883080  0.42273384  1
  F  F17  1  0.00568376  0.28879121  0.70299203  1
